MODEL 1
REMARK VINA RESULT:     -11.8      0.000      0.000
REMARK SMILES Cc1ccc(NC(=O)C[C@H]([NH2+]Cc2cccnc2)C(=O)NCCCNC(=O)c2ccc(-c3c4nc(c(-c5cccc(S(=O)(=O)[O-])c5F)c5ccc([nH]5)c(-c5cccc(S(=O)(=O)[O-])c5F)c5nc(c(-c6cccc(S(=O)(=O)[O-])c6F)c6ccc3[nH]6)C=C5)C=C4)cc2)cc1Cl
REMARK SMILES IDX 23 1 22 2 21 3 19 4 20 5 10 7 9 8 7 9 6 10 8 12 5 13 1 14
REMARK SMILES IDX 2 15 3 16 92 17 4 18 91 19 93 20 11 21 12 24 13 25 14 26
REMARK SMILES IDX 18 27 15 28 17 29 16 30 24 31 25 32 26 33 27 35 28 36 29 37
REMARK SMILES IDX 90 38 30 39 89 40 31 41 32 42 33 43 83 44 34 45 88 46 82 47
REMARK SMILES IDX 84 48 35 49 87 50 81 51 80 52 36 54 68 55 48 56 67 57 49 58
REMARK SMILES IDX 52 59 66 60 85 61 50 62 51 63 65 65 86 66 53 67 37 68 38 69
REMARK SMILES IDX 46 70 39 71 41 72 47 73 40 74 42 75 43 76 44 77 45 78 69 79
REMARK SMILES IDX 70 80 78 81 71 82 73 83 79 84 72 85 74 86 75 87 76 88 77 89
REMARK SMILES IDX 54 90 55 91 63 92 56 93 58 94 64 95 57 96 59 97 60 98 61 99
REMARK SMILES IDX 62 100
REMARK H PARENT 21 6 6 11 11 22 11 23 25 34 84 53 52 64
REMARK Flexibility Score: inf
ROOT
ATOM      1  C   UNL A   1      34.687  21.571  26.746  1.00  0.00     0.042 C 
ENDROOT
BRANCH   1   2
ATOM      2  C   UNL A   1      33.465  20.811  26.227  1.00  0.00     0.118 C 
BRANCH   2   3
ATOM      3  N   UNL A   1      32.224  21.592  26.331  1.00  0.00    -0.351 N 
ATOM      4  C   UNL A   1      31.761  22.803  25.910  1.00  0.00     0.278 C 
ATOM      5  O   UNL A   1      30.603  23.069  26.279  1.00  0.00    -0.268 OA
ATOM      6  H   UNL A   1      31.540  21.108  26.848  1.00  0.00     0.163 HD
BRANCH   4   7
ATOM      7  C   UNL A   1      32.535  23.898  25.088  1.00  0.00     0.282 C 
BRANCH   7   8
ATOM      8  C   UNL A   1      33.141  23.451  23.777  1.00  0.00     0.175 C 
BRANCH   8   9
ATOM      9  C   UNL A   1      33.085  24.091  22.393  1.00  0.00     0.230 C 
ATOM     10  N   UNL A   1      32.568  25.245  21.924  1.00  0.00    -0.326 N 
ATOM     11  H   UNL A   1      32.717  25.308  20.952  1.00  0.00     0.169 HD
ATOM     12  O   UNL A   1      33.648  23.418  21.503  1.00  0.00    -0.274 OA
BRANCH  10  13
ATOM     13  C   UNL A   1      31.883  26.388  22.376  1.00  0.00     0.042 A 
ATOM     14  C   UNL A   1      29.914  30.053  23.646  1.00  0.00     0.046 C 
ATOM     15  C   UNL A   1      30.602  28.786  23.241  1.00  0.00    -0.032 A 
ATOM     16  C   UNL A   1      31.955  28.776  22.880  1.00  0.00     0.007 A 
ATOM     17  C   UNL A   1      29.913  27.584  23.190  1.00  0.00     0.046 A 
ATOM     18  C   UNL A   1      32.585  27.593  22.448  1.00  0.00     0.026 A 
ATOM     19  C   UNL A   1      30.574  26.420  22.802  1.00  0.00     0.047 A 
ATOM     20  Cl  UNL A   1      28.242  27.446  23.619  1.00  0.00    -0.084 Cl
ENDBRANCH  10  13
ENDBRANCH   8   9
ENDBRANCH   7   8
BRANCH   7  21
ATOM     21  N   UNL A   1      33.337  24.738  25.993  1.00  0.00    -0.332 N 
ATOM     22  H   UNL A   1      34.072  24.140  26.373  1.00  0.00     0.347 HD
ATOM     23  H   UNL A   1      32.643  25.105  26.643  1.00  0.00     0.347 HD
BRANCH  21  24
ATOM     24  C   UNL A   1      33.991  25.937  25.496  1.00  0.00     0.299 C 
BRANCH  24  25
ATOM     25  C   UNL A   1      33.284  27.180  25.990  1.00  0.00     0.024 A 
ATOM     26  C   UNL A   1      31.998  27.147  26.540  1.00  0.00     0.013 A 
ATOM     27  C   UNL A   1      33.924  28.419  25.979  1.00  0.00     0.120 A 
ATOM     28  C   UNL A   1      31.439  28.305  27.080  1.00  0.00     0.021 A 
ATOM     29  N   UNL A   1      33.400  29.565  26.474  1.00  0.00    -0.264 NA
ATOM     30  C   UNL A   1      32.176  29.477  27.036  1.00  0.00     0.111 A 
ENDBRANCH  24  25
ENDBRANCH  21  24
ENDBRANCH   7  21
ENDBRANCH   4   7
ENDBRANCH   2   3
ENDBRANCH   1   2
BRANCH   1  31
ATOM     31  C   UNL A   1      35.769  21.948  25.749  1.00  0.00     0.118 C 
BRANCH  31  32
ATOM     32  N   UNL A   1      36.850  20.982  25.691  1.00  0.00    -0.352 N 
ATOM     33  C   UNL A   1      38.217  21.127  25.767  1.00  0.00     0.251 C 
ATOM     34  H   UNL A   1      36.551  20.051  25.577  1.00  0.00     0.163 HD
ATOM     35  O   UNL A   1      38.902  20.132  25.525  1.00  0.00    -0.269 OA
BRANCH  33  36
ATOM     36  C   UNL A   1      38.898  22.408  26.116  1.00  0.00     0.039 A 
ATOM     37  C   UNL A   1      40.041  22.343  26.929  1.00  0.00     0.014 A 
ATOM     38  C   UNL A   1      38.417  23.667  25.754  1.00  0.00     0.014 A 
ATOM     39  C   UNL A   1      40.689  23.513  27.349  1.00  0.00     0.010 A 
ATOM     40  C   UNL A   1      39.130  24.827  26.077  1.00  0.00     0.010 A 
ATOM     41  C   UNL A   1      40.253  24.773  26.911  1.00  0.00    -0.014 A 
BRANCH  41  42
ATOM     42  C   UNL A   1      40.939  26.023  27.351  1.00  0.00     0.031 A 
ATOM     43  C   UNL A   1      42.374  26.297  26.964  1.00  0.00     0.074 A 
ATOM     44  C   UNL A   1      40.287  26.905  28.137  1.00  0.00     0.049 A 
ATOM     45  N   UNL A   1      43.120  27.340  27.237  1.00  0.00    -0.248 NA
ATOM     46  C   UNL A   1      43.076  25.255  26.196  1.00  0.00     0.031 C 
ATOM     47  C   UNL A   1      38.932  26.726  28.664  1.00  0.00     0.029 A 
ATOM     48  N   UNL A   1      40.677  28.123  28.639  1.00  0.00    -0.354 N 
ATOM     49  C   UNL A   1      44.378  27.063  26.710  1.00  0.00     0.074 A 
ATOM     50  C   UNL A   1      44.309  25.736  26.141  1.00  0.00     0.031 C 
ATOM     51  C   UNL A   1      38.595  27.803  29.390  1.00  0.00     0.029 A 
ATOM     52  C   UNL A   1      39.716  28.739  29.406  1.00  0.00     0.049 A 
ATOM     53  H   UNL A   1      41.562  28.518  28.464  1.00  0.00     0.167 HD
ATOM     54  C   UNL A   1      45.481  27.849  26.668  1.00  0.00     0.034 A 
ATOM     55  C   UNL A   1      39.728  29.925  30.047  1.00  0.00     0.034 A 
ATOM     56  C   UNL A   1      45.537  29.188  27.190  1.00  0.00     0.049 A 
ATOM     57  C   UNL A   1      40.939  30.809  29.926  1.00  0.00     0.074 A 
ATOM     58  C   UNL A   1      46.576  30.099  27.120  1.00  0.00     0.029 A 
ATOM     59  N   UNL A   1      44.509  29.810  27.883  1.00  0.00    -0.354 N 
ATOM     60  N   UNL A   1      42.062  30.591  29.284  1.00  0.00    -0.248 NA
ATOM     61  C   UNL A   1      40.867  32.125  30.577  1.00  0.00     0.031 C 
ATOM     62  C   UNL A   1      46.187  31.263  27.792  1.00  0.00     0.029 A 
ATOM     63  C   UNL A   1      44.891  31.090  28.250  1.00  0.00     0.049 A 
ATOM     64  H   UNL A   1      43.636  29.403  28.084  1.00  0.00     0.167 HD
ATOM     65  C   UNL A   1      42.812  31.752  29.422  1.00  0.00     0.074 A 
ATOM     66  C   UNL A   1      42.004  32.682  30.185  1.00  0.00     0.031 C 
ATOM     67  C   UNL A   1      44.062  32.023  28.970  1.00  0.00     0.034 A 
BRANCH  54  68
ATOM     68  C   UNL A   1      46.710  27.300  25.983  1.00  0.00     0.023 A 
ATOM     69  C   UNL A   1      46.862  27.458  24.589  1.00  0.00     0.012 A 
ATOM     70  C   UNL A   1      47.741  26.683  26.721  1.00  0.00     0.148 A 
ATOM     71  C   UNL A   1      47.995  26.974  23.936  1.00  0.00     0.002 A 
ATOM     72  C   UNL A   1      48.890  26.249  26.069  1.00  0.00     0.091 A 
ATOM     73  F   UNL A   1      47.575  26.526  28.042  1.00  0.00    -0.205 F 
ATOM     74  C   UNL A   1      49.012  26.380  24.677  1.00  0.00     0.022 A 
BRANCH  72  75
ATOM     75  S   UNL A   1      50.295  25.546  26.942  1.00  0.00     0.127 S 
ATOM     76  O   UNL A   1      51.228  25.296  25.844  1.00  0.00    -0.237 OA
ATOM     77  O   UNL A   1      50.682  26.642  27.832  1.00  0.00    -0.237 OA
ATOM     78  O   UNL A   1      49.796  24.360  27.620  1.00  0.00    -0.744 OA
ENDBRANCH  72  75
ENDBRANCH  54  68
BRANCH  55  79
ATOM     79  C   UNL A   1      38.522  30.380  30.797  1.00  0.00     0.023 A 
ATOM     80  C   UNL A   1      38.397  30.074  32.166  1.00  0.00     0.012 A 
ATOM     81  C   UNL A   1      37.514  31.134  30.167  1.00  0.00     0.148 A 
ATOM     82  C   UNL A   1      37.272  30.478  32.886  1.00  0.00     0.002 A 
ATOM     83  C   UNL A   1      36.424  31.585  30.905  1.00  0.00     0.091 A 
ATOM     84  F   UNL A   1      37.645  31.406  28.862  1.00  0.00    -0.205 F 
ATOM     85  C   UNL A   1      36.292  31.241  32.259  1.00  0.00     0.022 A 
BRANCH  83  86
ATOM     86  S   UNL A   1      35.191  32.690  30.211  1.00  0.00     0.127 S 
ATOM     87  O   UNL A   1      34.320  32.926  31.361  1.00  0.00    -0.237 OA
ATOM     88  O   UNL A   1      36.007  33.839  29.811  1.00  0.00    -0.237 OA
ATOM     89  O   UNL A   1      34.593  31.967  29.101  1.00  0.00    -0.744 OA
ENDBRANCH  83  86
ENDBRANCH  55  79
BRANCH  67  90
ATOM     90  C   UNL A   1      44.621  33.394  29.250  1.00  0.00     0.023 A 
ATOM     91  C   UNL A   1      45.226  33.671  30.493  1.00  0.00     0.012 A 
ATOM     92  C   UNL A   1      44.581  34.399  28.263  1.00  0.00     0.148 A 
ATOM     93  C   UNL A   1      45.734  34.939  30.767  1.00  0.00     0.002 A 
ATOM     94  C   UNL A   1      45.139  35.645  28.524  1.00  0.00     0.091 A 
ATOM     95  F   UNL A   1      43.986  34.126  27.092  1.00  0.00    -0.205 F 
ATOM     96  C   UNL A   1      45.699  35.923  29.781  1.00  0.00     0.022 A 
BRANCH  94  97
ATOM     97  S   UNL A   1      45.227  36.934  27.277  1.00  0.00     0.127 S 
ATOM     98  O   UNL A   1      43.814  37.161  26.982  1.00  0.00    -0.237 OA
ATOM     99  O   UNL A   1      45.881  38.025  28.002  1.00  0.00    -0.237 OA
ATOM    100  O   UNL A   1      46.017  36.379  26.187  1.00  0.00    -0.744 OA
ENDBRANCH  94  97
ENDBRANCH  67  90
ENDBRANCH  41  42
ENDBRANCH  33  36
ENDBRANCH  31  32
ENDBRANCH   1  31
TORSDOF 19
ENDMDL
MODEL 2
REMARK VINA RESULT:     -11.6      4.958     10.072
REMARK SMILES Cc1ccc(NC(=O)C[C@H]([NH2+]Cc2cccnc2)C(=O)NCCCNC(=O)c2ccc(-c3c4nc(c(-c5cccc(S(=O)(=O)[O-])c5F)c5ccc([nH]5)c(-c5cccc(S(=O)(=O)[O-])c5F)c5nc(c(-c6cccc(S(=O)(=O)[O-])c6F)c6ccc3[nH]6)C=C5)C=C4)cc2)cc1Cl
REMARK SMILES IDX 23 1 22 2 21 3 19 4 20 5 10 7 9 8 7 9 6 10 8 12 5 13 1 14
REMARK SMILES IDX 2 15 3 16 92 17 4 18 91 19 93 20 11 21 12 24 13 25 14 26
REMARK SMILES IDX 18 27 15 28 17 29 16 30 24 31 25 32 26 33 27 35 28 36 29 37
REMARK SMILES IDX 90 38 30 39 89 40 31 41 32 42 33 43 83 44 34 45 88 46 82 47
REMARK SMILES IDX 84 48 35 49 87 50 81 51 80 52 36 54 68 55 48 56 67 57 49 58
REMARK SMILES IDX 52 59 66 60 85 61 50 62 51 63 65 65 86 66 53 67 37 68 38 69
REMARK SMILES IDX 46 70 39 71 41 72 47 73 40 74 42 75 43 76 44 77 45 78 69 79
REMARK SMILES IDX 70 80 78 81 71 82 73 83 79 84 72 85 74 86 75 87 76 88 77 89
REMARK SMILES IDX 54 90 55 91 63 92 56 93 58 94 64 95 57 96 59 97 60 98 61 99
REMARK SMILES IDX 62 100
REMARK H PARENT 21 6 6 11 11 22 11 23 25 34 84 53 52 64
REMARK Flexibility Score: inf
ROOT
ATOM      1  C   UNL A   1      31.792  29.123  27.422  1.00  0.00     0.042 C 
ENDROOT
BRANCH   1   2
ATOM      2  C   UNL A   1      31.583  27.627  27.174  1.00  0.00     0.118 C 
BRANCH   2   3
ATOM      3  N   UNL A   1      32.105  27.190  25.871  1.00  0.00    -0.351 N 
ATOM      4  C   UNL A   1      31.756  26.304  24.896  1.00  0.00     0.278 C 
ATOM      5  O   UNL A   1      32.551  26.249  23.941  1.00  0.00    -0.268 OA
ATOM      6  H   UNL A   1      32.934  27.668  25.640  1.00  0.00     0.163 HD
BRANCH   4   7
ATOM      7  C   UNL A   1      30.527  25.323  24.880  1.00  0.00     0.282 C 
BRANCH   7   8
ATOM      8  C   UNL A   1      30.824  23.868  25.161  1.00  0.00     0.175 C 
BRANCH   8   9
ATOM      9  C   UNL A   1      31.223  23.174  26.460  1.00  0.00     0.230 C 
ATOM     10  N   UNL A   1      32.334  22.523  26.862  1.00  0.00    -0.326 N 
ATOM     11  H   UNL A   1      32.213  22.192  27.781  1.00  0.00     0.169 HD
ATOM     12  O   UNL A   1      30.348  23.227  27.350  1.00  0.00    -0.274 OA
BRANCH  10  13
ATOM     13  C   UNL A   1      33.610  22.164  26.389  1.00  0.00     0.042 A 
ATOM     14  C   UNL A   1      37.450  20.908  24.776  1.00  0.00     0.046 C 
ATOM     15  C   UNL A   1      36.136  21.326  25.361  1.00  0.00    -0.032 A 
ATOM     16  C   UNL A   1      35.021  20.479  25.325  1.00  0.00     0.007 A 
ATOM     17  C   UNL A   1      35.977  22.576  25.939  1.00  0.00     0.046 A 
ATOM     18  C   UNL A   1      33.773  20.896  25.828  1.00  0.00     0.026 A 
ATOM     19  C   UNL A   1      34.742  22.945  26.470  1.00  0.00     0.047 A 
ATOM     20  Cl  UNL A   1      37.270  23.720  26.063  1.00  0.00    -0.084 Cl
ENDBRANCH  10  13
ENDBRANCH   8   9
ENDBRANCH   7   8
BRANCH   7  21
ATOM     21  N   UNL A   1      29.622  25.663  23.769  1.00  0.00    -0.332 N 
ATOM     22  H   UNL A   1      29.282  24.780  23.387  1.00  0.00     0.347 HD
ATOM     23  H   UNL A   1      30.204  26.246  23.167  1.00  0.00     0.347 HD
BRANCH  21  24
ATOM     24  C   UNL A   1      28.452  26.495  24.002  1.00  0.00     0.299 C 
BRANCH  24  25
ATOM     25  C   UNL A   1      28.553  27.793  23.233  1.00  0.00     0.024 A 
ATOM     26  C   UNL A   1      27.517  28.733  23.199  1.00  0.00     0.013 A 
ATOM     27  C   UNL A   1      29.731  28.143  22.571  1.00  0.00     0.120 A 
ATOM     28  C   UNL A   1      27.706  29.961  22.566  1.00  0.00     0.021 A 
ATOM     29  N   UNL A   1      29.938  29.317  21.928  1.00  0.00    -0.264 NA
ATOM     30  C   UNL A   1      28.928  30.210  21.960  1.00  0.00     0.111 A 
ENDBRANCH  24  25
ENDBRANCH  21  24
ENDBRANCH   7  21
ENDBRANCH   4   7
ENDBRANCH   2   3
ENDBRANCH   1   2
BRANCH   1  31
ATOM     31  C   UNL A   1      32.671  29.891  26.450  1.00  0.00     0.118 C 
BRANCH  31  32
ATOM     32  N   UNL A   1      32.675  31.321  26.694  1.00  0.00    -0.352 N 
ATOM     33  C   UNL A   1      33.524  32.127  27.417  1.00  0.00     0.251 C 
ATOM     34  H   UNL A   1      31.933  31.803  26.263  1.00  0.00     0.163 HD
ATOM     35  O   UNL A   1      33.183  33.300  27.580  1.00  0.00    -0.269 OA
BRANCH  33  36
ATOM     36  C   UNL A   1      34.811  31.659  28.008  1.00  0.00     0.039 A 
ATOM     37  C   UNL A   1      34.848  30.370  28.563  1.00  0.00     0.014 A 
ATOM     38  C   UNL A   1      35.952  32.456  28.117  1.00  0.00     0.014 A 
ATOM     39  C   UNL A   1      36.006  29.893  29.194  1.00  0.00     0.010 A 
ATOM     40  C   UNL A   1      37.141  31.938  28.642  1.00  0.00     0.010 A 
ATOM     41  C   UNL A   1      37.177  30.666  29.224  1.00  0.00    -0.014 A 
BRANCH  41  42
ATOM     42  C   UNL A   1      38.415  30.165  29.890  1.00  0.00     0.031 A 
ATOM     43  C   UNL A   1      38.786  30.624  31.282  1.00  0.00     0.074 A 
ATOM     44  C   UNL A   1      39.236  29.320  29.232  1.00  0.00     0.049 A 
ATOM     45  N   UNL A   1      39.809  30.274  32.022  1.00  0.00    -0.248 NA
ATOM     46  C   UNL A   1      37.914  31.626  31.916  1.00  0.00     0.031 C 
ATOM     47  C   UNL A   1      39.051  28.866  27.852  1.00  0.00     0.029 A 
ATOM     48  N   UNL A   1      40.395  28.700  29.630  1.00  0.00    -0.354 N 
ATOM     49  C   UNL A   1      39.723  31.037  33.183  1.00  0.00     0.074 A 
ATOM     50  C   UNL A   1      38.574  31.901  33.031  1.00  0.00     0.031 C 
ATOM     51  C   UNL A   1      40.044  28.023  27.528  1.00  0.00     0.029 A 
ATOM     52  C   UNL A   1      40.951  27.894  28.664  1.00  0.00     0.049 A 
ATOM     53  H   UNL A   1      40.791  28.821  30.524  1.00  0.00     0.167 HD
ATOM     54  C   UNL A   1      40.503  31.001  34.292  1.00  0.00     0.034 A 
ATOM     55  C   UNL A   1      42.063  27.131  28.687  1.00  0.00     0.034 A 
ATOM     56  C   UNL A   1      41.617  30.109  34.465  1.00  0.00     0.049 A 
ATOM     57  C   UNL A   1      42.872  27.055  29.954  1.00  0.00     0.074 A 
ATOM     58  C   UNL A   1      42.415  29.932  35.581  1.00  0.00     0.029 A 
ATOM     59  N   UNL A   1      42.094  29.242  33.494  1.00  0.00    -0.354 N 
ATOM     60  N   UNL A   1      42.677  27.667  31.098  1.00  0.00    -0.248 NA
ATOM     61  C   UNL A   1      44.027  26.146  29.950  1.00  0.00     0.031 C 
ATOM     62  C   UNL A   1      43.391  28.977  35.276  1.00  0.00     0.029 A 
ATOM     63  C   UNL A   1      43.178  28.532  33.982  1.00  0.00     0.049 A 
ATOM     64  H   UNL A   1      41.718  29.144  32.589  1.00  0.00     0.167 HD
ATOM     65  C   UNL A   1      43.659  27.189  31.958  1.00  0.00     0.074 A 
ATOM     66  C   UNL A   1      44.430  26.216  31.210  1.00  0.00     0.031 C 
ATOM     67  C   UNL A   1      43.909  27.533  33.245  1.00  0.00     0.034 A 
BRANCH  54  68
ATOM     68  C   UNL A   1      40.144  31.922  35.434  1.00  0.00     0.023 A 
ATOM     69  C   UNL A   1      40.819  33.154  35.575  1.00  0.00     0.012 A 
ATOM     70  C   UNL A   1      39.105  31.601  36.330  1.00  0.00     0.148 A 
ATOM     71  C   UNL A   1      40.495  34.029  36.612  1.00  0.00     0.002 A 
ATOM     72  C   UNL A   1      38.754  32.502  37.330  1.00  0.00     0.091 A 
ATOM     73  F   UNL A   1      38.485  30.421  36.193  1.00  0.00    -0.205 F 
ATOM     74  C   UNL A   1      39.457  33.708  37.481  1.00  0.00     0.022 A 
BRANCH  72  75
ATOM     75  S   UNL A   1      37.377  32.222  38.450  1.00  0.00     0.127 S 
ATOM     76  O   UNL A   1      36.312  32.990  37.805  1.00  0.00    -0.237 OA
ATOM     77  O   UNL A   1      37.211  30.769  38.374  1.00  0.00    -0.237 OA
ATOM     78  O   UNL A   1      37.806  32.718  39.749  1.00  0.00    -0.744 OA
ENDBRANCH  72  75
ENDBRANCH  54  68
BRANCH  55  79
ATOM     79  C   UNL A   1      42.432  26.315  27.496  1.00  0.00     0.023 A 
ATOM     80  C   UNL A   1      43.193  26.896  26.461  1.00  0.00     0.012 A 
ATOM     81  C   UNL A   1      42.056  24.962  27.393  1.00  0.00     0.148 A 
ATOM     82  C   UNL A   1      43.540  26.157  25.330  1.00  0.00     0.002 A 
ATOM     83  C   UNL A   1      42.456  24.214  26.291  1.00  0.00     0.091 A 
ATOM     84  F   UNL A   1      41.323  24.430  28.380  1.00  0.00    -0.205 F 
ATOM     85  C   UNL A   1      43.181  24.815  25.250  1.00  0.00     0.022 A 
BRANCH  83  86
ATOM     86  S   UNL A   1      42.159  22.447  26.175  1.00  0.00     0.127 S 
ATOM     87  O   UNL A   1      42.745  21.963  27.424  1.00  0.00    -0.237 OA
ATOM     88  O   UNL A   1      40.696  22.391  26.120  1.00  0.00    -0.237 OA
ATOM     89  O   UNL A   1      42.820  22.015  24.955  1.00  0.00    -0.744 OA
ENDBRANCH  83  86
ENDBRANCH  55  79
BRANCH  67  90
ATOM     90  C   UNL A   1      45.039  26.823  33.947  1.00  0.00     0.023 A 
ATOM     91  C   UNL A   1      46.360  27.299  33.822  1.00  0.00     0.012 A 
ATOM     92  C   UNL A   1      44.784  25.704  34.763  1.00  0.00     0.148 A 
ATOM     93  C   UNL A   1      47.413  26.643  34.455  1.00  0.00     0.002 A 
ATOM     94  C   UNL A   1      45.832  25.088  35.436  1.00  0.00     0.091 A 
ATOM     95  F   UNL A   1      43.524  25.252  34.857  1.00  0.00    -0.205 F 
ATOM     96  C   UNL A   1      47.149  25.544  35.270  1.00  0.00     0.022 A 
BRANCH  94  97
ATOM     97  S   UNL A   1      45.567  23.730  36.582  1.00  0.00     0.127 S 
ATOM     98  O   UNL A   1      44.685  24.343  37.572  1.00  0.00    -0.237 OA
ATOM     99  O   UNL A   1      44.924  22.726  35.733  1.00  0.00    -0.237 OA
ATOM    100  O   UNL A   1      46.889  23.353  37.064  1.00  0.00    -0.744 OA
ENDBRANCH  94  97
ENDBRANCH  67  90
ENDBRANCH  41  42
ENDBRANCH  33  36
ENDBRANCH  31  32
ENDBRANCH   1  31
TORSDOF 19
ENDMDL
MODEL 3
REMARK VINA RESULT:     -11.6      4.763      9.515
REMARK SMILES Cc1ccc(NC(=O)C[C@H]([NH2+]Cc2cccnc2)C(=O)NCCCNC(=O)c2ccc(-c3c4nc(c(-c5cccc(S(=O)(=O)[O-])c5F)c5ccc([nH]5)c(-c5cccc(S(=O)(=O)[O-])c5F)c5nc(c(-c6cccc(S(=O)(=O)[O-])c6F)c6ccc3[nH]6)C=C5)C=C4)cc2)cc1Cl
REMARK SMILES IDX 23 1 22 2 21 3 19 4 20 5 10 7 9 8 7 9 6 10 8 12 5 13 1 14
REMARK SMILES IDX 2 15 3 16 92 17 4 18 91 19 93 20 11 21 12 24 13 25 14 26
REMARK SMILES IDX 18 27 15 28 17 29 16 30 24 31 25 32 26 33 27 35 28 36 29 37
REMARK SMILES IDX 90 38 30 39 89 40 31 41 32 42 33 43 83 44 34 45 88 46 82 47
REMARK SMILES IDX 84 48 35 49 87 50 81 51 80 52 36 54 68 55 48 56 67 57 49 58
REMARK SMILES IDX 52 59 66 60 85 61 50 62 51 63 65 65 86 66 53 67 37 68 38 69
REMARK SMILES IDX 46 70 39 71 41 72 47 73 40 74 42 75 43 76 44 77 45 78 69 79
REMARK SMILES IDX 70 80 78 81 71 82 73 83 79 84 72 85 74 86 75 87 76 88 77 89
REMARK SMILES IDX 54 90 55 91 63 92 56 93 58 94 64 95 57 96 59 97 60 98 61 99
REMARK SMILES IDX 62 100
REMARK H PARENT 21 6 6 11 11 22 11 23 25 34 84 53 52 64
REMARK Flexibility Score: inf
ROOT
ATOM      1  C   UNL A   1      32.086  28.057  26.346  1.00  0.00     0.042 C 
ENDROOT
BRANCH   1   2
ATOM      2  C   UNL A   1      32.428  26.587  26.090  1.00  0.00     0.118 C 
BRANCH   2   3
ATOM      3  N   UNL A   1      31.400  25.668  26.600  1.00  0.00    -0.351 N 
ATOM      4  C   UNL A   1      31.212  24.321  26.692  1.00  0.00     0.278 C 
ATOM      5  O   UNL A   1      30.125  23.985  27.194  1.00  0.00    -0.268 OA
ATOM      6  H   UNL A   1      30.637  26.162  26.979  1.00  0.00     0.163 HD
BRANCH   4   7
ATOM      7  C   UNL A   1      32.166  23.179  26.183  1.00  0.00     0.282 C 
BRANCH   7   8
ATOM      8  C   UNL A   1      31.711  22.421  24.956  1.00  0.00     0.175 C 
BRANCH   8   9
ATOM      9  C   UNL A   1      32.009  22.661  23.479  1.00  0.00     0.230 C 
ATOM     10  N   UNL A   1      31.921  23.741  22.678  1.00  0.00    -0.326 N 
ATOM     11  H   UNL A   1      32.191  23.501  21.761  1.00  0.00     0.169 HD
ATOM     12  O   UNL A   1      32.439  21.651  22.881  1.00  0.00    -0.274 OA
BRANCH  10  13
ATOM     13  C   UNL A   1      31.567  25.103  22.729  1.00  0.00     0.042 A 
ATOM     14  C   UNL A   1      30.637  29.352  22.727  1.00  0.00     0.046 C 
ATOM     15  C   UNL A   1      30.968  27.892  22.760  1.00  0.00    -0.032 A 
ATOM     16  C   UNL A   1      32.247  27.428  22.426  1.00  0.00     0.007 A 
ATOM     17  C   UNL A   1      30.010  26.950  23.102  1.00  0.00     0.046 A 
ATOM     18  C   UNL A   1      32.540  26.051  22.406  1.00  0.00     0.026 A 
ATOM     19  C   UNL A   1      30.341  25.596  23.118  1.00  0.00     0.047 A 
ATOM     20  Cl  UNL A   1      28.393  27.380  23.546  1.00  0.00    -0.084 Cl
ENDBRANCH  10  13
ENDBRANCH   8   9
ENDBRANCH   7   8
BRANCH   7  21
ATOM     21  N   UNL A   1      32.708  22.425  27.325  1.00  0.00    -0.332 N 
ATOM     22  H   UNL A   1      32.561  21.437  27.121  1.00  0.00     0.347 HD
ATOM     23  H   UNL A   1      32.210  22.823  28.122  1.00  0.00     0.347 HD
BRANCH  21  24
ATOM     24  C   UNL A   1      34.104  22.569  27.704  1.00  0.00     0.299 C 
BRANCH  24  25
ATOM     25  C   UNL A   1      35.003  22.487  26.490  1.00  0.00     0.024 A 
ATOM     26  C   UNL A   1      35.726  23.585  26.012  1.00  0.00     0.013 A 
ATOM     27  C   UNL A   1      35.202  21.275  25.829  1.00  0.00     0.120 A 
ATOM     28  C   UNL A   1      36.624  23.424  24.956  1.00  0.00     0.021 A 
ATOM     29  N   UNL A   1      36.047  21.092  24.787  1.00  0.00    -0.264 NA
ATOM     30  C   UNL A   1      36.758  22.167  24.389  1.00  0.00     0.111 A 
ENDBRANCH  24  25
ENDBRANCH  21  24
ENDBRANCH   7  21
ENDBRANCH   4   7
ENDBRANCH   2   3
ENDBRANCH   1   2
BRANCH   1  31
ATOM     31  C   UNL A   1      32.992  29.115  25.740  1.00  0.00     0.118 C 
BRANCH  31  32
ATOM     32  N   UNL A   1      32.712  30.451  26.229  1.00  0.00    -0.352 N 
ATOM     33  C   UNL A   1      33.359  31.249  27.145  1.00  0.00     0.251 C 
ATOM     34  H   UNL A   1      31.911  30.864  25.833  1.00  0.00     0.163 HD
ATOM     35  O   UNL A   1      32.793  32.291  27.483  1.00  0.00    -0.269 OA
BRANCH  33  36
ATOM     36  C   UNL A   1      34.685  30.919  27.743  1.00  0.00     0.039 A 
ATOM     37  C   UNL A   1      34.859  29.638  28.288  1.00  0.00     0.014 A 
ATOM     38  C   UNL A   1      35.731  31.835  27.867  1.00  0.00     0.014 A 
ATOM     39  C   UNL A   1      36.057  29.285  28.925  1.00  0.00     0.010 A 
ATOM     40  C   UNL A   1      36.966  31.446  28.399  1.00  0.00     0.010 A 
ATOM     41  C   UNL A   1      37.137  30.180  28.971  1.00  0.00    -0.014 A 
BRANCH  41  42
ATOM     42  C   UNL A   1      38.416  29.812  29.644  1.00  0.00     0.031 A 
ATOM     43  C   UNL A   1      38.769  30.375  31.002  1.00  0.00     0.074 A 
ATOM     44  C   UNL A   1      39.291  28.995  29.020  1.00  0.00     0.049 A 
ATOM     45  N   UNL A   1      39.824  30.145  31.744  1.00  0.00    -0.248 NA
ATOM     46  C   UNL A   1      37.831  31.343  31.594  1.00  0.00     0.031 C 
ATOM     47  C   UNL A   1      39.125  28.453  27.669  1.00  0.00     0.029 A 
ATOM     48  N   UNL A   1      40.499  28.488  29.432  1.00  0.00    -0.354 N 
ATOM     49  C   UNL A   1      39.695  30.963  32.862  1.00  0.00     0.074 A 
ATOM     50  C   UNL A   1      38.482  31.729  32.681  1.00  0.00     0.031 C 
ATOM     51  C   UNL A   1      40.175  27.670  27.377  1.00  0.00     0.029 A 
ATOM     52  C   UNL A   1      41.103  27.673  28.503  1.00  0.00     0.049 A 
ATOM     53  H   UNL A   1      40.895  28.688  30.311  1.00  0.00     0.167 HD
ATOM     54  C   UNL A   1      40.488  31.048  33.958  1.00  0.00     0.034 A 
ATOM     55  C   UNL A   1      42.270  26.998  28.550  1.00  0.00     0.034 A 
ATOM     56  C   UNL A   1      41.669  30.253  34.161  1.00  0.00     0.049 A 
ATOM     57  C   UNL A   1      43.097  27.054  29.806  1.00  0.00     0.074 A 
ATOM     58  C   UNL A   1      42.492  30.200  35.273  1.00  0.00     0.029 A 
ATOM     59  N   UNL A   1      42.199  29.371  33.232  1.00  0.00    -0.354 N 
ATOM     60  N   UNL A   1      42.870  27.713  30.917  1.00  0.00    -0.248 NA
ATOM     61  C   UNL A   1      44.317  26.235  29.833  1.00  0.00     0.031 C 
ATOM     62  C   UNL A   1      43.534  29.305  35.005  1.00  0.00     0.029 A 
ATOM     63  C   UNL A   1      43.339  28.773  33.741  1.00  0.00     0.049 A 
ATOM     64  H   UNL A   1      41.820  29.195  32.341  1.00  0.00     0.167 HD
ATOM     65  C   UNL A   1      43.896  27.359  31.786  1.00  0.00     0.074 A 
ATOM     66  C   UNL A   1      44.729  26.407  31.081  1.00  0.00     0.031 C 
ATOM     67  C   UNL A   1      44.135  27.793  33.048  1.00  0.00     0.034 A 
BRANCH  54  68
ATOM     68  C   UNL A   1      40.075  32.002  35.053  1.00  0.00     0.023 A 
ATOM     69  C   UNL A   1      40.573  33.323  35.054  1.00  0.00     0.012 A 
ATOM     70  C   UNL A   1      39.151  31.616  36.045  1.00  0.00     0.148 A 
ATOM     71  C   UNL A   1      40.194  34.227  36.045  1.00  0.00     0.002 A 
ATOM     72  C   UNL A   1      38.739  32.540  37.001  1.00  0.00     0.091 A 
ATOM     73  F   UNL A   1      38.699  30.354  36.042  1.00  0.00    -0.205 F 
ATOM     74  C   UNL A   1      39.270  33.840  37.010  1.00  0.00     0.022 A 
BRANCH  72  75
ATOM     75  S   UNL A   1      37.491  32.166  38.237  1.00  0.00     0.127 S 
ATOM     76  O   UNL A   1      38.143  32.626  39.463  1.00  0.00    -0.237 OA
ATOM     77  O   UNL A   1      36.367  32.995  37.798  1.00  0.00    -0.237 OA
ATOM     78  O   UNL A   1      37.258  30.733  38.155  1.00  0.00    -0.744 OA
ENDBRANCH  72  75
ENDBRANCH  54  68
BRANCH  55  79
ATOM     79  C   UNL A   1      42.685  26.146  27.399  1.00  0.00     0.023 A 
ATOM     80  C   UNL A   1      43.553  26.672  26.421  1.00  0.00     0.012 A 
ATOM     81  C   UNL A   1      42.246  24.814  27.281  1.00  0.00     0.148 A 
ATOM     82  C   UNL A   1      43.946  25.899  25.329  1.00  0.00     0.002 A 
ATOM     83  C   UNL A   1      42.690  24.030  26.222  1.00  0.00     0.091 A 
ATOM     84  F   UNL A   1      41.413  24.335  28.214  1.00  0.00    -0.205 F 
ATOM     85  C   UNL A   1      43.524  24.576  25.235  1.00  0.00     0.022 A 
BRANCH  83  86
ATOM     86  S   UNL A   1      42.308  22.279  26.102  1.00  0.00     0.127 S 
ATOM     87  O   UNL A   1      43.049  21.894  24.902  1.00  0.00    -0.237 OA
ATOM     88  O   UNL A   1      42.859  21.764  27.358  1.00  0.00    -0.237 OA
ATOM     89  O   UNL A   1      40.860  22.197  26.006  1.00  0.00    -0.744 OA
ENDBRANCH  83  86
ENDBRANCH  55  79
BRANCH  67  90
ATOM     90  C   UNL A   1      45.323  27.210  33.769  1.00  0.00     0.023 A 
ATOM     91  C   UNL A   1      46.574  27.859  33.712  1.00  0.00     0.012 A 
ATOM     92  C   UNL A   1      45.190  26.037  34.538  1.00  0.00     0.148 A 
ATOM     93  C   UNL A   1      47.682  27.322  34.364  1.00  0.00     0.002 A 
ATOM     94  C   UNL A   1      46.287  25.537  35.230  1.00  0.00     0.091 A 
ATOM     95  F   UNL A   1      43.999  25.421  34.568  1.00  0.00    -0.205 F 
ATOM     96  C   UNL A   1      47.537  26.168  35.130  1.00  0.00     0.022 A 
BRANCH  94  97
ATOM     97  S   UNL A   1      46.164  24.115  36.319  1.00  0.00     0.127 S 
ATOM     98  O   UNL A   1      44.921  24.393  37.036  1.00  0.00    -0.237 OA
ATOM     99  O   UNL A   1      46.084  23.002  35.371  1.00  0.00    -0.237 OA
ATOM    100  O   UNL A   1      47.375  24.128  37.129  1.00  0.00    -0.744 OA
ENDBRANCH  94  97
ENDBRANCH  67  90
ENDBRANCH  41  42
ENDBRANCH  33  36
ENDBRANCH  31  32
ENDBRANCH   1  31
TORSDOF 19
ENDMDL
