MODEL 1
REMARK VINA RESULT:     -12.2      0.000      0.000
REMARK SMILES Cc1cc(C(=O)NC[C@@H]2CC[C@H](C(=O)NCCCNC(=O)c3ccc(-c4c5nc(c(-c6cccc(S(=O)(=O)[O-])c6F)c6ccc([nH]6)c(-c6cccc(S(=O)(=O)[O-])c6F)c6nc(c(-c7cccc(S(=O)(=O)[O-])c7F)c7ccc4[nH]7)C=C6)C=C5)cc3)O2)on1
REMARK SMILES IDX 17 1 16 2 15 3 13 4 14 5 12 7 9 8 10 9 85 10 11 11 8 12 7 13
REMARK SMILES IDX 5 14 6 15 4 17 1 18 2 19 3 20 87 21 86 22 18 23 19 24 20 25
REMARK SMILES IDX 21 27 22 28 23 29 84 30 24 31 83 32 25 33 26 34 27 35 77 36
REMARK SMILES IDX 28 37 82 38 76 39 78 40 29 41 81 42 75 43 74 44 30 46 62 47
REMARK SMILES IDX 42 48 61 49 43 50 46 51 60 52 79 53 44 54 45 55 59 57 80 58
REMARK SMILES IDX 47 59 31 60 32 61 40 62 33 63 35 64 41 65 34 66 36 67 37 68
REMARK SMILES IDX 38 69 39 70 63 71 64 72 72 73 65 74 67 75 73 76 66 77 68 78
REMARK SMILES IDX 69 79 70 80 71 81 48 82 49 83 57 84 50 85 52 86 58 87 51 88
REMARK SMILES IDX 53 89 54 90 55 91 56 92
REMARK H PARENT 15 6 7 16 19 26 78 45 46 56
REMARK Flexibility Score: inf
ROOT
ATOM      1  C   UNL A   1      32.596  29.888  25.442  1.00  0.00     0.042 C 
ENDROOT
BRANCH   1   2
ATOM      2  C   UNL A   1      31.296  29.256  24.973  1.00  0.00     0.117 C 
BRANCH   2   3
ATOM      3  N   UNL A   1      30.854  29.737  23.686  1.00  0.00    -0.354 N 
ATOM      4  C   UNL A   1      30.337  29.044  22.630  1.00  0.00     0.249 C 
ATOM      5  O   UNL A   1      29.950  29.700  21.657  1.00  0.00    -0.272 OA
ATOM      6  H   UNL A   1      30.940  30.708  23.549  1.00  0.00     0.163 HD
BRANCH   4   7
ATOM      7  C   UNL A   1      30.249  27.497  22.622  1.00  0.00     0.207 C 
ATOM      8  C   UNL A   1      30.331  25.865  24.313  1.00  0.00     0.138 C 
ATOM      9  C   UNL A   1      31.740  25.972  23.746  1.00  0.00     0.037 C 
ATOM     10  O   UNL A   1      29.560  26.937  23.742  1.00  0.00    -0.363 OA
ATOM     11  C   UNL A   1      31.593  26.800  22.490  1.00  0.00     0.045 C 
BRANCH   8  12
ATOM     12  C   UNL A   1      30.262  25.998  25.846  1.00  0.00     0.148 C 
BRANCH  12  13
ATOM     13  N   UNL A   1      29.635  24.853  26.476  1.00  0.00    -0.347 N 
ATOM     14  C   UNL A   1      30.136  23.621  26.819  1.00  0.00     0.289 C 
ATOM     15  O   UNL A   1      29.431  22.957  27.582  1.00  0.00    -0.266 OA
ATOM     16  H   UNL A   1      28.684  24.982  26.697  1.00  0.00     0.164 HD
BRANCH  14  17
ATOM     17  C   UNL A   1      31.404  23.146  26.311  1.00  0.00     0.224 A 
ATOM     18  C   UNL A   1      34.211  21.632  24.496  1.00  0.00     0.070 C 
ATOM     19  C   UNL A   1      33.237  22.314  25.379  1.00  0.00     0.081 A 
ATOM     20  C   UNL A   1      31.832  22.381  25.246  1.00  0.00     0.083 A 
ATOM     21  N   UNL A   1      33.648  22.958  26.473  1.00  0.00    -0.084 NA
ATOM     22  O   UNL A   1      32.505  23.472  27.056  1.00  0.00    -0.351 OA
ENDBRANCH  14  17
ENDBRANCH  12  13
ENDBRANCH   8  12
ENDBRANCH   4   7
ENDBRANCH   2   3
ENDBRANCH   1   2
BRANCH   1  23
ATOM     23  C   UNL A   1      32.528  30.382  26.877  1.00  0.00     0.118 C 
BRANCH  23  24
ATOM     24  N   UNL A   1      32.682  31.831  26.968  1.00  0.00    -0.352 N 
ATOM     25  C   UNL A   1      33.644  32.586  27.596  1.00  0.00     0.251 C 
ATOM     26  H   UNL A   1      31.986  32.352  26.505  1.00  0.00     0.163 HD
ATOM     27  O   UNL A   1      33.480  33.798  27.700  1.00  0.00    -0.269 OA
BRANCH  25  28
ATOM     28  C   UNL A   1      34.854  31.947  28.158  1.00  0.00     0.039 A 
ATOM     29  C   UNL A   1      36.036  32.690  28.245  1.00  0.00     0.014 A 
ATOM     30  C   UNL A   1      34.835  30.619  28.586  1.00  0.00     0.014 A 
ATOM     31  C   UNL A   1      37.174  32.119  28.823  1.00  0.00     0.010 A 
ATOM     32  C   UNL A   1      35.935  30.086  29.246  1.00  0.00     0.010 A 
ATOM     33  C   UNL A   1      37.122  30.824  29.361  1.00  0.00    -0.014 A 
BRANCH  33  34
ATOM     34  C   UNL A   1      38.289  30.212  30.045  1.00  0.00     0.031 A 
ATOM     35  C   UNL A   1      38.675  30.668  31.428  1.00  0.00     0.074 A 
ATOM     36  C   UNL A   1      39.067  29.335  29.379  1.00  0.00     0.049 A 
ATOM     37  N   UNL A   1      39.714  30.333  32.146  1.00  0.00    -0.248 NA
ATOM     38  C   UNL A   1      37.798  31.661  32.078  1.00  0.00     0.031 C 
ATOM     39  C   UNL A   1      38.851  28.887  28.000  1.00  0.00     0.029 A 
ATOM     40  N   UNL A   1      40.219  28.692  29.758  1.00  0.00    -0.354 N 
ATOM     41  C   UNL A   1      39.649  31.110  33.297  1.00  0.00     0.074 A 
ATOM     42  C   UNL A   1      38.480  31.951  33.176  1.00  0.00     0.031 C 
ATOM     43  C   UNL A   1      39.839  28.045  27.650  1.00  0.00     0.029 A 
ATOM     44  C   UNL A   1      40.771  27.915  28.764  1.00  0.00     0.049 A 
ATOM     45  H   UNL A   1      40.613  28.778  30.656  1.00  0.00     0.167 HD
ATOM     46  C   UNL A   1      40.474  31.103  34.370  1.00  0.00     0.034 A 
ATOM     47  C   UNL A   1      41.906  27.187  28.752  1.00  0.00     0.034 A 
ATOM     48  C   UNL A   1      41.583  30.203  34.523  1.00  0.00     0.049 A 
ATOM     49  C   UNL A   1      42.750  27.134  29.997  1.00  0.00     0.074 A 
ATOM     50  C   UNL A   1      42.394  30.022  35.629  1.00  0.00     0.029 A 
ATOM     51  N   UNL A   1      42.036  29.334  33.545  1.00  0.00    -0.354 N 
ATOM     52  N   UNL A   1      42.562  27.734  31.147  1.00  0.00    -0.248 NA
ATOM     53  C   UNL A   1      43.942  26.274  29.957  1.00  0.00     0.031 C 
ATOM     54  C   UNL A   1      43.351  29.054  35.312  1.00  0.00     0.029 A 
ATOM     55  C   UNL A   1      43.122  28.621  34.017  1.00  0.00     0.049 A 
ATOM     56  H   UNL A   1      41.643  29.239  32.647  1.00  0.00     0.167 HD
ATOM     57  C   UNL A   1      43.585  27.291  31.979  1.00  0.00     0.074 A 
ATOM     58  C   UNL A   1      44.377  26.357  31.207  1.00  0.00     0.031 C 
ATOM     59  C   UNL A   1      43.856  27.641  33.259  1.00  0.00     0.034 A 
BRANCH  46  60
ATOM     60  C   UNL A   1      40.177  32.049  35.503  1.00  0.00     0.023 A 
ATOM     61  C   UNL A   1      40.865  33.276  35.583  1.00  0.00     0.012 A 
ATOM     62  C   UNL A   1      39.151  31.768  36.425  1.00  0.00     0.148 A 
ATOM     63  C   UNL A   1      40.550  34.202  36.576  1.00  0.00     0.002 A 
ATOM     64  C   UNL A   1      38.813  32.714  37.387  1.00  0.00     0.091 A 
ATOM     65  F   UNL A   1      38.524  30.586  36.343  1.00  0.00    -0.205 F 
ATOM     66  C   UNL A   1      39.517  33.926  37.468  1.00  0.00     0.022 A 
BRANCH  64  67
ATOM     67  S   UNL A   1      37.447  32.492  38.532  1.00  0.00     0.127 S 
ATOM     68  O   UNL A   1      37.823  33.395  39.618  1.00  0.00    -0.237 OA
ATOM     69  O   UNL A   1      36.305  32.938  37.735  1.00  0.00    -0.237 OA
ATOM     70  O   UNL A   1      37.436  31.076  38.878  1.00  0.00    -0.744 OA
ENDBRANCH  64  67
ENDBRANCH  46  60
BRANCH  47  71
ATOM     71  C   UNL A   1      42.278  26.395  27.545  1.00  0.00     0.023 A 
ATOM     72  C   UNL A   1      42.967  27.026  26.491  1.00  0.00     0.012 A 
ATOM     73  C   UNL A   1      41.963  25.027  27.433  1.00  0.00     0.148 A 
ATOM     74  C   UNL A   1      43.293  26.322  25.330  1.00  0.00     0.002 A 
ATOM     75  C   UNL A   1      42.343  24.317  26.299  1.00  0.00     0.091 A 
ATOM     76  F   UNL A   1      41.294  24.442  28.437  1.00  0.00    -0.205 F 
ATOM     77  C   UNL A   1      42.990  24.967  25.238  1.00  0.00     0.022 A 
BRANCH  75  78
ATOM     78  S   UNL A   1      42.115  22.539  26.175  1.00  0.00     0.127 S 
ATOM     79  O   UNL A   1      40.660  22.425  26.127  1.00  0.00    -0.237 OA
ATOM     80  O   UNL A   1      42.801  22.224  24.920  1.00  0.00    -0.237 OA
ATOM     81  O   UNL A   1      42.765  21.989  27.357  1.00  0.00    -0.744 OA
ENDBRANCH  75  78
ENDBRANCH  47  71
BRANCH  59  82
ATOM     82  C   UNL A   1      45.031  26.983  33.932  1.00  0.00     0.023 A 
ATOM     83  C   UNL A   1      46.304  27.579  33.854  1.00  0.00     0.012 A 
ATOM     84  C   UNL A   1      44.852  25.824  34.711  1.00  0.00     0.148 A 
ATOM     85  C   UNL A   1      47.391  27.013  34.517  1.00  0.00     0.002 A 
ATOM     86  C   UNL A   1      45.930  25.293  35.409  1.00  0.00     0.091 A 
ATOM     87  F   UNL A   1      43.635  25.262  34.757  1.00  0.00    -0.205 F 
ATOM     88  C   UNL A   1      47.202  25.879  35.304  1.00  0.00     0.022 A 
BRANCH  86  89
ATOM     89  S   UNL A   1      45.754  23.896  36.525  1.00  0.00     0.127 S 
ATOM     90  O   UNL A   1      47.132  23.694  36.968  1.00  0.00    -0.237 OA
ATOM     91  O   UNL A   1      44.855  24.425  37.550  1.00  0.00    -0.237 OA
ATOM     92  O   UNL A   1      45.187  22.817  35.725  1.00  0.00    -0.744 OA
ENDBRANCH  86  89
ENDBRANCH  59  82
ENDBRANCH  33  34
ENDBRANCH  25  28
ENDBRANCH  23  24
ENDBRANCH   1  23
TORSDOF 16
ENDMDL
MODEL 2
REMARK VINA RESULT:     -12.1      5.616      9.051
REMARK SMILES Cc1cc(C(=O)NC[C@@H]2CC[C@H](C(=O)NCCCNC(=O)c3ccc(-c4c5nc(c(-c6cccc(S(=O)(=O)[O-])c6F)c6ccc([nH]6)c(-c6cccc(S(=O)(=O)[O-])c6F)c6nc(c(-c7cccc(S(=O)(=O)[O-])c7F)c7ccc4[nH]7)C=C6)C=C5)cc3)O2)on1
REMARK SMILES IDX 17 1 16 2 15 3 13 4 14 5 12 7 9 8 10 9 85 10 11 11 8 12 7 13
REMARK SMILES IDX 5 14 6 15 4 17 1 18 2 19 3 20 87 21 86 22 18 23 19 24 20 25
REMARK SMILES IDX 21 27 22 28 23 29 84 30 24 31 83 32 25 33 26 34 27 35 77 36
REMARK SMILES IDX 28 37 82 38 76 39 78 40 29 41 81 42 75 43 74 44 30 46 62 47
REMARK SMILES IDX 42 48 61 49 43 50 46 51 60 52 79 53 44 54 45 55 59 57 80 58
REMARK SMILES IDX 47 59 31 60 32 61 40 62 33 63 35 64 41 65 34 66 36 67 37 68
REMARK SMILES IDX 38 69 39 70 63 71 64 72 72 73 65 74 67 75 73 76 66 77 68 78
REMARK SMILES IDX 69 79 70 80 71 81 48 82 49 83 57 84 50 85 52 86 58 87 51 88
REMARK SMILES IDX 53 89 54 90 55 91 56 92
REMARK H PARENT 15 6 7 16 19 26 78 45 46 56
REMARK Flexibility Score: inf
ROOT
ATOM      1  C   UNL A   1      37.769  19.766  24.773  1.00  0.00     0.042 C 
ENDROOT
BRANCH   1   2
ATOM      2  C   UNL A   1      36.422  20.422  25.031  1.00  0.00     0.117 C 
BRANCH   2   3
ATOM      3  N   UNL A   1      36.396  21.827  24.702  1.00  0.00    -0.354 N 
ATOM      4  C   UNL A   1      35.457  22.772  25.001  1.00  0.00     0.249 C 
ATOM      5  O   UNL A   1      35.705  23.938  24.679  1.00  0.00    -0.272 OA
ATOM      6  H   UNL A   1      37.169  22.152  24.187  1.00  0.00     0.163 HD
BRANCH   4   7
ATOM      7  C   UNL A   1      34.118  22.414  25.694  1.00  0.00     0.207 C 
ATOM      8  C   UNL A   1      31.873  22.952  25.247  1.00  0.00     0.138 C 
ATOM      9  C   UNL A   1      32.359  23.949  26.290  1.00  0.00     0.037 C 
ATOM     10  O   UNL A   1      33.023  22.214  24.797  1.00  0.00    -0.363 OA
ATOM     11  C   UNL A   1      33.687  23.405  26.761  1.00  0.00     0.045 C 
BRANCH   8  12
ATOM     12  C   UNL A   1      31.219  23.606  24.015  1.00  0.00     0.148 C 
BRANCH  12  13
ATOM     13  N   UNL A   1      31.935  23.319  22.787  1.00  0.00    -0.347 N 
ATOM     14  C   UNL A   1      32.915  24.020  22.127  1.00  0.00     0.289 C 
ATOM     15  O   UNL A   1      33.515  23.392  21.251  1.00  0.00    -0.266 OA
ATOM     16  H   UNL A   1      31.673  22.476  22.353  1.00  0.00     0.164 HD
BRANCH  14  17
ATOM     17  C   UNL A   1      33.209  25.400  22.443  1.00  0.00     0.224 A 
ATOM     18  C   UNL A   1      33.777  28.707  23.929  1.00  0.00     0.070 C 
ATOM     19  C   UNL A   1      33.600  27.473  23.129  1.00  0.00     0.081 A 
ATOM     20  C   UNL A   1      33.194  26.194  23.570  1.00  0.00     0.083 A 
ATOM     21  N   UNL A   1      33.812  27.483  21.812  1.00  0.00    -0.084 NA
ATOM     22  O   UNL A   1      33.563  26.192  21.383  1.00  0.00    -0.351 OA
ENDBRANCH  14  17
ENDBRANCH  12  13
ENDBRANCH   8  12
ENDBRANCH   4   7
ENDBRANCH   2   3
ENDBRANCH   1   2
BRANCH   1  23
ATOM     23  C   UNL A   1      38.855  20.260  25.714  1.00  0.00     0.118 C 
BRANCH  23  24
ATOM     24  N   UNL A   1      39.917  19.274  25.895  1.00  0.00    -0.352 N 
ATOM     25  C   UNL A   1      41.261  19.445  26.126  1.00  0.00     0.251 C 
ATOM     26  H   UNL A   1      39.623  18.335  25.845  1.00  0.00     0.163 HD
ATOM     27  O   UNL A   1      42.008  18.472  26.065  1.00  0.00    -0.269 OA
BRANCH  25  28
ATOM     28  C   UNL A   1      41.808  20.787  26.423  1.00  0.00     0.039 A 
ATOM     29  C   UNL A   1      42.061  21.667  25.365  1.00  0.00     0.014 A 
ATOM     30  C   UNL A   1      42.089  21.176  27.733  1.00  0.00     0.014 A 
ATOM     31  C   UNL A   1      42.527  22.957  25.631  1.00  0.00     0.010 A 
ATOM     32  C   UNL A   1      42.461  22.488  28.003  1.00  0.00     0.010 A 
ATOM     33  C   UNL A   1      42.697  23.390  26.956  1.00  0.00    -0.014 A 
BRANCH  33  34
ATOM     34  C   UNL A   1      43.124  24.775  27.279  1.00  0.00     0.031 A 
ATOM     35  C   UNL A   1      42.148  25.735  27.908  1.00  0.00     0.074 A 
ATOM     36  C   UNL A   1      44.346  25.202  26.900  1.00  0.00     0.049 A 
ATOM     37  N   UNL A   1      42.297  27.007  28.169  1.00  0.00    -0.248 NA
ATOM     38  C   UNL A   1      40.815  25.208  28.256  1.00  0.00     0.031 C 
ATOM     39  C   UNL A   1      45.346  24.392  26.198  1.00  0.00     0.029 A 
ATOM     40  N   UNL A   1      44.942  26.432  27.020  1.00  0.00    -0.354 N 
ATOM     41  C   UNL A   1      41.069  27.443  28.654  1.00  0.00     0.074 A 
ATOM     42  C   UNL A   1      40.176  26.306  28.632  1.00  0.00     0.031 C 
ATOM     43  C   UNL A   1      46.428  25.149  25.947  1.00  0.00     0.029 A 
ATOM     44  C   UNL A   1      46.191  26.500  26.444  1.00  0.00     0.049 A 
ATOM     45  H   UNL A   1      44.517  27.195  27.474  1.00  0.00     0.167 HD
ATOM     46  C   UNL A   1      40.724  28.672  29.102  1.00  0.00     0.034 A 
ATOM     47  C   UNL A   1      47.043  27.538  26.322  1.00  0.00     0.034 A 
ATOM     48  C   UNL A   1      41.639  29.774  29.203  1.00  0.00     0.049 A 
ATOM     49  C   UNL A   1      46.659  28.867  26.914  1.00  0.00     0.074 A 
ATOM     50  C   UNL A   1      41.425  31.018  29.771  1.00  0.00     0.029 A 
ATOM     51  N   UNL A   1      42.940  29.768  28.728  1.00  0.00    -0.354 N 
ATOM     52  N   UNL A   1      45.559  29.204  27.542  1.00  0.00    -0.248 NA
ATOM     53  C   UNL A   1      47.649  29.950  26.816  1.00  0.00     0.031 C 
ATOM     54  C   UNL A   1      42.593  31.770  29.623  1.00  0.00     0.029 A 
ATOM     55  C   UNL A   1      43.538  30.988  28.980  1.00  0.00     0.049 A 
ATOM     56  H   UNL A   1      43.373  29.007  28.277  1.00  0.00     0.167 HD
ATOM     57  C   UNL A   1      45.742  30.521  27.950  1.00  0.00     0.074 A 
ATOM     58  C   UNL A   1      47.066  30.914  27.516  1.00  0.00     0.031 C 
ATOM     59  C   UNL A   1      44.884  31.338  28.606  1.00  0.00     0.034 A 
BRANCH  46  60
ATOM     60  C   UNL A   1      39.314  28.885  29.585  1.00  0.00     0.023 A 
ATOM     61  C   UNL A   1      38.961  28.498  30.893  1.00  0.00     0.012 A 
ATOM     62  C   UNL A   1      38.372  29.558  28.783  1.00  0.00     0.148 A 
ATOM     63  C   UNL A   1      37.684  28.759  31.389  1.00  0.00     0.002 A 
ATOM     64  C   UNL A   1      37.115  29.852  29.299  1.00  0.00     0.091 A 
ATOM     65  F   UNL A   1      38.723  29.899  27.535  1.00  0.00    -0.205 F 
ATOM     66  C   UNL A   1      36.768  29.446  30.598  1.00  0.00     0.022 A 
BRANCH  64  67
ATOM     67  S   UNL A   1      35.890  30.802  28.393  1.00  0.00     0.127 S 
ATOM     68  O   UNL A   1      35.482  29.850  27.361  1.00  0.00    -0.237 OA
ATOM     69  O   UNL A   1      34.880  31.057  29.420  1.00  0.00    -0.237 OA
ATOM     70  O   UNL A   1      36.578  31.989  27.905  1.00  0.00    -0.744 OA
ENDBRANCH  64  67
ENDBRANCH  46  60
BRANCH  47  71
ATOM     71  C   UNL A   1      48.371  27.348  25.672  1.00  0.00     0.023 A 
ATOM     72  C   UNL A   1      49.478  26.977  26.461  1.00  0.00     0.012 A 
ATOM     73  C   UNL A   1      48.549  27.526  24.286  1.00  0.00     0.148 A 
ATOM     74  C   UNL A   1      50.744  26.832  25.890  1.00  0.00     0.002 A 
ATOM     75  C   UNL A   1      49.800  27.322  23.715  1.00  0.00     0.091 A 
ATOM     76  F   UNL A   1      47.490  27.894  23.550  1.00  0.00    -0.205 F 
ATOM     77  C   UNL A   1      50.903  26.995  24.517  1.00  0.00     0.022 A 
BRANCH  75  78
ATOM     78  S   UNL A   1      50.047  27.372  21.936  1.00  0.00     0.127 S 
ATOM     79  O   UNL A   1      49.045  26.420  21.465  1.00  0.00    -0.237 OA
ATOM     80  O   UNL A   1      49.761  28.774  21.622  1.00  0.00    -0.237 OA
ATOM     81  O   UNL A   1      51.439  26.995  21.733  1.00  0.00    -0.744 OA
ENDBRANCH  75  78
ENDBRANCH  47  71
BRANCH  59  82
ATOM     82  C   UNL A   1      45.356  32.727  28.941  1.00  0.00     0.023 A 
ATOM     83  C   UNL A   1      46.042  32.960  30.148  1.00  0.00     0.012 A 
ATOM     84  C   UNL A   1      45.196  33.779  28.018  1.00  0.00     0.148 A 
ATOM     85  C   UNL A   1      46.536  34.229  30.448  1.00  0.00     0.002 A 
ATOM     86  C   UNL A   1      45.733  35.029  28.302  1.00  0.00     0.091 A 
ATOM     87  F   UNL A   1      44.524  33.540  26.883  1.00  0.00    -0.205 F 
ATOM     88  C   UNL A   1      46.393  35.259  29.520  1.00  0.00     0.022 A 
BRANCH  86  89
ATOM     89  S   UNL A   1      45.684  36.383  27.122  1.00  0.00     0.127 S 
ATOM     90  O   UNL A   1      44.246  36.621  27.002  1.00  0.00    -0.237 OA
ATOM     91  O   UNL A   1      46.420  37.435  27.822  1.00  0.00    -0.237 OA
ATOM     92  O   UNL A   1      46.340  35.887  25.919  1.00  0.00    -0.744 OA
ENDBRANCH  86  89
ENDBRANCH  59  82
ENDBRANCH  33  34
ENDBRANCH  25  28
ENDBRANCH  23  24
ENDBRANCH   1  23
TORSDOF 16
ENDMDL
MODEL 3
REMARK VINA RESULT:     -12.0      2.389      8.191
REMARK SMILES Cc1cc(C(=O)NC[C@@H]2CC[C@H](C(=O)NCCCNC(=O)c3ccc(-c4c5nc(c(-c6cccc(S(=O)(=O)[O-])c6F)c6ccc([nH]6)c(-c6cccc(S(=O)(=O)[O-])c6F)c6nc(c(-c7cccc(S(=O)(=O)[O-])c7F)c7ccc4[nH]7)C=C6)C=C5)cc3)O2)on1
REMARK SMILES IDX 17 1 16 2 15 3 13 4 14 5 12 7 9 8 10 9 85 10 11 11 8 12 7 13
REMARK SMILES IDX 5 14 6 15 4 17 1 18 2 19 3 20 87 21 86 22 18 23 19 24 20 25
REMARK SMILES IDX 21 27 22 28 23 29 84 30 24 31 83 32 25 33 26 34 27 35 77 36
REMARK SMILES IDX 28 37 82 38 76 39 78 40 29 41 81 42 75 43 74 44 30 46 62 47
REMARK SMILES IDX 42 48 61 49 43 50 46 51 60 52 79 53 44 54 45 55 59 57 80 58
REMARK SMILES IDX 47 59 31 60 32 61 40 62 33 63 35 64 41 65 34 66 36 67 37 68
REMARK SMILES IDX 38 69 39 70 63 71 64 72 72 73 65 74 67 75 73 76 66 77 68 78
REMARK SMILES IDX 69 79 70 80 71 81 48 82 49 83 57 84 50 85 52 86 58 87 51 88
REMARK SMILES IDX 53 89 54 90 55 91 56 92
REMARK H PARENT 15 6 7 16 19 26 78 45 46 56
REMARK Flexibility Score: inf
ROOT
ATOM      1  C   UNL A   1      31.410  32.215  26.604  1.00  0.00     0.042 C 
ENDROOT
BRANCH   1   2
ATOM      2  C   UNL A   1      31.499  30.698  26.615  1.00  0.00     0.117 C 
BRANCH   2   3
ATOM      3  N   UNL A   1      32.628  30.184  25.876  1.00  0.00    -0.354 N 
ATOM      4  C   UNL A   1      32.676  29.184  24.948  1.00  0.00     0.249 C 
ATOM      5  O   UNL A   1      33.759  28.984  24.387  1.00  0.00    -0.272 OA
ATOM      6  H   UNL A   1      33.490  30.618  26.071  1.00  0.00     0.163 HD
BRANCH   4   7
ATOM      7  C   UNL A   1      31.443  28.309  24.613  1.00  0.00     0.207 C 
ATOM      8  C   UNL A   1      31.089  26.510  23.141  1.00  0.00     0.138 C 
ATOM      9  C   UNL A   1      30.629  27.764  22.410  1.00  0.00     0.037 C 
ATOM     10  O   UNL A   1      31.745  26.937  24.347  1.00  0.00    -0.363 OA
ATOM     11  C   UNL A   1      30.596  28.842  23.469  1.00  0.00     0.045 C 
BRANCH   8  12
ATOM     12  C   UNL A   1      32.087  25.652  22.340  1.00  0.00     0.148 C 
BRANCH  12  13
ATOM     13  N   UNL A   1      31.773  24.237  22.394  1.00  0.00    -0.347 N 
ATOM     14  C   UNL A   1      32.448  23.182  22.958  1.00  0.00     0.289 C 
ATOM     15  O   UNL A   1      31.798  22.140  23.071  1.00  0.00    -0.266 OA
ATOM     16  H   UNL A   1      30.931  23.992  21.949  1.00  0.00     0.164 HD
BRANCH  14  17
ATOM     17  C   UNL A   1      33.825  23.298  23.384  1.00  0.00     0.224 A 
ATOM     18  C   UNL A   1      37.028  23.705  25.128  1.00  0.00     0.070 C 
ATOM     19  C   UNL A   1      35.862  23.521  24.233  1.00  0.00     0.081 A 
ATOM     20  C   UNL A   1      34.490  23.537  24.568  1.00  0.00     0.083 A 
ATOM     21  N   UNL A   1      36.036  23.326  22.924  1.00  0.00    -0.084 NA
ATOM     22  O   UNL A   1      34.765  23.194  22.394  1.00  0.00    -0.351 OA
ENDBRANCH  14  17
ENDBRANCH  12  13
ENDBRANCH   8  12
ENDBRANCH   4   7
ENDBRANCH   2   3
ENDBRANCH   1   2
BRANCH   1  23
ATOM     23  C   UNL A   1      32.724  32.885  26.970  1.00  0.00     0.118 C 
BRANCH  23  24
ATOM     24  N   UNL A   1      32.521  34.163  27.647  1.00  0.00    -0.352 N 
ATOM     25  C   UNL A   1      33.131  34.687  28.761  1.00  0.00     0.251 C 
ATOM     26  H   UNL A   1      31.837  34.743  27.240  1.00  0.00     0.163 HD
ATOM     27  O   UNL A   1      32.676  35.708  29.269  1.00  0.00    -0.269 OA
BRANCH  25  28
ATOM     28  C   UNL A   1      34.309  34.020  29.358  1.00  0.00     0.039 A 
ATOM     29  C   UNL A   1      35.589  34.421  28.961  1.00  0.00     0.014 A 
ATOM     30  C   UNL A   1      34.161  32.994  30.291  1.00  0.00     0.014 A 
ATOM     31  C   UNL A   1      36.714  33.840  29.554  1.00  0.00     0.010 A 
ATOM     32  C   UNL A   1      35.275  32.486  30.948  1.00  0.00     0.010 A 
ATOM     33  C   UNL A   1      36.565  32.892  30.578  1.00  0.00    -0.014 A 
BRANCH  33  34
ATOM     34  C   UNL A   1      37.735  32.305  31.279  1.00  0.00     0.031 A 
ATOM     35  C   UNL A   1      38.498  31.169  30.647  1.00  0.00     0.074 A 
ATOM     36  C   UNL A   1      38.037  32.711  32.529  1.00  0.00     0.049 A 
ATOM     37  N   UNL A   1      39.476  30.459  31.142  1.00  0.00    -0.248 NA
ATOM     38  C   UNL A   1      38.084  30.751  29.295  1.00  0.00     0.031 C 
ATOM     39  C   UNL A   1      37.313  33.737  33.285  1.00  0.00     0.029 A 
ATOM     40  N   UNL A   1      39.009  32.285  33.400  1.00  0.00    -0.354 N 
ATOM     41  C   UNL A   1      39.754  29.479  30.195  1.00  0.00     0.074 A 
ATOM     42  C   UNL A   1      38.828  29.671  29.102  1.00  0.00     0.031 C 
ATOM     43  C   UNL A   1      37.864  33.857  34.505  1.00  0.00     0.029 A 
ATOM     44  C   UNL A   1      38.959  32.903  34.629  1.00  0.00     0.049 A 
ATOM     45  H   UNL A   1      39.679  31.603  33.166  1.00  0.00     0.167 HD
ATOM     46  C   UNL A   1      40.712  28.524  30.221  1.00  0.00     0.034 A 
ATOM     47  C   UNL A   1      39.707  32.712  35.734  1.00  0.00     0.034 A 
ATOM     48  C   UNL A   1      41.686  28.394  31.269  1.00  0.00     0.049 A 
ATOM     49  C   UNL A   1      40.823  31.702  35.693  1.00  0.00     0.074 A 
ATOM     50  C   UNL A   1      42.781  27.549  31.322  1.00  0.00     0.029 A 
ATOM     51  N   UNL A   1      41.685  29.126  32.444  1.00  0.00    -0.354 N 
ATOM     52  N   UNL A   1      41.188  30.917  34.709  1.00  0.00    -0.248 NA
ATOM     53  C   UNL A   1      41.654  31.579  36.900  1.00  0.00     0.031 C 
ATOM     54  C   UNL A   1      43.432  27.759  32.540  1.00  0.00     0.029 A 
ATOM     55  C   UNL A   1      42.753  28.746  33.235  1.00  0.00     0.049 A 
ATOM     56  H   UNL A   1      41.021  29.813  32.681  1.00  0.00     0.167 HD
ATOM     57  C   UNL A   1      42.315  30.239  35.162  1.00  0.00     0.074 A 
ATOM     58  C   UNL A   1      42.583  30.721  36.500  1.00  0.00     0.031 C 
ATOM     59  C   UNL A   1      43.049  29.288  34.535  1.00  0.00     0.034 A 
BRANCH  46  60
ATOM     60  C   UNL A   1      40.808  27.579  29.053  1.00  0.00     0.023 A 
ATOM     61  C   UNL A   1      39.923  26.487  28.967  1.00  0.00     0.012 A 
ATOM     62  C   UNL A   1      41.703  27.830  27.995  1.00  0.00     0.148 A 
ATOM     63  C   UNL A   1      39.941  25.646  27.855  1.00  0.00     0.002 A 
ATOM     64  C   UNL A   1      41.686  27.013  26.871  1.00  0.00     0.091 A 
ATOM     65  F   UNL A   1      42.551  28.864  28.107  1.00  0.00    -0.205 F 
ATOM     66  C   UNL A   1      40.812  25.917  26.803  1.00  0.00     0.022 A 
BRANCH  64  67
ATOM     67  S   UNL A   1      42.711  27.322  25.428  1.00  0.00     0.127 S 
ATOM     68  O   UNL A   1      42.492  26.106  24.646  1.00  0.00    -0.237 OA
ATOM     69  O   UNL A   1      42.096  28.525  24.869  1.00  0.00    -0.237 OA
ATOM     70  O   UNL A   1      44.067  27.504  25.927  1.00  0.00    -0.744 OA
ENDBRANCH  64  67
ENDBRANCH  46  60
BRANCH  47  71
ATOM     71  C   UNL A   1      39.475  33.541  36.952  1.00  0.00     0.023 A 
ATOM     72  C   UNL A   1      39.973  34.857  36.996  1.00  0.00     0.012 A 
ATOM     73  C   UNL A   1      38.764  33.042  38.060  1.00  0.00     0.148 A 
ATOM     74  C   UNL A   1      39.809  35.645  38.137  1.00  0.00     0.002 A 
ATOM     75  C   UNL A   1      38.552  33.852  39.171  1.00  0.00     0.091 A 
ATOM     76  F   UNL A   1      38.307  31.782  38.012  1.00  0.00    -0.205 F 
ATOM     77  C   UNL A   1      39.090  35.146  39.220  1.00  0.00     0.022 A 
BRANCH  75  78
ATOM     78  S   UNL A   1      37.513  33.327  40.540  1.00  0.00     0.127 S 
ATOM     79  O   UNL A   1      38.295  32.234  41.110  1.00  0.00    -0.237 OA
ATOM     80  O   UNL A   1      37.450  34.536  41.364  1.00  0.00    -0.237 OA
ATOM     81  O   UNL A   1      36.240  32.959  39.933  1.00  0.00    -0.744 OA
ENDBRANCH  75  78
ENDBRANCH  47  71
BRANCH  59  82
ATOM     82  C   UNL A   1      44.243  28.732  35.263  1.00  0.00     0.023 A 
ATOM     83  C   UNL A   1      45.517  29.289  35.043  1.00  0.00     0.012 A 
ATOM     84  C   UNL A   1      44.084  27.717  36.226  1.00  0.00     0.148 A 
ATOM     85  C   UNL A   1      46.624  28.823  35.751  1.00  0.00     0.002 A 
ATOM     86  C   UNL A   1      45.183  27.291  36.962  1.00  0.00     0.091 A 
ATOM     87  F   UNL A   1      42.865  27.188  36.406  1.00  0.00    -0.205 F 
ATOM     88  C   UNL A   1      46.455  27.834  36.718  1.00  0.00     0.022 A 
BRANCH  86  89
ATOM     89  S   UNL A   1      45.038  26.096  38.296  1.00  0.00     0.127 S 
ATOM     90  O   UNL A   1      46.431  25.943  38.711  1.00  0.00    -0.237 OA
ATOM     91  O   UNL A   1      44.188  26.800  39.256  1.00  0.00    -0.237 OA
ATOM     92  O   UNL A   1      44.426  24.912  37.705  1.00  0.00    -0.744 OA
ENDBRANCH  86  89
ENDBRANCH  59  82
ENDBRANCH  33  34
ENDBRANCH  25  28
ENDBRANCH  23  24
ENDBRANCH   1  23
TORSDOF 16
ENDMDL
