MODEL 1
REMARK VINA RESULT:     -13.5      0.000      0.000
REMARK SMILES CC(C)c1ccc(CNC(=O)N[C@H](CC2=c3ccccc3=NC2)C(=O)NCCCNC(=O)c2ccc(-c3c4nc(c(-c5cccc(S(=O)(=O)[O-])c5F)c5ccc([nH]5)c(-c5cccc(S(=O)(=O)[O-])c5F)c5nc(c(-c6cccc(S(=O)(=O)[O-])c6F)c6ccc3[nH]6)C=C5)C=C4)cc2)cc1
REMARK SMILES IDX 27 1 26 2 24 3 25 4 13 6 12 7 9 8 10 9 11 11 8 13 7 14 4 15
REMARK SMILES IDX 5 16 97 17 6 18 96 19 2 20 1 21 3 22 14 23 15 24 16 25 23 26
REMARK SMILES IDX 17 27 21 28 22 29 18 30 20 31 19 32 28 33 29 34 30 35 31 36
REMARK SMILES IDX 32 38 33 39 34 40 95 41 35 42 94 43 36 44 37 45 38 46 88 47
REMARK SMILES IDX 39 48 93 49 87 50 89 51 40 52 92 53 86 54 85 55 41 57 73 58
REMARK SMILES IDX 53 59 72 60 54 61 57 62 71 63 90 64 55 65 56 66 70 68 91 69
REMARK SMILES IDX 58 70 42 71 43 72 51 73 44 74 46 75 52 76 45 77 47 78 48 79
REMARK SMILES IDX 49 80 50 81 74 82 75 83 83 84 76 85 78 86 84 87 77 88 79 89
REMARK SMILES IDX 80 90 81 91 82 92 59 93 60 94 68 95 61 96 63 97 69 98 62 99
REMARK SMILES IDX 64 100 65 101 66 102 67 103
REMARK H PARENT 26 5 9 10 12 12 30 37 89 56 57 67
REMARK Flexibility Score: inf
ROOT
ATOM      1  C   UNL A   1      33.589  27.859  24.868  1.00  0.00     0.117 C 
ENDROOT
BRANCH   1   2
ATOM      2  N   UNL A   1      33.665  27.453  23.445  1.00  0.00    -0.354 N 
ATOM      3  C   UNL A   1      33.107  26.528  22.610  1.00  0.00     0.242 C 
ATOM      4  O   UNL A   1      33.450  26.676  21.421  1.00  0.00    -0.273 OA
ATOM      5  H   UNL A   1      34.307  28.018  22.958  1.00  0.00     0.163 HD
BRANCH   3   6
ATOM      6  C   UNL A   1      32.295  25.212  22.959  1.00  0.00     0.177 C 
BRANCH   6   7
ATOM      7  N   UNL A   1      31.801  25.008  24.326  1.00  0.00    -0.326 N 
ATOM      8  N   UNL A   1      29.591  25.847  24.860  1.00  0.00    -0.334 N 
ATOM      9  C   UNL A   1      30.800  25.371  25.126  1.00  0.00     0.315 C 
ATOM     10  H   UNL A   1      29.105  25.898  25.715  1.00  0.00     0.165 HD
ATOM     11  O   UNL A   1      31.036  25.201  26.333  1.00  0.00    -0.249 OA
ATOM     12  H   UNL A   1      32.410  24.405  24.812  1.00  0.00     0.166 HD
BRANCH   8  13
ATOM     13  C   UNL A   1      28.671  26.332  23.811  1.00  0.00     0.153 C 
BRANCH  13  14
ATOM     14  C   UNL A   1      28.678  27.823  23.504  1.00  0.00    -0.029 A 
ATOM     15  C   UNL A   1      28.817  30.505  22.527  1.00  0.00    -0.045 A 
ATOM     16  C   UNL A   1      27.584  29.874  22.728  1.00  0.00     0.004 A 
ATOM     17  C   UNL A   1      29.965  29.835  22.969  1.00  0.00     0.004 A 
ATOM     18  C   UNL A   1      27.511  28.564  23.243  1.00  0.00     0.006 A 
ATOM     19  C   UNL A   1      29.898  28.516  23.446  1.00  0.00     0.006 A 
BRANCH  15  20
ATOM     20  C   UNL A   1      28.962  31.845  21.813  1.00  0.00     0.013 C 
ATOM     21  C   UNL A   1      28.028  32.011  20.612  1.00  0.00     0.012 C 
ATOM     22  C   UNL A   1      28.777  33.033  22.750  1.00  0.00     0.012 C 
ENDBRANCH  15  20
ENDBRANCH  13  14
ENDBRANCH   8  13
ENDBRANCH   6   7
BRANCH   6  23
ATOM     23  C   UNL A   1      33.023  24.046  22.302  1.00  0.00     0.068 C 
BRANCH  23  24
ATOM     24  C   UNL A   1      33.799  23.204  23.244  1.00  0.00    -0.037 C 
ATOM     25  C   UNL A   1      33.479  21.987  23.665  1.00  0.00     0.001 A 
ATOM     26  C   UNL A   1      35.161  23.581  23.732  1.00  0.00     0.174 C 
ATOM     27  C   UNL A   1      32.418  21.073  23.402  1.00  0.00     0.010 A 
ATOM     28  C   UNL A   1      34.648  21.613  24.469  1.00  0.00     0.065 A 
ATOM     29  N   UNL A   1      35.624  22.460  24.566  1.00  0.00    -0.280 NA
ATOM     30  C   UNL A   1      32.528  19.818  23.863  1.00  0.00     0.001 A 
ATOM     31  C   UNL A   1      34.653  20.243  25.000  1.00  0.00     0.028 A 
ATOM     32  C   UNL A   1      33.665  19.403  24.664  1.00  0.00     0.002 A 
ENDBRANCH  23  24
ENDBRANCH   6  23
ENDBRANCH   3   6
ENDBRANCH   1   2
BRANCH   1  33
ATOM     33  C   UNL A   1      33.104  29.308  25.095  1.00  0.00     0.042 C 
BRANCH  33  34
ATOM     34  C   UNL A   1      32.174  29.751  26.234  1.00  0.00     0.118 C 
BRANCH  34  35
ATOM     35  N   UNL A   1      32.352  31.147  26.631  1.00  0.00    -0.352 N 
ATOM     36  C   UNL A   1      33.282  31.910  27.308  1.00  0.00     0.251 C 
ATOM     37  H   UNL A   1      31.595  31.699  26.330  1.00  0.00     0.163 HD
ATOM     38  O   UNL A   1      32.934  33.087  27.472  1.00  0.00    -0.269 OA
BRANCH  36  39
ATOM     39  C   UNL A   1      34.636  31.521  27.853  1.00  0.00     0.039 A 
ATOM     40  C   UNL A   1      34.745  30.222  28.393  1.00  0.00     0.014 A 
ATOM     41  C   UNL A   1      35.753  32.337  28.010  1.00  0.00     0.014 A 
ATOM     42  C   UNL A   1      35.907  29.755  29.052  1.00  0.00     0.010 A 
ATOM     43  C   UNL A   1      36.953  31.841  28.618  1.00  0.00     0.010 A 
ATOM     44  C   UNL A   1      37.059  30.543  29.164  1.00  0.00    -0.014 A 
BRANCH  44  45
ATOM     45  C   UNL A   1      38.311  30.013  29.853  1.00  0.00     0.031 A 
ATOM     46  C   UNL A   1      38.758  30.523  31.218  1.00  0.00     0.074 A 
ATOM     47  C   UNL A   1      39.101  29.066  29.283  1.00  0.00     0.049 A 
ATOM     48  N   UNL A   1      39.792  30.156  31.945  1.00  0.00    -0.248 NA
ATOM     49  C   UNL A   1      37.946  31.572  31.850  1.00  0.00     0.031 C 
ATOM     50  C   UNL A   1      38.882  28.446  27.977  1.00  0.00     0.029 A 
ATOM     51  N   UNL A   1      40.279  28.480  29.714  1.00  0.00    -0.354 N 
ATOM     52  C   UNL A   1      39.765  30.937  33.098  1.00  0.00     0.074 A 
ATOM     53  C   UNL A   1      38.634  31.831  32.955  1.00  0.00     0.031 C 
ATOM     54  C   UNL A   1      39.908  27.627  27.687  1.00  0.00     0.029 A 
ATOM     55  C   UNL A   1      40.860  27.633  28.793  1.00  0.00     0.049 A 
ATOM     56  H   UNL A   1      40.669  28.652  30.603  1.00  0.00     0.167 HD
ATOM     57  C   UNL A   1      40.559  30.898  34.200  1.00  0.00     0.034 A 
ATOM     58  C   UNL A   1      42.015  26.929  28.807  1.00  0.00     0.034 A 
ATOM     59  C   UNL A   1      41.648  29.979  34.418  1.00  0.00     0.049 A 
ATOM     60  C   UNL A   1      42.884  26.902  30.039  1.00  0.00     0.074 A 
ATOM     61  C   UNL A   1      42.406  29.806  35.567  1.00  0.00     0.029 A 
ATOM     62  N   UNL A   1      42.148  29.092  33.483  1.00  0.00    -0.354 N 
ATOM     63  N   UNL A   1      42.706  27.505  31.186  1.00  0.00    -0.248 NA
ATOM     64  C   UNL A   1      44.081  26.041  29.999  1.00  0.00     0.031 C 
ATOM     65  C   UNL A   1      43.382  28.835  35.317  1.00  0.00     0.029 A 
ATOM     66  C   UNL A   1      43.214  28.385  34.020  1.00  0.00     0.049 A 
ATOM     67  H   UNL A   1      41.798  28.977  32.569  1.00  0.00     0.167 HD
ATOM     68  C   UNL A   1      43.730  27.056  32.017  1.00  0.00     0.074 A 
ATOM     69  C   UNL A   1      44.522  26.123  31.248  1.00  0.00     0.031 C 
ATOM     70  C   UNL A   1      43.982  27.399  33.304  1.00  0.00     0.034 A 
BRANCH  57  71
ATOM     71  C   UNL A   1      40.237  31.842  35.335  1.00  0.00     0.023 A 
ATOM     72  C   UNL A   1      40.951  33.052  35.448  1.00  0.00     0.012 A 
ATOM     73  C   UNL A   1      39.161  31.590  36.211  1.00  0.00     0.148 A 
ATOM     74  C   UNL A   1      40.625  33.981  36.434  1.00  0.00     0.002 A 
ATOM     75  C   UNL A   1      38.814  32.541  37.166  1.00  0.00     0.091 A 
ATOM     76  F   UNL A   1      38.495  30.433  36.091  1.00  0.00    -0.205 F 
ATOM     77  C   UNL A   1      39.552  33.731  37.286  1.00  0.00     0.022 A 
BRANCH  75  78
ATOM     78  S   UNL A   1      37.399  32.352  38.257  1.00  0.00     0.127 S 
ATOM     79  O   UNL A   1      36.363  33.078  37.522  1.00  0.00    -0.237 OA
ATOM     80  O   UNL A   1      37.221  30.900  38.285  1.00  0.00    -0.237 OA
ATOM     81  O   UNL A   1      37.791  32.941  39.529  1.00  0.00    -0.744 OA
ENDBRANCH  75  78
ENDBRANCH  57  71
BRANCH  58  82
ATOM     82  C   UNL A   1      42.409  26.110  27.621  1.00  0.00     0.023 A 
ATOM     83  C   UNL A   1      43.134  26.708  26.571  1.00  0.00     0.012 A 
ATOM     84  C   UNL A   1      42.044  24.754  27.516  1.00  0.00     0.148 A 
ATOM     85  C   UNL A   1      43.459  25.980  25.424  1.00  0.00     0.002 A 
ATOM     86  C   UNL A   1      42.413  24.021  26.393  1.00  0.00     0.091 A 
ATOM     87  F   UNL A   1      41.330  24.212  28.512  1.00  0.00    -0.205 F 
ATOM     88  C   UNL A   1      43.107  24.636  25.340  1.00  0.00     0.022 A 
BRANCH  86  89
ATOM     89  S   UNL A   1      42.084  22.263  26.224  1.00  0.00     0.127 S 
ATOM     90  O   UNL A   1      42.645  21.732  27.464  1.00  0.00    -0.237 OA
ATOM     91  O   UNL A   1      40.623  22.237  26.149  1.00  0.00    -0.237 OA
ATOM     92  O   UNL A   1      42.761  21.850  25.001  1.00  0.00    -0.744 OA
ENDBRANCH  86  89
ENDBRANCH  58  82
BRANCH  70  93
ATOM     93  C   UNL A   1      45.137  26.735  34.014  1.00  0.00     0.023 A 
ATOM     94  C   UNL A   1      46.430  27.289  33.929  1.00  0.00     0.012 A 
ATOM     95  C   UNL A   1      44.929  25.602  34.829  1.00  0.00     0.148 A 
ATOM     96  C   UNL A   1      47.500  26.711  34.616  1.00  0.00     0.002 A 
ATOM     97  C   UNL A   1      45.989  25.058  35.547  1.00  0.00     0.091 A 
ATOM     98  F   UNL A   1      43.698  25.073  34.886  1.00  0.00    -0.205 F 
ATOM     99  C   UNL A   1      47.278  25.605  35.432  1.00  0.00     0.022 A 
BRANCH  97 100
ATOM    100  S   UNL A   1      45.781  23.691  36.696  1.00  0.00     0.127 S 
ATOM    101  O   UNL A   1      44.817  24.243  37.646  1.00  0.00    -0.237 OA
ATOM    102  O   UNL A   1      45.249  22.636  35.832  1.00  0.00    -0.237 OA
ATOM    103  O   UNL A   1      47.105  23.417  37.236  1.00  0.00    -0.744 OA
ENDBRANCH  97 100
ENDBRANCH  70  93
ENDBRANCH  44  45
ENDBRANCH  36  39
ENDBRANCH  34  35
ENDBRANCH  33  34
ENDBRANCH   1  33
TORSDOF 19
ENDMDL
MODEL 2
REMARK VINA RESULT:     -13.1      2.515      8.422
REMARK SMILES CC(C)c1ccc(CNC(=O)N[C@H](CC2=c3ccccc3=NC2)C(=O)NCCCNC(=O)c2ccc(-c3c4nc(c(-c5cccc(S(=O)(=O)[O-])c5F)c5ccc([nH]5)c(-c5cccc(S(=O)(=O)[O-])c5F)c5nc(c(-c6cccc(S(=O)(=O)[O-])c6F)c6ccc3[nH]6)C=C5)C=C4)cc2)cc1
REMARK SMILES IDX 27 1 26 2 24 3 25 4 13 6 12 7 9 8 10 9 11 11 8 13 7 14 4 15
REMARK SMILES IDX 5 16 97 17 6 18 96 19 2 20 1 21 3 22 14 23 15 24 16 25 23 26
REMARK SMILES IDX 17 27 21 28 22 29 18 30 20 31 19 32 28 33 29 34 30 35 31 36
REMARK SMILES IDX 32 38 33 39 34 40 95 41 35 42 94 43 36 44 37 45 38 46 88 47
REMARK SMILES IDX 39 48 93 49 87 50 89 51 40 52 92 53 86 54 85 55 41 57 73 58
REMARK SMILES IDX 53 59 72 60 54 61 57 62 71 63 90 64 55 65 56 66 70 68 91 69
REMARK SMILES IDX 58 70 42 71 43 72 51 73 44 74 46 75 52 76 45 77 47 78 48 79
REMARK SMILES IDX 49 80 50 81 74 82 75 83 83 84 76 85 78 86 84 87 77 88 79 89
REMARK SMILES IDX 80 90 81 91 82 92 59 93 60 94 68 95 61 96 63 97 69 98 62 99
REMARK SMILES IDX 64 100 65 101 66 102 67 103
REMARK H PARENT 26 5 9 10 12 12 30 37 89 56 57 67
REMARK Flexibility Score: inf
ROOT
ATOM      1  C   UNL A   1      32.869  29.580  26.666  1.00  0.00     0.117 C 
ENDROOT
BRANCH   1   2
ATOM      2  N   UNL A   1      33.137  29.163  25.270  1.00  0.00    -0.354 N 
ATOM      3  C   UNL A   1      32.970  28.064  24.477  1.00  0.00     0.242 C 
ATOM      4  O   UNL A   1      33.284  28.269  23.288  1.00  0.00    -0.273 OA
ATOM      5  H   UNL A   1      33.558  29.895  24.765  1.00  0.00     0.163 HD
BRANCH   3   6
ATOM      6  C   UNL A   1      32.658  26.563  24.883  1.00  0.00     0.177 C 
BRANCH   6   7
ATOM      7  N   UNL A   1      31.432  26.256  25.629  1.00  0.00    -0.326 N 
ATOM      8  N   UNL A   1      31.356  24.164  26.852  1.00  0.00    -0.334 N 
ATOM      9  C   UNL A   1      30.852  25.258  26.294  1.00  0.00     0.315 C 
ATOM     10  H   UNL A   1      30.622  23.723  27.339  1.00  0.00     0.165 HD
ATOM     11  O   UNL A   1      29.628  25.398  26.442  1.00  0.00    -0.249 OA
ATOM     12  H   UNL A   1      30.845  27.046  25.641  1.00  0.00     0.166 HD
BRANCH   8  13
ATOM     13  C   UNL A   1      32.563  23.335  27.046  1.00  0.00     0.153 C 
BRANCH  13  14
ATOM     14  C   UNL A   1      32.783  22.177  26.083  1.00  0.00    -0.029 A 
ATOM     15  C   UNL A   1      32.983  19.762  24.568  1.00  0.00    -0.045 A 
ATOM     16  C   UNL A   1      32.087  20.773  24.199  1.00  0.00     0.004 A 
ATOM     17  C   UNL A   1      33.882  20.043  25.605  1.00  0.00     0.004 A 
ATOM     18  C   UNL A   1      32.011  21.980  24.923  1.00  0.00     0.006 A 
ATOM     19  C   UNL A   1      33.782  21.228  26.352  1.00  0.00     0.006 A 
BRANCH  15  20
ATOM     20  C   UNL A   1      32.985  18.376  23.932  1.00  0.00     0.013 C 
ATOM     21  C   UNL A   1      32.415  18.346  22.513  1.00  0.00     0.012 C 
ATOM     22  C   UNL A   1      34.367  17.735  23.924  1.00  0.00     0.012 C 
ENDBRANCH  15  20
ENDBRANCH  13  14
ENDBRANCH   8  13
ENDBRANCH   6   7
BRANCH   6  23
ATOM     23  C   UNL A   1      33.957  25.957  25.400  1.00  0.00     0.068 C 
BRANCH  23  24
ATOM     24  C   UNL A   1      34.554  24.938  24.503  1.00  0.00    -0.037 C 
ATOM     25  C   UNL A   1      35.584  24.148  24.778  1.00  0.00     0.001 A 
ATOM     26  C   UNL A   1      33.947  24.562  23.190  1.00  0.00     0.174 C 
ATOM     27  C   UNL A   1      36.423  23.940  25.911  1.00  0.00     0.010 A 
ATOM     28  C   UNL A   1      35.649  23.288  23.591  1.00  0.00     0.065 A 
ATOM     29  N   UNL A   1      34.775  23.470  22.652  1.00  0.00    -0.280 NA
ATOM     30  C   UNL A   1      37.256  22.887  25.902  1.00  0.00     0.001 A 
ATOM     31  C   UNL A   1      36.642  22.207  23.633  1.00  0.00     0.028 A 
ATOM     32  C   UNL A   1      37.356  22.011  24.749  1.00  0.00     0.002 A 
ENDBRANCH  23  24
ENDBRANCH   6  23
ENDBRANCH   3   6
ENDBRANCH   1   2
BRANCH   1  33
ATOM     33  C   UNL A   1      32.958  31.103  26.908  1.00  0.00     0.042 C 
BRANCH  33  34
ATOM     34  C   UNL A   1      31.803  32.092  26.694  1.00  0.00     0.118 C 
BRANCH  34  35
ATOM     35  N   UNL A   1      32.075  33.435  27.204  1.00  0.00    -0.352 N 
ATOM     36  C   UNL A   1      33.013  34.057  28.003  1.00  0.00     0.251 C 
ATOM     37  H   UNL A   1      31.399  34.077  26.889  1.00  0.00     0.163 HD
ATOM     38  O   UNL A   1      32.762  35.250  28.227  1.00  0.00    -0.269 OA
BRANCH  36  39
ATOM     39  C   UNL A   1      34.278  33.504  28.617  1.00  0.00     0.039 A 
ATOM     40  C   UNL A   1      34.115  32.459  29.551  1.00  0.00     0.014 A 
ATOM     41  C   UNL A   1      35.573  33.992  28.475  1.00  0.00     0.014 A 
ATOM     42  C   UNL A   1      35.187  31.922  30.304  1.00  0.00     0.010 A 
ATOM     43  C   UNL A   1      36.669  33.402  29.187  1.00  0.00     0.010 A 
ATOM     44  C   UNL A   1      36.505  32.362  30.126  1.00  0.00    -0.014 A 
BRANCH  44  45
ATOM     45  C   UNL A   1      37.651  31.752  30.926  1.00  0.00     0.031 A 
ATOM     46  C   UNL A   1      38.504  30.616  30.374  1.00  0.00     0.074 A 
ATOM     47  C   UNL A   1      37.964  32.180  32.176  1.00  0.00     0.049 A 
ATOM     48  N   UNL A   1      39.530  30.002  30.925  1.00  0.00    -0.248 NA
ATOM     49  C   UNL A   1      38.172  30.104  29.037  1.00  0.00     0.031 C 
ATOM     50  C   UNL A   1      37.276  33.238  32.913  1.00  0.00     0.029 A 
ATOM     51  N   UNL A   1      38.927  31.748  33.073  1.00  0.00    -0.354 N 
ATOM     52  C   UNL A   1      39.946  29.030  30.020  1.00  0.00     0.074 A 
ATOM     53  C   UNL A   1      39.033  29.104  28.898  1.00  0.00     0.031 C 
ATOM     54  C   UNL A   1      37.786  33.332  34.153  1.00  0.00     0.029 A 
ATOM     55  C   UNL A   1      38.862  32.358  34.310  1.00  0.00     0.049 A 
ATOM     56  H   UNL A   1      39.602  31.066  32.848  1.00  0.00     0.167 HD
ATOM     57  C   UNL A   1      41.007  28.182  30.072  1.00  0.00     0.034 A 
ATOM     58  C   UNL A   1      39.569  32.180  35.449  1.00  0.00     0.034 A 
ATOM     59  C   UNL A   1      41.982  28.123  31.133  1.00  0.00     0.049 A 
ATOM     60  C   UNL A   1      40.741  31.232  35.487  1.00  0.00     0.074 A 
ATOM     61  C   UNL A   1      43.150  27.375  31.181  1.00  0.00     0.029 A 
ATOM     62  N   UNL A   1      41.911  28.813  32.328  1.00  0.00    -0.354 N 
ATOM     63  N   UNL A   1      41.222  30.477  34.532  1.00  0.00    -0.248 NA
ATOM     64  C   UNL A   1      41.510  31.162  36.744  1.00  0.00     0.031 C 
ATOM     65  C   UNL A   1      43.769  27.592  32.417  1.00  0.00     0.029 A 
ATOM     66  C   UNL A   1      42.999  28.495  33.127  1.00  0.00     0.049 A 
ATOM     67  H   UNL A   1      41.192  29.439  32.576  1.00  0.00     0.167 HD
ATOM     68  C   UNL A   1      42.373  29.891  35.052  1.00  0.00     0.074 A 
ATOM     69  C   UNL A   1      42.526  30.381  36.403  1.00  0.00     0.031 C 
ATOM     70  C   UNL A   1      43.219  29.018  34.451  1.00  0.00     0.034 A 
BRANCH  57  71
ATOM     71  C   UNL A   1      41.241  27.272  28.890  1.00  0.00     0.023 A 
ATOM     72  C   UNL A   1      40.504  26.075  28.785  1.00  0.00     0.012 A 
ATOM     73  C   UNL A   1      42.095  27.652  27.834  1.00  0.00     0.148 A 
ATOM     74  C   UNL A   1      40.637  25.253  27.667  1.00  0.00     0.002 A 
ATOM     75  C   UNL A   1      42.192  26.847  26.703  1.00  0.00     0.091 A 
ATOM     76  F   UNL A   1      42.791  28.791  27.952  1.00  0.00    -0.205 F 
ATOM     77  C   UNL A   1      41.472  25.643  26.623  1.00  0.00     0.022 A 
BRANCH  75  78
ATOM     78  S   UNL A   1      43.174  27.299  25.268  1.00  0.00     0.127 S 
ATOM     79  O   UNL A   1      43.306  26.013  24.585  1.00  0.00    -0.237 OA
ATOM     80  O   UNL A   1      42.307  28.262  24.590  1.00  0.00    -0.237 OA
ATOM     81  O   UNL A   1      44.413  27.859  25.791  1.00  0.00    -0.744 OA
ENDBRANCH  75  78
ENDBRANCH  57  71
BRANCH  58  82
ATOM     82  C   UNL A   1      39.239  32.977  36.669  1.00  0.00     0.023 A 
ATOM     83  C   UNL A   1      39.818  34.249  36.849  1.00  0.00     0.012 A 
ATOM     84  C   UNL A   1      38.380  32.469  37.663  1.00  0.00     0.148 A 
ATOM     85  C   UNL A   1      39.574  34.986  38.010  1.00  0.00     0.002 A 
ATOM     86  C   UNL A   1      38.103  33.228  38.795  1.00  0.00     0.091 A 
ATOM     87  F   UNL A   1      37.864  31.245  37.487  1.00  0.00    -0.205 F 
ATOM     88  C   UNL A   1      38.711  34.479  38.977  1.00  0.00     0.022 A 
BRANCH  86  89
ATOM     89  S   UNL A   1      36.938  32.705  40.059  1.00  0.00     0.127 S 
ATOM     90  O   UNL A   1      35.684  32.662  39.312  1.00  0.00    -0.237 OA
ATOM     91  O   UNL A   1      37.475  31.398  40.439  1.00  0.00    -0.237 OA
ATOM     92  O   UNL A   1      37.011  33.716  41.106  1.00  0.00    -0.744 OA
ENDBRANCH  86  89
ENDBRANCH  58  82
BRANCH  70  93
ATOM     93  C   UNL A   1      44.437  28.554  35.212  1.00  0.00     0.023 A 
ATOM     94  C   UNL A   1      45.684  29.174  34.993  1.00  0.00     0.012 A 
ATOM     95  C   UNL A   1      44.334  27.553  36.200  1.00  0.00     0.148 A 
ATOM     96  C   UNL A   1      46.810  28.786  35.721  1.00  0.00     0.002 A 
ATOM     97  C   UNL A   1      45.450  27.202  36.953  1.00  0.00     0.091 A 
ATOM     98  F   UNL A   1      43.147  26.957  36.385  1.00  0.00    -0.205 F 
ATOM     99  C   UNL A   1      46.692  27.810  36.707  1.00  0.00     0.022 A 
BRANCH  97 100
ATOM    100  S   UNL A   1      45.372  26.022  38.308  1.00  0.00     0.127 S 
ATOM    101  O   UNL A   1      46.668  26.224  38.955  1.00  0.00    -0.237 OA
ATOM    102  O   UNL A   1      44.226  26.506  39.078  1.00  0.00    -0.237 OA
ATOM    103  O   UNL A   1      45.177  24.717  37.691  1.00  0.00    -0.744 OA
ENDBRANCH  97 100
ENDBRANCH  70  93
ENDBRANCH  44  45
ENDBRANCH  36  39
ENDBRANCH  34  35
ENDBRANCH  33  34
ENDBRANCH   1  33
TORSDOF 19
ENDMDL
MODEL 3
REMARK VINA RESULT:     -12.8      4.959     10.755
REMARK SMILES CC(C)c1ccc(CNC(=O)N[C@H](CC2=c3ccccc3=NC2)C(=O)NCCCNC(=O)c2ccc(-c3c4nc(c(-c5cccc(S(=O)(=O)[O-])c5F)c5ccc([nH]5)c(-c5cccc(S(=O)(=O)[O-])c5F)c5nc(c(-c6cccc(S(=O)(=O)[O-])c6F)c6ccc3[nH]6)C=C5)C=C4)cc2)cc1
REMARK SMILES IDX 27 1 26 2 24 3 25 4 13 6 12 7 9 8 10 9 11 11 8 13 7 14 4 15
REMARK SMILES IDX 5 16 97 17 6 18 96 19 2 20 1 21 3 22 14 23 15 24 16 25 23 26
REMARK SMILES IDX 17 27 21 28 22 29 18 30 20 31 19 32 28 33 29 34 30 35 31 36
REMARK SMILES IDX 32 38 33 39 34 40 95 41 35 42 94 43 36 44 37 45 38 46 88 47
REMARK SMILES IDX 39 48 93 49 87 50 89 51 40 52 92 53 86 54 85 55 41 57 73 58
REMARK SMILES IDX 53 59 72 60 54 61 57 62 71 63 90 64 55 65 56 66 70 68 91 69
REMARK SMILES IDX 58 70 42 71 43 72 51 73 44 74 46 75 52 76 45 77 47 78 48 79
REMARK SMILES IDX 49 80 50 81 74 82 75 83 83 84 76 85 78 86 84 87 77 88 79 89
REMARK SMILES IDX 80 90 81 91 82 92 59 93 60 94 68 95 61 96 63 97 69 98 62 99
REMARK SMILES IDX 64 100 65 101 66 102 67 103
REMARK H PARENT 26 5 9 10 12 12 30 37 89 56 57 67
REMARK Flexibility Score: inf
ROOT
ATOM      1  C   UNL A   1      35.786  24.031  25.869  1.00  0.00     0.117 C 
ENDROOT
BRANCH   1   2
ATOM      2  N   UNL A   1      34.996  24.489  24.702  1.00  0.00    -0.354 N 
ATOM      3  C   UNL A   1      33.798  25.092  24.446  1.00  0.00     0.242 C 
ATOM      4  O   UNL A   1      33.637  25.363  23.240  1.00  0.00    -0.273 OA
ATOM      5  H   UNL A   1      35.477  24.303  23.864  1.00  0.00     0.163 HD
BRANCH   3   6
ATOM      6  C   UNL A   1      32.541  25.286  25.394  1.00  0.00     0.177 C 
BRANCH   6   7
ATOM      7  N   UNL A   1      32.260  24.291  26.435  1.00  0.00    -0.326 N 
ATOM      8  N   UNL A   1      31.985  21.985  25.741  1.00  0.00    -0.334 N 
ATOM      9  C   UNL A   1      31.903  23.015  26.573  1.00  0.00     0.315 C 
ATOM     10  H   UNL A   1      31.712  21.184  26.244  1.00  0.00     0.165 HD
ATOM     11  O   UNL A   1      31.443  22.741  27.692  1.00  0.00    -0.249 OA
ATOM     12  H   UNL A   1      32.370  24.701  27.324  1.00  0.00     0.166 HD
BRANCH   8  13
ATOM     13  C   UNL A   1      32.317  21.543  24.371  1.00  0.00     0.153 C 
BRANCH  13  14
ATOM     14  C   UNL A   1      32.860  20.131  24.199  1.00  0.00    -0.029 A 
ATOM     15  C   UNL A   1      33.783  17.428  24.299  1.00  0.00    -0.045 A 
ATOM     16  C   UNL A   1      32.568  17.753  23.684  1.00  0.00     0.004 A 
ATOM     17  C   UNL A   1      34.597  18.488  24.719  1.00  0.00     0.004 A 
ATOM     18  C   UNL A   1      32.127  19.089  23.601  1.00  0.00     0.006 A 
ATOM     19  C   UNL A   1      34.143  19.816  24.674  1.00  0.00     0.006 A 
BRANCH  15  20
ATOM     20  C   UNL A   1      34.223  15.994  24.570  1.00  0.00     0.013 C 
ATOM     21  C   UNL A   1      35.527  15.885  25.364  1.00  0.00     0.012 C 
ATOM     22  C   UNL A   1      33.149  15.172  25.271  1.00  0.00     0.012 C 
ENDBRANCH  15  20
ENDBRANCH  13  14
ENDBRANCH   8  13
ENDBRANCH   6   7
BRANCH   6  23
ATOM     23  C   UNL A   1      31.376  25.718  24.513  1.00  0.00     0.068 C 
BRANCH  23  24
ATOM     24  C   UNL A   1      31.192  27.187  24.423  1.00  0.00    -0.037 C 
ATOM     25  C   UNL A   1      31.369  28.068  25.400  1.00  0.00     0.001 A 
ATOM     26  C   UNL A   1      30.921  27.891  23.132  1.00  0.00     0.174 C 
ATOM     27  C   UNL A   1      31.791  27.997  26.760  1.00  0.00     0.010 A 
ATOM     28  C   UNL A   1      31.161  29.348  24.714  1.00  0.00     0.065 A 
ATOM     29  N   UNL A   1      30.891  29.329  23.447  1.00  0.00    -0.280 NA
ATOM     30  C   UNL A   1      32.055  29.143  27.405  1.00  0.00     0.001 A 
ATOM     31  C   UNL A   1      31.399  30.555  25.516  1.00  0.00     0.028 A 
ATOM     32  C   UNL A   1      31.862  30.433  26.768  1.00  0.00     0.002 A 
ENDBRANCH  23  24
ENDBRANCH   6  23
ENDBRANCH   3   6
ENDBRANCH   1   2
BRANCH   1  33
ATOM     33  C   UNL A   1      36.165  22.535  25.839  1.00  0.00     0.042 C 
BRANCH  33  34
ATOM     34  C   UNL A   1      37.104  21.890  24.808  1.00  0.00     0.118 C 
BRANCH  34  35
ATOM     35  N   UNL A   1      38.166  21.082  25.403  1.00  0.00    -0.352 N 
ATOM     36  C   UNL A   1      39.313  21.282  26.145  1.00  0.00     0.251 C 
ATOM     37  H   UNL A   1      38.024  20.124  25.226  1.00  0.00     0.163 HD
ATOM     38  O   UNL A   1      39.960  20.246  26.349  1.00  0.00    -0.269 OA
BRANCH  36  39
ATOM     39  C   UNL A   1      39.870  22.556  26.736  1.00  0.00     0.039 A 
ATOM     40  C   UNL A   1      39.459  23.761  26.128  1.00  0.00     0.014 A 
ATOM     41  C   UNL A   1      40.845  22.677  27.722  1.00  0.00     0.014 A 
ATOM     42  C   UNL A   1      39.987  25.025  26.485  1.00  0.00     0.010 A 
ATOM     43  C   UNL A   1      41.330  23.964  28.129  1.00  0.00     0.010 A 
ATOM     44  C   UNL A   1      40.924  25.168  27.516  1.00  0.00    -0.014 A 
BRANCH  44  45
ATOM     45  C   UNL A   1      41.460  26.542  27.905  1.00  0.00     0.031 A 
ATOM     46  C   UNL A   1      42.912  26.938  27.665  1.00  0.00     0.074 A 
ATOM     47  C   UNL A   1      40.676  27.480  28.497  1.00  0.00     0.049 A 
ATOM     48  N   UNL A   1      43.517  28.078  27.922  1.00  0.00    -0.248 NA
ATOM     49  C   UNL A   1      43.798  25.935  27.057  1.00  0.00     0.031 C 
ATOM     50  C   UNL A   1      39.265  27.319  28.840  1.00  0.00     0.029 A 
ATOM     51  N   UNL A   1      40.967  28.755  28.953  1.00  0.00    -0.354 N 
ATOM     52  C   UNL A   1      44.844  27.922  27.531  1.00  0.00     0.074 A 
ATOM     53  C   UNL A   1      44.969  26.559  27.058  1.00  0.00     0.031 C 
ATOM     54  C   UNL A   1      38.832  28.408  29.500  1.00  0.00     0.029 A 
ATOM     55  C   UNL A   1      39.923  29.370  29.614  1.00  0.00     0.049 A 
ATOM     56  H   UNL A   1      41.842  29.186  28.817  1.00  0.00     0.167 HD
ATOM     57  C   UNL A   1      45.863  28.822  27.512  1.00  0.00     0.034 A 
ATOM     58  C   UNL A   1      39.824  30.564  30.243  1.00  0.00     0.034 A 
ATOM     59  C   UNL A   1      45.767  30.206  27.905  1.00  0.00     0.049 A 
ATOM     60  C   UNL A   1      40.966  31.547  30.212  1.00  0.00     0.074 A 
ATOM     61  C   UNL A   1      46.729  31.198  27.787  1.00  0.00     0.029 A 
ATOM     62  N   UNL A   1      44.667  30.797  28.498  1.00  0.00    -0.354 N 
ATOM     63  N   UNL A   1      42.141  31.428  29.650  1.00  0.00    -0.248 NA
ATOM     64  C   UNL A   1      40.742  32.858  30.850  1.00  0.00     0.031 C 
ATOM     65  C   UNL A   1      46.221  32.381  28.334  1.00  0.00     0.029 A 
ATOM     66  C   UNL A   1      44.933  32.132  28.770  1.00  0.00     0.049 A 
ATOM     67  H   UNL A   1      43.819  30.339  28.699  1.00  0.00     0.167 HD
ATOM     68  C   UNL A   1      42.771  32.659  29.814  1.00  0.00     0.074 A 
ATOM     69  C   UNL A   1      41.847  33.516  30.523  1.00  0.00     0.031 C 
ATOM     70  C   UNL A   1      44.011  33.032  29.412  1.00  0.00     0.034 A 
BRANCH  57  71
ATOM     71  C   UNL A   1      47.195  28.368  26.963  1.00  0.00     0.023 A 
ATOM     72  C   UNL A   1      48.237  28.053  27.858  1.00  0.00     0.012 A 
ATOM     73  C   UNL A   1      47.377  28.143  25.583  1.00  0.00     0.148 A 
ATOM     74  C   UNL A   1      49.451  27.554  27.389  1.00  0.00     0.002 A 
ATOM     75  C   UNL A   1      48.577  27.606  25.126  1.00  0.00     0.091 A 
ATOM     76  F   UNL A   1      46.376  28.452  24.746  1.00  0.00    -0.205 F 
ATOM     77  C   UNL A   1      49.617  27.322  26.026  1.00  0.00     0.022 A 
BRANCH  75  78
ATOM     78  S   UNL A   1      48.861  27.193  23.401  1.00  0.00     0.127 S 
ATOM     79  O   UNL A   1      50.320  27.095  23.359  1.00  0.00    -0.237 OA
ATOM     80  O   UNL A   1      48.162  25.915  23.269  1.00  0.00    -0.237 OA
ATOM     81  O   UNL A   1      48.286  28.283  22.626  1.00  0.00    -0.744 OA
ENDBRANCH  75  78
ENDBRANCH  57  71
BRANCH  58  82
ATOM     82  C   UNL A   1      38.548  30.952  30.918  1.00  0.00     0.023 A 
ATOM     83  C   UNL A   1      38.342  30.607  32.269  1.00  0.00     0.012 A 
ATOM     84  C   UNL A   1      37.530  31.631  30.221  1.00  0.00     0.148 A 
ATOM     85  C   UNL A   1      37.134  30.903  32.903  1.00  0.00     0.002 A 
ATOM     86  C   UNL A   1      36.348  31.966  30.873  1.00  0.00     0.091 A 
ATOM     87  F   UNL A   1      37.734  31.923  28.930  1.00  0.00    -0.205 F 
ATOM     88  C   UNL A   1      36.142  31.589  32.209  1.00  0.00     0.022 A 
BRANCH  86  89
ATOM     89  S   UNL A   1      35.043  32.925  30.094  1.00  0.00     0.127 S 
ATOM     90  O   UNL A   1      35.786  34.061  29.555  1.00  0.00    -0.237 OA
ATOM     91  O   UNL A   1      34.539  31.987  29.092  1.00  0.00    -0.237 OA
ATOM     92  O   UNL A   1      34.098  33.241  31.157  1.00  0.00    -0.744 OA
ENDBRANCH  86  89
ENDBRANCH  58  82
BRANCH  70  93
ATOM     93  C   UNL A   1      44.456  34.451  29.669  1.00  0.00     0.023 A 
ATOM     94  C   UNL A   1      45.067  34.788  30.894  1.00  0.00     0.012 A 
ATOM     95  C   UNL A   1      44.337  35.438  28.669  1.00  0.00     0.148 A 
ATOM     96  C   UNL A   1      45.523  36.086  31.130  1.00  0.00     0.002 A 
ATOM     97  C   UNL A   1      44.834  36.718  28.893  1.00  0.00     0.091 A 
ATOM     98  F   UNL A   1      43.736  35.111  27.516  1.00  0.00    -0.205 F 
ATOM     99  C   UNL A   1      45.418  37.046  30.128  1.00  0.00     0.022 A 
BRANCH  97 100
ATOM    100  S   UNL A   1      44.827  37.996  27.627  1.00  0.00     0.127 S 
ATOM    101  O   UNL A   1      45.713  37.420  26.617  1.00  0.00    -0.237 OA
ATOM    102  O   UNL A   1      43.416  38.045  27.243  1.00  0.00    -0.237 OA
ATOM    103  O   UNL A   1      45.319  39.203  28.275  1.00  0.00    -0.744 OA
ENDBRANCH  97 100
ENDBRANCH  70  93
ENDBRANCH  44  45
ENDBRANCH  36  39
ENDBRANCH  34  35
ENDBRANCH  33  34
ENDBRANCH   1  33
TORSDOF 19
ENDMDL
