MODEL 1
REMARK VINA RESULT:     -11.6      0.000      0.000
REMARK SMILES O=C(C[S@](=O)c1c([N+](=O)[O-])cc(C(F)(F)F)cc1[N+](=O)[O-])NCCCNC(=O)c1ccc(-c2c3nc(c(-c4cccc(S(=O)(=O)[O-])c4F)c4ccc([nH]4)c(-c4cccc(S(=O)(=O)[O-])c4F)c4nc(c(-c5cccc(S(=O)(=O)[O-])c5F)c5ccc2[nH]5)C=C4)C=C3)cc1
REMARK SMILES IDX 24 1 23 2 22 3 1 4 2 5 3 7 4 8 5 9 6 10 7 11 18 12 11 13
REMARK SMILES IDX 17 14 12 15 8 16 9 17 10 18 19 19 20 20 21 21 13 22 14 23
REMARK SMILES IDX 15 24 16 25 25 26 26 27 27 28 28 30 29 31 30 32 91 33 31 34
REMARK SMILES IDX 90 35 32 36 33 37 34 38 84 39 35 40 89 41 83 42 85 43 36 44
REMARK SMILES IDX 88 45 82 46 81 47 37 49 69 50 49 51 68 52 50 53 53 54 67 55
REMARK SMILES IDX 86 56 51 57 52 58 66 60 87 61 54 62 38 63 39 64 47 65 40 66
REMARK SMILES IDX 42 67 48 68 41 69 43 70 44 71 45 72 46 73 70 74 71 75 79 76
REMARK SMILES IDX 72 77 74 78 80 79 73 80 75 81 76 82 77 83 78 84 55 85 56 86
REMARK SMILES IDX 64 87 57 88 59 89 65 90 58 91 60 92 61 93 62 94 63 95
REMARK H PARENT 22 6 26 29 85 48 53 59
REMARK Flexibility Score: inf
ROOT
ATOM      1  C   UNL A   1      32.027  28.992  24.109  1.00  0.00     0.042 C 
ENDROOT
BRANCH   1   2
ATOM      2  C   UNL A   1      30.829  28.094  24.425  1.00  0.00     0.117 C 
BRANCH   2   3
ATOM      3  N   UNL A   1      31.184  26.726  24.783  1.00  0.00    -0.355 N 
ATOM      4  O   UNL A   1      30.865  27.101  26.998  1.00  0.00    -0.274 OA
ATOM      5  C   UNL A   1      31.184  26.319  26.099  1.00  0.00     0.233 C 
ATOM      6  H   UNL A   1      31.427  26.085  24.076  1.00  0.00     0.163 HD
BRANCH   5   7
ATOM      7  C   UNL A   1      31.672  24.937  26.471  1.00  0.00     0.210 C 
BRANCH   7   8
ATOM      8  S   UNL A   1      33.301  24.383  25.991  1.00  0.00     0.077 S 
ATOM      9  O   UNL A   1      33.904  25.366  25.037  1.00  0.00    -0.253 OA
BRANCH   8  10
ATOM     10  C   UNL A   1      33.200  22.853  25.035  1.00  0.00     0.194 A 
ATOM     11  C   UNL A   1      33.987  21.766  25.476  1.00  0.00     0.293 A 
ATOM     12  C   UNL A   1      32.391  22.580  23.923  1.00  0.00     0.293 A 
ATOM     13  C   UNL A   1      33.844  20.455  24.987  1.00  0.00     0.100 A 
ATOM     14  C   UNL A   1      32.200  21.261  23.441  1.00  0.00     0.100 A 
ATOM     15  C   UNL A   1      32.890  20.179  24.007  1.00  0.00     0.069 A 
BRANCH  11  16
ATOM     16  N   UNL A   1      35.037  21.954  26.467  1.00  0.00     0.064 N 
ATOM     17  O   UNL A   1      36.167  22.215  26.038  1.00  0.00    -0.258 OA
ATOM     18  O   UNL A   1      34.728  21.757  27.648  1.00  0.00    -0.258 OA
ENDBRANCH  11  16
BRANCH  12  19
ATOM     19  N   UNL A   1      31.800  23.639  23.117  1.00  0.00     0.064 N 
ATOM     20  O   UNL A   1      32.522  24.165  22.264  1.00  0.00    -0.258 OA
ATOM     21  O   UNL A   1      30.632  23.949  23.360  1.00  0.00    -0.258 OA
ENDBRANCH  12  19
BRANCH  15  22
ATOM     22  C   UNL A   1      32.673  18.759  23.525  1.00  0.00     0.416 C 
ATOM     23  F   UNL A   1      31.813  18.077  24.322  1.00  0.00    -0.166 F 
ATOM     24  F   UNL A   1      32.146  18.718  22.272  1.00  0.00    -0.166 F 
ATOM     25  F   UNL A   1      33.824  18.041  23.485  1.00  0.00    -0.166 F 
ENDBRANCH  15  22
ENDBRANCH   8  10
ENDBRANCH   7   8
ENDBRANCH   5   7
ENDBRANCH   2   3
ENDBRANCH   1   2
BRANCH   1  26
ATOM     26  C   UNL A   1      32.881  29.431  25.299  1.00  0.00     0.118 C 
BRANCH  26  27
ATOM     27  N   UNL A   1      32.476  30.688  25.904  1.00  0.00    -0.352 N 
ATOM     28  C   UNL A   1      33.054  31.415  26.915  1.00  0.00     0.251 C 
ATOM     29  H   UNL A   1      31.656  31.081  25.529  1.00  0.00     0.163 HD
ATOM     30  O   UNL A   1      32.504  32.461  27.256  1.00  0.00    -0.269 OA
BRANCH  28  31
ATOM     31  C   UNL A   1      34.279  30.960  27.617  1.00  0.00     0.039 A 
ATOM     32  C   UNL A   1      35.265  31.916  27.886  1.00  0.00     0.014 A 
ATOM     33  C   UNL A   1      34.500  29.627  27.971  1.00  0.00     0.014 A 
ATOM     34  C   UNL A   1      36.446  31.551  28.541  1.00  0.00     0.010 A 
ATOM     35  C   UNL A   1      35.663  29.269  28.665  1.00  0.00     0.010 A 
ATOM     36  C   UNL A   1      36.650  30.225  28.955  1.00  0.00    -0.014 A 
BRANCH  36  37
ATOM     37  C   UNL A   1      37.880  29.844  29.700  1.00  0.00     0.031 A 
ATOM     38  C   UNL A   1      38.161  30.405  31.068  1.00  0.00     0.074 A 
ATOM     39  C   UNL A   1      38.781  29.024  29.122  1.00  0.00     0.049 A 
ATOM     40  N   UNL A   1      39.178  30.176  31.859  1.00  0.00    -0.248 NA
ATOM     41  C   UNL A   1      37.184  31.361  31.611  1.00  0.00     0.031 C 
ATOM     42  C   UNL A   1      38.669  28.463  27.774  1.00  0.00     0.029 A 
ATOM     43  N   UNL A   1      39.978  28.534  29.586  1.00  0.00    -0.354 N 
ATOM     44  C   UNL A   1      38.981  30.975  32.979  1.00  0.00     0.074 A 
ATOM     45  C   UNL A   1      37.758  31.717  32.752  1.00  0.00     0.031 C 
ATOM     46  C   UNL A   1      39.752  27.710  27.520  1.00  0.00     0.029 A 
ATOM     47  C   UNL A   1      40.642  27.745  28.676  1.00  0.00     0.049 A 
ATOM     48  H   UNL A   1      40.328  28.732  30.485  1.00  0.00     0.167 HD
ATOM     49  C   UNL A   1      39.728  31.065  34.106  1.00  0.00     0.034 A 
ATOM     50  C   UNL A   1      41.832  27.117  28.761  1.00  0.00     0.034 A 
ATOM     51  C   UNL A   1      40.921  30.299  34.353  1.00  0.00     0.049 A 
ATOM     52  C   UNL A   1      42.620  27.197  30.042  1.00  0.00     0.074 A 
ATOM     53  C   UNL A   1      41.698  30.263  35.499  1.00  0.00     0.029 A 
ATOM     54  N   UNL A   1      41.514  29.439  33.444  1.00  0.00    -0.354 N 
ATOM     55  N   UNL A   1      42.326  27.824  31.154  1.00  0.00    -0.248 NA
ATOM     56  C   UNL A   1      43.883  26.445  30.095  1.00  0.00     0.031 C 
ATOM     57  C   UNL A   1      42.769  29.391  35.276  1.00  0.00     0.029 A 
ATOM     58  C   UNL A   1      42.649  28.870  33.998  1.00  0.00     0.049 A 
ATOM     59  H   UNL A   1      41.179  29.259  32.535  1.00  0.00     0.167 HD
ATOM     60  C   UNL A   1      43.343  27.511  32.050  1.00  0.00     0.074 A 
ATOM     61  C   UNL A   1      44.252  26.623  31.357  1.00  0.00     0.031 C 
ATOM     62  C   UNL A   1      43.515  27.935  33.326  1.00  0.00     0.034 A 
BRANCH  49  63
ATOM     63  C   UNL A   1      39.242  31.984  35.196  1.00  0.00     0.023 A 
ATOM     64  C   UNL A   1      38.299  31.507  36.130  1.00  0.00     0.012 A 
ATOM     65  C   UNL A   1      39.759  33.286  35.341  1.00  0.00     0.148 A 
ATOM     66  C   UNL A   1      37.854  32.322  37.171  1.00  0.00     0.002 A 
ATOM     67  C   UNL A   1      39.342  34.078  36.405  1.00  0.00     0.091 A 
ATOM     68  F   UNL A   1      40.640  33.729  34.432  1.00  0.00    -0.205 F 
ATOM     69  C   UNL A   1      38.382  33.602  37.314  1.00  0.00     0.022 A 
BRANCH  67  70
ATOM     70  S   UNL A   1      40.018  35.712  36.716  1.00  0.00     0.127 S 
ATOM     71  O   UNL A   1      41.445  35.422  36.840  1.00  0.00    -0.237 OA
ATOM     72  O   UNL A   1      39.648  36.439  35.500  1.00  0.00    -0.237 OA
ATOM     73  O   UNL A   1      39.365  36.190  37.928  1.00  0.00    -0.744 OA
ENDBRANCH  67  70
ENDBRANCH  49  63
BRANCH  50  74
ATOM     74  C   UNL A   1      42.315  26.283  27.625  1.00  0.00     0.023 A 
ATOM     75  C   UNL A   1      43.216  26.838  26.696  1.00  0.00     0.012 A 
ATOM     76  C   UNL A   1      41.909  24.944  27.472  1.00  0.00     0.148 A 
ATOM     77  C   UNL A   1      43.680  26.084  25.617  1.00  0.00     0.002 A 
ATOM     78  C   UNL A   1      42.417  24.182  26.425  1.00  0.00     0.091 A 
ATOM     79  F   UNL A   1      41.039  24.438  28.358  1.00  0.00    -0.205 F 
ATOM     80  C   UNL A   1      43.289  24.755  25.488  1.00  0.00     0.022 A 
BRANCH  78  81
ATOM     81  S   UNL A   1      42.069  22.428  26.256  1.00  0.00     0.127 S 
ATOM     82  O   UNL A   1      42.652  21.886  27.479  1.00  0.00    -0.237 OA
ATOM     83  O   UNL A   1      40.606  22.412  26.208  1.00  0.00    -0.237 OA
ATOM     84  O   UNL A   1      42.711  22.023  25.011  1.00  0.00    -0.744 OA
ENDBRANCH  78  81
ENDBRANCH  50  74
BRANCH  62  85
ATOM     85  C   UNL A   1      44.709  27.415  34.085  1.00  0.00     0.023 A 
ATOM     86  C   UNL A   1      45.928  28.119  34.037  1.00  0.00     0.012 A 
ATOM     87  C   UNL A   1      44.602  26.274  34.904  1.00  0.00     0.148 A 
ATOM     88  C   UNL A   1      47.032  27.677  34.768  1.00  0.00     0.002 A 
ATOM     89  C   UNL A   1      45.692  25.865  35.665  1.00  0.00     0.091 A 
ATOM     90  F   UNL A   1      43.440  25.604  34.920  1.00  0.00    -0.205 F 
ATOM     91  C   UNL A   1      46.910  26.559  35.590  1.00  0.00     0.022 A 
BRANCH  89  92
ATOM     92  S   UNL A   1      45.592  24.492  36.820  1.00  0.00     0.127 S 
ATOM     93  O   UNL A   1      44.275  24.700  37.418  1.00  0.00    -0.237 OA
ATOM     94  O   UNL A   1      45.682  23.330  35.934  1.00  0.00    -0.237 OA
ATOM     95  O   UNL A   1      46.726  24.648  37.721  1.00  0.00    -0.744 OA
ENDBRANCH  89  92
ENDBRANCH  62  85
ENDBRANCH  36  37
ENDBRANCH  28  31
ENDBRANCH  26  27
ENDBRANCH   1  26
TORSDOF 18
ENDMDL
MODEL 2
REMARK VINA RESULT:     -11.4      1.637      2.188
REMARK SMILES O=C(C[S@](=O)c1c([N+](=O)[O-])cc(C(F)(F)F)cc1[N+](=O)[O-])NCCCNC(=O)c1ccc(-c2c3nc(c(-c4cccc(S(=O)(=O)[O-])c4F)c4ccc([nH]4)c(-c4cccc(S(=O)(=O)[O-])c4F)c4nc(c(-c5cccc(S(=O)(=O)[O-])c5F)c5ccc2[nH]5)C=C4)C=C3)cc1
REMARK SMILES IDX 24 1 23 2 22 3 1 4 2 5 3 7 4 8 5 9 6 10 7 11 18 12 11 13
REMARK SMILES IDX 17 14 12 15 8 16 9 17 10 18 19 19 20 20 21 21 13 22 14 23
REMARK SMILES IDX 15 24 16 25 25 26 26 27 27 28 28 30 29 31 30 32 91 33 31 34
REMARK SMILES IDX 90 35 32 36 33 37 34 38 84 39 35 40 89 41 83 42 85 43 36 44
REMARK SMILES IDX 88 45 82 46 81 47 37 49 69 50 49 51 68 52 50 53 53 54 67 55
REMARK SMILES IDX 86 56 51 57 52 58 66 60 87 61 54 62 38 63 39 64 47 65 40 66
REMARK SMILES IDX 42 67 48 68 41 69 43 70 44 71 45 72 46 73 70 74 71 75 79 76
REMARK SMILES IDX 72 77 74 78 80 79 73 80 75 81 76 82 77 83 78 84 55 85 56 86
REMARK SMILES IDX 64 87 57 88 59 89 65 90 58 91 60 92 61 93 62 94 63 95
REMARK H PARENT 22 6 26 29 85 48 53 59
REMARK Flexibility Score: inf
ROOT
ATOM      1  C   UNL A   1      32.021  29.514  24.536  1.00  0.00     0.042 C 
ENDROOT
BRANCH   1   2
ATOM      2  C   UNL A   1      30.900  28.504  24.279  1.00  0.00     0.117 C 
BRANCH   2   3
ATOM      3  N   UNL A   1      31.367  27.163  23.947  1.00  0.00    -0.355 N 
ATOM      4  O   UNL A   1      30.657  27.324  21.798  1.00  0.00    -0.274 OA
ATOM      5  C   UNL A   1      31.194  26.651  22.681  1.00  0.00     0.233 C 
ATOM      6  H   UNL A   1      31.811  26.618  24.636  1.00  0.00     0.163 HD
BRANCH   5   7
ATOM      7  C   UNL A   1      31.569  25.216  22.381  1.00  0.00     0.210 C 
BRANCH   7   8
ATOM      8  S   UNL A   1      31.379  23.943  23.620  1.00  0.00     0.077 S 
ATOM      9  O   UNL A   1      30.603  24.484  24.779  1.00  0.00    -0.253 OA
BRANCH   8  10
ATOM     10  C   UNL A   1      32.980  23.503  24.333  1.00  0.00     0.194 A 
ATOM     11  C   UNL A   1      33.300  22.128  24.397  1.00  0.00     0.293 A 
ATOM     12  C   UNL A   1      33.987  24.364  24.795  1.00  0.00     0.293 A 
ATOM     13  C   UNL A   1      34.584  21.644  24.704  1.00  0.00     0.100 A 
ATOM     14  C   UNL A   1      35.299  23.902  25.069  1.00  0.00     0.100 A 
ATOM     15  C   UNL A   1      35.619  22.540  24.974  1.00  0.00     0.069 A 
BRANCH  11  16
ATOM     16  N   UNL A   1      32.284  21.111  24.170  1.00  0.00     0.064 N 
ATOM     17  O   UNL A   1      32.145  20.713  23.007  1.00  0.00    -0.258 OA
ATOM     18  O   UNL A   1      31.591  20.791  25.143  1.00  0.00    -0.258 OA
ENDBRANCH  11  16
BRANCH  12  19
ATOM     19  N   UNL A   1      33.719  25.751  25.143  1.00  0.00     0.064 N 
ATOM     20  O   UNL A   1      34.150  26.617  24.374  1.00  0.00    -0.258 OA
ATOM     21  O   UNL A   1      33.103  25.963  26.190  1.00  0.00    -0.258 OA
ENDBRANCH  12  19
BRANCH  15  22
ATOM     22  C   UNL A   1      37.024  22.034  25.233  1.00  0.00     0.416 C 
ATOM     23  F   UNL A   1      37.689  22.815  26.121  1.00  0.00    -0.166 F 
ATOM     24  F   UNL A   1      37.030  20.777  25.750  1.00  0.00    -0.166 F 
ATOM     25  F   UNL A   1      37.779  21.993  24.106  1.00  0.00    -0.166 F 
ENDBRANCH  15  22
ENDBRANCH   8  10
ENDBRANCH   7   8
ENDBRANCH   5   7
ENDBRANCH   2   3
ENDBRANCH   1   2
BRANCH   1  26
ATOM     26  C   UNL A   1      32.329  29.831  25.999  1.00  0.00     0.118 C 
BRANCH  26  27
ATOM     27  N   UNL A   1      32.205  31.235  26.354  1.00  0.00    -0.352 N 
ATOM     28  C   UNL A   1      33.004  32.028  27.139  1.00  0.00     0.251 C 
ATOM     29  H   UNL A   1      31.422  31.689  25.969  1.00  0.00     0.163 HD
ATOM     30  O   UNL A   1      32.673  33.203  27.293  1.00  0.00    -0.269 OA
BRANCH  28  31
ATOM     31  C   UNL A   1      34.211  31.504  27.824  1.00  0.00     0.039 A 
ATOM     32  C   UNL A   1      35.282  32.385  28.016  1.00  0.00     0.014 A 
ATOM     33  C   UNL A   1      34.334  30.173  28.234  1.00  0.00     0.014 A 
ATOM     34  C   UNL A   1      36.451  31.951  28.650  1.00  0.00     0.010 A 
ATOM     35  C   UNL A   1      35.488  29.751  28.907  1.00  0.00     0.010 A 
ATOM     36  C   UNL A   1      36.559  30.633  29.121  1.00  0.00    -0.014 A 
BRANCH  36  37
ATOM     37  C   UNL A   1      37.779  30.183  29.844  1.00  0.00     0.031 A 
ATOM     38  C   UNL A   1      38.077  30.673  31.236  1.00  0.00     0.074 A 
ATOM     39  C   UNL A   1      38.656  29.366  29.227  1.00  0.00     0.049 A 
ATOM     40  N   UNL A   1      39.088  30.379  32.014  1.00  0.00    -0.248 NA
ATOM     41  C   UNL A   1      37.127  31.629  31.825  1.00  0.00     0.031 C 
ATOM     42  C   UNL A   1      38.527  28.872  27.854  1.00  0.00     0.029 A 
ATOM     43  N   UNL A   1      39.839  28.823  29.665  1.00  0.00    -0.354 N 
ATOM     44  C   UNL A   1      38.913  31.131  33.170  1.00  0.00     0.074 A 
ATOM     45  C   UNL A   1      37.711  31.915  32.981  1.00  0.00     0.031 C 
ATOM     46  C   UNL A   1      39.589  28.102  27.564  1.00  0.00     0.029 A 
ATOM     47  C   UNL A   1      40.481  28.059  28.718  1.00  0.00     0.049 A 
ATOM     48  H   UNL A   1      40.195  28.969  30.572  1.00  0.00     0.167 HD
ATOM     49  C   UNL A   1      39.664  31.147  34.298  1.00  0.00     0.034 A 
ATOM     50  C   UNL A   1      41.653  27.395  28.772  1.00  0.00     0.034 A 
ATOM     51  C   UNL A   1      40.835  30.338  34.507  1.00  0.00     0.049 A 
ATOM     52  C   UNL A   1      42.444  27.394  30.053  1.00  0.00     0.074 A 
ATOM     53  C   UNL A   1      41.612  30.227  35.648  1.00  0.00     0.029 A 
ATOM     54  N   UNL A   1      41.404  29.505  33.557  1.00  0.00    -0.354 N 
ATOM     55  N   UNL A   1      42.168  27.976  31.194  1.00  0.00    -0.248 NA
ATOM     56  C   UNL A   1      43.686  26.605  30.068  1.00  0.00     0.031 C 
ATOM     57  C   UNL A   1      42.659  29.337  35.383  1.00  0.00     0.029 A 
ATOM     58  C   UNL A   1      42.523  28.879  34.083  1.00  0.00     0.049 A 
ATOM     59  H   UNL A   1      41.063  29.377  32.643  1.00  0.00     0.167 HD
ATOM     60  C   UNL A   1      43.177  27.594  32.072  1.00  0.00     0.074 A 
ATOM     61  C   UNL A   1      44.061  26.714  31.336  1.00  0.00     0.031 C 
ATOM     62  C   UNL A   1      43.362  27.953  33.366  1.00  0.00     0.034 A 
BRANCH  49  63
ATOM     63  C   UNL A   1      39.204  32.027  35.431  1.00  0.00     0.023 A 
ATOM     64  C   UNL A   1      38.282  31.519  36.369  1.00  0.00     0.012 A 
ATOM     65  C   UNL A   1      39.727  33.323  35.609  1.00  0.00     0.148 A 
ATOM     66  C   UNL A   1      37.863  32.297  37.448  1.00  0.00     0.002 A 
ATOM     67  C   UNL A   1      39.335  34.078  36.710  1.00  0.00     0.091 A 
ATOM     68  F   UNL A   1      40.588  33.798  34.697  1.00  0.00    -0.205 F 
ATOM     69  C   UNL A   1      38.397  33.571  37.624  1.00  0.00     0.022 A 
BRANCH  67  70
ATOM     70  S   UNL A   1      40.021  35.700  37.063  1.00  0.00     0.127 S 
ATOM     71  O   UNL A   1      39.651  36.444  35.861  1.00  0.00    -0.237 OA
ATOM     72  O   UNL A   1      39.291  36.090  38.270  1.00  0.00    -0.237 OA
ATOM     73  O   UNL A   1      41.450  35.495  37.260  1.00  0.00    -0.744 OA
ENDBRANCH  67  70
ENDBRANCH  49  63
BRANCH  50  74
ATOM     74  C   UNL A   1      42.111  26.602  27.597  1.00  0.00     0.023 A 
ATOM     75  C   UNL A   1      42.833  27.242  26.571  1.00  0.00     0.012 A 
ATOM     76  C   UNL A   1      41.860  25.220  27.500  1.00  0.00     0.148 A 
ATOM     77  C   UNL A   1      43.269  26.528  25.455  1.00  0.00     0.002 A 
ATOM     78  C   UNL A   1      42.344  24.503  26.411  1.00  0.00     0.091 A 
ATOM     79  F   UNL A   1      41.159  24.631  28.480  1.00  0.00    -0.205 F 
ATOM     80  C   UNL A   1      43.034  25.158  25.380  1.00  0.00     0.022 A 
BRANCH  78  81
ATOM     81  S   UNL A   1      42.199  22.717  26.295  1.00  0.00     0.127 S 
ATOM     82  O   UNL A   1      40.753  22.528  26.346  1.00  0.00    -0.237 OA
ATOM     83  O   UNL A   1      42.813  22.446  24.995  1.00  0.00    -0.237 OA
ATOM     84  O   UNL A   1      42.950  22.191  27.430  1.00  0.00    -0.744 OA
ENDBRANCH  78  81
ENDBRANCH  50  74
BRANCH  62  85
ATOM     85  C   UNL A   1      44.541  27.366  34.097  1.00  0.00     0.023 A 
ATOM     86  C   UNL A   1      45.786  28.026  34.061  1.00  0.00     0.012 A 
ATOM     87  C   UNL A   1      44.399  26.203  34.880  1.00  0.00     0.148 A 
ATOM     88  C   UNL A   1      46.878  27.520  34.767  1.00  0.00     0.002 A 
ATOM     89  C   UNL A   1      45.479  25.731  35.618  1.00  0.00     0.091 A 
ATOM     90  F   UNL A   1      43.213  25.576  34.886  1.00  0.00    -0.205 F 
ATOM     91  C   UNL A   1      46.721  26.382  35.554  1.00  0.00     0.022 A 
BRANCH  89  92
ATOM     92  S   UNL A   1      45.337  24.326  36.730  1.00  0.00     0.127 S 
ATOM     93  O   UNL A   1      44.373  24.818  37.711  1.00  0.00    -0.237 OA
ATOM     94  O   UNL A   1      44.826  23.277  35.846  1.00  0.00    -0.237 OA
ATOM     95  O   UNL A   1      46.681  24.082  37.235  1.00  0.00    -0.744 OA
ENDBRANCH  89  92
ENDBRANCH  62  85
ENDBRANCH  36  37
ENDBRANCH  28  31
ENDBRANCH  26  27
ENDBRANCH   1  26
TORSDOF 18
ENDMDL
MODEL 3
REMARK VINA RESULT:     -11.4      5.077     10.107
REMARK SMILES O=C(C[S@](=O)c1c([N+](=O)[O-])cc(C(F)(F)F)cc1[N+](=O)[O-])NCCCNC(=O)c1ccc(-c2c3nc(c(-c4cccc(S(=O)(=O)[O-])c4F)c4ccc([nH]4)c(-c4cccc(S(=O)(=O)[O-])c4F)c4nc(c(-c5cccc(S(=O)(=O)[O-])c5F)c5ccc2[nH]5)C=C4)C=C3)cc1
REMARK SMILES IDX 24 1 23 2 22 3 1 4 2 5 3 7 4 8 5 9 6 10 7 11 18 12 11 13
REMARK SMILES IDX 17 14 12 15 8 16 9 17 10 18 19 19 20 20 21 21 13 22 14 23
REMARK SMILES IDX 15 24 16 25 25 26 26 27 27 28 28 30 29 31 30 32 91 33 31 34
REMARK SMILES IDX 90 35 32 36 33 37 34 38 84 39 35 40 89 41 83 42 85 43 36 44
REMARK SMILES IDX 88 45 82 46 81 47 37 49 69 50 49 51 68 52 50 53 53 54 67 55
REMARK SMILES IDX 86 56 51 57 52 58 66 60 87 61 54 62 38 63 39 64 47 65 40 66
REMARK SMILES IDX 42 67 48 68 41 69 43 70 44 71 45 72 46 73 70 74 71 75 79 76
REMARK SMILES IDX 72 77 74 78 80 79 73 80 75 81 76 82 77 83 78 84 55 85 56 86
REMARK SMILES IDX 64 87 57 88 59 89 65 90 58 91 60 92 61 93 62 94 63 95
REMARK H PARENT 22 6 26 29 85 48 53 59
REMARK Flexibility Score: inf
ROOT
ATOM      1  C   UNL A   1      35.082  21.338  25.494  1.00  0.00     0.042 C 
ENDROOT
BRANCH   1   2
ATOM      2  C   UNL A   1      34.018  21.351  24.393  1.00  0.00     0.117 C 
BRANCH   2   3
ATOM      3  N   UNL A   1      33.084  22.468  24.477  1.00  0.00    -0.355 N 
ATOM      4  O   UNL A   1      31.481  21.201  25.463  1.00  0.00    -0.274 OA
ATOM      5  C   UNL A   1      31.831  22.298  25.020  1.00  0.00     0.233 C 
ATOM      6  H   UNL A   1      33.353  23.353  24.141  1.00  0.00     0.163 HD
BRANCH   5   7
ATOM      7  C   UNL A   1      30.826  23.428  24.990  1.00  0.00     0.210 C 
BRANCH   7   8
ATOM      8  S   UNL A   1      30.902  24.685  23.724  1.00  0.00     0.077 S 
ATOM      9  O   UNL A   1      31.871  24.269  22.661  1.00  0.00    -0.253 OA
BRANCH   8  10
ATOM     10  C   UNL A   1      31.609  26.213  24.383  1.00  0.00     0.194 A 
ATOM     11  C   UNL A   1      30.923  27.415  24.095  1.00  0.00     0.293 A 
ATOM     12  C   UNL A   1      32.739  26.361  25.199  1.00  0.00     0.293 A 
ATOM     13  C   UNL A   1      31.211  28.641  24.722  1.00  0.00     0.100 A 
ATOM     14  C   UNL A   1      33.023  27.576  25.873  1.00  0.00     0.100 A 
ATOM     15  C   UNL A   1      32.225  28.713  25.677  1.00  0.00     0.069 A 
BRANCH  11  16
ATOM     16  N   UNL A   1      29.875  27.456  23.087  1.00  0.00     0.064 N 
ATOM     17  O   UNL A   1      28.737  27.141  23.454  1.00  0.00    -0.258 OA
ATOM     18  O   UNL A   1      30.226  27.725  21.931  1.00  0.00    -0.258 OA
ENDBRANCH  11  16
BRANCH  12  19
ATOM     19  N   UNL A   1      33.758  25.327  25.305  1.00  0.00     0.064 N 
ATOM     20  O   UNL A   1      34.484  25.150  24.322  1.00  0.00    -0.258 OA
ATOM     21  O   UNL A   1      33.807  24.688  26.358  1.00  0.00    -0.258 OA
ENDBRANCH  12  19
BRANCH  15  22
ATOM     22  C   UNL A   1      32.495  30.009  26.414  1.00  0.00     0.416 C 
ATOM     23  F   UNL A   1      33.801  30.368  26.348  1.00  0.00    -0.166 F 
ATOM     24  F   UNL A   1      31.786  31.049  25.899  1.00  0.00    -0.166 F 
ATOM     25  F   UNL A   1      32.175  29.936  27.731  1.00  0.00    -0.166 F 
ENDBRANCH  15  22
ENDBRANCH   8  10
ENDBRANCH   7   8
ENDBRANCH   5   7
ENDBRANCH   2   3
ENDBRANCH   1   2
BRANCH   1  26
ATOM     26  C   UNL A   1      36.498  21.737  25.077  1.00  0.00     0.118 C 
BRANCH  26  27
ATOM     27  N   UNL A   1      37.509  20.724  25.324  1.00  0.00    -0.352 N 
ATOM     28  C   UNL A   1      38.773  20.838  25.849  1.00  0.00     0.251 C 
ATOM     29  H   UNL A   1      37.247  19.809  25.074  1.00  0.00     0.163 HD
ATOM     30  O   UNL A   1      39.447  19.814  25.951  1.00  0.00    -0.269 OA
BRANCH  28  31
ATOM     31  C   UNL A   1      39.346  22.145  26.254  1.00  0.00     0.039 A 
ATOM     32  C   UNL A   1      40.462  22.130  27.100  1.00  0.00     0.014 A 
ATOM     33  C   UNL A   1      38.795  23.369  25.867  1.00  0.00     0.014 A 
ATOM     34  C   UNL A   1      41.047  23.327  27.522  1.00  0.00     0.010 A 
ATOM     35  C   UNL A   1      39.407  24.568  26.255  1.00  0.00     0.010 A 
ATOM     36  C   UNL A   1      40.537  24.561  27.088  1.00  0.00    -0.014 A 
BRANCH  36  37
ATOM     37  C   UNL A   1      41.190  25.836  27.491  1.00  0.00     0.031 A 
ATOM     38  C   UNL A   1      42.628  26.113  27.142  1.00  0.00     0.074 A 
ATOM     39  C   UNL A   1      40.500  26.735  28.222  1.00  0.00     0.049 A 
ATOM     40  N   UNL A   1      43.351  27.171  27.407  1.00  0.00    -0.248 NA
ATOM     41  C   UNL A   1      43.353  25.059  26.417  1.00  0.00     0.031 C 
ATOM     42  C   UNL A   1      39.123  26.564  28.690  1.00  0.00     0.029 A 
ATOM     43  N   UNL A   1      40.869  27.962  28.718  1.00  0.00    -0.354 N 
ATOM     44  C   UNL A   1      44.620  26.903  26.909  1.00  0.00     0.074 A 
ATOM     45  C   UNL A   1      44.575  25.569  26.347  1.00  0.00     0.031 C 
ATOM     46  C   UNL A   1      38.765  27.644  29.405  1.00  0.00     0.029 A 
ATOM     47  C   UNL A   1      39.887  28.576  29.462  1.00  0.00     0.049 A 
ATOM     48  H   UNL A   1      41.754  28.363  28.557  1.00  0.00     0.167 HD
ATOM     49  C   UNL A   1      45.715  27.700  26.890  1.00  0.00     0.034 A 
ATOM     50  C   UNL A   1      39.887  29.755  30.114  1.00  0.00     0.034 A 
ATOM     51  C   UNL A   1      45.753  29.042  27.409  1.00  0.00     0.049 A 
ATOM     52  C   UNL A   1      41.102  30.641  30.039  1.00  0.00     0.074 A 
ATOM     53  C   UNL A   1      46.794  29.955  27.361  1.00  0.00     0.029 A 
ATOM     54  N   UNL A   1      44.709  29.665  28.075  1.00  0.00    -0.354 N 
ATOM     55  N   UNL A   1      42.235  30.438  29.412  1.00  0.00    -0.248 NA
ATOM     56  C   UNL A   1      41.022  31.942  30.723  1.00  0.00     0.031 C 
ATOM     57  C   UNL A   1      46.383  31.125  28.010  1.00  0.00     0.029 A 
ATOM     58  C   UNL A   1      45.080  30.947  28.446  1.00  0.00     0.049 A 
ATOM     59  H   UNL A   1      43.832  29.256  28.257  1.00  0.00     0.167 HD
ATOM     60  C   UNL A   1      42.985  31.595  29.592  1.00  0.00     0.074 A 
ATOM     61  C   UNL A   1      42.170  32.505  30.370  1.00  0.00     0.031 C 
ATOM     62  C   UNL A   1      44.241  31.873  29.163  1.00  0.00     0.034 A 
BRANCH  49  63
ATOM     63  C   UNL A   1      46.958  27.167  26.227  1.00  0.00     0.023 A 
ATOM     64  C   UNL A   1      47.155  27.390  24.849  1.00  0.00     0.012 A 
ATOM     65  C   UNL A   1      47.958  26.507  26.969  1.00  0.00     0.148 A 
ATOM     66  C   UNL A   1      48.310  26.938  24.213  1.00  0.00     0.002 A 
ATOM     67  C   UNL A   1      49.125  26.095  26.336  1.00  0.00     0.091 A 
ATOM     68  F   UNL A   1      47.745  26.285  28.275  1.00  0.00    -0.205 F 
ATOM     69  C   UNL A   1      49.299  26.301  24.957  1.00  0.00     0.022 A 
BRANCH  67  70
ATOM     70  S   UNL A   1      50.487  25.331  27.223  1.00  0.00     0.127 S 
ATOM     71  O   UNL A   1      51.410  25.019  26.134  1.00  0.00    -0.237 OA
ATOM     72  O   UNL A   1      50.930  26.414  28.105  1.00  0.00    -0.237 OA
ATOM     73  O   UNL A   1      49.919  24.182  27.915  1.00  0.00    -0.744 OA
ENDBRANCH  67  70
ENDBRANCH  49  63
BRANCH  50  74
ATOM     74  C   UNL A   1      38.661  30.209  30.828  1.00  0.00     0.023 A 
ATOM     75  C   UNL A   1      38.501  29.896  32.192  1.00  0.00     0.012 A 
ATOM     76  C   UNL A   1      37.668  30.965  30.176  1.00  0.00     0.148 A 
ATOM     77  C   UNL A   1      37.361  30.301  32.886  1.00  0.00     0.002 A 
ATOM     78  C   UNL A   1      36.560  31.411  30.887  1.00  0.00     0.091 A 
ATOM     79  F   UNL A   1      37.831  31.240  28.873  1.00  0.00    -0.205 F 
ATOM     80  C   UNL A   1      36.396  31.066  32.237  1.00  0.00     0.022 A 
BRANCH  78  81
ATOM     81  S   UNL A   1      35.333  32.507  30.166  1.00  0.00     0.127 S 
ATOM     82  O   UNL A   1      36.136  33.678  29.832  1.00  0.00    -0.237 OA
ATOM     83  O   UNL A   1      34.866  31.728  29.019  1.00  0.00    -0.237 OA
ATOM     84  O   UNL A   1      34.327  32.701  31.205  1.00  0.00    -0.744 OA
ENDBRANCH  78  81
ENDBRANCH  50  74
BRANCH  62  85
ATOM     85  C   UNL A   1      44.810  33.230  29.484  1.00  0.00     0.023 A 
ATOM     86  C   UNL A   1      45.520  33.425  30.686  1.00  0.00     0.012 A 
ATOM     87  C   UNL A   1      44.708  34.291  28.564  1.00  0.00     0.148 A 
ATOM     88  C   UNL A   1      46.091  34.664  30.980  1.00  0.00     0.002 A 
ATOM     89  C   UNL A   1      45.318  35.509  28.842  1.00  0.00     0.091 A 
ATOM     90  F   UNL A   1      44.010  34.094  27.435  1.00  0.00    -0.205 F 
ATOM     91  C   UNL A   1      46.001  35.700  30.054  1.00  0.00     0.022 A 
BRANCH  89  92
ATOM     92  S   UNL A   1      45.330  36.866  27.663  1.00  0.00     0.127 S 
ATOM     93  O   UNL A   1      45.894  36.226  26.477  1.00  0.00    -0.237 OA
ATOM     94  O   UNL A   1      43.909  37.202  27.558  1.00  0.00    -0.237 OA
ATOM     95  O   UNL A   1      46.149  37.909  28.266  1.00  0.00    -0.744 OA
ENDBRANCH  89  92
ENDBRANCH  62  85
ENDBRANCH  36  37
ENDBRANCH  28  31
ENDBRANCH  26  27
ENDBRANCH   1  26
TORSDOF 18
ENDMDL
