MODEL 1
REMARK VINA RESULT:     -11.6      0.000      0.000
REMARK SMILES O=C(NCCCNC(=O)[C@@H]1CCc2[nH]ncc2C1)c1ccc(-c2c3nc(c(-c4cccc(S(=O)(=O)[O-])c4F)c4ccc([nH]4)c(-c4cccc(S(=O)(=O)[O-])c4F)c4nc(c(-c5cccc(S(=O)(=O)[O-])c5F)c5ccc2[nH]5)C=C4)C=C3)cc1
REMARK SMILES IDX 1 1 2 2 3 3 19 5 20 6 81 7 21 8 80 9 22 10 23 11 24 12 74 13
REMARK SMILES IDX 25 14 79 15 73 16 75 17 26 18 78 19 72 20 71 21 27 23 59 24
REMARK SMILES IDX 39 25 58 26 40 27 43 28 57 29 76 30 41 31 42 32 56 34 77 35
REMARK SMILES IDX 44 36 28 37 29 38 37 39 30 40 32 41 38 42 31 43 33 44 34 45
REMARK SMILES IDX 35 46 36 47 60 48 61 49 69 50 62 51 64 52 70 53 63 54 65 55
REMARK SMILES IDX 66 56 67 57 68 58 45 59 46 60 54 61 47 62 49 63 55 64 48 65
REMARK SMILES IDX 50 66 51 67 52 68 53 69 4 70 5 71 6 72 7 73 8 74 9 76 10 77
REMARK SMILES IDX 11 78 18 79 12 80 17 81 13 82 16 83 14 84 15 85
REMARK H PARENT 3 4 75 22 43 33 7 75 14 86
REMARK Flexibility Score: inf
ROOT
ATOM      1  O   UNL A   1      32.649  35.645  29.155  1.00  0.00    -0.269 OA
ATOM      2  C   UNL A   1      33.130  34.588  28.752  1.00  0.00     0.251 C 
ATOM      3  N   UNL A   1      32.577  33.971  27.659  1.00  0.00    -0.352 N 
ATOM      4  H   UNL A   1      31.946  34.520  27.138  1.00  0.00     0.163 HD
ENDROOT
BRANCH   2   5
ATOM      5  C   UNL A   1      34.285  33.975  29.446  1.00  0.00     0.039 A 
ATOM      6  C   UNL A   1      34.091  33.000  30.429  1.00  0.00     0.014 A 
ATOM      7  C   UNL A   1      35.581  34.357  29.090  1.00  0.00     0.014 A 
ATOM      8  C   UNL A   1      35.173  32.520  31.153  1.00  0.00     0.010 A 
ATOM      9  C   UNL A   1      36.677  33.793  29.749  1.00  0.00     0.010 A 
ATOM     10  C   UNL A   1      36.482  32.886  30.802  1.00  0.00    -0.014 A 
BRANCH  10  11
ATOM     11  C   UNL A   1      37.625  32.225  31.480  1.00  0.00     0.031 A 
ATOM     12  C   UNL A   1      38.380  31.101  30.829  1.00  0.00     0.074 A 
ATOM     13  C   UNL A   1      37.972  32.656  32.709  1.00  0.00     0.049 A 
ATOM     14  N   UNL A   1      39.402  30.427  31.290  1.00  0.00    -0.248 NA
ATOM     15  C   UNL A   1      37.932  30.671  29.496  1.00  0.00     0.031 C 
ATOM     16  C   UNL A   1      37.284  33.714  33.455  1.00  0.00     0.029 A 
ATOM     17  N   UNL A   1      38.980  32.262  33.551  1.00  0.00    -0.354 N 
ATOM     18  C   UNL A   1      39.698  29.472  30.326  1.00  0.00     0.074 A 
ATOM     19  C   UNL A   1      38.739  29.647  29.255  1.00  0.00     0.031 C 
ATOM     20  C   UNL A   1      37.905  33.906  34.627  1.00  0.00     0.029 A 
ATOM     21  C   UNL A   1      38.993  32.944  34.745  1.00  0.00     0.049 A 
ATOM     22  H   UNL A   1      39.631  31.560  33.323  1.00  0.00     0.167 HD
ATOM     23  C   UNL A   1      40.687  28.545  30.327  1.00  0.00     0.034 A 
ATOM     24  C   UNL A   1      39.776  32.798  35.829  1.00  0.00     0.034 A 
ATOM     25  C   UNL A   1      41.648  28.393  31.389  1.00  0.00     0.049 A 
ATOM     26  C   UNL A   1      40.861  31.762  35.801  1.00  0.00     0.074 A 
ATOM     27  C   UNL A   1      42.719  27.520  31.461  1.00  0.00     0.029 A 
ATOM     28  N   UNL A   1      41.650  29.124  32.569  1.00  0.00    -0.354 N 
ATOM     29  N   UNL A   1      41.198  30.948  34.831  1.00  0.00    -0.248 NA
ATOM     30  C   UNL A   1      41.691  31.640  37.007  1.00  0.00     0.031 C 
ATOM     31  C   UNL A   1      43.351  27.701  32.696  1.00  0.00     0.029 A 
ATOM     32  C   UNL A   1      42.694  28.711  33.380  1.00  0.00     0.049 A 
ATOM     33  H   UNL A   1      41.003  29.829  32.797  1.00  0.00     0.167 HD
ATOM     34  C   UNL A   1      42.296  30.237  35.295  1.00  0.00     0.074 A 
ATOM     35  C   UNL A   1      42.583  30.736  36.625  1.00  0.00     0.031 C 
ATOM     36  C   UNL A   1      42.995  29.249  34.684  1.00  0.00     0.034 A 
BRANCH  23  37
ATOM     37  C   UNL A   1      40.804  27.637  29.130  1.00  0.00     0.023 A 
ATOM     38  C   UNL A   1      40.000  26.481  29.047  1.00  0.00     0.012 A 
ATOM     39  C   UNL A   1      41.655  27.962  28.054  1.00  0.00     0.148 A 
ATOM     40  C   UNL A   1      40.063  25.649  27.931  1.00  0.00     0.002 A 
ATOM     41  C   UNL A   1      41.681  27.150  26.925  1.00  0.00     0.091 A 
ATOM     42  F   UNL A   1      42.426  29.054  28.156  1.00  0.00    -0.205 F 
ATOM     43  C   UNL A   1      40.893  25.989  26.867  1.00  0.00     0.022 A 
BRANCH  41  44
ATOM     44  S   UNL A   1      42.659  27.540  25.470  1.00  0.00     0.127 S 
ATOM     45  O   UNL A   1      42.446  26.351  24.646  1.00  0.00    -0.237 OA
ATOM     46  O   UNL A   1      42.003  28.750  24.974  1.00  0.00    -0.237 OA
ATOM     47  O   UNL A   1      44.022  27.737  25.942  1.00  0.00    -0.744 OA
ENDBRANCH  41  44
ENDBRANCH  23  37
BRANCH  24  48
ATOM     48  C   UNL A   1      39.580  33.684  37.011  1.00  0.00     0.023 A 
ATOM     49  C   UNL A   1      40.018  35.020  36.957  1.00  0.00     0.012 A 
ATOM     50  C   UNL A   1      38.921  33.221  38.167  1.00  0.00     0.148 A 
ATOM     51  C   UNL A   1      39.829  35.873  38.044  1.00  0.00     0.002 A 
ATOM     52  C   UNL A   1      38.683  34.092  39.223  1.00  0.00     0.091 A 
ATOM     53  F   UNL A   1      38.520  31.942  38.202  1.00  0.00    -0.205 F 
ATOM     54  C   UNL A   1      39.152  35.413  39.171  1.00  0.00     0.022 A 
BRANCH  52  55
ATOM     55  S   UNL A   1      37.697  33.627  40.650  1.00  0.00     0.127 S 
ATOM     56  O   UNL A   1      38.568  32.656  41.309  1.00  0.00    -0.237 OA
ATOM     57  O   UNL A   1      37.556  34.904  41.349  1.00  0.00    -0.237 OA
ATOM     58  O   UNL A   1      36.452  33.096  40.112  1.00  0.00    -0.744 OA
ENDBRANCH  52  55
ENDBRANCH  24  48
BRANCH  36  59
ATOM     59  C   UNL A   1      44.164  28.665  35.430  1.00  0.00     0.023 A 
ATOM     60  C   UNL A   1      45.455  29.199  35.244  1.00  0.00     0.012 A 
ATOM     61  C   UNL A   1      43.972  27.626  36.363  1.00  0.00     0.148 A 
ATOM     62  C   UNL A   1      46.543  28.683  35.949  1.00  0.00     0.002 A 
ATOM     63  C   UNL A   1      45.051  27.153  37.099  1.00  0.00     0.091 A 
ATOM     64  F   UNL A   1      42.738  27.120  36.510  1.00  0.00    -0.205 F 
ATOM     65  C   UNL A   1      46.338  27.671  36.883  1.00  0.00     0.022 A 
BRANCH  63  66
ATOM     66  S   UNL A   1      44.868  25.920  38.391  1.00  0.00     0.127 S 
ATOM     67  O   UNL A   1      46.228  25.840  38.922  1.00  0.00    -0.237 OA
ATOM     68  O   UNL A   1      43.899  26.552  39.287  1.00  0.00    -0.237 OA
ATOM     69  O   UNL A   1      44.385  24.714  37.731  1.00  0.00    -0.744 OA
ENDBRANCH  63  66
ENDBRANCH  36  59
ENDBRANCH  10  11
ENDBRANCH   2   5
BRANCH   3  70
ATOM     70  C   UNL A   1      32.788  32.622  27.159  1.00  0.00     0.118 C 
BRANCH  70  71
ATOM     71  C   UNL A   1      31.475  31.914  26.863  1.00  0.00     0.042 C 
BRANCH  71  72
ATOM     72  C   UNL A   1      31.651  30.675  25.992  1.00  0.00     0.117 C 
BRANCH  72  73
ATOM     73  N   UNL A   1      31.622  29.465  26.797  1.00  0.00    -0.356 N 
ATOM     74  C   UNL A   1      31.554  28.160  26.401  1.00  0.00     0.223 C 
ATOM     75  H   UNL A   1      31.658  29.607  27.771  1.00  0.00     0.163 HD
ATOM     76  O   UNL A   1      31.465  27.292  27.268  1.00  0.00    -0.275 OA
BRANCH  74  77
ATOM     77  C   UNL A   1      31.664  27.834  24.922  1.00  0.00     0.083 C 
ATOM     78  C   UNL A   1      30.312  27.476  24.251  1.00  0.00     0.020 C 
ATOM     79  C   UNL A   1      32.672  26.679  24.682  1.00  0.00     0.052 C 
ATOM     80  C   UNL A   1      30.455  27.458  22.715  1.00  0.00     0.057 C 
ATOM     81  C   UNL A   1      32.707  26.367  23.226  1.00  0.00    -0.006 A 
ATOM     82  C   UNL A   1      31.696  26.726  22.363  1.00  0.00     0.038 A 
ATOM     83  C   UNL A   1      33.643  25.710  22.413  1.00  0.00     0.138 A 
ATOM     84  N   UNL A   1      32.079  26.324  21.123  1.00  0.00    -0.282 N 
ATOM     85  N   UNL A   1      33.270  25.692  21.127  1.00  0.00    -0.184 NA
ATOM     86  H   UNL A   1      31.546  26.478  20.311  1.00  0.00     0.190 HD
ENDBRANCH  74  77
ENDBRANCH  72  73
ENDBRANCH  71  72
ENDBRANCH  70  71
ENDBRANCH   3  70
TORSDOF 13
ENDMDL
MODEL 2
REMARK VINA RESULT:     -11.5      1.312      8.329
REMARK SMILES O=C(NCCCNC(=O)[C@@H]1CCc2[nH]ncc2C1)c1ccc(-c2c3nc(c(-c4cccc(S(=O)(=O)[O-])c4F)c4ccc([nH]4)c(-c4cccc(S(=O)(=O)[O-])c4F)c4nc(c(-c5cccc(S(=O)(=O)[O-])c5F)c5ccc2[nH]5)C=C4)C=C3)cc1
REMARK SMILES IDX 1 1 2 2 3 3 19 5 20 6 81 7 21 8 80 9 22 10 23 11 24 12 74 13
REMARK SMILES IDX 25 14 79 15 73 16 75 17 26 18 78 19 72 20 71 21 27 23 59 24
REMARK SMILES IDX 39 25 58 26 40 27 43 28 57 29 76 30 41 31 42 32 56 34 77 35
REMARK SMILES IDX 44 36 28 37 29 38 37 39 30 40 32 41 38 42 31 43 33 44 34 45
REMARK SMILES IDX 35 46 36 47 60 48 61 49 69 50 62 51 64 52 70 53 63 54 65 55
REMARK SMILES IDX 66 56 67 57 68 58 45 59 46 60 54 61 47 62 49 63 55 64 48 65
REMARK SMILES IDX 50 66 51 67 52 68 53 69 4 70 5 71 6 72 7 73 8 74 9 76 10 77
REMARK SMILES IDX 11 78 18 79 12 80 17 81 13 82 16 83 14 84 15 85
REMARK H PARENT 3 4 75 22 43 33 7 75 14 86
REMARK Flexibility Score: inf
ROOT
ATOM      1  O   UNL A   1      32.668  35.565  29.191  1.00  0.00    -0.269 OA
ATOM      2  C   UNL A   1      33.209  34.538  28.783  1.00  0.00     0.251 C 
ATOM      3  N   UNL A   1      32.711  33.914  27.668  1.00  0.00    -0.352 N 
ATOM      4  H   UNL A   1      32.068  34.440  27.140  1.00  0.00     0.163 HD
ENDROOT
BRANCH   2   5
ATOM      5  C   UNL A   1      34.374  33.968  29.496  1.00  0.00     0.039 A 
ATOM      6  C   UNL A   1      34.198  33.021  30.508  1.00  0.00     0.014 A 
ATOM      7  C   UNL A   1      35.663  34.366  29.130  1.00  0.00     0.014 A 
ATOM      8  C   UNL A   1      35.289  32.584  31.247  1.00  0.00     0.010 A 
ATOM      9  C   UNL A   1      36.769  33.842  29.806  1.00  0.00     0.010 A 
ATOM     10  C   UNL A   1      36.590  32.964  30.886  1.00  0.00    -0.014 A 
BRANCH  10  11
ATOM     11  C   UNL A   1      37.745  32.347  31.584  1.00  0.00     0.031 A 
ATOM     12  C   UNL A   1      38.193  32.827  32.936  1.00  0.00     0.074 A 
ATOM     13  C   UNL A   1      38.396  31.338  30.971  1.00  0.00     0.049 A 
ATOM     14  N   UNL A   1      39.178  32.388  33.675  1.00  0.00    -0.248 NA
ATOM     15  C   UNL A   1      37.448  33.945  33.534  1.00  0.00     0.031 C 
ATOM     16  C   UNL A   1      38.073  30.816  29.639  1.00  0.00     0.029 A 
ATOM     17  N   UNL A   1      39.460  30.574  31.376  1.00  0.00    -0.354 N 
ATOM     18  C   UNL A   1      39.198  33.194  34.807  1.00  0.00     0.074 A 
ATOM     19  C   UNL A   1      38.129  34.158  34.653  1.00  0.00     0.031 C 
ATOM     20  C   UNL A   1      38.899  29.801  29.350  1.00  0.00     0.029 A 
ATOM     21  C   UNL A   1      39.849  29.641  30.443  1.00  0.00     0.049 A 
ATOM     22  H   UNL A   1      39.901  30.682  32.249  1.00  0.00     0.167 HD
ATOM     23  C   UNL A   1      40.022  33.126  35.881  1.00  0.00     0.034 A 
ATOM     24  C   UNL A   1      40.873  28.769  30.451  1.00  0.00     0.034 A 
ATOM     25  C   UNL A   1      41.069  32.149  36.033  1.00  0.00     0.049 A 
ATOM     26  C   UNL A   1      41.769  28.719  31.654  1.00  0.00     0.074 A 
ATOM     27  C   UNL A   1      41.923  31.964  37.106  1.00  0.00     0.029 A 
ATOM     28  N   UNL A   1      41.414  31.199  35.081  1.00  0.00    -0.354 N 
ATOM     29  N   UNL A   1      41.697  29.412  32.764  1.00  0.00    -0.248 NA
ATOM     30  C   UNL A   1      42.873  27.749  31.617  1.00  0.00     0.031 C 
ATOM     31  C   UNL A   1      42.803  30.923  36.792  1.00  0.00     0.029 A 
ATOM     32  C   UNL A   1      42.476  30.435  35.537  1.00  0.00     0.049 A 
ATOM     33  H   UNL A   1      40.970  31.087  34.210  1.00  0.00     0.167 HD
ATOM     34  C   UNL A   1      42.726  28.944  33.571  1.00  0.00     0.074 A 
ATOM     35  C   UNL A   1      43.390  27.890  32.830  1.00  0.00     0.031 C 
ATOM     36  C   UNL A   1      43.098  29.359  34.807  1.00  0.00     0.034 A 
BRANCH  23  37
ATOM     37  C   UNL A   1      39.809  34.117  36.997  1.00  0.00     0.023 A 
ATOM     38  C   UNL A   1      40.126  35.476  36.795  1.00  0.00     0.012 A 
ATOM     39  C   UNL A   1      39.229  33.718  38.218  1.00  0.00     0.148 A 
ATOM     40  C   UNL A   1      39.899  36.416  37.800  1.00  0.00     0.002 A 
ATOM     41  C   UNL A   1      38.967  34.668  39.199  1.00  0.00     0.091 A 
ATOM     42  F   UNL A   1      38.950  32.420  38.401  1.00  0.00    -0.205 F 
ATOM     43  C   UNL A   1      39.310  36.015  38.995  1.00  0.00     0.022 A 
BRANCH  41  44
ATOM     44  S   UNL A   1      38.142  34.268  40.745  1.00  0.00     0.127 S 
ATOM     45  O   UNL A   1      37.006  33.475  40.273  1.00  0.00    -0.237 OA
ATOM     46  O   UNL A   1      39.168  33.501  41.451  1.00  0.00    -0.237 OA
ATOM     47  O   UNL A   1      37.801  35.541  41.361  1.00  0.00    -0.744 OA
ENDBRANCH  41  44
ENDBRANCH  23  37
BRANCH  24  48
ATOM     48  C   UNL A   1      41.075  27.851  29.295  1.00  0.00     0.023 A 
ATOM     49  C   UNL A   1      40.474  26.578  29.307  1.00  0.00     0.012 A 
ATOM     50  C   UNL A   1      41.819  28.251  28.168  1.00  0.00     0.148 A 
ATOM     51  C   UNL A   1      40.633  25.709  28.228  1.00  0.00     0.002 A 
ATOM     52  C   UNL A   1      41.924  27.403  27.072  1.00  0.00     0.091 A 
ATOM     53  F   UNL A   1      42.391  29.463  28.181  1.00  0.00    -0.205 F 
ATOM     54  C   UNL A   1      41.347  26.125  27.107  1.00  0.00     0.022 A 
BRANCH  52  55
ATOM     55  S   UNL A   1      42.703  27.911  25.535  1.00  0.00     0.127 S 
ATOM     56  O   UNL A   1      44.063  28.210  25.976  1.00  0.00    -0.237 OA
ATOM     57  O   UNL A   1      42.570  26.705  24.718  1.00  0.00    -0.237 OA
ATOM     58  O   UNL A   1      41.928  29.048  25.058  1.00  0.00    -0.744 OA
ENDBRANCH  52  55
ENDBRANCH  24  48
BRANCH  36  59
ATOM     59  C   UNL A   1      44.255  28.648  35.456  1.00  0.00     0.023 A 
ATOM     60  C   UNL A   1      45.576  29.036  35.156  1.00  0.00     0.012 A 
ATOM     61  C   UNL A   1      44.030  27.636  36.410  1.00  0.00     0.148 A 
ATOM     62  C   UNL A   1      46.656  28.403  35.769  1.00  0.00     0.002 A 
ATOM     63  C   UNL A   1      45.109  27.046  37.055  1.00  0.00     0.091 A 
ATOM     64  F   UNL A   1      42.765  27.269  36.667  1.00  0.00    -0.205 F 
ATOM     65  C   UNL A   1      46.423  27.419  36.727  1.00  0.00     0.022 A 
BRANCH  63  66
ATOM     66  S   UNL A   1      44.904  25.839  38.369  1.00  0.00     0.127 S 
ATOM     67  O   UNL A   1      44.263  24.733  37.660  1.00  0.00    -0.237 OA
ATOM     68  O   UNL A   1      46.286  25.585  38.775  1.00  0.00    -0.237 OA
ATOM     69  O   UNL A   1      44.084  26.486  39.386  1.00  0.00    -0.744 OA
ENDBRANCH  63  66
ENDBRANCH  36  59
ENDBRANCH  10  11
ENDBRANCH   2   5
BRANCH   3  70
ATOM     70  C   UNL A   1      32.998  32.584  27.153  1.00  0.00     0.118 C 
BRANCH  70  71
ATOM     71  C   UNL A   1      31.728  31.787  26.900  1.00  0.00     0.042 C 
BRANCH  71  72
ATOM     72  C   UNL A   1      31.978  30.287  26.791  1.00  0.00     0.117 C 
BRANCH  72  73
ATOM     73  N   UNL A   1      32.785  29.978  25.623  1.00  0.00    -0.356 N 
ATOM     74  C   UNL A   1      32.473  29.229  24.525  1.00  0.00     0.223 C 
ATOM     75  H   UNL A   1      33.691  30.365  25.622  1.00  0.00     0.163 HD
ATOM     76  O   UNL A   1      33.348  29.036  23.682  1.00  0.00    -0.275 OA
BRANCH  74  77
ATOM     77  C   UNL A   1      31.048  28.731  24.356  1.00  0.00     0.083 C 
ATOM     78  C   UNL A   1      30.943  27.322  23.715  1.00  0.00     0.020 C 
ATOM     79  C   UNL A   1      30.204  29.732  23.524  1.00  0.00     0.052 C 
ATOM     80  C   UNL A   1      29.510  26.766  23.856  1.00  0.00     0.057 C 
ATOM     81  C   UNL A   1      28.834  29.176  23.347  1.00  0.00    -0.006 A 
ATOM     82  C   UNL A   1      28.549  27.837  23.500  1.00  0.00     0.038 A 
ATOM     83  C   UNL A   1      27.601  29.760  23.022  1.00  0.00     0.138 A 
ATOM     84  N   UNL A   1      27.211  27.699  23.310  1.00  0.00    -0.282 N 
ATOM     85  N   UNL A   1      26.606  28.865  23.009  1.00  0.00    -0.184 NA
ATOM     86  H   UNL A   1      26.735  26.841  23.385  1.00  0.00     0.190 HD
ENDBRANCH  74  77
ENDBRANCH  72  73
ENDBRANCH  71  72
ENDBRANCH  70  71
ENDBRANCH   3  70
TORSDOF 13
ENDMDL
MODEL 3
REMARK VINA RESULT:     -11.4      2.518      8.616
REMARK SMILES O=C(NCCCNC(=O)[C@@H]1CCc2[nH]ncc2C1)c1ccc(-c2c3nc(c(-c4cccc(S(=O)(=O)[O-])c4F)c4ccc([nH]4)c(-c4cccc(S(=O)(=O)[O-])c4F)c4nc(c(-c5cccc(S(=O)(=O)[O-])c5F)c5ccc2[nH]5)C=C4)C=C3)cc1
REMARK SMILES IDX 1 1 2 2 3 3 19 5 20 6 81 7 21 8 80 9 22 10 23 11 24 12 74 13
REMARK SMILES IDX 25 14 79 15 73 16 75 17 26 18 78 19 72 20 71 21 27 23 59 24
REMARK SMILES IDX 39 25 58 26 40 27 43 28 57 29 76 30 41 31 42 32 56 34 77 35
REMARK SMILES IDX 44 36 28 37 29 38 37 39 30 40 32 41 38 42 31 43 33 44 34 45
REMARK SMILES IDX 35 46 36 47 60 48 61 49 69 50 62 51 64 52 70 53 63 54 65 55
REMARK SMILES IDX 66 56 67 57 68 58 45 59 46 60 54 61 47 62 49 63 55 64 48 65
REMARK SMILES IDX 50 66 51 67 52 68 53 69 4 70 5 71 6 72 7 73 8 74 9 76 10 77
REMARK SMILES IDX 11 78 18 79 12 80 17 81 13 82 16 83 14 84 15 85
REMARK H PARENT 3 4 75 22 43 33 7 75 14 86
REMARK Flexibility Score: inf
ROOT
ATOM      1  O   UNL A   1      32.319  32.288  27.219  1.00  0.00    -0.269 OA
ATOM      2  C   UNL A   1      33.019  31.341  26.866  1.00  0.00     0.251 C 
ATOM      3  N   UNL A   1      32.651  30.605  25.769  1.00  0.00    -0.352 N 
ATOM      4  H   UNL A   1      31.948  31.006  25.206  1.00  0.00     0.163 HD
ENDROOT
BRANCH   2   5
ATOM      5  C   UNL A   1      34.239  30.984  27.624  1.00  0.00     0.039 A 
ATOM      6  C   UNL A   1      34.492  29.658  27.985  1.00  0.00     0.014 A 
ATOM      7  C   UNL A   1      35.157  31.984  27.956  1.00  0.00     0.014 A 
ATOM      8  C   UNL A   1      35.577  29.354  28.797  1.00  0.00     0.010 A 
ATOM      9  C   UNL A   1      36.306  31.659  28.683  1.00  0.00     0.010 A 
ATOM     10  C   UNL A   1      36.514  30.345  29.129  1.00  0.00    -0.014 A 
BRANCH  10  11
ATOM     11  C   UNL A   1      37.752  29.957  29.852  1.00  0.00     0.031 A 
ATOM     12  C   UNL A   1      38.043  30.463  31.236  1.00  0.00     0.074 A 
ATOM     13  C   UNL A   1      38.621  29.136  29.230  1.00  0.00     0.049 A 
ATOM     14  N   UNL A   1      39.076  30.212  31.998  1.00  0.00    -0.248 NA
ATOM     15  C   UNL A   1      37.059  31.371  31.843  1.00  0.00     0.031 C 
ATOM     16  C   UNL A   1      38.460  28.614  27.869  1.00  0.00     0.029 A 
ATOM     17  N   UNL A   1      39.811  28.598  29.650  1.00  0.00    -0.354 N 
ATOM     18  C   UNL A   1      38.888  30.954  33.158  1.00  0.00     0.074 A 
ATOM     19  C   UNL A   1      37.643  31.676  32.994  1.00  0.00     0.031 C 
ATOM     20  C   UNL A   1      39.492  27.811  27.578  1.00  0.00     0.029 A 
ATOM     21  C   UNL A   1      40.420  27.810  28.702  1.00  0.00     0.049 A 
ATOM     22  H   UNL A   1      40.191  28.759  30.544  1.00  0.00     0.167 HD
ATOM     23  C   UNL A   1      39.673  31.017  34.260  1.00  0.00     0.034 A 
ATOM     24  C   UNL A   1      41.605  27.174  28.720  1.00  0.00     0.034 A 
ATOM     25  C   UNL A   1      40.899  30.278  34.420  1.00  0.00     0.049 A 
ATOM     26  C   UNL A   1      42.453  27.264  29.956  1.00  0.00     0.074 A 
ATOM     27  C   UNL A   1      41.738  30.233  35.519  1.00  0.00     0.029 A 
ATOM     28  N   UNL A   1      41.468  29.464  33.451  1.00  0.00    -0.354 N 
ATOM     29  N   UNL A   1      42.199  27.878  31.086  1.00  0.00    -0.248 NA
ATOM     30  C   UNL A   1      43.738  26.553  29.929  1.00  0.00     0.031 C 
ATOM     31  C   UNL A   1      42.829  29.416  35.205  1.00  0.00     0.029 A 
ATOM     32  C   UNL A   1      42.654  28.924  33.921  1.00  0.00     0.049 A 
ATOM     33  H   UNL A   1      41.086  29.298  32.559  1.00  0.00     0.167 HD
ATOM     34  C   UNL A   1      43.278  27.605  31.916  1.00  0.00     0.074 A 
ATOM     35  C   UNL A   1      44.174  26.748  31.166  1.00  0.00     0.031 C 
ATOM     36  C   UNL A   1      43.513  28.036  33.179  1.00  0.00     0.034 A 
BRANCH  23  37
ATOM     37  C   UNL A   1      39.218  31.891  35.401  1.00  0.00     0.023 A 
ATOM     38  C   UNL A   1      39.453  33.281  35.353  1.00  0.00     0.012 A 
ATOM     39  C   UNL A   1      38.496  31.352  36.485  1.00  0.00     0.148 A 
ATOM     40  C   UNL A   1      39.006  34.114  36.378  1.00  0.00     0.002 A 
ATOM     41  C   UNL A   1      38.016  32.194  37.482  1.00  0.00     0.091 A 
ATOM     42  F   UNL A   1      38.296  30.026  36.524  1.00  0.00    -0.205 F 
ATOM     43  C   UNL A   1      38.278  33.573  37.435  1.00  0.00     0.022 A 
BRANCH  41  44
ATOM     44  S   UNL A   1      37.004  31.607  38.846  1.00  0.00     0.127 S 
ATOM     45  O   UNL A   1      37.927  31.738  39.972  1.00  0.00    -0.237 OA
ATOM     46  O   UNL A   1      35.902  32.570  38.847  1.00  0.00    -0.237 OA
ATOM     47  O   UNL A   1      36.621  30.245  38.506  1.00  0.00    -0.744 OA
ENDBRANCH  41  44
ENDBRANCH  23  37
BRANCH  24  48
ATOM     48  C   UNL A   1      42.034  26.370  27.542  1.00  0.00     0.023 A 
ATOM     49  C   UNL A   1      42.802  26.976  26.530  1.00  0.00     0.012 A 
ATOM     50  C   UNL A   1      41.725  24.999  27.445  1.00  0.00     0.148 A 
ATOM     51  C   UNL A   1      43.230  26.239  25.427  1.00  0.00     0.002 A 
ATOM     52  C   UNL A   1      42.206  24.257  26.373  1.00  0.00     0.091 A 
ATOM     53  F   UNL A   1      40.985  24.443  28.414  1.00  0.00    -0.205 F 
ATOM     54  C   UNL A   1      42.943  24.878  25.354  1.00  0.00     0.022 A 
BRANCH  52  55
ATOM     55  S   UNL A   1      42.004  22.475  26.270  1.00  0.00     0.127 S 
ATOM     56  O   UNL A   1      42.693  22.169  25.019  1.00  0.00    -0.237 OA
ATOM     57  O   UNL A   1      42.691  22.023  27.480  1.00  0.00    -0.237 OA
ATOM     58  O   UNL A   1      40.566  22.241  26.274  1.00  0.00    -0.744 OA
ENDBRANCH  52  55
ENDBRANCH  24  48
BRANCH  36  59
ATOM     59  C   UNL A   1      44.774  27.560  33.849  1.00  0.00     0.023 A 
ATOM     60  C   UNL A   1      45.947  28.338  33.776  1.00  0.00     0.012 A 
ATOM     61  C   UNL A   1      44.779  26.369  34.603  1.00  0.00     0.148 A 
ATOM     62  C   UNL A   1      47.115  27.921  34.413  1.00  0.00     0.002 A 
ATOM     63  C   UNL A   1      45.932  25.987  35.278  1.00  0.00     0.091 A 
ATOM     64  F   UNL A   1      43.658  25.634  34.644  1.00  0.00    -0.205 F 
ATOM     65  C   UNL A   1      47.103  26.754  35.173  1.00  0.00     0.022 A 
BRANCH  63  66
ATOM     66  S   UNL A   1      45.984  24.552  36.357  1.00  0.00     0.127 S 
ATOM     67  O   UNL A   1      45.671  23.468  35.428  1.00  0.00    -0.237 OA
ATOM     68  O   UNL A   1      47.369  24.571  36.829  1.00  0.00    -0.237 OA
ATOM     69  O   UNL A   1      44.989  24.792  37.394  1.00  0.00    -0.744 OA
ENDBRANCH  63  66
ENDBRANCH  36  59
ENDBRANCH  10  11
ENDBRANCH   2   5
BRANCH   3  70
ATOM     70  C   UNL A   1      33.149  29.315  25.317  1.00  0.00     0.118 C 
BRANCH  70  71
ATOM     71  C   UNL A   1      32.834  29.067  23.850  1.00  0.00     0.042 C 
BRANCH  71  72
ATOM     72  C   UNL A   1      34.053  28.631  23.045  1.00  0.00     0.117 C 
BRANCH  72  73
ATOM     73  N   UNL A   1      33.681  27.681  22.011  1.00  0.00    -0.356 N 
ATOM     74  C   UNL A   1      33.432  26.342  22.110  1.00  0.00     0.223 C 
ATOM     75  H   UNL A   1      33.596  28.057  21.105  1.00  0.00     0.163 HD
ATOM     76  O   UNL A   1      33.204  25.713  21.077  1.00  0.00    -0.275 OA
BRANCH  74  77
ATOM     77  C   UNL A   1      33.374  25.706  23.487  1.00  0.00     0.083 C 
ATOM     78  C   UNL A   1      34.287  24.463  23.648  1.00  0.00     0.020 C 
ATOM     79  C   UNL A   1      31.918  25.318  23.859  1.00  0.00     0.052 C 
ATOM     80  C   UNL A   1      34.406  24.063  25.134  1.00  0.00     0.057 C 
ATOM     81  C   UNL A   1      31.922  24.657  25.193  1.00  0.00    -0.006 A 
ATOM     82  C   UNL A   1      33.055  24.097  25.743  1.00  0.00     0.038 A 
ATOM     83  C   UNL A   1      30.923  24.436  26.153  1.00  0.00     0.138 A 
ATOM     84  N   UNL A   1      32.703  23.630  26.970  1.00  0.00    -0.282 N 
ATOM     85  N   UNL A   1      31.397  23.821  27.243  1.00  0.00    -0.184 NA
ATOM     86  H   UNL A   1      33.333  23.200  27.591  1.00  0.00     0.190 HD
ENDBRANCH  74  77
ENDBRANCH  72  73
ENDBRANCH  71  72
ENDBRANCH  70  71
ENDBRANCH   3  70
TORSDOF 13
ENDMDL
