MODEL 1
REMARK VINA RESULT:     -12.3      0.000      0.000
REMARK SMILES O=C(NCCCNC(=O)[C@@H]1CC[C@@H](CNC(=O)c2cccc(O)c2)O1)c1ccc(-c2c3nc(c(-c4cccc(S(=O)(=O)[O-])c4F)c4ccc([nH]4)c(-c4cccc(S(=O)(=O)[O-])c4F)c4nc(c(-c5cccc(S(=O)(=O)[O-])c5F)c5ccc2[nH]5)C=C4)C=C3)cc1
REMARK SMILES IDX 5 1 4 2 3 3 1 4 2 5 26 7 27 8 88 9 28 10 87 11 29 12 30 13
REMARK SMILES IDX 31 14 81 15 32 16 86 17 80 18 82 19 33 20 85 21 79 22 78 23
REMARK SMILES IDX 34 25 66 26 46 27 65 28 47 29 50 30 64 31 83 32 48 33 49 34
REMARK SMILES IDX 63 36 84 37 51 38 35 39 36 40 44 41 37 42 39 43 45 44 38 45
REMARK SMILES IDX 40 46 41 47 42 48 43 49 67 50 68 51 76 52 69 53 71 54 77 55
REMARK SMILES IDX 70 56 72 57 73 58 74 59 75 60 52 61 53 62 61 63 54 64 56 65
REMARK SMILES IDX 62 66 55 67 57 68 58 69 59 70 60 71 6 72 7 73 8 74 9 76
REMARK SMILES IDX 10 77 11 78 25 79 12 80 13 81 14 82 15 83 16 84 17 86 18 87
REMARK SMILES IDX 19 88 24 89 20 90 22 91 21 92 23 93
REMARK H PARENT 3 6 82 24 50 35 7 75 15 85 23 94
REMARK Flexibility Score: inf
ROOT
ATOM      1  C   UNL A   1      32.756  27.966  26.269  1.00  0.00     0.042 C 
ENDROOT
BRANCH   1   2
ATOM      2  C   UNL A   1      33.329  29.098  25.422  1.00  0.00     0.118 C 
BRANCH   2   3
ATOM      3  N   UNL A   1      32.858  30.407  25.858  1.00  0.00    -0.352 N 
ATOM      4  O   UNL A   1      32.584  32.160  27.237  1.00  0.00    -0.269 OA
ATOM      5  C   UNL A   1      33.267  31.191  26.908  1.00  0.00     0.251 C 
ATOM      6  H   UNL A   1      32.133  30.790  25.313  1.00  0.00     0.163 HD
BRANCH   5   7
ATOM      7  C   UNL A   1      34.510  30.871  27.636  1.00  0.00     0.039 A 
ATOM      8  C   UNL A   1      34.664  29.631  28.261  1.00  0.00     0.014 A 
ATOM      9  C   UNL A   1      35.553  31.802  27.663  1.00  0.00     0.014 A 
ATOM     10  C   UNL A   1      35.790  29.380  29.034  1.00  0.00     0.010 A 
ATOM     11  C   UNL A   1      36.729  31.506  28.358  1.00  0.00     0.010 A 
ATOM     12  C   UNL A   1      36.847  30.303  29.071  1.00  0.00    -0.014 A 
BRANCH  12  13
ATOM     13  C   UNL A   1      38.096  29.934  29.782  1.00  0.00     0.031 A 
ATOM     14  C   UNL A   1      38.400  30.454  31.158  1.00  0.00     0.074 A 
ATOM     15  C   UNL A   1      38.957  29.101  29.164  1.00  0.00     0.049 A 
ATOM     16  N   UNL A   1      39.426  30.185  31.926  1.00  0.00    -0.248 NA
ATOM     17  C   UNL A   1      37.442  31.400  31.750  1.00  0.00     0.031 C 
ATOM     18  C   UNL A   1      38.788  28.575  27.806  1.00  0.00     0.029 A 
ATOM     19  N   UNL A   1      40.138  28.548  29.587  1.00  0.00    -0.354 N 
ATOM     20  C   UNL A   1      39.260  30.954  33.072  1.00  0.00     0.074 A 
ATOM     21  C   UNL A   1      38.035  31.707  32.897  1.00  0.00     0.031 C 
ATOM     22  C   UNL A   1      39.806  27.751  27.521  1.00  0.00     0.029 A 
ATOM     23  C   UNL A   1      40.729  27.735  28.648  1.00  0.00     0.049 A 
ATOM     24  H   UNL A   1      40.525  28.716  30.476  1.00  0.00     0.167 HD
ATOM     25  C   UNL A   1      40.047  31.013  34.172  1.00  0.00     0.034 A 
ATOM     26  C   UNL A   1      41.894  27.061  28.681  1.00  0.00     0.034 A 
ATOM     27  C   UNL A   1      41.246  30.235  34.348  1.00  0.00     0.049 A 
ATOM     28  C   UNL A   1      42.731  27.127  29.926  1.00  0.00     0.074 A 
ATOM     29  C   UNL A   1      42.078  30.174  35.454  1.00  0.00     0.029 A 
ATOM     30  N   UNL A   1      41.793  29.390  33.394  1.00  0.00    -0.354 N 
ATOM     31  N   UNL A   1      42.485  27.754  31.050  1.00  0.00    -0.248 NA
ATOM     32  C   UNL A   1      43.991  26.374  29.916  1.00  0.00     0.031 C 
ATOM     33  C   UNL A   1      43.138  29.311  35.159  1.00  0.00     0.029 A 
ATOM     34  C   UNL A   1      42.955  28.813  33.879  1.00  0.00     0.049 A 
ATOM     35  H   UNL A   1      41.410  29.224  32.502  1.00  0.00     0.167 HD
ATOM     36  C   UNL A   1      43.548  27.454  31.891  1.00  0.00     0.074 A 
ATOM     37  C   UNL A   1      44.423  26.562  31.156  1.00  0.00     0.031 C 
ATOM     38  C   UNL A   1      43.791  27.893  33.151  1.00  0.00     0.034 A 
BRANCH  25  39
ATOM     39  C   UNL A   1      39.622  31.922  35.298  1.00  0.00     0.023 A 
ATOM     40  C   UNL A   1      39.940  33.293  35.242  1.00  0.00     0.012 A 
ATOM     41  C   UNL A   1      38.841  31.437  36.366  1.00  0.00     0.148 A 
ATOM     42  C   UNL A   1      39.511  34.164  36.242  1.00  0.00     0.002 A 
ATOM     43  C   UNL A   1      38.382  32.319  37.339  1.00  0.00     0.091 A 
ATOM     44  F   UNL A   1      38.564  30.127  36.414  1.00  0.00    -0.205 F 
ATOM     45  C   UNL A   1      38.724  33.680  37.283  1.00  0.00     0.022 A 
BRANCH  43  46
ATOM     46  S   UNL A   1      37.298  31.809  38.677  1.00  0.00     0.127 S 
ATOM     47  O   UNL A   1      37.029  30.416  38.324  1.00  0.00    -0.237 OA
ATOM     48  O   UNL A   1      38.155  31.984  39.852  1.00  0.00    -0.237 OA
ATOM     49  O   UNL A   1      36.149  32.702  38.627  1.00  0.00    -0.744 OA
ENDBRANCH  43  46
ENDBRANCH  25  39
BRANCH  26  50
ATOM     50  C   UNL A   1      42.306  26.238  27.510  1.00  0.00     0.023 A 
ATOM     51  C   UNL A   1      43.136  26.802  26.523  1.00  0.00     0.012 A 
ATOM     52  C   UNL A   1      41.920  24.888  27.395  1.00  0.00     0.148 A 
ATOM     53  C   UNL A   1      43.554  26.043  25.429  1.00  0.00     0.002 A 
ATOM     54  C   UNL A   1      42.390  24.121  26.337  1.00  0.00     0.091 A 
ATOM     55  F   UNL A   1      41.115  24.374  28.336  1.00  0.00    -0.205 F 
ATOM     56  C   UNL A   1      43.193  24.700  25.344  1.00  0.00     0.022 A 
BRANCH  54  57
ATOM     57  S   UNL A   1      42.092  22.353  26.234  1.00  0.00     0.127 S 
ATOM     58  O   UNL A   1      40.636  22.300  26.139  1.00  0.00    -0.237 OA
ATOM     59  O   UNL A   1      42.803  21.995  25.006  1.00  0.00    -0.237 OA
ATOM     60  O   UNL A   1      42.673  21.789  27.445  1.00  0.00    -0.744 OA
ENDBRANCH  54  57
ENDBRANCH  26  50
BRANCH  38  61
ATOM     61  C   UNL A   1      45.044  27.400  33.823  1.00  0.00     0.023 A 
ATOM     62  C   UNL A   1      46.225  28.162  33.743  1.00  0.00     0.012 A 
ATOM     63  C   UNL A   1      45.036  26.211  34.577  1.00  0.00     0.148 A 
ATOM     64  C   UNL A   1      47.391  27.732  34.373  1.00  0.00     0.002 A 
ATOM     65  C   UNL A   1      46.189  25.812  35.244  1.00  0.00     0.091 A 
ATOM     66  F   UNL A   1      43.908  25.488  34.623  1.00  0.00    -0.205 F 
ATOM     67  C   UNL A   1      47.369  26.563  35.132  1.00  0.00     0.022 A 
BRANCH  65  68
ATOM     68  S   UNL A   1      46.228  24.372  36.317  1.00  0.00     0.127 S 
ATOM     69  O   UNL A   1      46.417  23.287  35.355  1.00  0.00    -0.237 OA
ATOM     70  O   UNL A   1      47.390  24.646  37.163  1.00  0.00    -0.237 OA
ATOM     71  O   UNL A   1      44.955  24.366  37.025  1.00  0.00    -0.744 OA
ENDBRANCH  65  68
ENDBRANCH  38  61
ENDBRANCH  12  13
ENDBRANCH   5   7
ENDBRANCH   2   3
ENDBRANCH   1   2
BRANCH   1  72
ATOM     72  C   UNL A   1      33.242  26.594  25.823  1.00  0.00     0.117 C 
BRANCH  72  73
ATOM     73  N   UNL A   1      32.541  25.524  26.510  1.00  0.00    -0.354 N 
ATOM     74  C   UNL A   1      31.355  24.912  26.253  1.00  0.00     0.249 C 
ATOM     75  H   UNL A   1      33.010  25.181  27.306  1.00  0.00     0.163 HD
ATOM     76  O   UNL A   1      30.959  24.080  27.077  1.00  0.00    -0.272 OA
BRANCH  74  77
ATOM     77  C   UNL A   1      30.550  25.161  24.960  1.00  0.00     0.207 C 
ATOM     78  C   UNL A   1      31.395  24.696  23.769  1.00  0.00     0.045 C 
ATOM     79  O   UNL A   1      30.096  26.478  24.653  1.00  0.00    -0.363 OA
ATOM     80  C   UNL A   1      31.065  25.692  22.686  1.00  0.00     0.037 C 
ATOM     81  C   UNL A   1      30.818  26.942  23.499  1.00  0.00     0.138 C 
BRANCH  81  82
ATOM     82  C   UNL A   1      30.013  28.000  22.749  1.00  0.00     0.148 C 
BRANCH  82  83
ATOM     83  N   UNL A   1      28.583  27.868  23.004  1.00  0.00    -0.349 N 
ATOM     84  C   UNL A   1      27.623  28.845  23.094  1.00  0.00     0.251 C 
ATOM     85  H   UNL A   1      28.260  26.946  23.129  1.00  0.00     0.163 HD
ATOM     86  O   UNL A   1      26.498  28.580  23.507  1.00  0.00    -0.269 OA
BRANCH  84  87
ATOM     87  C   UNL A   1      27.955  30.236  22.719  1.00  0.00     0.043 A 
ATOM     88  C   UNL A   1      28.463  31.135  23.666  1.00  0.00     0.014 A 
ATOM     89  C   UNL A   1      27.769  30.639  21.396  1.00  0.00     0.060 A 
ATOM     90  C   UNL A   1      28.702  32.461  23.307  1.00  0.00     0.005 A 
ATOM     91  C   UNL A   1      28.028  31.958  21.047  1.00  0.00     0.116 A 
ATOM     92  C   UNL A   1      28.476  32.878  21.994  1.00  0.00     0.046 A 
BRANCH  91  93
ATOM     93  O   UNL A   1      27.818  32.328  19.751  1.00  0.00    -0.508 OA
ATOM     94  H   UNL A   1      27.060  32.022  19.293  1.00  0.00     0.293 HD
ENDBRANCH  91  93
ENDBRANCH  84  87
ENDBRANCH  82  83
ENDBRANCH  81  82
ENDBRANCH  74  77
ENDBRANCH  72  73
ENDBRANCH   1  72
TORSDOF 17
ENDMDL
MODEL 2
REMARK VINA RESULT:     -12.3      4.022      7.291
REMARK SMILES O=C(NCCCNC(=O)[C@@H]1CC[C@@H](CNC(=O)c2cccc(O)c2)O1)c1ccc(-c2c3nc(c(-c4cccc(S(=O)(=O)[O-])c4F)c4ccc([nH]4)c(-c4cccc(S(=O)(=O)[O-])c4F)c4nc(c(-c5cccc(S(=O)(=O)[O-])c5F)c5ccc2[nH]5)C=C4)C=C3)cc1
REMARK SMILES IDX 5 1 4 2 3 3 1 4 2 5 26 7 27 8 88 9 28 10 87 11 29 12 30 13
REMARK SMILES IDX 31 14 81 15 32 16 86 17 80 18 82 19 33 20 85 21 79 22 78 23
REMARK SMILES IDX 34 25 66 26 46 27 65 28 47 29 50 30 64 31 83 32 48 33 49 34
REMARK SMILES IDX 63 36 84 37 51 38 35 39 36 40 44 41 37 42 39 43 45 44 38 45
REMARK SMILES IDX 40 46 41 47 42 48 43 49 67 50 68 51 76 52 69 53 71 54 77 55
REMARK SMILES IDX 70 56 72 57 73 58 74 59 75 60 52 61 53 62 61 63 54 64 56 65
REMARK SMILES IDX 62 66 55 67 57 68 58 69 59 70 60 71 6 72 7 73 8 74 9 76
REMARK SMILES IDX 10 77 11 78 25 79 12 80 13 81 14 82 15 83 16 84 17 86 18 87
REMARK SMILES IDX 19 88 24 89 20 90 22 91 21 92 23 93
REMARK H PARENT 3 6 82 24 50 35 7 75 15 85 23 94
REMARK Flexibility Score: inf
ROOT
ATOM      1  C   UNL A   1      34.500  33.670  28.301  1.00  0.00     0.042 C 
ENDROOT
BRANCH   1   2
ATOM      2  C   UNL A   1      34.425  32.346  29.053  1.00  0.00     0.118 C 
BRANCH   2   3
ATOM      3  N   UNL A   1      33.907  31.266  28.222  1.00  0.00    -0.352 N 
ATOM      4  O   UNL A   1      33.977  29.515  26.816  1.00  0.00    -0.269 OA
ATOM      5  C   UNL A   1      34.550  30.184  27.673  1.00  0.00     0.251 C 
ATOM      6  H   UNL A   1      32.944  31.320  28.022  1.00  0.00     0.163 HD
BRANCH   5   7
ATOM      7  C   UNL A   1      35.917  29.832  28.106  1.00  0.00     0.039 A 
ATOM      8  C   UNL A   1      36.128  29.189  29.328  1.00  0.00     0.014 A 
ATOM      9  C   UNL A   1      36.999  30.111  27.266  1.00  0.00     0.014 A 
ATOM     10  C   UNL A   1      37.422  28.961  29.776  1.00  0.00     0.010 A 
ATOM     11  C   UNL A   1      38.296  29.787  27.676  1.00  0.00     0.010 A 
ATOM     12  C   UNL A   1      38.521  29.233  28.945  1.00  0.00    -0.014 A 
BRANCH  12  13
ATOM     13  C   UNL A   1      39.877  28.834  29.396  1.00  0.00     0.031 A 
ATOM     14  C   UNL A   1      40.571  29.546  30.524  1.00  0.00     0.074 A 
ATOM     15  C   UNL A   1      40.475  27.799  28.774  1.00  0.00     0.049 A 
ATOM     16  N   UNL A   1      41.735  29.285  31.061  1.00  0.00    -0.248 NA
ATOM     17  C   UNL A   1      39.881  30.700  31.121  1.00  0.00     0.031 C 
ATOM     18  C   UNL A   1      39.915  27.068  27.634  1.00  0.00     0.029 A 
ATOM     19  N   UNL A   1      41.675  27.179  29.007  1.00  0.00    -0.354 N 
ATOM     20  C   UNL A   1      41.937  30.260  32.031  1.00  0.00     0.074 A 
ATOM     21  C   UNL A   1      40.776  31.124  32.005  1.00  0.00     0.031 C 
ATOM     22  C   UNL A   1      40.752  26.080  27.289  1.00  0.00     0.029 A 
ATOM     23  C   UNL A   1      41.932  26.142  28.141  1.00  0.00     0.049 A 
ATOM     24  H   UNL A   1      42.293  27.449  29.723  1.00  0.00     0.167 HD
ATOM     25  C   UNL A   1      42.986  30.408  32.876  1.00  0.00     0.034 A 
ATOM     26  C   UNL A   1      43.005  25.337  28.031  1.00  0.00     0.034 A 
ATOM     27  C   UNL A   1      44.121  29.522  32.915  1.00  0.00     0.049 A 
ATOM     28  C   UNL A   1      44.140  25.512  28.998  1.00  0.00     0.074 A 
ATOM     29  C   UNL A   1      45.204  29.549  33.777  1.00  0.00     0.029 A 
ATOM     30  N   UNL A   1      44.328  28.457  32.051  1.00  0.00    -0.354 N 
ATOM     31  N   UNL A   1      44.248  26.354  29.997  1.00  0.00    -0.248 NA
ATOM     32  C   UNL A   1      45.288  24.609  28.842  1.00  0.00     0.031 C 
ATOM     33  C   UNL A   1      46.076  28.516  33.420  1.00  0.00     0.029 A 
ATOM     34  C   UNL A   1      45.525  27.827  32.352  1.00  0.00     0.049 A 
ATOM     35  H   UNL A   1      43.714  28.187  31.330  1.00  0.00     0.167 HD
ATOM     36  C   UNL A   1      45.465  26.071  30.602  1.00  0.00     0.074 A 
ATOM     37  C   UNL A   1      46.042  24.956  29.876  1.00  0.00     0.031 C 
ATOM     38  C   UNL A   1      46.063  26.691  31.649  1.00  0.00     0.034 A 
BRANCH  25  39
ATOM     39  C   UNL A   1      42.946  31.550  33.859  1.00  0.00     0.023 A 
ATOM     40  C   UNL A   1      43.360  32.833  33.452  1.00  0.00     0.012 A 
ATOM     41  C   UNL A   1      42.425  31.372  35.156  1.00  0.00     0.148 A 
ATOM     42  C   UNL A   1      43.279  33.917  34.325  1.00  0.00     0.002 A 
ATOM     43  C   UNL A   1      42.310  32.465  36.008  1.00  0.00     0.091 A 
ATOM     44  F   UNL A   1      42.053  30.140  35.534  1.00  0.00    -0.205 F 
ATOM     45  C   UNL A   1      42.746  33.736  35.598  1.00  0.00     0.022 A 
BRANCH  43  46
ATOM     46  S   UNL A   1      41.563  32.351  37.638  1.00  0.00     0.127 S 
ATOM     47  O   UNL A   1      42.438  31.382  38.297  1.00  0.00    -0.237 OA
ATOM     48  O   UNL A   1      41.693  33.723  38.134  1.00  0.00    -0.237 OA
ATOM     49  O   UNL A   1      40.192  31.912  37.422  1.00  0.00    -0.744 OA
ENDBRANCH  43  46
ENDBRANCH  25  39
BRANCH  26  50
ATOM     50  C   UNL A   1      43.028  24.272  26.989  1.00  0.00     0.023 A 
ATOM     51  C   UNL A   1      43.795  24.459  25.824  1.00  0.00     0.012 A 
ATOM     52  C   UNL A   1      42.336  23.060  27.171  1.00  0.00     0.148 A 
ATOM     53  C   UNL A   1      43.851  23.465  24.845  1.00  0.00     0.002 A 
ATOM     54  C   UNL A   1      42.446  22.051  26.223  1.00  0.00     0.091 A 
ATOM     55  F   UNL A   1      41.599  22.908  28.280  1.00  0.00    -0.205 F 
ATOM     56  C   UNL A   1      43.188  22.257  25.051  1.00  0.00     0.022 A 
BRANCH  54  57
ATOM     57  S   UNL A   1      41.746  20.417  26.482  1.00  0.00     0.127 S 
ATOM     58  O   UNL A   1      42.329  20.043  27.767  1.00  0.00    -0.237 OA
ATOM     59  O   UNL A   1      40.311  20.702  26.516  1.00  0.00    -0.237 OA
ATOM     60  O   UNL A   1      42.169  19.626  25.335  1.00  0.00    -0.744 OA
ENDBRANCH  54  57
ENDBRANCH  26  50
BRANCH  38  61
ATOM     61  C   UNL A   1      47.403  26.163  32.087  1.00  0.00     0.023 A 
ATOM     62  C   UNL A   1      48.578  26.655  31.486  1.00  0.00     0.012 A 
ATOM     63  C   UNL A   1      47.499  25.222  33.130  1.00  0.00     0.148 A 
ATOM     64  C   UNL A   1      49.829  26.193  31.891  1.00  0.00     0.002 A 
ATOM     65  C   UNL A   1      48.752  24.801  33.563  1.00  0.00     0.091 A 
ATOM     66  F   UNL A   1      46.370  24.749  33.675  1.00  0.00    -0.205 F 
ATOM     67  C   UNL A   1      49.916  25.276  32.936  1.00  0.00     0.022 A 
BRANCH  65  68
ATOM     68  S   UNL A   1      48.964  23.693  34.960  1.00  0.00     0.127 S 
ATOM     69  O   UNL A   1      50.416  23.532  34.997  1.00  0.00    -0.237 OA
ATOM     70  O   UNL A   1      48.409  24.476  36.066  1.00  0.00    -0.237 OA
ATOM     71  O   UNL A   1      48.207  22.491  34.635  1.00  0.00    -0.744 OA
ENDBRANCH  65  68
ENDBRANCH  38  61
ENDBRANCH  12  13
ENDBRANCH   5   7
ENDBRANCH   2   3
ENDBRANCH   1   2
BRANCH   1  72
ATOM     72  C   UNL A   1      33.181  34.429  28.315  1.00  0.00     0.117 C 
BRANCH  72  73
ATOM     73  N   UNL A   1      33.386  35.865  28.404  1.00  0.00    -0.354 N 
ATOM     74  C   UNL A   1      33.176  36.744  29.420  1.00  0.00     0.249 C 
ATOM     75  H   UNL A   1      33.739  36.274  27.581  1.00  0.00     0.163 HD
ATOM     76  O   UNL A   1      33.356  37.942  29.174  1.00  0.00    -0.272 OA
BRANCH  74  77
ATOM     77  C   UNL A   1      32.806  36.296  30.849  1.00  0.00     0.207 C 
ATOM     78  C   UNL A   1      33.382  37.315  31.838  1.00  0.00     0.045 C 
ATOM     79  O   UNL A   1      33.203  35.006  31.312  1.00  0.00    -0.363 OA
ATOM     80  C   UNL A   1      33.794  36.475  33.020  1.00  0.00     0.037 C 
ATOM     81  C   UNL A   1      34.191  35.184  32.340  1.00  0.00     0.138 C 
BRANCH  81  82
ATOM     82  C   UNL A   1      34.208  33.986  33.286  1.00  0.00     0.148 C 
BRANCH  82  83
ATOM     83  N   UNL A   1      34.840  32.825  32.670  1.00  0.00    -0.349 N 
ATOM     84  C   UNL A   1      36.168  32.480  32.625  1.00  0.00     0.251 C 
ATOM     85  H   UNL A   1      34.226  32.198  32.223  1.00  0.00     0.163 HD
ATOM     86  O   UNL A   1      36.553  31.568  31.899  1.00  0.00    -0.269 OA
BRANCH  84  87
ATOM     87  C   UNL A   1      37.149  33.233  33.435  1.00  0.00     0.043 A 
ATOM     88  C   UNL A   1      38.143  34.008  32.825  1.00  0.00     0.014 A 
ATOM     89  C   UNL A   1      37.060  33.171  34.827  1.00  0.00     0.060 A 
ATOM     90  C   UNL A   1      39.100  34.653  33.609  1.00  0.00     0.005 A 
ATOM     91  C   UNL A   1      38.009  33.831  35.596  1.00  0.00     0.116 A 
ATOM     92  C   UNL A   1      39.039  34.557  35.000  1.00  0.00     0.046 A 
BRANCH  91  93
ATOM     93  O   UNL A   1      37.908  33.737  36.953  1.00  0.00    -0.508 OA
ATOM     94  H   UNL A   1      37.353  33.087  37.337  1.00  0.00     0.293 HD
ENDBRANCH  91  93
ENDBRANCH  84  87
ENDBRANCH  82  83
ENDBRANCH  81  82
ENDBRANCH  74  77
ENDBRANCH  72  73
ENDBRANCH   1  72
TORSDOF 17
ENDMDL
MODEL 3
REMARK VINA RESULT:     -12.3      5.218      9.532
REMARK SMILES O=C(NCCCNC(=O)[C@@H]1CC[C@@H](CNC(=O)c2cccc(O)c2)O1)c1ccc(-c2c3nc(c(-c4cccc(S(=O)(=O)[O-])c4F)c4ccc([nH]4)c(-c4cccc(S(=O)(=O)[O-])c4F)c4nc(c(-c5cccc(S(=O)(=O)[O-])c5F)c5ccc2[nH]5)C=C4)C=C3)cc1
REMARK SMILES IDX 5 1 4 2 3 3 1 4 2 5 26 7 27 8 88 9 28 10 87 11 29 12 30 13
REMARK SMILES IDX 31 14 81 15 32 16 86 17 80 18 82 19 33 20 85 21 79 22 78 23
REMARK SMILES IDX 34 25 66 26 46 27 65 28 47 29 50 30 64 31 83 32 48 33 49 34
REMARK SMILES IDX 63 36 84 37 51 38 35 39 36 40 44 41 37 42 39 43 45 44 38 45
REMARK SMILES IDX 40 46 41 47 42 48 43 49 67 50 68 51 76 52 69 53 71 54 77 55
REMARK SMILES IDX 70 56 72 57 73 58 74 59 75 60 52 61 53 62 61 63 54 64 56 65
REMARK SMILES IDX 62 66 55 67 57 68 58 69 59 70 60 71 6 72 7 73 8 74 9 76
REMARK SMILES IDX 10 77 11 78 25 79 12 80 13 81 14 82 15 83 16 84 17 86 18 87
REMARK SMILES IDX 19 88 24 89 20 90 22 91 21 92 23 93
REMARK H PARENT 3 6 82 24 50 35 7 75 15 85 23 94
REMARK Flexibility Score: inf
ROOT
ATOM      1  C   UNL A   1      35.496  23.304  26.583  1.00  0.00     0.042 C 
ENDROOT
BRANCH   1   2
ATOM      2  C   UNL A   1      36.740  23.450  25.713  1.00  0.00     0.118 C 
BRANCH   2   3
ATOM      3  N   UNL A   1      37.766  22.469  26.047  1.00  0.00    -0.352 N 
ATOM      4  O   UNL A   1      39.828  21.694  26.489  1.00  0.00    -0.269 OA
ATOM      5  C   UNL A   1      39.055  22.650  26.483  1.00  0.00     0.251 C 
ATOM      6  H   UNL A   1      37.492  21.529  25.943  1.00  0.00     0.163 HD
BRANCH   5   7
ATOM      7  C   UNL A   1      39.508  23.980  26.936  1.00  0.00     0.039 A 
ATOM      8  C   UNL A   1      39.485  24.310  28.293  1.00  0.00     0.014 A 
ATOM      9  C   UNL A   1      40.000  24.896  26.001  1.00  0.00     0.014 A 
ATOM     10  C   UNL A   1      39.809  25.598  28.698  1.00  0.00     0.010 A 
ATOM     11  C   UNL A   1      40.422  26.160  26.425  1.00  0.00     0.010 A 
ATOM     12  C   UNL A   1      40.306  26.530  27.773  1.00  0.00    -0.014 A 
BRANCH  12  13
ATOM     13  C   UNL A   1      40.786  27.845  28.268  1.00  0.00     0.031 A 
ATOM     14  C   UNL A   1      42.244  28.208  28.246  1.00  0.00     0.074 A 
ATOM     15  C   UNL A   1      39.872  28.722  28.730  1.00  0.00     0.049 A 
ATOM     16  N   UNL A   1      42.811  29.333  28.600  1.00  0.00    -0.248 NA
ATOM     17  C   UNL A   1      43.189  27.183  27.778  1.00  0.00     0.031 C 
ATOM     18  C   UNL A   1      38.436  28.456  28.844  1.00  0.00     0.029 A 
ATOM     19  N   UNL A   1      40.008  30.008  29.186  1.00  0.00    -0.354 N 
ATOM     20  C   UNL A   1      44.178  29.142  28.435  1.00  0.00     0.074 A 
ATOM     21  C   UNL A   1      44.357  27.788  27.955  1.00  0.00     0.031 C 
ATOM     22  C   UNL A   1      37.819  29.553  29.305  1.00  0.00     0.029 A 
ATOM     23  C   UNL A   1      38.818  30.578  29.574  1.00  0.00     0.049 A 
ATOM     24  H   UNL A   1      40.871  30.477  29.231  1.00  0.00     0.167 HD
ATOM     25  C   UNL A   1      45.186  30.020  28.650  1.00  0.00     0.034 A 
ATOM     26  C   UNL A   1      38.557  31.788  30.103  1.00  0.00     0.034 A 
ATOM     27  C   UNL A   1      44.994  31.376  29.098  1.00  0.00     0.049 A 
ATOM     28  C   UNL A   1      39.695  32.747  30.306  1.00  0.00     0.074 A 
ATOM     29  C   UNL A   1      45.946  32.364  29.282  1.00  0.00     0.029 A 
ATOM     30  N   UNL A   1      43.772  31.933  29.441  1.00  0.00    -0.354 N 
ATOM     31  N   UNL A   1      40.963  32.592  30.014  1.00  0.00    -0.248 NA
ATOM     32  C   UNL A   1      39.362  34.055  30.883  1.00  0.00     0.031 C 
ATOM     33  C   UNL A   1      45.302  33.511  29.758  1.00  0.00     0.029 A 
ATOM     34  C   UNL A   1      43.945  33.247  29.847  1.00  0.00     0.049 A 
ATOM     35  H   UNL A   1      42.906  31.464  29.401  1.00  0.00     0.167 HD
ATOM     36  C   UNL A   1      41.578  33.790  30.352  1.00  0.00     0.074 A 
ATOM     37  C   UNL A   1      40.536  34.671  30.840  1.00  0.00     0.031 C 
ATOM     38  C   UNL A   1      42.891  34.124  30.287  1.00  0.00     0.034 A 
BRANCH  25  39
ATOM     39  C   UNL A   1      46.595  29.563  28.368  1.00  0.00     0.023 A 
ATOM     40  C   UNL A   1      47.179  29.840  27.116  1.00  0.00     0.012 A 
ATOM     41  C   UNL A   1      47.367  28.933  29.365  1.00  0.00     0.148 A 
ATOM     42  C   UNL A   1      48.498  29.477  26.850  1.00  0.00     0.002 A 
ATOM     43  C   UNL A   1      48.695  28.610  29.107  1.00  0.00     0.091 A 
ATOM     44  F   UNL A   1      46.790  28.660  30.543  1.00  0.00    -0.205 F 
ATOM     45  C   UNL A   1      49.259  28.873  27.847  1.00  0.00     0.022 A 
BRANCH  43  46
ATOM     46  S   UNL A   1      49.780  27.901  30.350  1.00  0.00     0.127 S 
ATOM     47  O   UNL A   1      49.147  26.605  30.591  1.00  0.00    -0.237 OA
ATOM     48  O   UNL A   1      51.059  27.831  29.639  1.00  0.00    -0.237 OA
ATOM     49  O   UNL A   1      49.762  28.826  31.474  1.00  0.00    -0.744 OA
ENDBRANCH  43  46
ENDBRANCH  25  39
BRANCH  26  50
ATOM     50  C   UNL A   1      37.155  32.163  30.438  1.00  0.00     0.023 A 
ATOM     51  C   UNL A   1      36.671  31.946  31.742  1.00  0.00     0.012 A 
ATOM     52  C   UNL A   1      36.318  32.777  29.486  1.00  0.00     0.148 A 
ATOM     53  C   UNL A   1      35.368  32.312  32.085  1.00  0.00     0.002 A 
ATOM     54  C   UNL A   1      35.045  33.195  29.851  1.00  0.00     0.091 A 
ATOM     55  F   UNL A   1      36.792  32.960  28.246  1.00  0.00    -0.205 F 
ATOM     56  C   UNL A   1      34.561  32.948  31.144  1.00  0.00     0.022 A 
BRANCH  54  57
ATOM     57  S   UNL A   1      34.000  34.151  28.745  1.00  0.00     0.127 S 
ATOM     58  O   UNL A   1      34.904  35.221  28.333  1.00  0.00    -0.237 OA
ATOM     59  O   UNL A   1      33.686  33.173  27.702  1.00  0.00    -0.237 OA
ATOM     60  O   UNL A   1      32.855  34.557  29.547  1.00  0.00    -0.744 OA
ENDBRANCH  54  57
ENDBRANCH  26  50
BRANCH  38  61
ATOM     61  C   UNL A   1      43.271  35.510  30.735  1.00  0.00     0.023 A 
ATOM     62  C   UNL A   1      43.623  35.737  32.079  1.00  0.00     0.012 A 
ATOM     63  C   UNL A   1      43.333  36.573  29.813  1.00  0.00     0.148 A 
ATOM     64  C   UNL A   1      43.997  37.009  32.510  1.00  0.00     0.002 A 
ATOM     65  C   UNL A   1      43.753  37.828  30.239  1.00  0.00     0.091 A 
ATOM     66  F   UNL A   1      42.973  36.342  28.543  1.00  0.00    -0.205 F 
ATOM     67  C   UNL A   1      44.072  38.050  31.588  1.00  0.00     0.022 A 
BRANCH  65  68
ATOM     68  S   UNL A   1      43.968  39.204  29.105  1.00  0.00     0.127 S 
ATOM     69  O   UNL A   1      42.596  39.442  28.659  1.00  0.00    -0.237 OA
ATOM     70  O   UNL A   1      44.514  40.245  29.977  1.00  0.00    -0.237 OA
ATOM     71  O   UNL A   1      44.888  38.735  28.077  1.00  0.00    -0.744 OA
ENDBRANCH  65  68
ENDBRANCH  38  61
ENDBRANCH  12  13
ENDBRANCH   5   7
ENDBRANCH   2   3
ENDBRANCH   1   2
BRANCH   1  72
ATOM     72  C   UNL A   1      34.205  23.497  25.800  1.00  0.00     0.117 C 
BRANCH  72  73
ATOM     73  N   UNL A   1      34.402  23.290  24.375  1.00  0.00    -0.354 N 
ATOM     74  C   UNL A   1      33.840  23.888  23.292  1.00  0.00     0.249 C 
ATOM     75  H   UNL A   1      35.061  22.592  24.157  1.00  0.00     0.163 HD
ATOM     76  O   UNL A   1      34.137  23.435  22.180  1.00  0.00    -0.272 OA
BRANCH  74  77
ATOM     77  C   UNL A   1      32.929  25.128  23.400  1.00  0.00     0.207 C 
ATOM     78  C   UNL A   1      31.996  25.149  22.185  1.00  0.00     0.045 C 
ATOM     79  O   UNL A   1      33.511  26.428  23.494  1.00  0.00    -0.363 OA
ATOM     80  C   UNL A   1      31.855  26.616  21.867  1.00  0.00     0.037 C 
ATOM     81  C   UNL A   1      33.211  27.140  22.282  1.00  0.00     0.138 C 
BRANCH  81  82
ATOM     82  C   UNL A   1      33.226  28.647  22.524  1.00  0.00     0.148 C 
BRANCH  82  83
ATOM     83  N   UNL A   1      31.879  29.206  22.519  1.00  0.00    -0.349 N 
ATOM     84  C   UNL A   1      30.956  29.258  23.533  1.00  0.00     0.251 C 
ATOM     85  H   UNL A   1      31.590  29.602  21.665  1.00  0.00     0.163 HD
ATOM     86  O   UNL A   1      29.796  29.589  23.307  1.00  0.00    -0.269 OA
BRANCH  84  87
ATOM     87  C   UNL A   1      31.354  28.883  24.907  1.00  0.00     0.043 A 
ATOM     88  C   UNL A   1      31.014  27.633  25.439  1.00  0.00     0.014 A 
ATOM     89  C   UNL A   1      32.092  29.794  25.665  1.00  0.00     0.060 A 
ATOM     90  C   UNL A   1      31.339  27.329  26.761  1.00  0.00     0.005 A 
ATOM     91  C   UNL A   1      32.424  29.471  26.975  1.00  0.00     0.116 A 
ATOM     92  C   UNL A   1      32.039  28.255  27.536  1.00  0.00     0.046 A 
BRANCH  91  93
ATOM     93  O   UNL A   1      33.129  30.388  27.698  1.00  0.00    -0.508 OA
ATOM     94  H   UNL A   1      33.406  31.188  27.297  1.00  0.00     0.293 HD
ENDBRANCH  91  93
ENDBRANCH  84  87
ENDBRANCH  82  83
ENDBRANCH  81  82
ENDBRANCH  74  77
ENDBRANCH  72  73
ENDBRANCH   1  72
TORSDOF 17
ENDMDL
