MODEL 1
REMARK VINA RESULT:     -12.1      0.000      0.000
REMARK SMILES CC1=C(C)C[C@@H](C(=O)NCCCNC(=O)c2ccc(-c3c4nc(c(-c5cccc(S(=O)(=O)[O-])c5F)c5ccc([nH]5)c(-c5cccc(S(=O)(=O)[O-])c5F)c5nc(c(-c6cccc(S(=O)(=O)[O-])c6F)c6ccc3[nH]6)C=C5)C=C4)cc2)[C@@H](C(=O)NCC[NH+]2CCOCC2)C1
REMARK SMILES IDX 10 1 9 2 7 3 8 4 6 6 1 7 2 8 3 9 91 10 4 11 5 12 79 13 80 14
REMARK SMILES IDX 81 15 82 16 83 18 84 19 85 20 86 21 90 22 87 24 89 25 88 26
REMARK SMILES IDX 11 27 12 28 13 29 14 30 15 32 16 33 17 34 78 35 18 36 77 37
REMARK SMILES IDX 19 38 20 39 21 40 71 41 22 42 76 43 70 44 72 45 23 46 75 47
REMARK SMILES IDX 69 48 68 49 24 51 56 52 36 53 55 54 37 55 40 56 54 57 73 58
REMARK SMILES IDX 38 59 39 60 53 62 74 63 41 64 25 65 26 66 34 67 27 68 29 69
REMARK SMILES IDX 35 70 28 71 30 72 31 73 32 74 33 75 57 76 58 77 66 78 59 79
REMARK SMILES IDX 61 80 67 81 60 82 62 83 63 84 64 85 65 86 42 87 43 88 51 89
REMARK SMILES IDX 44 90 46 91 52 92 45 93 47 94 48 95 49 96 50 97
REMARK H PARENT 9 5 82 17 85 23 13 31 72 50 40 61
REMARK Flexibility Score: inf
ROOT
ATOM      1  C   UNL A   1      31.586  30.471  25.943  1.00  0.00     0.117 C 
ENDROOT
BRANCH   1   2
ATOM      2  N   UNL A   1      32.700  29.647  26.358  1.00  0.00    -0.356 N 
ATOM      3  C   UNL A   1      33.174  28.494  25.840  1.00  0.00     0.224 C 
ATOM      4  O   UNL A   1      34.397  28.328  25.922  1.00  0.00    -0.275 OA
ATOM      5  H   UNL A   1      33.192  29.981  27.143  1.00  0.00     0.163 HD
BRANCH   3   6
ATOM      6  C   UNL A   1      32.345  27.436  25.124  1.00  0.00     0.095 C 
ATOM      7  C   UNL A   1      34.792  24.156  23.506  1.00  0.00     0.039 C 
ATOM      8  C   UNL A   1      33.769  25.099  24.096  1.00  0.00    -0.074 C 
ATOM      9  C   UNL A   1      33.373  25.101  25.386  1.00  0.00    -0.074 C 
ATOM     10  C   UNL A   1      33.297  26.145  23.096  1.00  0.00     0.045 C 
ATOM     11  C   UNL A   1      33.890  24.196  26.475  1.00  0.00     0.039 C 
ATOM     12  C   UNL A   1      32.376  26.111  25.883  1.00  0.00     0.045 C 
ATOM     13  C   UNL A   1      32.410  27.316  23.597  1.00  0.00     0.095 C 
BRANCH  13  14
ATOM     14  C   UNL A   1      32.764  28.627  22.875  1.00  0.00     0.224 C 
ATOM     15  O   UNL A   1      33.928  28.963  22.650  1.00  0.00    -0.275 OA
ATOM     16  N   UNL A   1      31.813  29.471  22.401  1.00  0.00    -0.350 N 
ATOM     17  H   UNL A   1      32.166  30.348  22.122  1.00  0.00     0.163 HD
BRANCH  16  18
ATOM     18  C   UNL A   1      30.382  29.338  22.226  1.00  0.00     0.177 C 
BRANCH  18  19
ATOM     19  C   UNL A   1      29.515  30.144  23.222  1.00  0.00     0.283 C 
BRANCH  19  20
ATOM     20  N   UNL A   1      28.116  30.394  22.816  1.00  0.00    -0.330 N 
ATOM     21  C   UNL A   1      27.935  30.531  21.346  1.00  0.00     0.291 C 
ATOM     22  C   UNL A   1      27.610  31.652  23.428  1.00  0.00     0.291 C 
ATOM     23  H   UNL A   1      27.599  29.576  23.137  1.00  0.00     0.348 HD
ATOM     24  C   UNL A   1      28.414  31.862  20.729  1.00  0.00     0.221 C 
ATOM     25  C   UNL A   1      28.189  32.933  22.804  1.00  0.00     0.221 C 
ATOM     26  O   UNL A   1      27.871  32.999  21.411  1.00  0.00    -0.370 OA
ENDBRANCH  19  20
ENDBRANCH  18  19
ENDBRANCH  16  18
ENDBRANCH  13  14
ENDBRANCH   3   6
ENDBRANCH   1   2
BRANCH   1  27
ATOM     27  C   UNL A   1      31.441  31.779  26.701  1.00  0.00     0.042 C 
BRANCH  27  28
ATOM     28  C   UNL A   1      32.748  32.328  27.244  1.00  0.00     0.118 C 
BRANCH  28  29
ATOM     29  N   UNL A   1      32.647  33.748  27.556  1.00  0.00    -0.352 N 
ATOM     30  C   UNL A   1      33.229  34.466  28.570  1.00  0.00     0.251 C 
ATOM     31  H   UNL A   1      32.076  34.269  26.948  1.00  0.00     0.163 HD
ATOM     32  O   UNL A   1      32.792  35.584  28.839  1.00  0.00    -0.269 OA
BRANCH  30  33
ATOM     33  C   UNL A   1      34.370  33.911  29.328  1.00  0.00     0.039 A 
ATOM     34  C   UNL A   1      35.660  34.375  29.051  1.00  0.00     0.014 A 
ATOM     35  C   UNL A   1      34.183  32.895  30.269  1.00  0.00     0.014 A 
ATOM     36  C   UNL A   1      36.752  33.843  29.741  1.00  0.00     0.010 A 
ATOM     37  C   UNL A   1      35.258  32.435  31.021  1.00  0.00     0.010 A 
ATOM     38  C   UNL A   1      36.558  32.879  30.744  1.00  0.00    -0.014 A 
BRANCH  38  39
ATOM     39  C   UNL A   1      37.703  32.293  31.485  1.00  0.00     0.031 A 
ATOM     40  C   UNL A   1      38.486  31.154  30.885  1.00  0.00     0.074 A 
ATOM     41  C   UNL A   1      37.991  32.734  32.726  1.00  0.00     0.049 A 
ATOM     42  N   UNL A   1      39.492  30.489  31.391  1.00  0.00    -0.248 NA
ATOM     43  C   UNL A   1      38.066  30.678  29.556  1.00  0.00     0.031 C 
ATOM     44  C   UNL A   1      37.250  33.769  33.450  1.00  0.00     0.029 A 
ATOM     45  N   UNL A   1      38.972  32.352  33.605  1.00  0.00    -0.354 N 
ATOM     46  C   UNL A   1      39.795  29.497  30.466  1.00  0.00     0.074 A 
ATOM     47  C   UNL A   1      38.842  29.619  29.386  1.00  0.00     0.031 C 
ATOM     48  C   UNL A   1      37.809  33.946  34.658  1.00  0.00     0.029 A 
ATOM     49  C   UNL A   1      38.932  33.025  34.804  1.00  0.00     0.049 A 
ATOM     50  H   UNL A   1      39.641  31.659  33.399  1.00  0.00     0.167 HD
ATOM     51  C   UNL A   1      40.800  28.589  30.490  1.00  0.00     0.034 A 
ATOM     52  C   UNL A   1      39.715  32.915  35.894  1.00  0.00     0.034 A 
ATOM     53  C   UNL A   1      41.784  28.513  31.536  1.00  0.00     0.049 A 
ATOM     54  C   UNL A   1      40.866  31.944  35.869  1.00  0.00     0.074 A 
ATOM     55  C   UNL A   1      42.900  27.699  31.610  1.00  0.00     0.029 A 
ATOM     56  N   UNL A   1      41.770  29.280  32.690  1.00  0.00    -0.354 N 
ATOM     57  N   UNL A   1      41.238  31.131  34.910  1.00  0.00    -0.248 NA
ATOM     58  C   UNL A   1      41.727  31.903  37.059  1.00  0.00     0.031 C 
ATOM     59  C   UNL A   1      43.555  27.966  32.817  1.00  0.00     0.029 A 
ATOM     60  C   UNL A   1      42.854  28.958  33.486  1.00  0.00     0.049 A 
ATOM     61  H   UNL A   1      41.088  29.956  32.911  1.00  0.00     0.167 HD
ATOM     62  C   UNL A   1      42.394  30.508  35.366  1.00  0.00     0.074 A 
ATOM     63  C   UNL A   1      42.673  31.057  36.678  1.00  0.00     0.031 C 
ATOM     64  C   UNL A   1      43.147  29.554  34.765  1.00  0.00     0.034 A 
BRANCH  51  65
ATOM     65  C   UNL A   1      40.927  27.652  29.317  1.00  0.00     0.023 A 
ATOM     66  C   UNL A   1      40.118  26.499  29.261  1.00  0.00     0.012 A 
ATOM     67  C   UNL A   1      41.802  27.933  28.249  1.00  0.00     0.148 A 
ATOM     68  C   UNL A   1      40.203  25.621  28.182  1.00  0.00     0.002 A 
ATOM     69  C   UNL A   1      41.850  27.075  27.155  1.00  0.00     0.091 A 
ATOM     70  F   UNL A   1      42.580  29.022  28.327  1.00  0.00    -0.205 F 
ATOM     71  C   UNL A   1      41.060  25.914  27.125  1.00  0.00     0.022 A 
BRANCH  69  72
ATOM     72  S   UNL A   1      42.862  27.406  25.708  1.00  0.00     0.127 S 
ATOM     73  O   UNL A   1      42.314  26.454  24.741  1.00  0.00    -0.237 OA
ATOM     74  O   UNL A   1      42.548  28.807  25.425  1.00  0.00    -0.237 OA
ATOM     75  O   UNL A   1      44.238  27.163  26.116  1.00  0.00    -0.744 OA
ENDBRANCH  69  72
ENDBRANCH  51  65
BRANCH  52  76
ATOM     76  C   UNL A   1      39.491  33.810  37.065  1.00  0.00     0.023 A 
ATOM     77  C   UNL A   1      39.860  35.165  36.973  1.00  0.00     0.012 A 
ATOM     78  C   UNL A   1      38.886  33.341  38.247  1.00  0.00     0.148 A 
ATOM     79  C   UNL A   1      39.662  36.032  38.048  1.00  0.00     0.002 A 
ATOM     80  C   UNL A   1      38.643  34.222  39.296  1.00  0.00     0.091 A 
ATOM     81  F   UNL A   1      38.552  32.045  38.321  1.00  0.00    -0.205 F 
ATOM     82  C   UNL A   1      39.044  35.564  39.205  1.00  0.00     0.022 A 
BRANCH  80  83
ATOM     83  S   UNL A   1      37.736  33.735  40.768  1.00  0.00     0.127 S 
ATOM     84  O   UNL A   1      36.546  33.108  40.192  1.00  0.00    -0.237 OA
ATOM     85  O   UNL A   1      38.671  32.805  41.407  1.00  0.00    -0.237 OA
ATOM     86  O   UNL A   1      37.511  34.962  41.513  1.00  0.00    -0.744 OA
ENDBRANCH  80  83
ENDBRANCH  52  76
BRANCH  64  87
ATOM     87  C   UNL A   1      44.361  29.056  35.502  1.00  0.00     0.023 A 
ATOM     88  C   UNL A   1      45.602  29.694  35.309  1.00  0.00     0.012 A 
ATOM     89  C   UNL A   1      44.257  28.011  36.441  1.00  0.00     0.148 A 
ATOM     90  C   UNL A   1      46.729  29.278  36.017  1.00  0.00     0.002 A 
ATOM     91  C   UNL A   1      45.373  27.633  37.176  1.00  0.00     0.091 A 
ATOM     92  F   UNL A   1      43.070  27.405  36.596  1.00  0.00    -0.205 F 
ATOM     93  C   UNL A   1      46.612  28.257  36.958  1.00  0.00     0.022 A 
BRANCH  91  94
ATOM     94  S   UNL A   1      45.293  26.395  38.475  1.00  0.00     0.127 S 
ATOM     95  O   UNL A   1      44.252  26.939  39.343  1.00  0.00    -0.237 OA
ATOM     96  O   UNL A   1      44.906  25.192  37.737  1.00  0.00    -0.237 OA
ATOM     97  O   UNL A   1      46.628  26.340  39.056  1.00  0.00    -0.744 OA
ENDBRANCH  91  94
ENDBRANCH  64  87
ENDBRANCH  38  39
ENDBRANCH  30  33
ENDBRANCH  28  29
ENDBRANCH  27  28
ENDBRANCH   1  27
TORSDOF 17
ENDMDL
MODEL 2
REMARK VINA RESULT:     -12.0      6.445     11.803
REMARK SMILES CC1=C(C)C[C@@H](C(=O)NCCCNC(=O)c2ccc(-c3c4nc(c(-c5cccc(S(=O)(=O)[O-])c5F)c5ccc([nH]5)c(-c5cccc(S(=O)(=O)[O-])c5F)c5nc(c(-c6cccc(S(=O)(=O)[O-])c6F)c6ccc3[nH]6)C=C5)C=C4)cc2)[C@@H](C(=O)NCC[NH+]2CCOCC2)C1
REMARK SMILES IDX 10 1 9 2 7 3 8 4 6 6 1 7 2 8 3 9 91 10 4 11 5 12 79 13 80 14
REMARK SMILES IDX 81 15 82 16 83 18 84 19 85 20 86 21 90 22 87 24 89 25 88 26
REMARK SMILES IDX 11 27 12 28 13 29 14 30 15 32 16 33 17 34 78 35 18 36 77 37
REMARK SMILES IDX 19 38 20 39 21 40 71 41 22 42 76 43 70 44 72 45 23 46 75 47
REMARK SMILES IDX 69 48 68 49 24 51 56 52 36 53 55 54 37 55 40 56 54 57 73 58
REMARK SMILES IDX 38 59 39 60 53 62 74 63 41 64 25 65 26 66 34 67 27 68 29 69
REMARK SMILES IDX 35 70 28 71 30 72 31 73 32 74 33 75 57 76 58 77 66 78 59 79
REMARK SMILES IDX 61 80 67 81 60 82 62 83 63 84 64 85 65 86 42 87 43 88 51 89
REMARK SMILES IDX 44 90 46 91 52 92 45 93 47 94 48 95 49 96 50 97
REMARK H PARENT 9 5 82 17 85 23 13 31 72 50 40 61
REMARK Flexibility Score: inf
ROOT
ATOM      1  C   UNL A   1      35.298  21.724  26.119  1.00  0.00     0.117 C 
ENDROOT
BRANCH   1   2
ATOM      2  N   UNL A   1      35.170  23.165  26.110  1.00  0.00    -0.356 N 
ATOM      3  C   UNL A   1      34.269  23.957  25.491  1.00  0.00     0.224 C 
ATOM      4  O   UNL A   1      33.967  24.999  26.087  1.00  0.00    -0.275 OA
ATOM      5  H   UNL A   1      35.847  23.644  26.641  1.00  0.00     0.163 HD
BRANCH   3   6
ATOM      6  C   UNL A   1      33.566  23.644  24.177  1.00  0.00     0.095 C 
ATOM      7  C   UNL A   1      30.522  26.638  23.113  1.00  0.00     0.039 C 
ATOM      8  C   UNL A   1      31.603  25.588  23.221  1.00  0.00    -0.074 C 
ATOM      9  C   UNL A   1      32.906  25.786  22.932  1.00  0.00    -0.074 C 
ATOM     10  C   UNL A   1      31.088  24.281  23.807  1.00  0.00     0.045 C 
ATOM     11  C   UNL A   1      33.527  27.083  22.480  1.00  0.00     0.039 C 
ATOM     12  C   UNL A   1      33.911  24.683  23.112  1.00  0.00     0.045 C 
ATOM     13  C   UNL A   1      32.108  23.172  24.182  1.00  0.00     0.095 C 
BRANCH  13  14
ATOM     14  C   UNL A   1      31.684  22.442  25.468  1.00  0.00     0.224 C 
ATOM     15  O   UNL A   1      31.117  23.019  26.397  1.00  0.00    -0.275 OA
ATOM     16  N   UNL A   1      31.870  21.109  25.637  1.00  0.00    -0.350 N 
ATOM     17  H   UNL A   1      31.720  20.802  26.561  1.00  0.00     0.163 HD
BRANCH  16  18
ATOM     18  C   UNL A   1      32.245  20.047  24.726  1.00  0.00     0.177 C 
BRANCH  18  19
ATOM     19  C   UNL A   1      32.726  18.739  25.397  1.00  0.00     0.283 C 
BRANCH  19  20
ATOM     20  N   UNL A   1      32.233  17.479  24.800  1.00  0.00    -0.330 N 
ATOM     21  C   UNL A   1      32.668  16.260  25.532  1.00  0.00     0.291 C 
ATOM     22  C   UNL A   1      32.722  17.337  23.403  1.00  0.00     0.291 C 
ATOM     23  H   UNL A   1      31.217  17.547  24.846  1.00  0.00     0.348 HD
ATOM     24  C   UNL A   1      34.142  15.847  25.335  1.00  0.00     0.221 C 
ATOM     25  C   UNL A   1      34.216  16.993  23.291  1.00  0.00     0.221 C 
ATOM     26  O   UNL A   1      34.496  15.755  23.951  1.00  0.00    -0.370 OA
ENDBRANCH  19  20
ENDBRANCH  18  19
ENDBRANCH  16  18
ENDBRANCH  13  14
ENDBRANCH   3   6
ENDBRANCH   1   2
BRANCH   1  27
ATOM     27  C   UNL A   1      35.804  21.119  24.821  1.00  0.00     0.042 C 
BRANCH  27  28
ATOM     28  C   UNL A   1      37.287  21.330  24.577  1.00  0.00     0.118 C 
BRANCH  28  29
ATOM     29  N   UNL A   1      38.089  20.275  25.184  1.00  0.00    -0.352 N 
ATOM     30  C   UNL A   1      39.357  20.327  25.705  1.00  0.00     0.251 C 
ATOM     31  H   UNL A   1      37.654  19.393  25.227  1.00  0.00     0.163 HD
ATOM     32  O   UNL A   1      39.968  19.278  25.901  1.00  0.00    -0.269 OA
BRANCH  30  33
ATOM     33  C   UNL A   1      39.984  21.625  26.034  1.00  0.00     0.039 A 
ATOM     34  C   UNL A   1      41.379  21.716  26.068  1.00  0.00     0.014 A 
ATOM     35  C   UNL A   1      39.206  22.737  26.365  1.00  0.00     0.014 A 
ATOM     36  C   UNL A   1      41.987  22.929  26.401  1.00  0.00     0.010 A 
ATOM     37  C   UNL A   1      39.810  23.966  26.603  1.00  0.00     0.010 A 
ATOM     38  C   UNL A   1      41.207  24.069  26.656  1.00  0.00    -0.014 A 
BRANCH  38  39
ATOM     39  C   UNL A   1      41.830  25.366  27.019  1.00  0.00     0.031 A 
ATOM     40  C   UNL A   1      41.055  26.376  27.827  1.00  0.00     0.074 A 
ATOM     41  C   UNL A   1      43.061  25.667  26.561  1.00  0.00     0.049 A 
ATOM     42  N   UNL A   1      41.412  27.573  28.212  1.00  0.00    -0.248 NA
ATOM     43  C   UNL A   1      39.688  26.004  28.231  1.00  0.00     0.031 C 
ATOM     44  C   UNL A   1      43.875  24.811  25.696  1.00  0.00     0.029 A 
ATOM     45  N   UNL A   1      43.834  26.787  26.741  1.00  0.00    -0.354 N 
ATOM     46  C   UNL A   1      40.307  28.109  28.862  1.00  0.00     0.074 A 
ATOM     47  C   UNL A   1      39.252  27.124  28.785  1.00  0.00     0.031 C 
ATOM     48  C   UNL A   1      45.036  25.431  25.430  1.00  0.00     0.029 A 
ATOM     49  C   UNL A   1      45.042  26.735  26.085  1.00  0.00     0.049 A 
ATOM     50  H   UNL A   1      43.551  27.555  27.288  1.00  0.00     0.167 HD
ATOM     51  C   UNL A   1      40.189  29.298  29.500  1.00  0.00     0.034 A 
ATOM     52  C   UNL A   1      46.041  27.637  26.024  1.00  0.00     0.034 A 
ATOM     53  C   UNL A   1      41.261  30.247  29.628  1.00  0.00     0.049 A 
ATOM     54  C   UNL A   1      45.911  28.922  26.798  1.00  0.00     0.074 A 
ATOM     55  C   UNL A   1      41.279  31.434  30.338  1.00  0.00     0.029 A 
ATOM     56  N   UNL A   1      42.506  30.116  29.033  1.00  0.00    -0.354 N 
ATOM     57  N   UNL A   1      44.920  29.336  27.549  1.00  0.00    -0.248 NA
ATOM     58  C   UNL A   1      47.053  29.846  26.747  1.00  0.00     0.031 C 
ATOM     59  C   UNL A   1      42.534  32.028  30.161  1.00  0.00     0.029 A 
ATOM     60  C   UNL A   1      43.301  31.201  29.354  1.00  0.00     0.049 A 
ATOM     61  H   UNL A   1      42.784  29.361  28.465  1.00  0.00     0.167 HD
ATOM     62  C   UNL A   1      45.330  30.550  28.087  1.00  0.00     0.074 A 
ATOM     63  C   UNL A   1      46.671  30.792  27.594  1.00  0.00     0.031 C 
ATOM     64  C   UNL A   1      44.653  31.399  28.899  1.00  0.00     0.034 A 
BRANCH  51  65
ATOM     65  C   UNL A   1      38.875  29.606  30.170  1.00  0.00     0.023 A 
ATOM     66  C   UNL A   1      38.607  29.073  31.449  1.00  0.00     0.012 A 
ATOM     67  C   UNL A   1      37.929  30.458  29.567  1.00  0.00     0.148 A 
ATOM     68  C   UNL A   1      37.408  29.352  32.100  1.00  0.00     0.002 A 
ATOM     69  C   UNL A   1      36.753  30.768  30.242  1.00  0.00     0.091 A 
ATOM     70  F   UNL A   1      38.189  30.939  28.343  1.00  0.00    -0.205 F 
ATOM     71  C   UNL A   1      36.485  30.206  31.502  1.00  0.00     0.022 A 
BRANCH  69  72
ATOM     72  S   UNL A   1      35.537  31.920  29.593  1.00  0.00     0.127 S 
ATOM     73  O   UNL A   1      34.734  32.202  30.782  1.00  0.00    -0.237 OA
ATOM     74  O   UNL A   1      36.375  33.034  29.148  1.00  0.00    -0.237 OA
ATOM     75  O   UNL A   1      34.847  31.216  28.522  1.00  0.00    -0.744 OA
ENDBRANCH  69  72
ENDBRANCH  51  65
BRANCH  52  76
ATOM     76  C   UNL A   1      47.288  27.315  25.273  1.00  0.00     0.023 A 
ATOM     77  C   UNL A   1      48.310  26.591  25.918  1.00  0.00     0.012 A 
ATOM     78  C   UNL A   1      47.455  27.685  23.925  1.00  0.00     0.148 A 
ATOM     79  C   UNL A   1      49.489  26.270  25.245  1.00  0.00     0.002 A 
ATOM     80  C   UNL A   1      48.609  27.316  23.244  1.00  0.00     0.091 A 
ATOM     81  F   UNL A   1      46.476  28.384  23.332  1.00  0.00    -0.205 F 
ATOM     82  C   UNL A   1      49.635  26.623  23.905  1.00  0.00     0.022 A 
BRANCH  80  83
ATOM     83  S   UNL A   1      48.823  27.614  21.485  1.00  0.00     0.127 S 
ATOM     84  O   UNL A   1      49.545  26.414  21.064  1.00  0.00    -0.237 OA
ATOM     85  O   UNL A   1      47.436  27.691  21.019  1.00  0.00    -0.237 OA
ATOM     86  O   UNL A   1      49.556  28.865  21.386  1.00  0.00    -0.744 OA
ENDBRANCH  80  83
ENDBRANCH  52  76
BRANCH  64  87
ATOM     87  C   UNL A   1      45.355  32.658  29.331  1.00  0.00     0.023 A 
ATOM     88  C   UNL A   1      46.144  32.650  30.499  1.00  0.00     0.012 A 
ATOM     89  C   UNL A   1      45.297  33.824  28.543  1.00  0.00     0.148 A 
ATOM     90  C   UNL A   1      46.840  33.792  30.891  1.00  0.00     0.002 A 
ATOM     91  C   UNL A   1      46.030  34.944  28.915  1.00  0.00     0.091 A 
ATOM     92  F   UNL A   1      44.525  33.817  27.445  1.00  0.00    -0.205 F 
ATOM     93  C   UNL A   1      46.793  34.934  30.094  1.00  0.00     0.022 A 
BRANCH  91  94
ATOM     94  S   UNL A   1      46.103  36.425  27.900  1.00  0.00     0.127 S 
ATOM     95  O   UNL A   1      44.777  36.999  28.113  1.00  0.00    -0.237 OA
ATOM     96  O   UNL A   1      47.199  37.172  28.518  1.00  0.00    -0.237 OA
ATOM     97  O   UNL A   1      46.377  35.966  26.545  1.00  0.00    -0.744 OA
ENDBRANCH  91  94
ENDBRANCH  64  87
ENDBRANCH  38  39
ENDBRANCH  30  33
ENDBRANCH  28  29
ENDBRANCH  27  28
ENDBRANCH   1  27
TORSDOF 17
ENDMDL
MODEL 3
REMARK VINA RESULT:     -12.0      2.286      8.010
REMARK SMILES CC1=C(C)C[C@@H](C(=O)NCCCNC(=O)c2ccc(-c3c4nc(c(-c5cccc(S(=O)(=O)[O-])c5F)c5ccc([nH]5)c(-c5cccc(S(=O)(=O)[O-])c5F)c5nc(c(-c6cccc(S(=O)(=O)[O-])c6F)c6ccc3[nH]6)C=C5)C=C4)cc2)[C@@H](C(=O)NCC[NH+]2CCOCC2)C1
REMARK SMILES IDX 10 1 9 2 7 3 8 4 6 6 1 7 2 8 3 9 91 10 4 11 5 12 79 13 80 14
REMARK SMILES IDX 81 15 82 16 83 18 84 19 85 20 86 21 90 22 87 24 89 25 88 26
REMARK SMILES IDX 11 27 12 28 13 29 14 30 15 32 16 33 17 34 78 35 18 36 77 37
REMARK SMILES IDX 19 38 20 39 21 40 71 41 22 42 76 43 70 44 72 45 23 46 75 47
REMARK SMILES IDX 69 48 68 49 24 51 56 52 36 53 55 54 37 55 40 56 54 57 73 58
REMARK SMILES IDX 38 59 39 60 53 62 74 63 41 64 25 65 26 66 34 67 27 68 29 69
REMARK SMILES IDX 35 70 28 71 30 72 31 73 32 74 33 75 57 76 58 77 66 78 59 79
REMARK SMILES IDX 61 80 67 81 60 82 62 83 63 84 64 85 65 86 42 87 43 88 51 89
REMARK SMILES IDX 44 90 46 91 52 92 45 93 47 94 48 95 49 96 50 97
REMARK H PARENT 9 5 82 17 85 23 13 31 72 50 40 61
REMARK Flexibility Score: inf
ROOT
ATOM      1  C   UNL A   1      32.799  29.206  24.690  1.00  0.00     0.117 C 
ENDROOT
BRANCH   1   2
ATOM      2  N   UNL A   1      33.658  28.057  24.875  1.00  0.00    -0.356 N 
ATOM      3  C   UNL A   1      33.413  26.744  24.680  1.00  0.00     0.224 C 
ATOM      4  O   UNL A   1      34.376  26.066  24.299  1.00  0.00    -0.275 OA
ATOM      5  H   UNL A   1      34.566  28.266  25.194  1.00  0.00     0.163 HD
BRANCH   3   6
ATOM      6  C   UNL A   1      32.061  26.060  24.831  1.00  0.00     0.095 C 
ATOM      7  C   UNL A   1      32.168  21.800  23.734  1.00  0.00     0.039 C 
ATOM      8  C   UNL A   1      31.950  23.191  24.284  1.00  0.00    -0.074 C 
ATOM      9  C   UNL A   1      32.320  23.603  25.514  1.00  0.00    -0.074 C 
ATOM     10  C   UNL A   1      31.356  24.139  23.251  1.00  0.00     0.045 C 
ATOM     11  C   UNL A   1      33.038  22.774  26.549  1.00  0.00     0.039 C 
ATOM     12  C   UNL A   1      32.094  25.024  25.951  1.00  0.00     0.045 C 
ATOM     13  C   UNL A   1      31.267  25.652  23.585  1.00  0.00     0.095 C 
BRANCH  13  14
ATOM     14  C   UNL A   1      31.555  26.511  22.342  1.00  0.00     0.224 C 
ATOM     15  O   UNL A   1      32.362  26.168  21.476  1.00  0.00    -0.275 OA
ATOM     16  N   UNL A   1      30.904  27.677  22.102  1.00  0.00    -0.350 N 
ATOM     17  H   UNL A   1      31.303  28.210  21.375  1.00  0.00     0.163 HD
BRANCH  16  18
ATOM     18  C   UNL A   1      29.740  28.293  22.703  1.00  0.00     0.177 C 
BRANCH  18  19
ATOM     19  C   UNL A   1      29.584  29.809  22.443  1.00  0.00     0.283 C 
BRANCH  19  20
ATOM     20  N   UNL A   1      28.213  30.352  22.542  1.00  0.00    -0.330 N 
ATOM     21  C   UNL A   1      27.691  30.895  21.259  1.00  0.00     0.291 C 
ATOM     22  C   UNL A   1      28.158  31.462  23.530  1.00  0.00     0.291 C 
ATOM     23  H   UNL A   1      27.636  29.559  22.823  1.00  0.00     0.348 HD
ATOM     24  C   UNL A   1      28.264  32.261  20.824  1.00  0.00     0.221 C 
ATOM     25  C   UNL A   1      28.813  32.767  23.047  1.00  0.00     0.221 C 
ATOM     26  O   UNL A   1      28.167  33.242  21.862  1.00  0.00    -0.370 OA
ENDBRANCH  19  20
ENDBRANCH  18  19
ENDBRANCH  16  18
ENDBRANCH  13  14
ENDBRANCH   3   6
ENDBRANCH   1   2
BRANCH   1  27
ATOM     27  C   UNL A   1      31.958  29.577  25.899  1.00  0.00     0.042 C 
BRANCH  27  28
ATOM     28  C   UNL A   1      32.762  30.094  27.078  1.00  0.00     0.118 C 
BRANCH  28  29
ATOM     29  N   UNL A   1      32.935  31.541  27.018  1.00  0.00    -0.352 N 
ATOM     30  C   UNL A   1      33.849  32.341  27.655  1.00  0.00     0.251 C 
ATOM     31  H   UNL A   1      32.301  32.013  26.433  1.00  0.00     0.163 HD
ATOM     32  O   UNL A   1      33.650  33.554  27.708  1.00  0.00    -0.269 OA
BRANCH  30  33
ATOM     33  C   UNL A   1      35.063  31.760  28.267  1.00  0.00     0.039 A 
ATOM     34  C   UNL A   1      35.009  30.460  28.780  1.00  0.00     0.014 A 
ATOM     35  C   UNL A   1      36.236  32.508  28.391  1.00  0.00     0.014 A 
ATOM     36  C   UNL A   1      36.140  29.904  29.384  1.00  0.00     0.010 A 
ATOM     37  C   UNL A   1      37.386  31.922  28.906  1.00  0.00     0.010 A 
ATOM     38  C   UNL A   1      37.344  30.626  29.438  1.00  0.00    -0.014 A 
BRANCH  38  39
ATOM     39  C   UNL A   1      38.556  30.060  30.081  1.00  0.00     0.031 A 
ATOM     40  C   UNL A   1      38.974  30.533  31.449  1.00  0.00     0.074 A 
ATOM     41  C   UNL A   1      39.320  29.179  29.406  1.00  0.00     0.049 A 
ATOM     42  N   UNL A   1      40.016  30.187  32.158  1.00  0.00    -0.248 NA
ATOM     43  C   UNL A   1      38.127  31.552  32.094  1.00  0.00     0.031 C 
ATOM     44  C   UNL A   1      39.069  28.712  28.041  1.00  0.00     0.029 A 
ATOM     45  N   UNL A   1      40.476  28.535  29.770  1.00  0.00    -0.354 N 
ATOM     46  C   UNL A   1      39.973  30.970  33.306  1.00  0.00     0.074 A 
ATOM     47  C   UNL A   1      38.825  31.840  33.182  1.00  0.00     0.031 C 
ATOM     48  C   UNL A   1      40.036  27.850  27.687  1.00  0.00     0.029 A 
ATOM     49  C   UNL A   1      40.985  27.717  28.788  1.00  0.00     0.049 A 
ATOM     50  H   UNL A   1      40.901  28.648  30.650  1.00  0.00     0.167 HD
ATOM     51  C   UNL A   1      40.790  30.943  34.385  1.00  0.00     0.034 A 
ATOM     52  C   UNL A   1      42.089  26.946  28.779  1.00  0.00     0.034 A 
ATOM     53  C   UNL A   1      41.893  30.032  34.532  1.00  0.00     0.049 A 
ATOM     54  C   UNL A   1      42.943  26.884  30.017  1.00  0.00     0.074 A 
ATOM     55  C   UNL A   1      42.722  29.853  35.624  1.00  0.00     0.029 A 
ATOM     56  N   UNL A   1      42.320  29.147  33.555  1.00  0.00    -0.354 N 
ATOM     57  N   UNL A   1      42.787  27.509  31.160  1.00  0.00    -0.248 NA
ATOM     58  C   UNL A   1      44.104  25.983  29.980  1.00  0.00     0.031 C 
ATOM     59  C   UNL A   1      43.660  28.865  35.302  1.00  0.00     0.029 A 
ATOM     60  C   UNL A   1      43.403  28.420  34.015  1.00  0.00     0.049 A 
ATOM     61  H   UNL A   1      41.911  29.049  32.663  1.00  0.00     0.167 HD
ATOM     62  C   UNL A   1      43.806  27.052  31.987  1.00  0.00     0.074 A 
ATOM     63  C   UNL A   1      44.559  26.079  31.220  1.00  0.00     0.031 C 
ATOM     64  C   UNL A   1      44.106  27.416  33.258  1.00  0.00     0.034 A 
BRANCH  51  65
ATOM     65  C   UNL A   1      40.478  31.880  35.524  1.00  0.00     0.023 A 
ATOM     66  C   UNL A   1      41.311  32.995  35.752  1.00  0.00     0.012 A 
ATOM     67  C   UNL A   1      39.342  31.692  36.334  1.00  0.00     0.148 A 
ATOM     68  C   UNL A   1      41.041  33.886  36.788  1.00  0.00     0.002 A 
ATOM     69  C   UNL A   1      39.053  32.610  37.339  1.00  0.00     0.091 A 
ATOM     70  F   UNL A   1      38.572  30.615  36.119  1.00  0.00    -0.205 F 
ATOM     71  C   UNL A   1      39.907  33.700  37.574  1.00  0.00     0.022 A 
BRANCH  69  72
ATOM     72  S   UNL A   1      37.575  32.503  38.355  1.00  0.00     0.127 S 
ATOM     73  O   UNL A   1      36.554  33.022  37.444  1.00  0.00    -0.237 OA
ATOM     74  O   UNL A   1      37.482  31.066  38.615  1.00  0.00    -0.237 OA
ATOM     75  O   UNL A   1      37.837  33.317  39.532  1.00  0.00    -0.744 OA
ENDBRANCH  69  72
ENDBRANCH  51  65
BRANCH  52  76
ATOM     76  C   UNL A   1      42.398  26.102  27.590  1.00  0.00     0.023 A 
ATOM     77  C   UNL A   1      43.165  26.648  26.543  1.00  0.00     0.012 A 
ATOM     78  C   UNL A   1      41.973  24.763  27.504  1.00  0.00     0.148 A 
ATOM     79  C   UNL A   1      43.476  25.886  25.416  1.00  0.00     0.002 A 
ATOM     80  C   UNL A   1      42.331  23.992  26.403  1.00  0.00     0.091 A 
ATOM     81  F   UNL A   1      41.233  24.265  28.506  1.00  0.00    -0.205 F 
ATOM     82  C   UNL A   1      43.069  24.556  25.351  1.00  0.00     0.022 A 
BRANCH  80  83
ATOM     83  S   UNL A   1      41.961  22.238  26.298  1.00  0.00     0.127 S 
ATOM     84  O   UNL A   1      40.507  22.248  26.137  1.00  0.00    -0.237 OA
ATOM     85  O   UNL A   1      42.708  21.841  25.102  1.00  0.00    -0.237 OA
ATOM     86  O   UNL A   1      42.459  21.658  27.534  1.00  0.00    -0.744 OA
ENDBRANCH  80  83
ENDBRANCH  52  76
BRANCH  64  87
ATOM     87  C   UNL A   1      45.282  26.746  33.916  1.00  0.00     0.023 A 
ATOM     88  C   UNL A   1      46.560  27.331  33.819  1.00  0.00     0.012 A 
ATOM     89  C   UNL A   1      45.109  25.585  34.694  1.00  0.00     0.148 A 
ATOM     90  C   UNL A   1      47.654  26.752  34.460  1.00  0.00     0.002 A 
ATOM     91  C   UNL A   1      46.194  25.039  35.368  1.00  0.00     0.091 A 
ATOM     92  F   UNL A   1      43.888  25.033  34.759  1.00  0.00    -0.205 F 
ATOM     93  C   UNL A   1      47.470  25.615  35.244  1.00  0.00     0.022 A 
BRANCH  91  94
ATOM     94  S   UNL A   1      46.031  23.633  36.474  1.00  0.00     0.127 S 
ATOM     95  O   UNL A   1      47.415  23.417  36.889  1.00  0.00    -0.237 OA
ATOM     96  O   UNL A   1      45.155  24.160  37.522  1.00  0.00    -0.237 OA
ATOM     97  O   UNL A   1      45.441  22.566  35.678  1.00  0.00    -0.744 OA
ENDBRANCH  91  94
ENDBRANCH  64  87
ENDBRANCH  38  39
ENDBRANCH  30  33
ENDBRANCH  28  29
ENDBRANCH  27  28
ENDBRANCH   1  27
TORSDOF 17
ENDMDL
