MODEL 1
REMARK VINA RESULT:     -13.3      0.000      0.000
REMARK SMILES O=C(C[NH+]1CCC(C(=O)NCCCNC(=O)c2ccc(-c3c4nc(c(-c5cccc(S(=O)(=O)[O-])c5F)c5ccc([nH]5)c(-c5cccc(S(=O)(=O)[O-])c5F)c5nc(c(-c6cccc(S(=O)(=O)[O-])c6F)c6ccc3[nH]6)C=C5)C=C4)cc2)CC1)Nc1ccccc1Oc1ccccc1
REMARK SMILES IDX 11 1 10 2 8 3 9 4 7 6 4 7 5 8 81 9 6 11 80 12 3 13 2 14 1 15
REMARK SMILES IDX 82 16 83 18 84 19 88 20 85 21 87 22 86 23 89 24 90 25 91 26
REMARK SMILES IDX 95 27 92 28 94 29 93 30 12 31 13 32 14 33 15 34 16 36 17 37
REMARK SMILES IDX 18 38 79 39 19 40 78 41 20 42 21 43 22 44 72 45 23 46 77 47
REMARK SMILES IDX 71 48 73 49 24 50 76 51 70 52 69 53 25 55 57 56 37 57 56 58
REMARK SMILES IDX 38 59 41 60 55 61 74 62 39 63 40 64 54 66 75 67 42 68 26 69
REMARK SMILES IDX 27 70 35 71 28 72 30 73 36 74 29 75 31 76 32 77 33 78 34 79
REMARK SMILES IDX 58 80 59 81 67 82 60 83 62 84 68 85 61 86 63 87 64 88 65 89
REMARK SMILES IDX 66 90 43 91 44 92 52 93 45 94 47 95 53 96 46 97 48 98 49 99
REMARK SMILES IDX 50 100 51 101
REMARK H PARENT 10 5 4 10 82 17 14 35 73 54 41 65
REMARK Flexibility Score: inf
ROOT
ATOM      1  C   UNL A   1      32.196  29.157  24.335  1.00  0.00     0.117 C 
ENDROOT
BRANCH   1   2
ATOM      2  N   UNL A   1      31.395  29.684  23.235  1.00  0.00    -0.356 N 
ATOM      3  C   UNL A   1      30.501  29.065  22.413  1.00  0.00     0.223 C 
ATOM      4  O   UNL A   1      29.909  29.739  21.569  1.00  0.00    -0.275 OA
ATOM      5  H   UNL A   1      31.520  30.644  23.058  1.00  0.00     0.163 HD
BRANCH   3   6
ATOM      6  C   UNL A   1      30.231  27.577  22.541  1.00  0.00     0.089 C 
ATOM      7  N   UNL A   1      31.063  25.341  24.145  1.00  0.00    -0.327 N 
ATOM      8  C   UNL A   1      31.489  25.380  22.748  1.00  0.00     0.263 C 
ATOM      9  C   UNL A   1      29.716  25.848  24.368  1.00  0.00     0.263 C 
ATOM     10  H   UNL A   1      31.655  26.008  24.639  1.00  0.00     0.348 HD
ATOM     11  C   UNL A   1      31.511  26.798  22.232  1.00  0.00     0.075 C 
ATOM     12  C   UNL A   1      29.541  27.278  23.878  1.00  0.00     0.075 C 
BRANCH   7  13
ATOM     13  C   UNL A   1      31.331  24.028  24.776  1.00  0.00     0.363 C 
BRANCH  13  14
ATOM     14  C   UNL A   1      32.809  23.776  25.112  1.00  0.00     0.279 C 
ATOM     15  O   UNL A   1      33.369  24.339  26.049  1.00  0.00    -0.268 OA
ATOM     16  N   UNL A   1      33.434  22.921  24.222  1.00  0.00    -0.318 N 
ATOM     17  H   UNL A   1      32.923  22.611  23.441  1.00  0.00     0.170 HD
BRANCH  16  18
ATOM     18  C   UNL A   1      34.752  22.470  24.368  1.00  0.00     0.084 A 
ATOM     19  C   UNL A   1      35.735  23.344  23.870  1.00  0.00     0.030 A 
ATOM     20  C   UNL A   1      35.127  21.258  24.967  1.00  0.00     0.150 A 
ATOM     21  C   UNL A   1      37.087  23.080  24.066  1.00  0.00     0.002 A 
ATOM     22  C   UNL A   1      36.496  21.009  25.155  1.00  0.00     0.049 A 
ATOM     23  C   UNL A   1      37.469  21.917  24.724  1.00  0.00     0.004 A 
BRANCH  20  24
ATOM     24  O   UNL A   1      34.331  20.222  25.415  1.00  0.00    -0.455 OA
BRANCH  24  25
ATOM     25  C   UNL A   1      33.911  19.217  24.580  1.00  0.00     0.127 A 
ATOM     26  C   UNL A   1      32.720  19.452  23.886  1.00  0.00     0.047 A 
ATOM     27  C   UNL A   1      34.583  18.005  24.417  1.00  0.00     0.047 A 
ATOM     28  C   UNL A   1      32.253  18.527  22.953  1.00  0.00     0.004 A 
ATOM     29  C   UNL A   1      34.108  17.072  23.487  1.00  0.00     0.004 A 
ATOM     30  C   UNL A   1      32.953  17.340  22.747  1.00  0.00     0.000 A 
ENDBRANCH  24  25
ENDBRANCH  20  24
ENDBRANCH  16  18
ENDBRANCH  13  14
ENDBRANCH   7  13
ENDBRANCH   3   6
ENDBRANCH   1   2
BRANCH   1  31
ATOM     31  C   UNL A   1      31.787  29.706  25.692  1.00  0.00     0.042 C 
BRANCH  31  32
ATOM     32  C   UNL A   1      32.955  30.189  26.525  1.00  0.00     0.118 C 
BRANCH  32  33
ATOM     33  N   UNL A   1      32.896  31.620  26.779  1.00  0.00    -0.352 N 
ATOM     34  C   UNL A   1      33.675  32.385  27.613  1.00  0.00     0.251 C 
ATOM     35  H   UNL A   1      32.200  32.110  26.284  1.00  0.00     0.163 HD
ATOM     36  O   UNL A   1      33.343  33.536  27.869  1.00  0.00    -0.269 OA
BRANCH  34  37
ATOM     37  C   UNL A   1      34.899  31.803  28.202  1.00  0.00     0.039 A 
ATOM     38  C   UNL A   1      36.080  32.547  28.190  1.00  0.00     0.014 A 
ATOM     39  C   UNL A   1      34.878  30.526  28.769  1.00  0.00     0.014 A 
ATOM     40  C   UNL A   1      37.227  32.023  28.784  1.00  0.00     0.010 A 
ATOM     41  C   UNL A   1      35.985  30.059  29.462  1.00  0.00     0.010 A 
ATOM     42  C   UNL A   1      37.183  30.784  29.447  1.00  0.00    -0.014 A 
BRANCH  42  43
ATOM     43  C   UNL A   1      38.388  30.204  30.087  1.00  0.00     0.031 A 
ATOM     44  C   UNL A   1      38.784  30.648  31.472  1.00  0.00     0.074 A 
ATOM     45  C   UNL A   1      39.162  29.340  29.404  1.00  0.00     0.049 A 
ATOM     46  N   UNL A   1      39.826  30.304  32.182  1.00  0.00    -0.248 NA
ATOM     47  C   UNL A   1      37.913  31.637  32.134  1.00  0.00     0.031 C 
ATOM     48  C   UNL A   1      38.927  28.895  28.028  1.00  0.00     0.029 A 
ATOM     49  N   UNL A   1      40.317  28.696  29.767  1.00  0.00    -0.354 N 
ATOM     50  C   UNL A   1      39.758  31.060  33.346  1.00  0.00     0.074 A 
ATOM     51  C   UNL A   1      38.602  31.917  33.230  1.00  0.00     0.031 C 
ATOM     52  C   UNL A   1      39.900  28.042  27.669  1.00  0.00     0.029 A 
ATOM     53  C   UNL A   1      40.843  27.905  28.772  1.00  0.00     0.049 A 
ATOM     54  H   UNL A   1      40.730  28.791  30.655  1.00  0.00     0.167 HD
ATOM     55  C   UNL A   1      40.565  31.021  34.433  1.00  0.00     0.034 A 
ATOM     56  C   UNL A   1      41.965  27.158  28.753  1.00  0.00     0.034 A 
ATOM     57  C   UNL A   1      41.687  30.134  34.562  1.00  0.00     0.049 A 
ATOM     58  C   UNL A   1      42.820  27.097  29.990  1.00  0.00     0.074 A 
ATOM     59  C   UNL A   1      42.520  29.954  35.651  1.00  0.00     0.029 A 
ATOM     60  N   UNL A   1      42.138  29.281  33.567  1.00  0.00    -0.354 N 
ATOM     61  N   UNL A   1      42.657  27.710  31.138  1.00  0.00    -0.248 NA
ATOM     62  C   UNL A   1      43.990  26.209  29.944  1.00  0.00     0.031 C 
ATOM     63  C   UNL A   1      43.494  29.013  35.303  1.00  0.00     0.029 A 
ATOM     64  C   UNL A   1      43.241  28.575  34.013  1.00  0.00     0.049 A 
ATOM     65  H   UNL A   1      41.732  29.191  32.674  1.00  0.00     0.167 HD
ATOM     66  C   UNL A   1      43.673  27.247  31.965  1.00  0.00     0.074 A 
ATOM     67  C   UNL A   1      44.437  26.290  31.190  1.00  0.00     0.031 C 
ATOM     68  C   UNL A   1      43.954  27.585  33.247  1.00  0.00     0.034 A 
BRANCH  55  69
ATOM     69  C   UNL A   1      40.233  31.935  35.585  1.00  0.00     0.023 A 
ATOM     70  C   UNL A   1      41.008  33.093  35.807  1.00  0.00     0.012 A 
ATOM     71  C   UNL A   1      39.127  31.676  36.417  1.00  0.00     0.148 A 
ATOM     72  C   UNL A   1      40.713  33.955  36.863  1.00  0.00     0.002 A 
ATOM     73  C   UNL A   1      38.808  32.567  37.436  1.00  0.00     0.091 A 
ATOM     74  F   UNL A   1      38.415  30.560  36.205  1.00  0.00    -0.205 F 
ATOM     75  C   UNL A   1      39.609  33.698  37.669  1.00  0.00     0.022 A 
BRANCH  73  76
ATOM     76  S   UNL A   1      37.356  32.373  38.473  1.00  0.00     0.127 S 
ATOM     77  O   UNL A   1      36.317  32.980  37.642  1.00  0.00    -0.237 OA
ATOM     78  O   UNL A   1      37.263  30.918  38.600  1.00  0.00    -0.237 OA
ATOM     79  O   UNL A   1      37.650  33.075  39.715  1.00  0.00    -0.744 OA
ENDBRANCH  73  76
ENDBRANCH  55  69
BRANCH  56  80
ATOM     80  C   UNL A   1      42.307  26.355  27.546  1.00  0.00     0.023 A 
ATOM     81  C   UNL A   1      42.981  26.968  26.471  1.00  0.00     0.012 A 
ATOM     82  C   UNL A   1      41.987  24.987  27.463  1.00  0.00     0.148 A 
ATOM     83  C   UNL A   1      43.291  26.245  25.319  1.00  0.00     0.002 A 
ATOM     84  C   UNL A   1      42.351  24.257  26.338  1.00  0.00     0.091 A 
ATOM     85  F   UNL A   1      41.342  24.424  28.495  1.00  0.00    -0.205 F 
ATOM     86  C   UNL A   1      42.984  24.889  25.256  1.00  0.00     0.022 A 
BRANCH  84  87
ATOM     87  S   UNL A   1      42.112  22.482  26.220  1.00  0.00     0.127 S 
ATOM     88  O   UNL A   1      42.816  22.167  24.979  1.00  0.00    -0.237 OA
ATOM     89  O   UNL A   1      42.767  22.010  27.439  1.00  0.00    -0.237 OA
ATOM     90  O   UNL A   1      40.669  22.280  26.195  1.00  0.00    -0.744 OA
ENDBRANCH  84  87
ENDBRANCH  56  80
BRANCH  68  91
ATOM     91  C   UNL A   1      45.095  26.873  33.926  1.00  0.00     0.023 A 
ATOM     92  C   UNL A   1      46.409  27.365  33.812  1.00  0.00     0.012 A 
ATOM     93  C   UNL A   1      44.844  25.745  34.734  1.00  0.00     0.148 A 
ATOM     94  C   UNL A   1      47.463  26.721  34.460  1.00  0.00     0.002 A 
ATOM     95  C   UNL A   1      45.890  25.144  35.421  1.00  0.00     0.091 A 
ATOM     96  F   UNL A   1      43.588  25.281  34.813  1.00  0.00    -0.205 F 
ATOM     97  C   UNL A   1      47.202  25.621  35.274  1.00  0.00     0.022 A 
BRANCH  95  98
ATOM     98  S   UNL A   1      45.630  23.789  36.570  1.00  0.00     0.127 S 
ATOM     99  O   UNL A   1      45.119  22.743  35.686  1.00  0.00    -0.237 OA
ATOM    100  O   UNL A   1      46.981  23.551  37.079  1.00  0.00    -0.237 OA
ATOM    101  O   UNL A   1      44.689  24.282  37.566  1.00  0.00    -0.744 OA
ENDBRANCH  95  98
ENDBRANCH  68  91
ENDBRANCH  42  43
ENDBRANCH  34  37
ENDBRANCH  32  33
ENDBRANCH  31  32
ENDBRANCH   1  31
TORSDOF 18
ENDMDL
MODEL 2
REMARK VINA RESULT:     -13.2      2.694      8.235
REMARK SMILES O=C(C[NH+]1CCC(C(=O)NCCCNC(=O)c2ccc(-c3c4nc(c(-c5cccc(S(=O)(=O)[O-])c5F)c5ccc([nH]5)c(-c5cccc(S(=O)(=O)[O-])c5F)c5nc(c(-c6cccc(S(=O)(=O)[O-])c6F)c6ccc3[nH]6)C=C5)C=C4)cc2)CC1)Nc1ccccc1Oc1ccccc1
REMARK SMILES IDX 11 1 10 2 8 3 9 4 7 6 4 7 5 8 81 9 6 11 80 12 3 13 2 14 1 15
REMARK SMILES IDX 82 16 83 18 84 19 88 20 85 21 87 22 86 23 89 24 90 25 91 26
REMARK SMILES IDX 95 27 92 28 94 29 93 30 12 31 13 32 14 33 15 34 16 36 17 37
REMARK SMILES IDX 18 38 79 39 19 40 78 41 20 42 21 43 22 44 72 45 23 46 77 47
REMARK SMILES IDX 71 48 73 49 24 50 76 51 70 52 69 53 25 55 57 56 37 57 56 58
REMARK SMILES IDX 38 59 41 60 55 61 74 62 39 63 40 64 54 66 75 67 42 68 26 69
REMARK SMILES IDX 27 70 35 71 28 72 30 73 36 74 29 75 31 76 32 77 33 78 34 79
REMARK SMILES IDX 58 80 59 81 67 82 60 83 62 84 68 85 61 86 63 87 64 88 65 89
REMARK SMILES IDX 66 90 43 91 44 92 52 93 45 94 47 95 53 96 46 97 48 98 49 99
REMARK SMILES IDX 50 100 51 101
REMARK H PARENT 10 5 4 10 82 17 14 35 73 54 41 65
REMARK Flexibility Score: inf
ROOT
ATOM      1  C   UNL A   1      31.431  30.911  25.962  1.00  0.00     0.117 C 
ENDROOT
BRANCH   1   2
ATOM      2  N   UNL A   1      30.552  31.037  24.804  1.00  0.00    -0.356 N 
ATOM      3  C   UNL A   1      30.268  30.153  23.805  1.00  0.00     0.223 C 
ATOM      4  O   UNL A   1      29.449  30.478  22.944  1.00  0.00    -0.275 OA
ATOM      5  H   UNL A   1      30.088  31.902  24.732  1.00  0.00     0.163 HD
BRANCH   3   6
ATOM      6  C   UNL A   1      30.937  28.793  23.761  1.00  0.00     0.089 C 
ATOM      7  N   UNL A   1      31.832  26.864  21.826  1.00  0.00    -0.327 N 
ATOM      8  C   UNL A   1      30.672  26.526  22.646  1.00  0.00     0.263 C 
ATOM      9  C   UNL A   1      32.860  27.613  22.535  1.00  0.00     0.263 C 
ATOM     10  H   UNL A   1      31.498  27.522  21.122  1.00  0.00     0.348 HD
ATOM     11  C   UNL A   1      29.980  27.773  23.140  1.00  0.00     0.075 C 
ATOM     12  C   UNL A   1      32.333  28.909  23.133  1.00  0.00     0.075 C 
BRANCH   7  13
ATOM     13  C   UNL A   1      32.342  25.698  21.068  1.00  0.00     0.363 C 
BRANCH  13  14
ATOM     14  C   UNL A   1      32.771  24.511  21.944  1.00  0.00     0.279 C 
ATOM     15  O   UNL A   1      33.953  24.231  22.128  1.00  0.00    -0.268 OA
ATOM     16  N   UNL A   1      31.705  23.776  22.430  1.00  0.00    -0.318 N 
ATOM     17  H   UNL A   1      30.800  24.020  22.132  1.00  0.00     0.170 HD
BRANCH  16  18
ATOM     18  C   UNL A   1      31.837  22.704  23.321  1.00  0.00     0.084 A 
ATOM     19  C   UNL A   1      32.215  21.486  22.729  1.00  0.00     0.030 A 
ATOM     20  C   UNL A   1      31.635  22.779  24.707  1.00  0.00     0.150 A 
ATOM     21  C   UNL A   1      32.507  20.373  23.513  1.00  0.00     0.002 A 
ATOM     22  C   UNL A   1      31.934  21.646  25.481  1.00  0.00     0.049 A 
ATOM     23  C   UNL A   1      32.382  20.458  24.894  1.00  0.00     0.004 A 
BRANCH  20  24
ATOM     24  O   UNL A   1      31.162  23.832  25.465  1.00  0.00    -0.455 OA
BRANCH  24  25
ATOM     25  C   UNL A   1      31.924  24.947  25.714  1.00  0.00     0.127 A 
ATOM     26  C   UNL A   1      31.258  26.029  26.298  1.00  0.00     0.047 A 
ATOM     27  C   UNL A   1      33.279  25.052  25.400  1.00  0.00     0.047 A 
ATOM     28  C   UNL A   1      31.961  27.175  26.664  1.00  0.00     0.004 A 
ATOM     29  C   UNL A   1      33.983  26.208  25.759  1.00  0.00     0.004 A 
ATOM     30  C   UNL A   1      33.327  27.261  26.403  1.00  0.00     0.000 A 
ENDBRANCH  24  25
ENDBRANCH  20  24
ENDBRANCH  16  18
ENDBRANCH  13  14
ENDBRANCH   7  13
ENDBRANCH   3   6
ENDBRANCH   1   2
BRANCH   1  31
ATOM     31  C   UNL A   1      31.356  32.100  26.905  1.00  0.00     0.042 C 
BRANCH  31  32
ATOM     32  C   UNL A   1      32.703  32.724  27.198  1.00  0.00     0.118 C 
BRANCH  32  33
ATOM     33  N   UNL A   1      32.586  34.102  27.652  1.00  0.00    -0.352 N 
ATOM     34  C   UNL A   1      33.221  34.726  28.698  1.00  0.00     0.251 C 
ATOM     35  H   UNL A   1      31.965  34.666  27.137  1.00  0.00     0.163 HD
ATOM     36  O   UNL A   1      32.838  35.829  29.071  1.00  0.00    -0.269 OA
BRANCH  34  37
ATOM     37  C   UNL A   1      34.352  34.053  29.369  1.00  0.00     0.039 A 
ATOM     38  C   UNL A   1      35.656  34.355  28.974  1.00  0.00     0.014 A 
ATOM     39  C   UNL A   1      34.123  33.126  30.391  1.00  0.00     0.014 A 
ATOM     40  C   UNL A   1      36.729  33.757  29.635  1.00  0.00     0.010 A 
ATOM     41  C   UNL A   1      35.190  32.627  31.122  1.00  0.00     0.010 A 
ATOM     42  C   UNL A   1      36.505  32.906  30.730  1.00  0.00    -0.014 A 
BRANCH  42  43
ATOM     43  C   UNL A   1      37.628  32.258  31.451  1.00  0.00     0.031 A 
ATOM     44  C   UNL A   1      38.386  31.133  30.793  1.00  0.00     0.074 A 
ATOM     45  C   UNL A   1      37.916  32.625  32.713  1.00  0.00     0.049 A 
ATOM     46  N   UNL A   1      39.359  30.404  31.272  1.00  0.00    -0.248 NA
ATOM     47  C   UNL A   1      37.975  30.755  29.429  1.00  0.00     0.031 C 
ATOM     48  C   UNL A   1      37.201  33.644  33.486  1.00  0.00     0.029 A 
ATOM     49  N   UNL A   1      38.876  32.167  33.580  1.00  0.00    -0.354 N 
ATOM     50  C   UNL A   1      39.645  29.461  30.293  1.00  0.00     0.074 A 
ATOM     51  C   UNL A   1      38.713  29.677  29.211  1.00  0.00     0.031 C 
ATOM     52  C   UNL A   1      37.755  33.742  34.705  1.00  0.00     0.029 A 
ATOM     53  C   UNL A   1      38.840  32.773  34.813  1.00  0.00     0.049 A 
ATOM     54  H   UNL A   1      39.529  31.470  33.340  1.00  0.00     0.167 HD
ATOM     55  C   UNL A   1      40.619  28.521  30.277  1.00  0.00     0.034 A 
ATOM     56  C   UNL A   1      39.594  32.564  35.910  1.00  0.00     0.034 A 
ATOM     57  C   UNL A   1      41.572  28.341  31.336  1.00  0.00     0.049 A 
ATOM     58  C   UNL A   1      40.699  31.544  35.850  1.00  0.00     0.074 A 
ATOM     59  C   UNL A   1      42.650  27.475  31.385  1.00  0.00     0.029 A 
ATOM     60  N   UNL A   1      41.560  29.035  32.535  1.00  0.00    -0.354 N 
ATOM     61  N   UNL A   1      41.048  30.761  34.857  1.00  0.00    -0.248 NA
ATOM     62  C   UNL A   1      41.542  31.409  37.046  1.00  0.00     0.031 C 
ATOM     63  C   UNL A   1      43.271  27.625  32.629  1.00  0.00     0.029 A 
ATOM     64  C   UNL A   1      42.608  28.616  33.335  1.00  0.00     0.049 A 
ATOM     65  H   UNL A   1      40.902  29.727  32.781  1.00  0.00     0.167 HD
ATOM     66  C   UNL A   1      42.177  30.077  35.291  1.00  0.00     0.074 A 
ATOM     67  C   UNL A   1      42.462  30.549  36.631  1.00  0.00     0.031 C 
ATOM     68  C   UNL A   1      42.909  29.137  34.643  1.00  0.00     0.034 A 
BRANCH  55  69
ATOM     69  C   UNL A   1      40.727  27.646  29.054  1.00  0.00     0.023 A 
ATOM     70  C   UNL A   1      39.887  26.520  28.920  1.00  0.00     0.012 A 
ATOM     71  C   UNL A   1      41.624  27.963  28.015  1.00  0.00     0.148 A 
ATOM     72  C   UNL A   1      39.967  25.701  27.795  1.00  0.00     0.002 A 
ATOM     73  C   UNL A   1      41.661  27.172  26.872  1.00  0.00     0.091 A 
ATOM     74  F   UNL A   1      42.429  29.024  28.168  1.00  0.00    -0.205 F 
ATOM     75  C   UNL A   1      40.844  26.033  26.767  1.00  0.00     0.022 A 
BRANCH  73  76
ATOM     76  S   UNL A   1      42.693  27.564  25.457  1.00  0.00     0.127 S 
ATOM     77  O   UNL A   1      44.016  27.658  26.073  1.00  0.00    -0.237 OA
ATOM     78  O   UNL A   1      42.500  26.391  24.604  1.00  0.00    -0.237 OA
ATOM     79  O   UNL A   1      42.172  28.808  24.908  1.00  0.00    -0.744 OA
ENDBRANCH  73  76
ENDBRANCH  55  69
BRANCH  56  80
ATOM     80  C   UNL A   1      39.375  33.384  37.135  1.00  0.00     0.023 A 
ATOM     81  C   UNL A   1      38.500  32.918  38.136  1.00  0.00     0.012 A 
ATOM     82  C   UNL A   1      40.040  34.610  37.323  1.00  0.00     0.148 A 
ATOM     83  C   UNL A   1      38.258  33.677  39.281  1.00  0.00     0.002 A 
ATOM     84  C   UNL A   1      39.840  35.335  38.492  1.00  0.00     0.091 A 
ATOM     85  F   UNL A   1      40.865  35.038  36.356  1.00  0.00    -0.205 F 
ATOM     86  C   UNL A   1      38.934  34.880  39.463  1.00  0.00     0.022 A 
BRANCH  84  87
ATOM     87  S   UNL A   1      40.761  36.828  38.871  1.00  0.00     0.127 S 
ATOM     88  O   UNL A   1      41.579  36.988  37.671  1.00  0.00    -0.237 OA
ATOM     89  O   UNL A   1      39.689  37.811  39.021  1.00  0.00    -0.237 OA
ATOM     90  O   UNL A   1      41.490  36.540  40.098  1.00  0.00    -0.744 OA
ENDBRANCH  84  87
ENDBRANCH  56  80
BRANCH  68  91
ATOM     91  C   UNL A   1      44.132  28.600  35.339  1.00  0.00     0.023 A 
ATOM     92  C   UNL A   1      45.395  29.175  35.102  1.00  0.00     0.012 A 
ATOM     93  C   UNL A   1      44.011  27.561  36.283  1.00  0.00     0.148 A 
ATOM     94  C   UNL A   1      46.526  28.696  35.764  1.00  0.00     0.002 A 
ATOM     95  C   UNL A   1      45.131  27.128  36.980  1.00  0.00     0.091 A 
ATOM     96  F   UNL A   1      42.802  27.014  36.481  1.00  0.00    -0.205 F 
ATOM     97  C   UNL A   1      46.392  27.683  36.711  1.00  0.00     0.022 A 
BRANCH  95  98
ATOM     98  S   UNL A   1      45.033  25.902  38.289  1.00  0.00     0.127 S 
ATOM     99  O   UNL A   1      46.414  25.864  38.765  1.00  0.00    -0.237 OA
ATOM    100  O   UNL A   1      44.084  26.516  39.217  1.00  0.00    -0.237 OA
ATOM    101  O   UNL A   1      44.554  24.679  37.658  1.00  0.00    -0.744 OA
ENDBRANCH  95  98
ENDBRANCH  68  91
ENDBRANCH  42  43
ENDBRANCH  34  37
ENDBRANCH  32  33
ENDBRANCH  31  32
ENDBRANCH   1  31
TORSDOF 18
ENDMDL
MODEL 3
REMARK VINA RESULT:     -13.2      1.515      7.479
REMARK SMILES O=C(C[NH+]1CCC(C(=O)NCCCNC(=O)c2ccc(-c3c4nc(c(-c5cccc(S(=O)(=O)[O-])c5F)c5ccc([nH]5)c(-c5cccc(S(=O)(=O)[O-])c5F)c5nc(c(-c6cccc(S(=O)(=O)[O-])c6F)c6ccc3[nH]6)C=C5)C=C4)cc2)CC1)Nc1ccccc1Oc1ccccc1
REMARK SMILES IDX 11 1 10 2 8 3 9 4 7 6 4 7 5 8 81 9 6 11 80 12 3 13 2 14 1 15
REMARK SMILES IDX 82 16 83 18 84 19 88 20 85 21 87 22 86 23 89 24 90 25 91 26
REMARK SMILES IDX 95 27 92 28 94 29 93 30 12 31 13 32 14 33 15 34 16 36 17 37
REMARK SMILES IDX 18 38 79 39 19 40 78 41 20 42 21 43 22 44 72 45 23 46 77 47
REMARK SMILES IDX 71 48 73 49 24 50 76 51 70 52 69 53 25 55 57 56 37 57 56 58
REMARK SMILES IDX 38 59 41 60 55 61 74 62 39 63 40 64 54 66 75 67 42 68 26 69
REMARK SMILES IDX 27 70 35 71 28 72 30 73 36 74 29 75 31 76 32 77 33 78 34 79
REMARK SMILES IDX 58 80 59 81 67 82 60 83 62 84 68 85 61 86 63 87 64 88 65 89
REMARK SMILES IDX 66 90 43 91 44 92 52 93 45 94 47 95 53 96 46 97 48 98 49 99
REMARK SMILES IDX 50 100 51 101
REMARK H PARENT 10 5 4 10 82 17 14 35 73 54 41 65
REMARK Flexibility Score: inf
ROOT
ATOM      1  C   UNL A   1      31.354  30.319  25.516  1.00  0.00     0.117 C 
ENDROOT
BRANCH   1   2
ATOM      2  N   UNL A   1      30.663  30.178  24.239  1.00  0.00    -0.356 N 
ATOM      3  C   UNL A   1      30.556  29.107  23.401  1.00  0.00     0.223 C 
ATOM      4  O   UNL A   1      29.873  29.221  22.381  1.00  0.00    -0.275 OA
ATOM      5  H   UNL A   1      30.195  30.989  23.932  1.00  0.00     0.163 HD
BRANCH   3   6
ATOM      6  C   UNL A   1      31.254  27.799  23.722  1.00  0.00     0.089 C 
ATOM      7  N   UNL A   1      30.807  24.970  23.474  1.00  0.00    -0.327 N 
ATOM      8  C   UNL A   1      30.780  25.554  24.813  1.00  0.00     0.263 C 
ATOM      9  C   UNL A   1      31.801  25.561  22.590  1.00  0.00     0.263 C 
ATOM     10  H   UNL A   1      29.919  25.222  23.039  1.00  0.00     0.348 HD
ATOM     11  C   UNL A   1      30.432  27.022  24.753  1.00  0.00     0.075 C 
ATOM     12  C   UNL A   1      31.622  27.063  22.427  1.00  0.00     0.075 C 
BRANCH   7  13
ATOM     13  C   UNL A   1      30.826  23.490  23.509  1.00  0.00     0.363 C 
BRANCH  13  14
ATOM     14  C   UNL A   1      32.204  22.868  23.236  1.00  0.00     0.279 C 
ATOM     15  O   UNL A   1      32.469  22.312  22.173  1.00  0.00    -0.268 OA
ATOM     16  N   UNL A   1      33.062  22.941  24.319  1.00  0.00    -0.318 N 
ATOM     17  H   UNL A   1      32.713  23.309  25.162  1.00  0.00     0.170 HD
BRANCH  16  18
ATOM     18  C   UNL A   1      34.398  22.524  24.286  1.00  0.00     0.084 A 
ATOM     19  C   UNL A   1      35.290  23.442  23.703  1.00  0.00     0.030 A 
ATOM     20  C   UNL A   1      34.874  21.305  24.790  1.00  0.00     0.150 A 
ATOM     21  C   UNL A   1      36.663  23.211  23.722  1.00  0.00     0.002 A 
ATOM     22  C   UNL A   1      36.262  21.090  24.800  1.00  0.00     0.049 A 
ATOM     23  C   UNL A   1      37.151  22.039  24.286  1.00  0.00     0.004 A 
BRANCH  20  24
ATOM     24  O   UNL A   1      34.166  20.232  25.295  1.00  0.00    -0.455 OA
BRANCH  24  25
ATOM     25  C   UNL A   1      33.901  19.117  24.539  1.00  0.00     0.127 A 
ATOM     26  C   UNL A   1      32.735  19.161  23.768  1.00  0.00     0.047 A 
ATOM     27  C   UNL A   1      34.701  17.975  24.524  1.00  0.00     0.047 A 
ATOM     28  C   UNL A   1      32.421  18.113  22.904  1.00  0.00     0.004 A 
ATOM     29  C   UNL A   1      34.380  16.918  23.663  1.00  0.00     0.004 A 
ATOM     30  C   UNL A   1      33.249  16.994  22.845  1.00  0.00     0.000 A 
ENDBRANCH  24  25
ENDBRANCH  20  24
ENDBRANCH  16  18
ENDBRANCH  13  14
ENDBRANCH   7  13
ENDBRANCH   3   6
ENDBRANCH   1   2
BRANCH   1  31
ATOM     31  C   UNL A   1      31.167  31.686  26.152  1.00  0.00     0.042 C 
BRANCH  31  32
ATOM     32  C   UNL A   1      32.390  32.178  26.896  1.00  0.00     0.118 C 
BRANCH  32  33
ATOM     33  N   UNL A   1      32.298  33.590  27.236  1.00  0.00    -0.352 N 
ATOM     34  C   UNL A   1      33.010  34.305  28.167  1.00  0.00     0.251 C 
ATOM     35  H   UNL A   1      31.632  34.106  26.726  1.00  0.00     0.163 HD
ATOM     36  O   UNL A   1      32.650  35.436  28.473  1.00  0.00    -0.269 OA
BRANCH  34  37
ATOM     37  C   UNL A   1      34.198  33.695  28.801  1.00  0.00     0.039 A 
ATOM     38  C   UNL A   1      35.436  34.328  28.676  1.00  0.00     0.014 A 
ATOM     39  C   UNL A   1      34.087  32.501  29.520  1.00  0.00     0.014 A 
ATOM     40  C   UNL A   1      36.552  33.782  29.310  1.00  0.00     0.010 A 
ATOM     41  C   UNL A   1      35.171  32.028  30.244  1.00  0.00     0.010 A 
ATOM     42  C   UNL A   1      36.424  32.640  30.119  1.00  0.00    -0.014 A 
BRANCH  42  43
ATOM     43  C   UNL A   1      37.594  32.039  30.804  1.00  0.00     0.031 A 
ATOM     44  C   UNL A   1      38.442  31.024  30.082  1.00  0.00     0.074 A 
ATOM     45  C   UNL A   1      37.850  32.346  32.090  1.00  0.00     0.049 A 
ATOM     46  N   UNL A   1      39.469  30.346  30.520  1.00  0.00    -0.248 NA
ATOM     47  C   UNL A   1      38.065  30.702  28.693  1.00  0.00     0.031 C 
ATOM     48  C   UNL A   1      37.054  33.253  32.921  1.00  0.00     0.029 A 
ATOM     49  N   UNL A   1      38.842  31.912  32.931  1.00  0.00    -0.354 N 
ATOM     50  C   UNL A   1      39.832  29.494  29.484  1.00  0.00     0.074 A 
ATOM     51  C   UNL A   1      38.887  29.703  28.412  1.00  0.00     0.031 C 
ATOM     52  C   UNL A   1      37.596  33.317  34.147  1.00  0.00     0.029 A 
ATOM     53  C   UNL A   1      38.755  32.433  34.201  1.00  0.00     0.049 A 
ATOM     54  H   UNL A   1      39.549  31.287  32.652  1.00  0.00     0.167 HD
ATOM     55  C   UNL A   1      40.878  28.638  29.414  1.00  0.00     0.034 A 
ATOM     56  C   UNL A   1      39.522  32.216  35.287  1.00  0.00     0.034 A 
ATOM     57  C   UNL A   1      41.842  28.468  30.466  1.00  0.00     0.049 A 
ATOM     58  C   UNL A   1      40.706  31.294  35.170  1.00  0.00     0.074 A 
ATOM     59  C   UNL A   1      42.985  27.690  30.468  1.00  0.00     0.029 A 
ATOM     60  N   UNL A   1      41.771  29.080  31.707  1.00  0.00    -0.354 N 
ATOM     61  N   UNL A   1      41.118  30.607  34.132  1.00  0.00    -0.248 NA
ATOM     62  C   UNL A   1      41.555  31.151  36.361  1.00  0.00     0.031 C 
ATOM     63  C   UNL A   1      43.590  27.809  31.723  1.00  0.00     0.029 A 
ATOM     64  C   UNL A   1      42.848  28.696  32.486  1.00  0.00     0.049 A 
ATOM     65  H   UNL A   1      41.060  29.699  31.993  1.00  0.00     0.167 HD
ATOM     66  C   UNL A   1      42.298  29.990  34.528  1.00  0.00     0.074 A 
ATOM     67  C   UNL A   1      42.542  30.396  35.898  1.00  0.00     0.031 C 
ATOM     68  C   UNL A   1      43.104  29.155  33.827  1.00  0.00     0.034 A 
BRANCH  55  69
ATOM     69  C   UNL A   1      41.059  27.854  28.139  1.00  0.00     0.023 A 
ATOM     70  C   UNL A   1      41.587  28.488  26.995  1.00  0.00     0.012 A 
ATOM     71  C   UNL A   1      40.751  26.481  28.085  1.00  0.00     0.148 A 
ATOM     72  C   UNL A   1      41.767  27.779  25.808  1.00  0.00     0.002 A 
ATOM     73  C   UNL A   1      40.982  25.769  26.914  1.00  0.00     0.091 A 
ATOM     74  F   UNL A   1      40.230  25.900  29.175  1.00  0.00    -0.205 F 
ATOM     75  C   UNL A   1      41.476  26.420  25.771  1.00  0.00     0.022 A 
BRANCH  73  76
ATOM     76  S   UNL A   1      40.722  23.997  26.790  1.00  0.00     0.127 S 
ATOM     77  O   UNL A   1      39.333  23.934  26.335  1.00  0.00    -0.237 OA
ATOM     78  O   UNL A   1      41.711  23.612  25.783  1.00  0.00    -0.237 OA
ATOM     79  O   UNL A   1      40.967  23.458  28.120  1.00  0.00    -0.744 OA
ENDBRANCH  73  76
ENDBRANCH  55  69
BRANCH  56  80
ATOM     80  C   UNL A   1      39.235  32.935  36.561  1.00  0.00     0.023 A 
ATOM     81  C   UNL A   1      39.793  34.210  36.779  1.00  0.00     0.012 A 
ATOM     82  C   UNL A   1      38.402  32.374  37.546  1.00  0.00     0.148 A 
ATOM     83  C   UNL A   1      39.561  34.895  37.972  1.00  0.00     0.002 A 
ATOM     84  C   UNL A   1      38.127  33.085  38.707  1.00  0.00     0.091 A 
ATOM     85  F   UNL A   1      37.884  31.158  37.320  1.00  0.00    -0.205 F 
ATOM     86  C   UNL A   1      38.721  34.336  38.932  1.00  0.00     0.022 A 
BRANCH  84  87
ATOM     87  S   UNL A   1      36.958  32.504  39.941  1.00  0.00     0.127 S 
ATOM     88  O   UNL A   1      35.737  32.360  39.152  1.00  0.00    -0.237 OA
ATOM     89  O   UNL A   1      37.571  31.245  40.364  1.00  0.00    -0.237 OA
ATOM     90  O   UNL A   1      36.928  33.534  40.970  1.00  0.00    -0.744 OA
ENDBRANCH  84  87
ENDBRANCH  56  80
BRANCH  68  91
ATOM     91  C   UNL A   1      44.366  28.675  34.496  1.00  0.00     0.023 A 
ATOM     92  C   UNL A   1      45.560  29.411  34.374  1.00  0.00     0.012 A 
ATOM     93  C   UNL A   1      44.344  27.519  35.302  1.00  0.00     0.148 A 
ATOM     94  C   UNL A   1      46.723  28.982  35.013  1.00  0.00     0.002 A 
ATOM     95  C   UNL A   1      45.490  27.129  35.980  1.00  0.00     0.091 A 
ATOM     96  F   UNL A   1      43.201  26.821  35.389  1.00  0.00    -0.205 F 
ATOM     97  C   UNL A   1      46.685  27.850  35.825  1.00  0.00     0.022 A 
BRANCH  95  98
ATOM     98  S   UNL A   1      45.505  25.748  37.127  1.00  0.00     0.127 S 
ATOM     99  O   UNL A   1      45.460  24.605  36.217  1.00  0.00    -0.237 OA
ATOM    100  O   UNL A   1      46.784  25.930  37.815  1.00  0.00    -0.237 OA
ATOM    101  O   UNL A   1      44.335  25.918  37.977  1.00  0.00    -0.744 OA
ENDBRANCH  95  98
ENDBRANCH  68  91
ENDBRANCH  42  43
ENDBRANCH  34  37
ENDBRANCH  32  33
ENDBRANCH  31  32
ENDBRANCH   1  31
TORSDOF 18
ENDMDL
