MODEL 1
REMARK VINA RESULT:     -10.8      0.000      0.000
REMARK SMILES CC(=O)N[C@H](C(=O)NC1(CC(=O)NCCCNC(=O)c2ccc(-c3c4nc(c(-c5cccc(S(=O)(=O)[O-])c5F)c5ccc([nH]5)c(-c5cccc(S(=O)(=O)[O-])c5F)c5nc(c(-c6cccc(S(=O)(=O)[O-])c6F)c6ccc3[nH]6)C=C5)C=C4)cc2)CCC1)C(C)C
REMARK SMILES IDX 14 1 13 2 11 3 12 4 10 6 9 7 83 8 85 9 84 10 8 11 6 12 7 13
REMARK SMILES IDX 5 15 4 16 1 17 2 18 3 19 86 21 87 22 88 23 15 24 16 25 17 26
REMARK SMILES IDX 18 27 19 29 20 30 21 31 82 32 22 33 81 34 23 35 24 36 25 37
REMARK SMILES IDX 75 38 26 39 80 40 74 41 76 42 27 43 79 44 73 45 72 46 28 48
REMARK SMILES IDX 60 49 40 50 59 51 41 52 44 53 58 54 77 55 42 56 43 57 57 59
REMARK SMILES IDX 78 60 45 61 29 62 30 63 38 64 31 65 33 66 39 67 32 68 34 69
REMARK SMILES IDX 35 70 36 71 37 72 61 73 62 74 70 75 63 76 65 77 71 78 64 79
REMARK SMILES IDX 66 80 67 81 68 82 69 83 46 84 47 85 55 86 48 87 50 88 56 89
REMARK SMILES IDX 49 90 51 91 52 92 53 93 54 94
REMARK H PARENT 13 5 8 14 4 20 17 28 76 47 44 58
REMARK Flexibility Score: inf
ROOT
ATOM      1  C   UNL A   1      31.662  28.056  26.537  1.00  0.00     0.117 C 
ENDROOT
BRANCH   1   2
ATOM      2  N   UNL A   1      31.098  26.761  26.870  1.00  0.00    -0.356 N 
ATOM      3  C   UNL A   1      31.381  25.510  26.419  1.00  0.00     0.222 C 
ATOM      4  O   UNL A   1      30.626  24.600  26.773  1.00  0.00    -0.275 OA
ATOM      5  H   UNL A   1      30.381  26.796  27.543  1.00  0.00     0.163 HD
BRANCH   3   6
ATOM      6  C   UNL A   1      32.646  25.195  25.655  1.00  0.00     0.128 C 
BRANCH   6   7
ATOM      7  C   UNL A   1      32.813  23.781  24.861  1.00  0.00     0.049 C 
ATOM      8  C   UNL A   1      34.294  24.218  23.469  1.00  0.00     0.029 C 
ATOM      9  C   UNL A   1      31.638  22.874  23.302  1.00  0.00     0.029 C 
ATOM     10  C   UNL A   1      33.149  23.387  21.887  1.00  0.00     0.005 C 
BRANCH   7  11
ATOM     11  N   UNL A   1      33.328  22.911  26.034  1.00  0.00    -0.348 N 
ATOM     12  C   UNL A   1      33.618  21.564  26.029  1.00  0.00     0.243 C 
ATOM     13  O   UNL A   1      33.661  20.929  27.076  1.00  0.00    -0.273 OA
ATOM     14  H   UNL A   1      33.467  23.378  26.890  1.00  0.00     0.164 HD
BRANCH  12  15
ATOM     15  C   UNL A   1      33.753  20.999  24.638  1.00  0.00     0.173 C 
BRANCH  15  16
ATOM     16  N   UNL A   1      35.214  20.792  24.676  1.00  0.00    -0.344 N 
ATOM     17  C   UNL A   1      36.790  23.514  25.905  1.00  0.00     0.114 C 
ATOM     18  C   UNL A   1      36.325  21.434  25.248  1.00  0.00     0.217 C 
ATOM     19  O   UNL A   1      37.126  20.432  25.155  1.00  0.00    -0.275 OA
ATOM     20  H   UNL A   1      35.480  19.994  24.165  1.00  0.00     0.164 HD
ENDBRANCH  15  16
BRANCH  15  21
ATOM     21  C   UNL A   1      33.019  19.660  24.412  1.00  0.00     0.015 C 
ATOM     22  C   UNL A   1      32.383  19.582  23.021  1.00  0.00     0.010 C 
ATOM     23  C   UNL A   1      33.964  18.460  24.585  1.00  0.00     0.010 C 
ENDBRANCH  15  21
ENDBRANCH  12  15
ENDBRANCH   7  11
ENDBRANCH   6   7
ENDBRANCH   3   6
ENDBRANCH   1   2
BRANCH   1  24
ATOM     24  C   UNL A   1      33.071  28.182  27.106  1.00  0.00     0.042 C 
BRANCH  24  25
ATOM     25  C   UNL A   1      33.964  29.112  26.298  1.00  0.00     0.118 C 
BRANCH  25  26
ATOM     26  N   UNL A   1      33.889  30.476  26.799  1.00  0.00    -0.352 N 
ATOM     27  C   UNL A   1      34.602  31.087  27.799  1.00  0.00     0.251 C 
ATOM     28  H   UNL A   1      33.224  31.049  26.353  1.00  0.00     0.163 HD
ATOM     29  O   UNL A   1      34.188  32.151  28.256  1.00  0.00    -0.269 OA
BRANCH  27  30
ATOM     30  C   UNL A   1      35.848  30.485  28.328  1.00  0.00     0.039 A 
ATOM     31  C   UNL A   1      37.050  30.738  27.662  1.00  0.00     0.014 A 
ATOM     32  C   UNL A   1      35.836  29.632  29.436  1.00  0.00     0.014 A 
ATOM     33  C   UNL A   1      38.235  30.167  28.128  1.00  0.00     0.010 A 
ATOM     34  C   UNL A   1      37.031  29.151  29.960  1.00  0.00     0.010 A 
ATOM     35  C   UNL A   1      38.241  29.389  29.297  1.00  0.00    -0.014 A 
BRANCH  35  36
ATOM     36  C   UNL A   1      39.503  28.814  29.829  1.00  0.00     0.031 A 
ATOM     37  C   UNL A   1      40.165  29.417  31.040  1.00  0.00     0.074 A 
ATOM     38  C   UNL A   1      40.081  27.780  29.188  1.00  0.00     0.049 A 
ATOM     39  N   UNL A   1      41.282  29.072  31.624  1.00  0.00    -0.248 NA
ATOM     40  C   UNL A   1      39.498  30.574  31.662  1.00  0.00     0.031 C 
ATOM     41  C   UNL A   1      39.574  27.154  27.967  1.00  0.00     0.029 A 
ATOM     42  N   UNL A   1      41.234  27.088  29.462  1.00  0.00    -0.354 N 
ATOM     43  C   UNL A   1      41.469  29.981  32.658  1.00  0.00     0.074 A 
ATOM     44  C   UNL A   1      40.372  30.923  32.594  1.00  0.00     0.031 C 
ATOM     45  C   UNL A   1      40.404  26.165  27.601  1.00  0.00     0.029 A 
ATOM     46  C   UNL A   1      41.526  26.119  28.532  1.00  0.00     0.049 A 
ATOM     47  H   UNL A   1      41.798  27.270  30.248  1.00  0.00     0.167 HD
ATOM     48  C   UNL A   1      42.446  30.017  33.594  1.00  0.00     0.034 A 
ATOM     49  C   UNL A   1      42.590  25.300  28.424  1.00  0.00     0.034 A 
ATOM     50  C   UNL A   1      43.530  29.074  33.657  1.00  0.00     0.049 A 
ATOM     51  C   UNL A   1      43.666  25.360  29.471  1.00  0.00     0.074 A 
ATOM     52  C   UNL A   1      44.537  28.982  34.603  1.00  0.00     0.029 A 
ATOM     53  N   UNL A   1      43.766  28.074  32.726  1.00  0.00    -0.354 N 
ATOM     54  N   UNL A   1      43.754  26.142  30.519  1.00  0.00    -0.248 NA
ATOM     55  C   UNL A   1      44.773  24.403  29.339  1.00  0.00     0.031 C 
ATOM     56  C   UNL A   1      45.411  27.963  34.212  1.00  0.00     0.029 A 
ATOM     57  C   UNL A   1      44.913  27.375  33.061  1.00  0.00     0.049 A 
ATOM     58  H   UNL A   1      43.201  27.889  31.941  1.00  0.00     0.167 HD
ATOM     59  C   UNL A   1      44.905  25.748  31.192  1.00  0.00     0.074 A 
ATOM     60  C   UNL A   1      45.468  24.643  30.443  1.00  0.00     0.031 C 
ATOM     61  C   UNL A   1      45.447  26.256  32.326  1.00  0.00     0.034 A 
BRANCH  48  62
ATOM     62  C   UNL A   1      42.378  31.104  34.638  1.00  0.00     0.023 A 
ATOM     63  C   UNL A   1      41.710  30.868  35.858  1.00  0.00     0.012 A 
ATOM     64  C   UNL A   1      43.008  32.346  34.427  1.00  0.00     0.148 A 
ATOM     65  C   UNL A   1      41.629  31.865  36.829  1.00  0.00     0.002 A 
ATOM     66  C   UNL A   1      42.969  33.315  35.422  1.00  0.00     0.091 A 
ATOM     67  F   UNL A   1      43.625  32.560  33.257  1.00  0.00    -0.205 F 
ATOM     68  C   UNL A   1      42.267  33.084  36.616  1.00  0.00     0.022 A 
BRANCH  66  69
ATOM     69  S   UNL A   1      43.828  34.886  35.280  1.00  0.00     0.127 S 
ATOM     70  O   UNL A   1      43.506  35.514  36.562  1.00  0.00    -0.237 OA
ATOM     71  O   UNL A   1      45.221  34.460  35.143  1.00  0.00    -0.237 OA
ATOM     72  O   UNL A   1      43.274  35.546  34.108  1.00  0.00    -0.744 OA
ENDBRANCH  66  69
ENDBRANCH  48  62
BRANCH  49  73
ATOM     73  C   UNL A   1      42.677  24.344  27.285  1.00  0.00     0.023 A 
ATOM     74  C   UNL A   1      43.350  24.710  26.105  1.00  0.00     0.012 A 
ATOM     75  C   UNL A   1      42.111  23.059  27.385  1.00  0.00     0.148 A 
ATOM     76  C   UNL A   1      43.425  23.827  25.027  1.00  0.00     0.002 A 
ATOM     77  C   UNL A   1      42.243  22.161  26.333  1.00  0.00     0.091 A 
ATOM     78  F   UNL A   1      41.472  22.733  28.517  1.00  0.00    -0.205 F 
ATOM     79  C   UNL A   1      42.880  22.550  25.146  1.00  0.00     0.022 A 
BRANCH  77  80
ATOM     80  S   UNL A   1      41.691  20.457  26.450  1.00  0.00     0.127 S 
ATOM     81  O   UNL A   1      40.247  20.598  26.276  1.00  0.00    -0.237 OA
ATOM     82  O   UNL A   1      42.392  19.841  25.324  1.00  0.00    -0.237 OA
ATOM     83  O   UNL A   1      42.125  19.987  27.758  1.00  0.00    -0.744 OA
ENDBRANCH  77  80
ENDBRANCH  49  73
BRANCH  61  84
ATOM     84  C   UNL A   1      46.688  25.593  32.866  1.00  0.00     0.023 A 
ATOM     85  C   UNL A   1      47.964  25.999  32.429  1.00  0.00     0.012 A 
ATOM     86  C   UNL A   1      46.582  24.598  33.859  1.00  0.00     0.148 A 
ATOM     87  C   UNL A   1      49.112  25.396  32.941  1.00  0.00     0.002 A 
ATOM     88  C   UNL A   1      47.730  24.045  34.407  1.00  0.00     0.091 A 
ATOM     89  F   UNL A   1      45.358  24.216  34.251  1.00  0.00    -0.205 F 
ATOM     90  C   UNL A   1      48.996  24.429  33.938  1.00  0.00     0.022 A 
BRANCH  88  91
ATOM     91  S   UNL A   1      47.682  22.868  35.762  1.00  0.00     0.127 S 
ATOM     92  O   UNL A   1      46.956  23.621  36.784  1.00  0.00    -0.237 OA
ATOM     93  O   UNL A   1      46.933  21.756  35.176  1.00  0.00    -0.237 OA
ATOM     94  O   UNL A   1      49.069  22.564  36.084  1.00  0.00    -0.744 OA
ENDBRANCH  88  91
ENDBRANCH  61  84
ENDBRANCH  35  36
ENDBRANCH  27  30
ENDBRANCH  25  26
ENDBRANCH  24  25
ENDBRANCH   1  24
TORSDOF 18
ENDMDL
MODEL 2
REMARK VINA RESULT:     -10.8      1.829      2.104
REMARK SMILES CC(=O)N[C@H](C(=O)NC1(CC(=O)NCCCNC(=O)c2ccc(-c3c4nc(c(-c5cccc(S(=O)(=O)[O-])c5F)c5ccc([nH]5)c(-c5cccc(S(=O)(=O)[O-])c5F)c5nc(c(-c6cccc(S(=O)(=O)[O-])c6F)c6ccc3[nH]6)C=C5)C=C4)cc2)CCC1)C(C)C
REMARK SMILES IDX 14 1 13 2 11 3 12 4 10 6 9 7 83 8 85 9 84 10 8 11 6 12 7 13
REMARK SMILES IDX 5 15 4 16 1 17 2 18 3 19 86 21 87 22 88 23 15 24 16 25 17 26
REMARK SMILES IDX 18 27 19 29 20 30 21 31 82 32 22 33 81 34 23 35 24 36 25 37
REMARK SMILES IDX 75 38 26 39 80 40 74 41 76 42 27 43 79 44 73 45 72 46 28 48
REMARK SMILES IDX 60 49 40 50 59 51 41 52 44 53 58 54 77 55 42 56 43 57 57 59
REMARK SMILES IDX 78 60 45 61 29 62 30 63 38 64 31 65 33 66 39 67 32 68 34 69
REMARK SMILES IDX 35 70 36 71 37 72 61 73 62 74 70 75 63 76 65 77 71 78 64 79
REMARK SMILES IDX 66 80 67 81 68 82 69 83 46 84 47 85 55 86 48 87 50 88 56 89
REMARK SMILES IDX 49 90 51 91 52 92 53 93 54 94
REMARK H PARENT 13 5 8 14 4 20 17 28 76 47 44 58
REMARK Flexibility Score: inf
ROOT
ATOM      1  C   UNL A   1      31.749  27.993  26.752  1.00  0.00     0.117 C 
ENDROOT
BRANCH   1   2
ATOM      2  N   UNL A   1      31.153  26.689  26.973  1.00  0.00    -0.356 N 
ATOM      3  C   UNL A   1      31.398  25.476  26.409  1.00  0.00     0.222 C 
ATOM      4  O   UNL A   1      30.621  24.559  26.687  1.00  0.00    -0.275 OA
ATOM      5  H   UNL A   1      30.442  26.682  27.653  1.00  0.00     0.163 HD
BRANCH   3   6
ATOM      6  C   UNL A   1      32.649  25.198  25.608  1.00  0.00     0.128 C 
BRANCH   6   7
ATOM      7  C   UNL A   1      32.862  23.764  24.863  1.00  0.00     0.049 C 
ATOM      8  C   UNL A   1      34.314  24.206  23.442  1.00  0.00     0.029 C 
ATOM      9  C   UNL A   1      31.709  22.758  23.348  1.00  0.00     0.029 C 
ATOM     10  C   UNL A   1      33.187  23.277  21.901  1.00  0.00     0.005 C 
BRANCH   7  11
ATOM     11  N   UNL A   1      33.420  22.956  26.061  1.00  0.00    -0.348 N 
ATOM     12  C   UNL A   1      33.764  21.622  26.099  1.00  0.00     0.243 C 
ATOM     13  O   UNL A   1      33.840  21.026  27.166  1.00  0.00    -0.273 OA
ATOM     14  H   UNL A   1      33.545  23.457  26.899  1.00  0.00     0.164 HD
BRANCH  12  15
ATOM     15  C   UNL A   1      33.913  21.016  24.727  1.00  0.00     0.173 C 
BRANCH  15  16
ATOM     16  N   UNL A   1      35.385  20.907  24.744  1.00  0.00    -0.344 N 
ATOM     17  C   UNL A   1      36.787  23.655  26.118  1.00  0.00     0.114 C 
ATOM     18  C   UNL A   1      36.456  21.588  25.345  1.00  0.00     0.217 C 
ATOM     19  O   UNL A   1      37.322  20.650  25.191  1.00  0.00    -0.275 OA
ATOM     20  H   UNL A   1      35.699  20.158  24.187  1.00  0.00     0.164 HD
ENDBRANCH  15  16
BRANCH  15  21
ATOM     21  C   UNL A   1      33.266  19.624  24.563  1.00  0.00     0.015 C 
ATOM     22  C   UNL A   1      32.334  19.564  23.349  1.00  0.00     0.010 C 
ATOM     23  C   UNL A   1      34.325  18.520  24.421  1.00  0.00     0.010 C 
ENDBRANCH  15  21
ENDBRANCH  12  15
ENDBRANCH   7  11
ENDBRANCH   6   7
ENDBRANCH   3   6
ENDBRANCH   1   2
BRANCH   1  24
ATOM     24  C   UNL A   1      33.255  27.933  26.985  1.00  0.00     0.042 C 
BRANCH  24  25
ATOM     25  C   UNL A   1      34.034  28.930  26.139  1.00  0.00     0.118 C 
BRANCH  25  26
ATOM     26  N   UNL A   1      33.903  30.280  26.668  1.00  0.00    -0.352 N 
ATOM     27  C   UNL A   1      34.601  30.904  27.670  1.00  0.00     0.251 C 
ATOM     28  H   UNL A   1      33.206  30.829  26.242  1.00  0.00     0.163 HD
ATOM     29  O   UNL A   1      34.145  31.938  28.154  1.00  0.00    -0.269 OA
BRANCH  27  30
ATOM     30  C   UNL A   1      35.880  30.351  28.171  1.00  0.00     0.039 A 
ATOM     31  C   UNL A   1      37.035  30.535  27.405  1.00  0.00     0.014 A 
ATOM     32  C   UNL A   1      35.944  29.608  29.353  1.00  0.00     0.014 A 
ATOM     33  C   UNL A   1      38.251  30.006  27.844  1.00  0.00     0.010 A 
ATOM     34  C   UNL A   1      37.173  29.175  29.841  1.00  0.00     0.010 A 
ATOM     35  C   UNL A   1      38.336  29.345  29.080  1.00  0.00    -0.014 A 
BRANCH  35  36
ATOM     36  C   UNL A   1      39.632  28.819  29.579  1.00  0.00     0.031 A 
ATOM     37  C   UNL A   1      40.363  29.523  30.691  1.00  0.00     0.074 A 
ATOM     38  C   UNL A   1      40.177  27.735  28.994  1.00  0.00     0.049 A 
ATOM     39  N   UNL A   1      41.517  29.231  31.232  1.00  0.00    -0.248 NA
ATOM     40  C   UNL A   1      39.728  30.728  31.253  1.00  0.00     0.031 C 
ATOM     41  C   UNL A   1      39.600  27.006  27.863  1.00  0.00     0.029 A 
ATOM     42  N   UNL A   1      41.349  27.070  29.254  1.00  0.00    -0.354 N 
ATOM     43  C   UNL A   1      41.761  30.225  32.172  1.00  0.00     0.074 A 
ATOM     44  C   UNL A   1      40.656  31.156  32.096  1.00  0.00     0.031 C 
ATOM     45  C   UNL A   1      40.412  25.991  27.532  1.00  0.00     0.029 A 
ATOM     46  C   UNL A   1      41.589  26.025  28.393  1.00  0.00     0.049 A 
ATOM     47  H   UNL A   1      41.959  27.319  29.985  1.00  0.00     0.167 HD
ATOM     48  C   UNL A   1      42.794  30.341  33.039  1.00  0.00     0.034 A 
ATOM     49  C   UNL A   1      42.650  25.202  28.289  1.00  0.00     0.034 A 
ATOM     50  C   UNL A   1      43.885  29.409  33.115  1.00  0.00     0.049 A 
ATOM     51  C   UNL A   1      43.788  25.353  29.258  1.00  0.00     0.074 A 
ATOM     52  C   UNL A   1      44.949  29.400  34.001  1.00  0.00     0.029 A 
ATOM     53  N   UNL A   1      44.070  28.334  32.259  1.00  0.00    -0.354 N 
ATOM     54  N   UNL A   1      43.936  26.221  30.230  1.00  0.00    -0.248 NA
ATOM     55  C   UNL A   1      44.892  24.389  29.140  1.00  0.00     0.031 C 
ATOM     56  C   UNL A   1      45.804  28.352  33.645  1.00  0.00     0.029 A 
ATOM     57  C   UNL A   1      45.240  27.667  32.581  1.00  0.00     0.049 A 
ATOM     58  H   UNL A   1      43.459  28.082  31.530  1.00  0.00     0.167 HD
ATOM     59  C   UNL A   1      45.128  25.887  30.861  1.00  0.00     0.074 A 
ATOM     60  C   UNL A   1      45.652  24.723  30.175  1.00  0.00     0.031 C 
ATOM     61  C   UNL A   1      45.735  26.491  31.912  1.00  0.00     0.034 A 
BRANCH  48  62
ATOM     62  C   UNL A   1      42.782  31.514  33.989  1.00  0.00     0.023 A 
ATOM     63  C   UNL A   1      43.336  32.749  33.591  1.00  0.00     0.012 A 
ATOM     64  C   UNL A   1      42.187  31.404  35.261  1.00  0.00     0.148 A 
ATOM     65  C   UNL A   1      43.342  33.839  34.459  1.00  0.00     0.002 A 
ATOM     66  C   UNL A   1      42.148  32.512  36.100  1.00  0.00     0.091 A 
ATOM     67  F   UNL A   1      41.678  30.221  35.631  1.00  0.00    -0.205 F 
ATOM     68  C   UNL A   1      42.739  33.724  35.709  1.00  0.00     0.022 A 
BRANCH  66  69
ATOM     69  S   UNL A   1      41.323  32.491  37.695  1.00  0.00     0.127 S 
ATOM     70  O   UNL A   1      39.975  32.060  37.323  1.00  0.00    -0.237 OA
ATOM     71  O   UNL A   1      42.102  31.493  38.428  1.00  0.00    -0.237 OA
ATOM     72  O   UNL A   1      41.420  33.845  38.219  1.00  0.00    -0.744 OA
ENDBRANCH  66  69
ENDBRANCH  48  62
BRANCH  49  73
ATOM     73  C   UNL A   1      42.673  24.153  27.232  1.00  0.00     0.023 A 
ATOM     74  C   UNL A   1      43.321  24.398  26.007  1.00  0.00     0.012 A 
ATOM     75  C   UNL A   1      42.072  22.899  27.455  1.00  0.00     0.148 A 
ATOM     76  C   UNL A   1      43.335  23.426  25.006  1.00  0.00     0.002 A 
ATOM     77  C   UNL A   1      42.145  21.914  26.479  1.00  0.00     0.091 A 
ATOM     78  F   UNL A   1      41.459  22.689  28.628  1.00  0.00    -0.205 F 
ATOM     79  C   UNL A   1      42.756  22.182  25.246  1.00  0.00     0.022 A 
BRANCH  77  80
ATOM     80  S   UNL A   1      41.546  20.244  26.754  1.00  0.00     0.127 S 
ATOM     81  O   UNL A   1      40.131  20.477  27.035  1.00  0.00    -0.237 OA
ATOM     82  O   UNL A   1      41.824  19.614  25.463  1.00  0.00    -0.237 OA
ATOM     83  O   UNL A   1      42.330  19.717  27.861  1.00  0.00    -0.744 OA
ENDBRANCH  77  80
ENDBRANCH  49  73
BRANCH  61  84
ATOM     84  C   UNL A   1      47.011  25.877  32.428  1.00  0.00     0.023 A 
ATOM     85  C   UNL A   1      46.985  24.971  33.507  1.00  0.00     0.012 A 
ATOM     86  C   UNL A   1      48.238  26.160  31.794  1.00  0.00     0.148 A 
ATOM     87  C   UNL A   1      48.164  24.391  33.972  1.00  0.00     0.002 A 
ATOM     88  C   UNL A   1      49.398  25.533  32.224  1.00  0.00     0.091 A 
ATOM     89  F   UNL A   1      48.244  27.036  30.778  1.00  0.00    -0.205 F 
ATOM     90  C   UNL A   1      49.367  24.662  33.324  1.00  0.00     0.022 A 
BRANCH  88  91
ATOM     91  S   UNL A   1      50.974  25.743  31.390  1.00  0.00     0.127 S 
ATOM     92  O   UNL A   1      51.430  27.021  31.934  1.00  0.00    -0.237 OA
ATOM     93  O   UNL A   1      51.726  24.578  31.858  1.00  0.00    -0.237 OA
ATOM     94  O   UNL A   1      50.682  25.746  29.964  1.00  0.00    -0.744 OA
ENDBRANCH  88  91
ENDBRANCH  61  84
ENDBRANCH  35  36
ENDBRANCH  27  30
ENDBRANCH  25  26
ENDBRANCH  24  25
ENDBRANCH   1  24
TORSDOF 18
ENDMDL
MODEL 3
REMARK VINA RESULT:     -10.4      4.948      9.881
REMARK SMILES CC(=O)N[C@H](C(=O)NC1(CC(=O)NCCCNC(=O)c2ccc(-c3c4nc(c(-c5cccc(S(=O)(=O)[O-])c5F)c5ccc([nH]5)c(-c5cccc(S(=O)(=O)[O-])c5F)c5nc(c(-c6cccc(S(=O)(=O)[O-])c6F)c6ccc3[nH]6)C=C5)C=C4)cc2)CCC1)C(C)C
REMARK SMILES IDX 14 1 13 2 11 3 12 4 10 6 9 7 83 8 85 9 84 10 8 11 6 12 7 13
REMARK SMILES IDX 5 15 4 16 1 17 2 18 3 19 86 21 87 22 88 23 15 24 16 25 17 26
REMARK SMILES IDX 18 27 19 29 20 30 21 31 82 32 22 33 81 34 23 35 24 36 25 37
REMARK SMILES IDX 75 38 26 39 80 40 74 41 76 42 27 43 79 44 73 45 72 46 28 48
REMARK SMILES IDX 60 49 40 50 59 51 41 52 44 53 58 54 77 55 42 56 43 57 57 59
REMARK SMILES IDX 78 60 45 61 29 62 30 63 38 64 31 65 33 66 39 67 32 68 34 69
REMARK SMILES IDX 35 70 36 71 37 72 61 73 62 74 70 75 63 76 65 77 71 78 64 79
REMARK SMILES IDX 66 80 67 81 68 82 69 83 46 84 47 85 55 86 48 87 50 88 56 89
REMARK SMILES IDX 49 90 51 91 52 92 53 93 54 94
REMARK H PARENT 13 5 8 14 4 20 17 28 76 47 44 58
REMARK Flexibility Score: inf
ROOT
ATOM      1  C   UNL A   1      34.514  22.905  24.292  1.00  0.00     0.117 C 
ENDROOT
BRANCH   1   2
ATOM      2  N   UNL A   1      33.360  23.276  25.089  1.00  0.00    -0.356 N 
ATOM      3  C   UNL A   1      33.083  24.393  25.813  1.00  0.00     0.222 C 
ATOM      4  O   UNL A   1      32.074  24.367  26.522  1.00  0.00    -0.275 OA
ATOM      5  H   UNL A   1      32.650  22.594  25.109  1.00  0.00     0.163 HD
BRANCH   3   6
ATOM      6  C   UNL A   1      33.865  25.675  25.648  1.00  0.00     0.128 C 
BRANCH   6   7
ATOM      7  C   UNL A   1      33.100  27.104  25.479  1.00  0.00     0.049 C 
ATOM      8  C   UNL A   1      34.470  28.446  26.286  1.00  0.00     0.029 C 
ATOM      9  C   UNL A   1      31.537  28.031  26.634  1.00  0.00     0.029 C 
ATOM     10  C   UNL A   1      32.975  29.355  27.488  1.00  0.00     0.005 C 
BRANCH   7  11
ATOM     11  N   UNL A   1      33.044  27.161  23.933  1.00  0.00    -0.348 N 
ATOM     12  C   UNL A   1      31.928  27.180  23.124  1.00  0.00     0.243 C 
ATOM     13  O   UNL A   1      32.006  26.859  21.944  1.00  0.00    -0.273 OA
ATOM     14  H   UNL A   1      33.912  27.186  23.470  1.00  0.00     0.164 HD
BRANCH  12  15
ATOM     15  C   UNL A   1      30.666  27.519  23.874  1.00  0.00     0.173 C 
BRANCH  15  16
ATOM     16  N   UNL A   1      30.033  28.309  22.800  1.00  0.00    -0.344 N 
ATOM     17  C   UNL A   1      29.069  31.341  23.934  1.00  0.00     0.114 C 
ATOM     18  C   UNL A   1      29.643  29.644  22.604  1.00  0.00     0.217 C 
ATOM     19  O   UNL A   1      29.567  29.580  21.321  1.00  0.00    -0.275 OA
ATOM     20  H   UNL A   1      29.830  27.753  22.013  1.00  0.00     0.164 HD
ENDBRANCH  15  16
BRANCH  15  21
ATOM     21  C   UNL A   1      29.790  26.303  24.244  1.00  0.00     0.015 C 
ATOM     22  C   UNL A   1      28.310  26.547  23.933  1.00  0.00     0.010 C 
ATOM     23  C   UNL A   1      30.242  25.033  23.506  1.00  0.00     0.010 C 
ENDBRANCH  15  21
ENDBRANCH  12  15
ENDBRANCH   7  11
ENDBRANCH   6   7
ENDBRANCH   3   6
ENDBRANCH   1   2
BRANCH   1  24
ATOM     24  C   UNL A   1      35.339  21.845  25.014  1.00  0.00     0.042 C 
BRANCH  24  25
ATOM     25  C   UNL A   1      36.525  22.421  25.773  1.00  0.00     0.118 C 
BRANCH  25  26
ATOM     26  N   UNL A   1      37.560  21.416  25.967  1.00  0.00    -0.352 N 
ATOM     27  C   UNL A   1      38.906  21.568  26.181  1.00  0.00     0.251 C 
ATOM     28  H   UNL A   1      37.246  20.484  25.939  1.00  0.00     0.163 HD
ATOM     29  O   UNL A   1      39.643  20.595  26.032  1.00  0.00    -0.269 OA
BRANCH  27  30
ATOM     30  C   UNL A   1      39.473  22.876  26.583  1.00  0.00     0.039 A 
ATOM     31  C   UNL A   1      40.387  22.915  27.640  1.00  0.00     0.014 A 
ATOM     32  C   UNL A   1      39.076  24.067  25.967  1.00  0.00     0.014 A 
ATOM     33  C   UNL A   1      40.921  24.137  28.052  1.00  0.00     0.010 A 
ATOM     34  C   UNL A   1      39.689  25.268  26.308  1.00  0.00     0.010 A 
ATOM     35  C   UNL A   1      40.598  25.322  27.371  1.00  0.00    -0.014 A 
BRANCH  35  36
ATOM     36  C   UNL A   1      41.196  26.622  27.770  1.00  0.00     0.031 A 
ATOM     37  C   UNL A   1      42.646  26.912  27.490  1.00  0.00     0.074 A 
ATOM     38  C   UNL A   1      40.444  27.521  28.434  1.00  0.00     0.049 A 
ATOM     39  N   UNL A   1      43.347  27.973  27.793  1.00  0.00    -0.248 NA
ATOM     40  C   UNL A   1      43.418  25.863  26.800  1.00  0.00     0.031 C 
ATOM     41  C   UNL A   1      39.047  27.328  28.825  1.00  0.00     0.029 A 
ATOM     42  N   UNL A   1      40.755  28.767  28.916  1.00  0.00    -0.354 N 
ATOM     43  C   UNL A   1      44.642  27.711  27.362  1.00  0.00     0.074 A 
ATOM     44  C   UNL A   1      44.641  26.371  26.816  1.00  0.00     0.031 C 
ATOM     45  C   UNL A   1      38.618  28.419  29.478  1.00  0.00     0.029 A 
ATOM     46  C   UNL A   1      39.721  29.367  29.595  1.00  0.00     0.049 A 
ATOM     47  H   UNL A   1      41.635  29.190  28.789  1.00  0.00     0.167 HD
ATOM     48  C   UNL A   1      45.728  28.519  27.390  1.00  0.00     0.034 A 
ATOM     49  C   UNL A   1      39.671  30.536  30.260  1.00  0.00     0.034 A 
ATOM     50  C   UNL A   1      45.721  29.853  27.928  1.00  0.00     0.049 A 
ATOM     51  C   UNL A   1      40.890  31.415  30.285  1.00  0.00     0.074 A 
ATOM     52  C   UNL A   1      46.750  30.778  27.947  1.00  0.00     0.029 A 
ATOM     53  N   UNL A   1      44.640  30.445  28.563  1.00  0.00    -0.354 N 
ATOM     54  N   UNL A   1      42.069  31.204  29.752  1.00  0.00    -0.248 NA
ATOM     55  C   UNL A   1      40.761  32.708  30.972  1.00  0.00     0.031 C 
ATOM     56  C   UNL A   1      46.309  31.908  28.643  1.00  0.00     0.029 A 
ATOM     57  C   UNL A   1      44.983  31.714  28.997  1.00  0.00     0.049 A 
ATOM     58  H   UNL A   1      43.759  30.025  28.687  1.00  0.00     0.167 HD
ATOM     59  C   UNL A   1      42.812  32.351  30.007  1.00  0.00     0.074 A 
ATOM     60  C   UNL A   1      41.941  33.261  30.724  1.00  0.00     0.031 C 
ATOM     61  C   UNL A   1      44.099  32.624  29.681  1.00  0.00     0.034 A 
BRANCH  48  62
ATOM     62  C   UNL A   1      47.014  27.986  26.807  1.00  0.00     0.023 A 
ATOM     63  C   UNL A   1      48.012  27.467  27.660  1.00  0.00     0.012 A 
ATOM     64  C   UNL A   1      47.217  27.961  25.414  1.00  0.00     0.148 A 
ATOM     65  C   UNL A   1      49.209  26.979  27.138  1.00  0.00     0.002 A 
ATOM     66  C   UNL A   1      48.390  27.423  24.900  1.00  0.00     0.091 A 
ATOM     67  F   UNL A   1      46.267  28.471  24.619  1.00  0.00    -0.205 F 
ATOM     68  C   UNL A   1      49.394  26.947  25.759  1.00  0.00     0.022 A 
BRANCH  66  69
ATOM     69  S   UNL A   1      48.691  27.259  23.136  1.00  0.00     0.127 S 
ATOM     70  O   UNL A   1      47.873  28.346  22.597  1.00  0.00    -0.237 OA
ATOM     71  O   UNL A   1      50.134  27.483  23.051  1.00  0.00    -0.237 OA
ATOM     72  O   UNL A   1      48.258  25.918  22.775  1.00  0.00    -0.744 OA
ENDBRANCH  66  69
ENDBRANCH  48  62
BRANCH  49  73
ATOM     73  C   UNL A   1      38.414  30.946  30.946  1.00  0.00     0.023 A 
ATOM     74  C   UNL A   1      38.236  30.677  32.316  1.00  0.00     0.012 A 
ATOM     75  C   UNL A   1      37.403  31.627  30.241  1.00  0.00     0.148 A 
ATOM     76  C   UNL A   1      37.055  31.045  32.963  1.00  0.00     0.002 A 
ATOM     77  C   UNL A   1      36.258  32.046  30.905  1.00  0.00     0.091 A 
ATOM     78  F   UNL A   1      37.593  31.870  28.937  1.00  0.00    -0.205 F 
ATOM     79  C   UNL A   1      36.071  31.737  32.261  1.00  0.00     0.022 A 
BRANCH  77  80
ATOM     80  S   UNL A   1      35.003  33.057  30.113  1.00  0.00     0.127 S 
ATOM     81  O   UNL A   1      34.458  32.134  29.121  1.00  0.00    -0.237 OA
ATOM     82  O   UNL A   1      34.113  33.356  31.235  1.00  0.00    -0.237 OA
ATOM     83  O   UNL A   1      35.706  34.215  29.578  1.00  0.00    -0.744 OA
ENDBRANCH  77  80
ENDBRANCH  49  73
BRANCH  61  84
ATOM     84  C   UNL A   1      44.638  33.984  30.044  1.00  0.00     0.023 A 
ATOM     85  C   UNL A   1      45.318  34.182  31.262  1.00  0.00     0.012 A 
ATOM     86  C   UNL A   1      44.518  35.056  29.137  1.00  0.00     0.148 A 
ATOM     87  C   UNL A   1      45.831  35.437  31.589  1.00  0.00     0.002 A 
ATOM     88  C   UNL A   1      45.083  36.286  29.443  1.00  0.00     0.091 A 
ATOM     89  F   UNL A   1      43.854  34.851  27.990  1.00  0.00    -0.205 F 
ATOM     90  C   UNL A   1      45.725  36.484  30.676  1.00  0.00     0.022 A 
BRANCH  88  91
ATOM     91  S   UNL A   1      45.083  37.662  28.290  1.00  0.00     0.127 S 
ATOM     92  O   UNL A   1      45.536  38.762  29.140  1.00  0.00    -0.237 OA
ATOM     93  O   UNL A   1      46.055  37.224  27.290  1.00  0.00    -0.237 OA
ATOM     94  O   UNL A   1      43.716  37.780  27.800  1.00  0.00    -0.744 OA
ENDBRANCH  88  91
ENDBRANCH  61  84
ENDBRANCH  35  36
ENDBRANCH  27  30
ENDBRANCH  25  26
ENDBRANCH  24  25
ENDBRANCH   1  24
TORSDOF 18
ENDMDL
