MODEL 1
REMARK VINA RESULT:     -10.6      0.000      0.000
REMARK SMILES CC[NH+](CC)CC[N@H+]1CC[C@@H](C(=O)NCCCNC(=O)c2ccc(-c3c4nc(c(-c5cccc(S(=O)(=O)[O-])c5F)c5ccc([nH]5)c(-c5cccc(S(=O)(=O)[O-])c5F)c5nc(c(-c6cccc(S(=O)(=O)[O-])c6F)c6ccc3[nH]6)C=C5)C=C4)cc2)[C@@H]1C
REMARK SMILES IDX 15 1 14 2 12 3 13 4 11 6 8 7 9 8 84 9 10 11 85 12 7 13 6 14
REMARK SMILES IDX 3 15 2 17 1 18 4 19 5 20 16 21 17 22 18 23 19 24 20 26 21 27
REMARK SMILES IDX 22 28 83 29 23 30 82 31 24 32 25 33 26 34 76 35 27 36 81 37
REMARK SMILES IDX 75 38 77 39 28 40 80 41 74 42 73 43 29 45 61 46 41 47 60 48
REMARK SMILES IDX 42 49 45 50 59 51 78 52 43 53 44 54 58 56 79 57 46 58 30 59
REMARK SMILES IDX 31 60 39 61 32 62 34 63 40 64 33 65 35 66 36 67 37 68 38 69
REMARK SMILES IDX 62 70 63 71 71 72 64 73 66 74 72 75 65 76 67 77 68 78 69 79
REMARK SMILES IDX 70 80 47 81 48 82 56 83 49 84 51 85 57 86 50 87 52 88 53 89
REMARK SMILES IDX 54 90 55 91
REMARK H PARENT 14 5 8 10 3 16 18 25 77 44 45 55
REMARK Flexibility Score: inf
ROOT
ATOM      1  C   UNL A   1      31.773  30.627  26.871  1.00  0.00     0.117 C 
ENDROOT
BRANCH   1   2
ATOM      2  N   UNL A   1      32.681  30.008  25.929  1.00  0.00    -0.356 N 
ATOM      3  C   UNL A   1      32.503  28.949  25.094  1.00  0.00     0.229 C 
ATOM      4  O   UNL A   1      33.434  28.674  24.331  1.00  0.00    -0.275 OA
ATOM      5  H   UNL A   1      33.574  30.421  25.885  1.00  0.00     0.163 HD
BRANCH   3   6
ATOM      6  C   UNL A   1      31.224  28.119  25.065  1.00  0.00     0.142 C 
ATOM      7  N   UNL A   1      30.601  26.047  23.962  1.00  0.00    -0.327 N 
ATOM      8  C   UNL A   1      30.457  25.860  25.404  1.00  0.00     0.263 C 
ATOM      9  C   UNL A   1      30.953  27.457  23.711  1.00  0.00     0.193 C 
ATOM     10  H   UNL A   1      29.706  25.842  23.518  1.00  0.00     0.348 HD
ATOM     11  C   UNL A   1      31.143  27.018  26.107  1.00  0.00     0.081 C 
ATOM     12  C   UNL A   1      29.770  28.132  23.008  1.00  0.00     0.076 C 
BRANCH   7  13
ATOM     13  C   UNL A   1      31.499  25.082  23.307  1.00  0.00     0.324 C 
BRANCH  13  14
ATOM     14  C   UNL A   1      32.990  25.044  23.742  1.00  0.00     0.324 C 
BRANCH  14  15
ATOM     15  N   UNL A   1      33.921  24.044  23.209  1.00  0.00    -0.331 N 
ATOM     16  H   UNL A   1      34.216  24.479  22.334  1.00  0.00     0.348 HD
BRANCH  15  17
ATOM     17  C   UNL A   1      35.170  23.876  23.948  1.00  0.00     0.258 C 
ATOM     18  C   UNL A   1      36.159  22.947  23.244  1.00  0.00     0.071 C 
ENDBRANCH  15  17
BRANCH  15  19
ATOM     19  C   UNL A   1      33.300  22.771  22.814  1.00  0.00     0.258 C 
ATOM     20  C   UNL A   1      32.805  21.843  23.916  1.00  0.00     0.071 C 
ENDBRANCH  15  19
ENDBRANCH  14  15
ENDBRANCH  13  14
ENDBRANCH   7  13
ENDBRANCH   3   6
ENDBRANCH   1   2
BRANCH   1  21
ATOM     21  C   UNL A   1      31.681  32.138  26.710  1.00  0.00     0.042 C 
BRANCH  21  22
ATOM     22  C   UNL A   1      32.924  32.865  27.186  1.00  0.00     0.118 C 
BRANCH  22  23
ATOM     23  N   UNL A   1      32.614  34.210  27.659  1.00  0.00    -0.352 N 
ATOM     24  C   UNL A   1      33.089  34.890  28.751  1.00  0.00     0.251 C 
ATOM     25  H   UNL A   1      31.963  34.704  27.109  1.00  0.00     0.163 HD
ATOM     26  O   UNL A   1      32.534  35.926  29.104  1.00  0.00    -0.269 OA
BRANCH  24  27
ATOM     27  C   UNL A   1      34.254  34.371  29.500  1.00  0.00     0.039 A 
ATOM     28  C   UNL A   1      34.035  33.657  30.681  1.00  0.00     0.014 A 
ATOM     29  C   UNL A   1      35.555  34.600  29.049  1.00  0.00     0.014 A 
ATOM     30  C   UNL A   1      35.123  33.123  31.375  1.00  0.00     0.010 A 
ATOM     31  C   UNL A   1      36.625  33.982  29.682  1.00  0.00     0.010 A 
ATOM     32  C   UNL A   1      36.423  33.251  30.861  1.00  0.00    -0.014 A 
BRANCH  32  33
ATOM     33  C   UNL A   1      37.590  32.635  31.538  1.00  0.00     0.031 A 
ATOM     34  C   UNL A   1      38.320  31.489  30.891  1.00  0.00     0.074 A 
ATOM     35  C   UNL A   1      37.931  33.045  32.777  1.00  0.00     0.049 A 
ATOM     36  N   UNL A   1      39.309  30.773  31.358  1.00  0.00    -0.248 NA
ATOM     37  C   UNL A   1      37.860  31.073  29.555  1.00  0.00     0.031 C 
ATOM     38  C   UNL A   1      37.247  34.093  33.539  1.00  0.00     0.029 A 
ATOM     39  N   UNL A   1      38.919  32.611  33.624  1.00  0.00    -0.354 N 
ATOM     40  C   UNL A   1      39.560  29.801  30.398  1.00  0.00     0.074 A 
ATOM     41  C   UNL A   1      38.597  29.994  29.337  1.00  0.00     0.031 C 
ATOM     42  C   UNL A   1      37.839  34.223  34.736  1.00  0.00     0.029 A 
ATOM     43  C   UNL A   1      38.916  33.244  34.844  1.00  0.00     0.049 A 
ATOM     44  H   UNL A   1      39.567  31.912  33.380  1.00  0.00     0.167 HD
ATOM     45  C   UNL A   1      40.523  28.849  30.386  1.00  0.00     0.034 A 
ATOM     46  C   UNL A   1      39.684  33.048  35.933  1.00  0.00     0.034 A 
ATOM     47  C   UNL A   1      41.502  28.689  31.426  1.00  0.00     0.049 A 
ATOM     48  C   UNL A   1      40.767  32.005  35.882  1.00  0.00     0.074 A 
ATOM     49  C   UNL A   1      42.577  27.821  31.467  1.00  0.00     0.029 A 
ATOM     50  N   UNL A   1      41.519  29.405  32.614  1.00  0.00    -0.354 N 
ATOM     51  N   UNL A   1      41.090  31.201  34.899  1.00  0.00    -0.248 NA
ATOM     52  C   UNL A   1      41.613  31.866  37.076  1.00  0.00     0.031 C 
ATOM     53  C   UNL A   1      43.223  27.984  32.696  1.00  0.00     0.029 A 
ATOM     54  C   UNL A   1      42.575  28.986  33.402  1.00  0.00     0.049 A 
ATOM     55  H   UNL A   1      40.875  30.108  32.859  1.00  0.00     0.167 HD
ATOM     56  C   UNL A   1      42.197  30.486  35.340  1.00  0.00     0.074 A 
ATOM     57  C   UNL A   1      42.502  30.968  36.672  1.00  0.00     0.031 C 
ATOM     58  C   UNL A   1      42.893  29.510  34.707  1.00  0.00     0.034 A 
BRANCH  45  59
ATOM     59  C   UNL A   1      40.592  27.933  29.191  1.00  0.00     0.023 A 
ATOM     60  C   UNL A   1      39.724  26.826  29.107  1.00  0.00     0.012 A 
ATOM     61  C   UNL A   1      41.475  28.200  28.127  1.00  0.00     0.148 A 
ATOM     62  C   UNL A   1      39.759  25.976  28.002  1.00  0.00     0.002 A 
ATOM     63  C   UNL A   1      41.469  27.379  27.006  1.00  0.00     0.091 A 
ATOM     64  F   UNL A   1      42.308  29.246  28.233  1.00  0.00    -0.205 F 
ATOM     65  C   UNL A   1      40.622  26.260  26.947  1.00  0.00     0.022 A 
BRANCH  63  66
ATOM     66  S   UNL A   1      42.483  27.704  25.560  1.00  0.00     0.127 S 
ATOM     67  O   UNL A   1      41.925  28.971  25.089  1.00  0.00    -0.237 OA
ATOM     68  O   UNL A   1      43.822  27.806  26.141  1.00  0.00    -0.237 OA
ATOM     69  O   UNL A   1      42.290  26.569  24.668  1.00  0.00    -0.744 OA
ENDBRANCH  63  66
ENDBRANCH  45  59
BRANCH  46  70
ATOM     70  C   UNL A   1      39.488  33.893  37.145  1.00  0.00     0.023 A 
ATOM     71  C   UNL A   1      39.952  35.222  37.148  1.00  0.00     0.012 A 
ATOM     72  C   UNL A   1      38.824  33.394  38.283  1.00  0.00     0.148 A 
ATOM     73  C   UNL A   1      39.791  36.029  38.275  1.00  0.00     0.002 A 
ATOM     74  C   UNL A   1      38.616  34.220  39.380  1.00  0.00     0.091 A 
ATOM     75  F   UNL A   1      38.397  32.124  38.263  1.00  0.00    -0.205 F 
ATOM     76  C   UNL A   1      39.115  35.532  39.387  1.00  0.00     0.022 A 
BRANCH  74  77
ATOM     77  S   UNL A   1      37.642  33.710  40.800  1.00  0.00     0.127 S 
ATOM     78  O   UNL A   1      38.554  32.789  41.473  1.00  0.00    -0.237 OA
ATOM     79  O   UNL A   1      37.427  34.982  41.491  1.00  0.00    -0.237 OA
ATOM     80  O   UNL A   1      36.430  33.114  40.253  1.00  0.00    -0.744 OA
ENDBRANCH  74  77
ENDBRANCH  46  70
BRANCH  58  81
ATOM     81  C   UNL A   1      44.081  28.921  35.419  1.00  0.00     0.023 A 
ATOM     82  C   UNL A   1      45.357  29.498  35.262  1.00  0.00     0.012 A 
ATOM     83  C   UNL A   1      43.915  27.841  36.310  1.00  0.00     0.148 A 
ATOM     84  C   UNL A   1      46.454  28.992  35.956  1.00  0.00     0.002 A 
ATOM     85  C   UNL A   1      45.003  27.376  37.038  1.00  0.00     0.091 A 
ATOM     86  F   UNL A   1      42.696  27.295  36.433  1.00  0.00    -0.205 F 
ATOM     87  C   UNL A   1      46.275  27.940  36.853  1.00  0.00     0.022 A 
BRANCH  85  88
ATOM     88  S   UNL A   1      44.849  26.096  38.289  1.00  0.00     0.127 S 
ATOM     89  O   UNL A   1      43.920  26.714  39.234  1.00  0.00    -0.237 OA
ATOM     90  O   UNL A   1      44.290  24.982  37.523  1.00  0.00    -0.237 OA
ATOM     91  O   UNL A   1      46.194  25.866  38.799  1.00  0.00    -0.744 OA
ENDBRANCH  85  88
ENDBRANCH  58  81
ENDBRANCH  32  33
ENDBRANCH  24  27
ENDBRANCH  22  23
ENDBRANCH  21  22
ENDBRANCH   1  21
TORSDOF 18
ENDMDL
MODEL 2
REMARK VINA RESULT:     -10.4      3.761      8.750
REMARK SMILES CC[NH+](CC)CC[N@H+]1CC[C@@H](C(=O)NCCCNC(=O)c2ccc(-c3c4nc(c(-c5cccc(S(=O)(=O)[O-])c5F)c5ccc([nH]5)c(-c5cccc(S(=O)(=O)[O-])c5F)c5nc(c(-c6cccc(S(=O)(=O)[O-])c6F)c6ccc3[nH]6)C=C5)C=C4)cc2)[C@@H]1C
REMARK SMILES IDX 15 1 14 2 12 3 13 4 11 6 8 7 9 8 84 9 10 11 85 12 7 13 6 14
REMARK SMILES IDX 3 15 2 17 1 18 4 19 5 20 16 21 17 22 18 23 19 24 20 26 21 27
REMARK SMILES IDX 22 28 83 29 23 30 82 31 24 32 25 33 26 34 76 35 27 36 81 37
REMARK SMILES IDX 75 38 77 39 28 40 80 41 74 42 73 43 29 45 61 46 41 47 60 48
REMARK SMILES IDX 42 49 45 50 59 51 78 52 43 53 44 54 58 56 79 57 46 58 30 59
REMARK SMILES IDX 31 60 39 61 32 62 34 63 40 64 33 65 35 66 36 67 37 68 38 69
REMARK SMILES IDX 62 70 63 71 71 72 64 73 66 74 72 75 65 76 67 77 68 78 69 79
REMARK SMILES IDX 70 80 47 81 48 82 56 83 49 84 51 85 57 86 50 87 52 88 53 89
REMARK SMILES IDX 54 90 55 91
REMARK H PARENT 14 5 8 10 3 16 18 25 77 44 45 55
REMARK Flexibility Score: inf
ROOT
ATOM      1  C   UNL A   1      32.155  28.533  24.582  1.00  0.00     0.117 C 
ENDROOT
BRANCH   1   2
ATOM      2  N   UNL A   1      31.470  27.814  25.635  1.00  0.00    -0.356 N 
ATOM      3  C   UNL A   1      31.318  26.478  25.839  1.00  0.00     0.229 C 
ATOM      4  O   UNL A   1      30.742  26.131  26.875  1.00  0.00    -0.275 OA
ATOM      5  H   UNL A   1      31.045  28.386  26.315  1.00  0.00     0.163 HD
BRANCH   3   6
ATOM      6  C   UNL A   1      31.827  25.424  24.862  1.00  0.00     0.142 C 
ATOM      7  N   UNL A   1      32.760  23.200  25.140  1.00  0.00    -0.327 N 
ATOM      8  C   UNL A   1      31.553  23.091  24.323  1.00  0.00     0.263 C 
ATOM      9  C   UNL A   1      33.026  24.629  25.387  1.00  0.00     0.193 C 
ATOM     10  H   UNL A   1      33.540  22.800  24.619  1.00  0.00     0.348 HD
ATOM     11  C   UNL A   1      30.795  24.404  24.415  1.00  0.00     0.081 C 
ATOM     12  C   UNL A   1      34.303  25.020  24.636  1.00  0.00     0.076 C 
BRANCH   7  13
ATOM     13  C   UNL A   1      32.748  22.375  26.359  1.00  0.00     0.324 C 
BRANCH  13  14
ATOM     14  C   UNL A   1      33.673  21.128  26.419  1.00  0.00     0.324 C 
BRANCH  14  15
ATOM     15  N   UNL A   1      34.213  20.512  25.203  1.00  0.00    -0.331 N 
ATOM     16  H   UNL A   1      33.900  21.163  24.483  1.00  0.00     0.348 HD
BRANCH  15  17
ATOM     17  C   UNL A   1      35.668  20.526  25.071  1.00  0.00     0.258 C 
ATOM     18  C   UNL A   1      36.193  21.791  24.395  1.00  0.00     0.071 C 
ENDBRANCH  15  17
BRANCH  15  19
ATOM     19  C   UNL A   1      33.607  19.221  24.845  1.00  0.00     0.258 C 
ATOM     20  C   UNL A   1      34.523  18.115  24.336  1.00  0.00     0.071 C 
ENDBRANCH  15  19
ENDBRANCH  14  15
ENDBRANCH  13  14
ENDBRANCH   7  13
ENDBRANCH   3   6
ENDBRANCH   1   2
BRANCH   1  21
ATOM     21  C   UNL A   1      33.664  28.585  24.774  1.00  0.00     0.042 C 
BRANCH  21  22
ATOM     22  C   UNL A   1      34.073  28.823  26.215  1.00  0.00     0.118 C 
BRANCH  22  23
ATOM     23  N   UNL A   1      33.842  30.205  26.620  1.00  0.00    -0.352 N 
ATOM     24  C   UNL A   1      34.472  30.959  27.578  1.00  0.00     0.251 C 
ATOM     25  H   UNL A   1      33.122  30.667  26.132  1.00  0.00     0.163 HD
ATOM     26  O   UNL A   1      33.979  32.027  27.924  1.00  0.00    -0.269 OA
BRANCH  24  27
ATOM     27  C   UNL A   1      35.729  30.479  28.192  1.00  0.00     0.039 A 
ATOM     28  C   UNL A   1      35.667  29.770  29.394  1.00  0.00     0.014 A 
ATOM     29  C   UNL A   1      36.963  30.739  27.593  1.00  0.00     0.014 A 
ATOM     30  C   UNL A   1      36.842  29.272  29.962  1.00  0.00     0.010 A 
ATOM     31  C   UNL A   1      38.115  30.157  28.104  1.00  0.00     0.010 A 
ATOM     32  C   UNL A   1      38.070  29.431  29.302  1.00  0.00    -0.014 A 
BRANCH  32  33
ATOM     33  C   UNL A   1      39.324  28.854  29.846  1.00  0.00     0.031 A 
ATOM     34  C   UNL A   1      39.972  29.465  31.059  1.00  0.00     0.074 A 
ATOM     35  C   UNL A   1      39.928  27.843  29.190  1.00  0.00     0.049 A 
ATOM     36  N   UNL A   1      41.104  29.153  31.634  1.00  0.00    -0.248 NA
ATOM     37  C   UNL A   1      39.271  30.595  31.694  1.00  0.00     0.031 C 
ATOM     38  C   UNL A   1      39.436  27.222  27.957  1.00  0.00     0.029 A 
ATOM     39  N   UNL A   1      41.099  27.179  29.451  1.00  0.00    -0.354 N 
ATOM     40  C   UNL A   1      41.271  30.069  32.665  1.00  0.00     0.074 A 
ATOM     41  C   UNL A   1      40.144  30.972  32.617  1.00  0.00     0.031 C 
ATOM     42  C   UNL A   1      40.296  26.265  27.574  1.00  0.00     0.029 A 
ATOM     43  C   UNL A   1      41.417  26.231  28.507  1.00  0.00     0.049 A 
ATOM     44  H   UNL A   1      41.659  27.364  30.239  1.00  0.00     0.167 HD
ATOM     45  C   UNL A   1      42.259  30.136  33.588  1.00  0.00     0.034 A 
ATOM     46  C   UNL A   1      42.498  25.435  28.396  1.00  0.00     0.034 A 
ATOM     47  C   UNL A   1      43.356  29.209  33.653  1.00  0.00     0.049 A 
ATOM     48  C   UNL A   1      43.567  25.508  29.453  1.00  0.00     0.074 A 
ATOM     49  C   UNL A   1      44.358  29.130  34.603  1.00  0.00     0.029 A 
ATOM     50  N   UNL A   1      43.603  28.208  32.727  1.00  0.00    -0.354 N 
ATOM     51  N   UNL A   1      43.627  26.277  30.513  1.00  0.00    -0.248 NA
ATOM     52  C   UNL A   1      44.700  24.582  29.317  1.00  0.00     0.031 C 
ATOM     53  C   UNL A   1      45.232  28.105  34.231  1.00  0.00     0.029 A 
ATOM     54  C   UNL A   1      44.751  27.517  33.072  1.00  0.00     0.049 A 
ATOM     55  H   UNL A   1      43.044  28.017  31.939  1.00  0.00     0.167 HD
ATOM     56  C   UNL A   1      44.782  25.904  31.189  1.00  0.00     0.074 A 
ATOM     57  C   UNL A   1      45.380  24.825  30.429  1.00  0.00     0.031 C 
ATOM     58  C   UNL A   1      45.308  26.414  32.330  1.00  0.00     0.034 A 
BRANCH  45  59
ATOM     59  C   UNL A   1      42.178  31.223  34.628  1.00  0.00     0.023 A 
ATOM     60  C   UNL A   1      41.589  30.951  35.880  1.00  0.00     0.012 A 
ATOM     61  C   UNL A   1      42.735  32.494  34.389  1.00  0.00     0.148 A 
ATOM     62  C   UNL A   1      41.521  31.938  36.864  1.00  0.00     0.002 A 
ATOM     63  C   UNL A   1      42.708  33.456  35.392  1.00  0.00     0.091 A 
ATOM     64  F   UNL A   1      43.273  32.741  33.186  1.00  0.00    -0.205 F 
ATOM     65  C   UNL A   1      42.091  33.185  36.624  1.00  0.00     0.022 A 
BRANCH  63  66
ATOM     66  S   UNL A   1      43.487  35.065  35.213  1.00  0.00     0.127 S 
ATOM     67  O   UNL A   1      43.315  35.625  36.553  1.00  0.00    -0.237 OA
ATOM     68  O   UNL A   1      44.864  34.703  34.876  1.00  0.00    -0.237 OA
ATOM     69  O   UNL A   1      42.760  35.749  34.154  1.00  0.00    -0.744 OA
ENDBRANCH  63  66
ENDBRANCH  45  59
BRANCH  46  70
ATOM     70  C   UNL A   1      42.597  24.465  27.270  1.00  0.00     0.023 A 
ATOM     71  C   UNL A   1      43.297  24.824  26.102  1.00  0.00     0.012 A 
ATOM     72  C   UNL A   1      42.023  23.181  27.359  1.00  0.00     0.148 A 
ATOM     73  C   UNL A   1      43.393  23.938  25.029  1.00  0.00     0.002 A 
ATOM     74  C   UNL A   1      42.172  22.283  26.310  1.00  0.00     0.091 A 
ATOM     75  F   UNL A   1      41.355  22.861  28.475  1.00  0.00    -0.205 F 
ATOM     76  C   UNL A   1      42.841  22.664  25.136  1.00  0.00     0.022 A 
BRANCH  74  77
ATOM     77  S   UNL A   1      41.610  20.580  26.414  1.00  0.00     0.127 S 
ATOM     78  O   UNL A   1      42.410  19.937  25.375  1.00  0.00    -0.237 OA
ATOM     79  O   UNL A   1      41.979  20.224  27.785  1.00  0.00    -0.237 OA
ATOM     80  O   UNL A   1      40.175  20.622  26.171  1.00  0.00    -0.744 OA
ENDBRANCH  74  77
ENDBRANCH  46  70
BRANCH  58  81
ATOM     81  C   UNL A   1      46.572  25.791  32.859  1.00  0.00     0.023 A 
ATOM     82  C   UNL A   1      47.825  26.331  32.510  1.00  0.00     0.012 A 
ATOM     83  C   UNL A   1      46.510  24.717  33.769  1.00  0.00     0.148 A 
ATOM     84  C   UNL A   1      48.999  25.792  33.033  1.00  0.00     0.002 A 
ATOM     85  C   UNL A   1      47.681  24.219  34.328  1.00  0.00     0.091 A 
ATOM     86  F   UNL A   1      45.308  24.207  34.076  1.00  0.00    -0.205 F 
ATOM     87  C   UNL A   1      48.926  24.746  33.951  1.00  0.00     0.022 A 
BRANCH  85  88
ATOM     88  S   UNL A   1      47.680  22.944  35.593  1.00  0.00     0.127 S 
ATOM     89  O   UNL A   1      46.917  23.587  36.662  1.00  0.00    -0.237 OA
ATOM     90  O   UNL A   1      46.984  21.845  34.923  1.00  0.00    -0.237 OA
ATOM     91  O   UNL A   1      49.078  22.678  35.900  1.00  0.00    -0.744 OA
ENDBRANCH  85  88
ENDBRANCH  58  81
ENDBRANCH  32  33
ENDBRANCH  24  27
ENDBRANCH  22  23
ENDBRANCH  21  22
ENDBRANCH   1  21
TORSDOF 18
ENDMDL
MODEL 3
REMARK VINA RESULT:     -10.2      6.106     12.205
REMARK SMILES CC[NH+](CC)CC[N@H+]1CC[C@@H](C(=O)NCCCNC(=O)c2ccc(-c3c4nc(c(-c5cccc(S(=O)(=O)[O-])c5F)c5ccc([nH]5)c(-c5cccc(S(=O)(=O)[O-])c5F)c5nc(c(-c6cccc(S(=O)(=O)[O-])c6F)c6ccc3[nH]6)C=C5)C=C4)cc2)[C@@H]1C
REMARK SMILES IDX 15 1 14 2 12 3 13 4 11 6 8 7 9 8 84 9 10 11 85 12 7 13 6 14
REMARK SMILES IDX 3 15 2 17 1 18 4 19 5 20 16 21 17 22 18 23 19 24 20 26 21 27
REMARK SMILES IDX 22 28 83 29 23 30 82 31 24 32 25 33 26 34 76 35 27 36 81 37
REMARK SMILES IDX 75 38 77 39 28 40 80 41 74 42 73 43 29 45 61 46 41 47 60 48
REMARK SMILES IDX 42 49 45 50 59 51 78 52 43 53 44 54 58 56 79 57 46 58 30 59
REMARK SMILES IDX 31 60 39 61 32 62 34 63 40 64 33 65 35 66 36 67 37 68 38 69
REMARK SMILES IDX 62 70 63 71 71 72 64 73 66 74 72 75 65 76 67 77 68 78 69 79
REMARK SMILES IDX 70 80 47 81 48 82 56 83 49 84 51 85 57 86 50 87 52 88 53 89
REMARK SMILES IDX 54 90 55 91
REMARK H PARENT 14 5 8 10 3 16 18 25 77 44 45 55
REMARK Flexibility Score: inf
ROOT
ATOM      1  C   UNL A   1      37.397  20.370  24.849  1.00  0.00     0.117 C 
ENDROOT
BRANCH   1   2
ATOM      2  N   UNL A   1      36.057  19.821  24.815  1.00  0.00    -0.356 N 
ATOM      3  C   UNL A   1      34.887  20.315  25.302  1.00  0.00     0.229 C 
ATOM      4  O   UNL A   1      33.864  19.665  25.066  1.00  0.00    -0.275 OA
ATOM      5  H   UNL A   1      35.981  18.948  24.366  1.00  0.00     0.163 HD
BRANCH   3   6
ATOM      6  C   UNL A   1      34.799  21.611  26.101  1.00  0.00     0.142 C 
ATOM      7  N   UNL A   1      33.301  23.520  26.028  1.00  0.00    -0.327 N 
ATOM      8  C   UNL A   1      33.219  22.924  27.360  1.00  0.00     0.263 C 
ATOM      9  C   UNL A   1      34.351  22.815  25.268  1.00  0.00     0.193 C 
ATOM     10  H   UNL A   1      33.564  24.501  26.129  1.00  0.00     0.348 HD
ATOM     11  C   UNL A   1      33.889  21.562  27.315  1.00  0.00     0.081 C 
ATOM     12  C   UNL A   1      35.519  23.782  25.047  1.00  0.00     0.076 C 
BRANCH   7  13
ATOM     13  C   UNL A   1      32.014  23.616  25.321  1.00  0.00     0.324 C 
BRANCH  13  14
ATOM     14  C   UNL A   1      32.013  24.113  23.849  1.00  0.00     0.324 C 
BRANCH  14  15
ATOM     15  N   UNL A   1      32.213  25.527  23.514  1.00  0.00    -0.331 N 
ATOM     16  H   UNL A   1      31.308  25.777  23.115  1.00  0.00     0.348 HD
BRANCH  15  17
ATOM     17  C   UNL A   1      32.355  26.438  24.648  1.00  0.00     0.258 C 
ATOM     18  C   UNL A   1      33.721  27.119  24.698  1.00  0.00     0.071 C 
ENDBRANCH  15  17
BRANCH  15  19
ATOM     19  C   UNL A   1      33.187  25.775  22.441  1.00  0.00     0.258 C 
ATOM     20  C   UNL A   1      32.717  25.634  20.999  1.00  0.00     0.071 C 
ENDBRANCH  15  19
ENDBRANCH  14  15
ENDBRANCH  13  14
ENDBRANCH   7  13
ENDBRANCH   3   6
ENDBRANCH   1   2
BRANCH   1  21
ATOM     21  C   UNL A   1      38.455  19.344  25.228  1.00  0.00     0.042 C 
BRANCH  21  22
ATOM     22  C   UNL A   1      39.569  19.923  26.080  1.00  0.00     0.118 C 
BRANCH  22  23
ATOM     23  N   UNL A   1      40.764  19.089  26.046  1.00  0.00    -0.352 N 
ATOM     24  C   UNL A   1      42.089  19.448  26.055  1.00  0.00     0.251 C 
ATOM     25  H   UNL A   1      40.595  18.120  26.008  1.00  0.00     0.163 HD
ATOM     26  O   UNL A   1      42.942  18.607  25.790  1.00  0.00    -0.269 OA
BRANCH  24  27
ATOM     27  C   UNL A   1      42.479  20.838  26.372  1.00  0.00     0.039 A 
ATOM     28  C   UNL A   1      42.640  21.208  27.710  1.00  0.00     0.014 A 
ATOM     29  C   UNL A   1      42.672  21.777  25.357  1.00  0.00     0.014 A 
ATOM     30  C   UNL A   1      43.052  22.505  28.022  1.00  0.00     0.010 A 
ATOM     31  C   UNL A   1      43.179  23.032  25.663  1.00  0.00     0.010 A 
ATOM     32  C   UNL A   1      43.359  23.416  26.999  1.00  0.00    -0.014 A 
BRANCH  32  33
ATOM     33  C   UNL A   1      43.865  24.778  27.298  1.00  0.00     0.031 A 
ATOM     34  C   UNL A   1      42.928  25.832  27.825  1.00  0.00     0.074 A 
ATOM     35  C   UNL A   1      45.143  25.090  27.004  1.00  0.00     0.049 A 
ATOM     36  N   UNL A   1      43.164  27.094  28.071  1.00  0.00    -0.248 NA
ATOM     37  C   UNL A   1      41.536  25.423  28.079  1.00  0.00     0.031 C 
ATOM     38  C   UNL A   1      46.123  24.174  26.416  1.00  0.00     0.029 A 
ATOM     39  N   UNL A   1      45.829  26.271  27.134  1.00  0.00    -0.354 N 
ATOM     40  C   UNL A   1      41.948  27.636  28.467  1.00  0.00     0.074 A 
ATOM     41  C   UNL A   1      40.967  26.577  28.394  1.00  0.00     0.031 C 
ATOM     42  C   UNL A   1      47.284  24.826  26.241  1.00  0.00     0.029 A 
ATOM     43  C   UNL A   1      47.121  26.212  26.666  1.00  0.00     0.049 A 
ATOM     44  H   UNL A   1      45.434  27.083  27.525  1.00  0.00     0.167 HD
ATOM     45  C   UNL A   1      41.675  28.896  28.882  1.00  0.00     0.034 A 
ATOM     46  C   UNL A   1      48.063  27.170  26.574  1.00  0.00     0.034 A 
ATOM     47  C   UNL A   1      42.664  29.933  28.990  1.00  0.00     0.049 A 
ATOM     48  C   UNL A   1      47.744  28.554  27.071  1.00  0.00     0.074 A 
ATOM     49  C   UNL A   1      42.514  31.214  29.488  1.00  0.00     0.029 A 
ATOM     50  N   UNL A   1      43.985  29.814  28.584  1.00  0.00    -0.354 N 
ATOM     51  N   UNL A   1      46.629  29.006  27.592  1.00  0.00    -0.248 NA
ATOM     52  C   UNL A   1      48.821  29.551  27.000  1.00  0.00     0.031 C 
ATOM     53  C   UNL A   1      43.734  31.882  29.348  1.00  0.00     0.029 A 
ATOM     54  C   UNL A   1      44.656  31.003  28.803  1.00  0.00     0.049 A 
ATOM     55  H   UNL A   1      44.385  29.002  28.196  1.00  0.00     0.167 HD
ATOM     56  C   UNL A   1      46.881  30.327  27.943  1.00  0.00     0.074 A 
ATOM     57  C   UNL A   1      48.261  30.595  27.595  1.00  0.00     0.031 C 
ATOM     58  C   UNL A   1      46.043  31.240  28.494  1.00  0.00     0.034 A 
BRANCH  45  59
ATOM     59  C   UNL A   1      40.259  29.212  29.291  1.00  0.00     0.023 A 
ATOM     60  C   UNL A   1      39.307  29.550  28.308  1.00  0.00     0.012 A 
ATOM     61  C   UNL A   1      39.859  29.118  30.637  1.00  0.00     0.148 A 
ATOM     62  C   UNL A   1      37.987  29.828  28.663  1.00  0.00     0.002 A 
ATOM     63  C   UNL A   1      38.531  29.347  30.977  1.00  0.00     0.091 A 
ATOM     64  F   UNL A   1      40.783  28.815  31.561  1.00  0.00    -0.205 F 
ATOM     65  C   UNL A   1      37.597  29.714  29.995  1.00  0.00     0.022 A 
BRANCH  63  66
ATOM     66  S   UNL A   1      37.909  29.146  32.650  1.00  0.00     0.127 S 
ATOM     67  O   UNL A   1      36.562  29.701  32.532  1.00  0.00    -0.237 OA
ATOM     68  O   UNL A   1      37.957  27.694  32.823  1.00  0.00    -0.237 OA
ATOM     69  O   UNL A   1      38.817  29.892  33.510  1.00  0.00    -0.744 OA
ENDBRANCH  63  66
ENDBRANCH  45  59
BRANCH  46  70
ATOM     70  C   UNL A   1      49.412  26.840  26.036  1.00  0.00     0.023 A 
ATOM     71  C   UNL A   1      50.314  26.101  26.825  1.00  0.00     0.012 A 
ATOM     72  C   UNL A   1      49.798  27.233  24.739  1.00  0.00     0.148 A 
ATOM     73  C   UNL A   1      51.588  25.789  26.348  1.00  0.00     0.002 A 
ATOM     74  C   UNL A   1      51.045  26.870  24.248  1.00  0.00     0.091 A 
ATOM     75  F   UNL A   1      48.928  27.942  24.006  1.00  0.00    -0.205 F 
ATOM     76  C   UNL A   1      51.950  26.164  25.057  1.00  0.00     0.022 A 
BRANCH  74  77
ATOM     77  S   UNL A   1      51.545  27.194  22.554  1.00  0.00     0.127 S 
ATOM     78  O   UNL A   1      50.372  26.749  21.806  1.00  0.00    -0.237 OA
ATOM     79  O   UNL A   1      51.753  28.642  22.573  1.00  0.00    -0.237 OA
ATOM     80  O   UNL A   1      52.760  26.417  22.345  1.00  0.00    -0.744 OA
ENDBRANCH  74  77
ENDBRANCH  46  70
BRANCH  58  81
ATOM     81  C   UNL A   1      46.598  32.606  28.798  1.00  0.00     0.023 A 
ATOM     82  C   UNL A   1      47.169  32.871  30.058  1.00  0.00     0.012 A 
ATOM     83  C   UNL A   1      46.624  33.602  27.802  1.00  0.00     0.148 A 
ATOM     84  C   UNL A   1      47.731  34.117  30.333  1.00  0.00     0.002 A 
ATOM     85  C   UNL A   1      47.232  34.824  28.065  1.00  0.00     0.091 A 
ATOM     86  F   UNL A   1      46.060  33.335  26.615  1.00  0.00    -0.205 F 
ATOM     87  C   UNL A   1      47.773  35.088  29.333  1.00  0.00     0.022 A 
BRANCH  85  88
ATOM     88  S   UNL A   1      47.425  36.095  26.811  1.00  0.00     0.127 S 
ATOM     89  O   UNL A   1      48.174  37.119  27.539  1.00  0.00    -0.237 OA
ATOM     90  O   UNL A   1      48.192  35.396  25.779  1.00  0.00    -0.237 OA
ATOM     91  O   UNL A   1      46.078  36.476  26.412  1.00  0.00    -0.744 OA
ENDBRANCH  85  88
ENDBRANCH  58  81
ENDBRANCH  32  33
ENDBRANCH  24  27
ENDBRANCH  22  23
ENDBRANCH  21  22
ENDBRANCH   1  21
TORSDOF 18
ENDMDL
