MODEL 1
REMARK VINA RESULT:     -14.1      0.000      0.000
REMARK SMILES Cc1ccc(C(=O)NC2CC2)cc1NC(=O)[C@@H]1[C@@H](C(=O)NCCCNC(=O)c2ccc(-c3c4nc(c(-c5cccc(S(=O)(=O)[O-])c5F)c5ccc([nH]5)c(-c5cccc(S(=O)(=O)[O-])c5F)c5nc(c(-c6cccc(S(=O)(=O)[O-])c6F)c6ccc3[nH]6)C=C5)C=C4)cc2)[C@H]2C=C[C@@H]1C2
REMARK SMILES IDX 22 1 21 2 19 3 20 4 18 6 17 7 94 8 91 9 93 10 95 11 92 12
REMARK SMILES IDX 15 13 14 14 16 16 13 17 1 18 2 19 3 20 4 21 12 22 5 23 6 24
REMARK SMILES IDX 7 25 8 26 9 28 10 29 11 30 23 31 24 32 25 33 26 34 27 36
REMARK SMILES IDX 28 37 29 38 90 39 30 40 89 41 31 42 32 43 33 44 83 45 34 46
REMARK SMILES IDX 88 47 82 48 84 49 35 50 87 51 81 52 80 53 36 55 68 56 48 57
REMARK SMILES IDX 67 58 49 59 52 60 66 61 85 62 50 63 51 64 65 66 86 67 53 68
REMARK SMILES IDX 37 69 38 70 46 71 39 72 41 73 47 74 40 75 42 76 43 77 44 78
REMARK SMILES IDX 45 79 69 80 70 81 78 82 71 83 73 84 79 85 72 86 74 87 75 88
REMARK SMILES IDX 76 89 77 90 54 91 55 92 63 93 56 94 58 95 64 96 57 97 59 98
REMARK SMILES IDX 60 99 61 100 62 101
REMARK H PARENT 21 5 14 15 8 27 25 35 84 54 52 65
REMARK Flexibility Score: inf
ROOT
ATOM      1  C   UNL A   1      31.850  29.238  25.813  1.00  0.00     0.117 C 
ENDROOT
BRANCH   1   2
ATOM      2  N   UNL A   1      32.841  28.178  25.756  1.00  0.00    -0.356 N 
ATOM      3  C   UNL A   1      32.754  26.852  25.501  1.00  0.00     0.224 C 
ATOM      4  O   UNL A   1      33.802  26.205  25.629  1.00  0.00    -0.275 OA
ATOM      5  H   UNL A   1      33.758  28.486  25.941  1.00  0.00     0.163 HD
BRANCH   3   6
ATOM      6  C   UNL A   1      31.467  26.107  25.150  1.00  0.00     0.098 C 
ATOM      7  C   UNL A   1      31.780  24.559  25.156  1.00  0.00     0.099 C 
ATOM      8  C   UNL A   1      31.085  24.055  23.864  1.00  0.00     0.025 C 
ATOM      9  C   UNL A   1      30.785  26.272  23.775  1.00  0.00     0.025 C 
ATOM     10  C   UNL A   1      31.876  24.557  22.682  1.00  0.00    -0.027 C 
ATOM     11  C   UNL A   1      29.900  25.018  23.757  1.00  0.00     0.017 C 
ATOM     12  C   UNL A   1      31.710  25.884  22.638  1.00  0.00    -0.027 C 
BRANCH   7  13
ATOM     13  C   UNL A   1      31.313  23.772  26.368  1.00  0.00     0.228 C 
ATOM     14  N   UNL A   1      31.726  22.473  26.572  1.00  0.00    -0.326 N 
ATOM     15  H   UNL A   1      31.335  22.055  27.374  1.00  0.00     0.169 HD
ATOM     16  O   UNL A   1      30.468  24.228  27.143  1.00  0.00    -0.274 OA
BRANCH  14  17
ATOM     17  C   UNL A   1      32.603  21.623  25.857  1.00  0.00     0.044 A 
ATOM     18  C   UNL A   1      34.664  22.854  26.805  1.00  0.00     0.046 C 
ATOM     19  C   UNL A   1      33.992  21.743  26.042  1.00  0.00    -0.027 A 
ATOM     20  C   UNL A   1      34.837  20.783  25.458  1.00  0.00     0.006 A 
ATOM     21  C   UNL A   1      34.319  19.729  24.701  1.00  0.00     0.014 A 
ATOM     22  C   UNL A   1      32.131  20.650  24.958  1.00  0.00     0.040 A 
ATOM     23  C   UNL A   1      32.951  19.649  24.424  1.00  0.00     0.041 A 
BRANCH  23  24
ATOM     24  C   UNL A   1      32.494  18.497  23.571  1.00  0.00     0.251 C 
ATOM     25  O   UNL A   1      32.177  18.725  22.401  1.00  0.00    -0.269 OA
ATOM     26  N   UNL A   1      32.441  17.182  23.990  1.00  0.00    -0.349 N 
ATOM     27  H   UNL A   1      32.113  16.551  23.311  1.00  0.00     0.164 HD
BRANCH  26  28
ATOM     28  C   UNL A   1      32.778  16.587  25.231  1.00  0.00     0.082 C 
ATOM     29  C   UNL A   1      32.710  15.093  25.386  1.00  0.00     0.027 C 
ATOM     30  C   UNL A   1      34.033  15.796  25.457  1.00  0.00     0.027 C 
ENDBRANCH  26  28
ENDBRANCH  23  24
ENDBRANCH  14  17
ENDBRANCH   7  13
ENDBRANCH   3   6
ENDBRANCH   1   2
BRANCH   1  31
ATOM     31  C   UNL A   1      32.361  30.444  26.579  1.00  0.00     0.042 C 
BRANCH  31  32
ATOM     32  C   UNL A   1      33.516  30.061  27.484  1.00  0.00     0.118 C 
BRANCH  32  33
ATOM     33  N   UNL A   1      34.170  31.207  28.096  1.00  0.00    -0.352 N 
ATOM     34  C   UNL A   1      35.301  31.254  28.891  1.00  0.00     0.251 C 
ATOM     35  H   UNL A   1      33.747  32.078  27.919  1.00  0.00     0.163 HD
ATOM     36  O   UNL A   1      35.524  32.275  29.539  1.00  0.00    -0.269 OA
BRANCH  34  37
ATOM     37  C   UNL A   1      36.284  30.145  28.840  1.00  0.00     0.039 A 
ATOM     38  C   UNL A   1      36.638  29.531  30.050  1.00  0.00     0.014 A 
ATOM     39  C   UNL A   1      37.027  29.900  27.692  1.00  0.00     0.014 A 
ATOM     40  C   UNL A   1      37.875  28.906  30.167  1.00  0.00     0.010 A 
ATOM     41  C   UNL A   1      38.291  29.381  27.824  1.00  0.00     0.010 A 
ATOM     42  C   UNL A   1      38.733  28.948  29.076  1.00  0.00    -0.014 A 
BRANCH  42  43
ATOM     43  C   UNL A   1      40.126  28.555  29.095  1.00  0.00     0.031 A 
ATOM     44  C   UNL A   1      40.476  27.152  28.832  1.00  0.00     0.074 A 
ATOM     45  C   UNL A   1      41.050  29.540  29.075  1.00  0.00     0.049 A 
ATOM     46  N   UNL A   1      41.609  26.620  29.127  1.00  0.00    -0.248 NA
ATOM     47  C   UNL A   1      39.538  26.230  28.198  1.00  0.00     0.031 C 
ATOM     48  C   UNL A   1      42.439  29.445  28.653  1.00  0.00     0.029 A 
ATOM     49  N   UNL A   1      40.940  30.832  29.604  1.00  0.00    -0.354 N 
ATOM     50  C   UNL A   1      41.660  25.403  28.477  1.00  0.00     0.074 A 
ATOM     51  C   UNL A   1      40.323  25.173  27.982  1.00  0.00     0.031 C 
ATOM     52  C   UNL A   1      43.116  30.485  29.168  1.00  0.00     0.029 A 
ATOM     53  C   UNL A   1      42.216  31.163  30.089  1.00  0.00     0.049 A 
ATOM     54  H   UNL A   1      40.132  31.394  29.631  1.00  0.00     0.167 HD
ATOM     55  C   UNL A   1      42.868  24.809  28.268  1.00  0.00     0.034 A 
ATOM     56  C   UNL A   1      42.469  31.402  31.411  1.00  0.00     0.034 A 
ATOM     57  C   UNL A   1      43.950  25.636  28.814  1.00  0.00     0.049 A 
ATOM     58  C   UNL A   1      43.453  30.405  32.005  1.00  0.00     0.074 A 
ATOM     59  C   UNL A   1      44.764  26.600  28.237  1.00  0.00     0.029 A 
ATOM     60  N   UNL A   1      44.072  25.793  30.189  1.00  0.00    -0.354 N 
ATOM     61  N   UNL A   1      43.899  29.354  31.373  1.00  0.00    -0.248 NA
ATOM     62  C   UNL A   1      43.993  30.495  33.359  1.00  0.00     0.031 C 
ATOM     63  C   UNL A   1      45.294  27.407  29.279  1.00  0.00     0.029 A 
ATOM     64  C   UNL A   1      44.832  26.916  30.489  1.00  0.00     0.049 A 
ATOM     65  H   UNL A   1      43.674  25.191  30.858  1.00  0.00     0.167 HD
ATOM     66  C   UNL A   1      44.635  28.572  32.220  1.00  0.00     0.074 A 
ATOM     67  C   UNL A   1      44.734  29.373  33.429  1.00  0.00     0.031 C 
ATOM     68  C   UNL A   1      45.042  27.310  31.879  1.00  0.00     0.034 A 
BRANCH  55  69
ATOM     69  C   UNL A   1      43.085  23.695  27.263  1.00  0.00     0.023 A 
ATOM     70  C   UNL A   1      43.729  24.028  26.051  1.00  0.00     0.012 A 
ATOM     71  C   UNL A   1      42.656  22.353  27.394  1.00  0.00     0.148 A 
ATOM     72  C   UNL A   1      43.848  23.126  24.989  1.00  0.00     0.002 A 
ATOM     73  C   UNL A   1      42.710  21.471  26.309  1.00  0.00     0.091 A 
ATOM     74  F   UNL A   1      42.256  21.901  28.590  1.00  0.00    -0.205 F 
ATOM     75  C   UNL A   1      43.303  21.858  25.103  1.00  0.00     0.022 A 
BRANCH  73  76
ATOM     76  S   UNL A   1      41.930  19.846  26.342  1.00  0.00     0.127 S 
ATOM     77  O   UNL A   1      40.505  20.180  26.265  1.00  0.00    -0.237 OA
ATOM     78  O   UNL A   1      42.468  19.211  25.142  1.00  0.00    -0.237 OA
ATOM     79  O   UNL A   1      42.324  19.246  27.611  1.00  0.00    -0.744 OA
ENDBRANCH  73  76
ENDBRANCH  55  69
BRANCH  56  80
ATOM     80  C   UNL A   1      41.316  32.032  32.124  1.00  0.00     0.023 A 
ATOM     81  C   UNL A   1      40.913  33.309  31.659  1.00  0.00     0.012 A 
ATOM     82  C   UNL A   1      40.406  31.268  32.877  1.00  0.00     0.148 A 
ATOM     83  C   UNL A   1      39.591  33.737  31.791  1.00  0.00     0.002 A 
ATOM     84  C   UNL A   1      39.088  31.708  33.011  1.00  0.00     0.091 A 
ATOM     85  F   UNL A   1      40.810  30.092  33.370  1.00  0.00    -0.205 F 
ATOM     86  C   UNL A   1      38.669  32.917  32.429  1.00  0.00     0.022 A 
BRANCH  84  87
ATOM     87  S   UNL A   1      37.834  30.697  33.810  1.00  0.00     0.127 S 
ATOM     88  O   UNL A   1      38.057  31.015  35.216  1.00  0.00    -0.237 OA
ATOM     89  O   UNL A   1      36.594  31.232  33.249  1.00  0.00    -0.237 OA
ATOM     90  O   UNL A   1      38.138  29.335  33.398  1.00  0.00    -0.744 OA
ENDBRANCH  84  87
ENDBRANCH  56  80
BRANCH  68  91
ATOM     91  C   UNL A   1      45.659  26.301  32.828  1.00  0.00     0.023 A 
ATOM     92  C   UNL A   1      47.039  26.271  33.099  1.00  0.00     0.012 A 
ATOM     93  C   UNL A   1      44.831  25.458  33.616  1.00  0.00     0.148 A 
ATOM     94  C   UNL A   1      47.580  25.410  34.061  1.00  0.00     0.002 A 
ATOM     95  C   UNL A   1      45.361  24.698  34.653  1.00  0.00     0.091 A 
ATOM     96  F   UNL A   1      43.518  25.376  33.352  1.00  0.00    -0.205 F 
ATOM     97  C   UNL A   1      46.739  24.645  34.858  1.00  0.00     0.022 A 
BRANCH  95  98
ATOM     98  S   UNL A   1      44.282  23.913  35.860  1.00  0.00     0.127 S 
ATOM     99  O   UNL A   1      43.631  22.878  35.060  1.00  0.00    -0.237 OA
ATOM    100  O   UNL A   1      45.233  23.406  36.852  1.00  0.00    -0.237 OA
ATOM    101  O   UNL A   1      43.426  24.985  36.350  1.00  0.00    -0.744 OA
ENDBRANCH  95  98
ENDBRANCH  68  91
ENDBRANCH  42  43
ENDBRANCH  34  37
ENDBRANCH  32  33
ENDBRANCH  31  32
ENDBRANCH   1  31
TORSDOF 17
ENDMDL
MODEL 2
REMARK VINA RESULT:     -13.8      4.051      9.699
REMARK SMILES Cc1ccc(C(=O)NC2CC2)cc1NC(=O)[C@@H]1[C@@H](C(=O)NCCCNC(=O)c2ccc(-c3c4nc(c(-c5cccc(S(=O)(=O)[O-])c5F)c5ccc([nH]5)c(-c5cccc(S(=O)(=O)[O-])c5F)c5nc(c(-c6cccc(S(=O)(=O)[O-])c6F)c6ccc3[nH]6)C=C5)C=C4)cc2)[C@H]2C=C[C@@H]1C2
REMARK SMILES IDX 22 1 21 2 19 3 20 4 18 6 17 7 94 8 91 9 93 10 95 11 92 12
REMARK SMILES IDX 15 13 14 14 16 16 13 17 1 18 2 19 3 20 4 21 12 22 5 23 6 24
REMARK SMILES IDX 7 25 8 26 9 28 10 29 11 30 23 31 24 32 25 33 26 34 27 36
REMARK SMILES IDX 28 37 29 38 90 39 30 40 89 41 31 42 32 43 33 44 83 45 34 46
REMARK SMILES IDX 88 47 82 48 84 49 35 50 87 51 81 52 80 53 36 55 68 56 48 57
REMARK SMILES IDX 67 58 49 59 52 60 66 61 85 62 50 63 51 64 65 66 86 67 53 68
REMARK SMILES IDX 37 69 38 70 46 71 39 72 41 73 47 74 40 75 42 76 43 77 44 78
REMARK SMILES IDX 45 79 69 80 70 81 78 82 71 83 73 84 79 85 72 86 74 87 75 88
REMARK SMILES IDX 76 89 77 90 54 91 55 92 63 93 56 94 58 95 64 96 57 97 59 98
REMARK SMILES IDX 60 99 61 100 62 101
REMARK H PARENT 21 5 14 15 8 27 25 35 84 54 52 65
REMARK Flexibility Score: inf
ROOT
ATOM      1  C   UNL A   1      35.601  21.638  25.773  1.00  0.00     0.117 C 
ENDROOT
BRANCH   1   2
ATOM      2  N   UNL A   1      35.268  23.045  25.906  1.00  0.00    -0.356 N 
ATOM      3  C   UNL A   1      34.402  23.851  25.248  1.00  0.00     0.224 C 
ATOM      4  O   UNL A   1      34.436  25.049  25.557  1.00  0.00    -0.275 OA
ATOM      5  H   UNL A   1      35.774  23.504  26.616  1.00  0.00     0.163 HD
BRANCH   3   6
ATOM      6  C   UNL A   1      33.466  23.405  24.126  1.00  0.00     0.098 C 
ATOM      7  C   UNL A   1      32.597  24.649  23.690  1.00  0.00     0.099 C 
ATOM      8  C   UNL A   1      31.168  24.058  23.582  1.00  0.00     0.025 C 
ATOM      9  C   UNL A   1      32.374  22.339  24.359  1.00  0.00     0.025 C 
ATOM     10  C   UNL A   1      30.674  23.772  24.978  1.00  0.00    -0.027 C 
ATOM     11  C   UNL A   1      31.461  22.617  23.156  1.00  0.00     0.017 C 
ATOM     12  C   UNL A   1      31.406  22.755  25.449  1.00  0.00    -0.027 C 
BRANCH   7  13
ATOM     13  C   UNL A   1      32.998  25.343  22.400  1.00  0.00     0.228 C 
ATOM     14  N   UNL A   1      32.545  26.612  22.107  1.00  0.00    -0.326 N 
ATOM     15  H   UNL A   1      32.845  26.947  21.231  1.00  0.00     0.169 HD
ATOM     16  O   UNL A   1      33.646  24.757  21.529  1.00  0.00    -0.274 OA
BRANCH  14  17
ATOM     17  C   UNL A   1      31.734  27.527  22.819  1.00  0.00     0.044 A 
ATOM     18  C   UNL A   1      33.713  28.188  24.339  1.00  0.00     0.046 C 
ATOM     19  C   UNL A   1      32.310  28.340  23.811  1.00  0.00    -0.027 A 
ATOM     20  C   UNL A   1      31.531  29.359  24.387  1.00  0.00     0.006 A 
ATOM     21  C   UNL A   1      30.206  29.566  23.993  1.00  0.00     0.014 A 
ATOM     22  C   UNL A   1      30.356  27.656  22.567  1.00  0.00     0.040 A 
ATOM     23  C   UNL A   1      29.587  28.706  23.081  1.00  0.00     0.041 A 
BRANCH  23  24
ATOM     24  C   UNL A   1      28.148  28.989  22.747  1.00  0.00     0.251 C 
ATOM     25  O   UNL A   1      27.277  28.284  23.262  1.00  0.00    -0.269 OA
ATOM     26  N   UNL A   1      27.719  30.017  21.930  1.00  0.00    -0.349 N 
ATOM     27  H   UNL A   1      26.743  30.061  21.808  1.00  0.00     0.164 HD
BRANCH  26  28
ATOM     28  C   UNL A   1      28.442  31.019  21.237  1.00  0.00     0.082 C 
ATOM     29  C   UNL A   1      27.737  32.259  20.763  1.00  0.00     0.027 C 
ATOM     30  C   UNL A   1      28.785  32.354  21.830  1.00  0.00     0.027 C 
ENDBRANCH  26  28
ENDBRANCH  23  24
ENDBRANCH  14  17
ENDBRANCH   7  13
ENDBRANCH   3   6
ENDBRANCH   1   2
BRANCH   1  31
ATOM     31  C   UNL A   1      36.959  21.440  25.124  1.00  0.00     0.042 C 
BRANCH  31  32
ATOM     32  C   UNL A   1      37.850  22.646  25.357  1.00  0.00     0.118 C 
BRANCH  32  33
ATOM     33  N   UNL A   1      39.125  22.305  25.972  1.00  0.00    -0.352 N 
ATOM     34  C   UNL A   1      40.121  23.138  26.448  1.00  0.00     0.251 C 
ATOM     35  H   UNL A   1      39.305  21.342  26.062  1.00  0.00     0.163 HD
ATOM     36  O   UNL A   1      41.233  22.661  26.666  1.00  0.00    -0.269 OA
BRANCH  34  37
ATOM     37  C   UNL A   1      39.798  24.537  26.818  1.00  0.00     0.039 A 
ATOM     38  C   UNL A   1      40.546  25.559  26.218  1.00  0.00     0.014 A 
ATOM     39  C   UNL A   1      38.982  24.819  27.908  1.00  0.00     0.014 A 
ATOM     40  C   UNL A   1      40.688  26.781  26.869  1.00  0.00     0.010 A 
ATOM     41  C   UNL A   1      39.200  25.978  28.610  1.00  0.00     0.010 A 
ATOM     42  C   UNL A   1      40.103  26.924  28.120  1.00  0.00    -0.014 A 
BRANCH  42  43
ATOM     43  C   UNL A   1      40.336  28.027  29.028  1.00  0.00     0.031 A 
ATOM     44  C   UNL A   1      39.439  29.191  28.983  1.00  0.00     0.074 A 
ATOM     45  C   UNL A   1      41.186  27.817  30.056  1.00  0.00     0.049 A 
ATOM     46  N   UNL A   1      39.715  30.339  29.491  1.00  0.00    -0.248 NA
ATOM     47  C   UNL A   1      38.130  29.130  28.339  1.00  0.00     0.031 C 
ATOM     48  C   UNL A   1      41.259  28.550  31.311  1.00  0.00     0.029 A 
ATOM     49  N   UNL A   1      42.295  26.963  30.093  1.00  0.00    -0.354 N 
ATOM     50  C   UNL A   1      38.541  31.064  29.504  1.00  0.00     0.074 A 
ATOM     51  C   UNL A   1      37.608  30.302  28.707  1.00  0.00     0.031 C 
ATOM     52  C   UNL A   1      42.464  28.333  31.865  1.00  0.00     0.029 A 
ATOM     53  C   UNL A   1      43.259  27.611  30.883  1.00  0.00     0.049 A 
ATOM     54  H   UNL A   1      42.381  26.086  29.654  1.00  0.00     0.167 HD
ATOM     55  C   UNL A   1      38.427  32.135  30.337  1.00  0.00     0.034 A 
ATOM     56  C   UNL A   1      44.470  28.014  30.394  1.00  0.00     0.034 A 
ATOM     57  C   UNL A   1      39.661  32.321  31.109  1.00  0.00     0.049 A 
ATOM     58  C   UNL A   1      44.654  29.523  30.468  1.00  0.00     0.074 A 
ATOM     59  C   UNL A   1      40.046  31.880  32.365  1.00  0.00     0.029 A 
ATOM     60  N   UNL A   1      40.823  32.728  30.464  1.00  0.00    -0.354 N 
ATOM     61  N   UNL A   1      43.715  30.357  30.821  1.00  0.00    -0.248 NA
ATOM     62  C   UNL A   1      45.895  30.214  30.128  1.00  0.00     0.031 C 
ATOM     63  C   UNL A   1      41.464  31.926  32.432  1.00  0.00     0.029 A 
ATOM     64  C   UNL A   1      41.941  32.426  31.231  1.00  0.00     0.049 A 
ATOM     65  H   UNL A   1      40.849  33.169  29.585  1.00  0.00     0.167 HD
ATOM     66  C   UNL A   1      44.134  31.646  30.633  1.00  0.00     0.074 A 
ATOM     67  C   UNL A   1      45.536  31.503  30.277  1.00  0.00     0.031 C 
ATOM     68  C   UNL A   1      43.279  32.711  30.722  1.00  0.00     0.034 A 
BRANCH  55  69
ATOM     69  C   UNL A   1      37.098  32.762  30.711  1.00  0.00     0.023 A 
ATOM     70  C   UNL A   1      36.617  32.536  32.020  1.00  0.00     0.012 A 
ATOM     71  C   UNL A   1      36.256  33.512  29.857  1.00  0.00     0.148 A 
ATOM     72  C   UNL A   1      35.341  32.931  32.431  1.00  0.00     0.002 A 
ATOM     73  C   UNL A   1      34.952  33.846  30.243  1.00  0.00     0.091 A 
ATOM     74  F   UNL A   1      36.734  33.970  28.693  1.00  0.00    -0.205 F 
ATOM     75  C   UNL A   1      34.492  33.552  31.530  1.00  0.00     0.022 A 
BRANCH  73  76
ATOM     76  S   UNL A   1      33.755  34.555  29.098  1.00  0.00     0.127 S 
ATOM     77  O   UNL A   1      34.489  35.694  28.541  1.00  0.00    -0.237 OA
ATOM     78  O   UNL A   1      33.529  33.462  28.157  1.00  0.00    -0.237 OA
ATOM     79  O   UNL A   1      32.609  34.939  29.915  1.00  0.00    -0.744 OA
ENDBRANCH  73  76
ENDBRANCH  55  69
BRANCH  56  80
ATOM     80  C   UNL A   1      45.000  27.114  29.325  1.00  0.00     0.023 A 
ATOM     81  C   UNL A   1      45.265  25.775  29.708  1.00  0.00     0.012 A 
ATOM     82  C   UNL A   1      44.828  27.406  27.961  1.00  0.00     0.148 A 
ATOM     83  C   UNL A   1      45.190  24.734  28.780  1.00  0.00     0.002 A 
ATOM     84  C   UNL A   1      44.762  26.360  27.039  1.00  0.00     0.091 A 
ATOM     85  F   UNL A   1      44.644  28.680  27.595  1.00  0.00    -0.205 F 
ATOM     86  C   UNL A   1      44.895  25.024  27.454  1.00  0.00     0.022 A 
BRANCH  84  87
ATOM     87  S   UNL A   1      44.372  26.653  25.308  1.00  0.00     0.127 S 
ATOM     88  O   UNL A   1      45.702  26.814  24.732  1.00  0.00    -0.237 OA
ATOM     89  O   UNL A   1      43.684  25.420  24.928  1.00  0.00    -0.237 OA
ATOM     90  O   UNL A   1      43.521  27.833  25.315  1.00  0.00    -0.744 OA
ENDBRANCH  84  87
ENDBRANCH  56  80
BRANCH  68  91
ATOM     91  C   UNL A   1      43.606  34.134  30.312  1.00  0.00     0.023 A 
ATOM     92  C   UNL A   1      44.074  35.091  31.229  1.00  0.00     0.012 A 
ATOM     93  C   UNL A   1      43.614  34.501  28.940  1.00  0.00     0.148 A 
ATOM     94  C   UNL A   1      44.478  36.366  30.819  1.00  0.00     0.002 A 
ATOM     95  C   UNL A   1      44.133  35.724  28.527  1.00  0.00     0.091 A 
ATOM     96  F   UNL A   1      43.102  33.667  28.022  1.00  0.00    -0.205 F 
ATOM     97  C   UNL A   1      44.536  36.673  29.466  1.00  0.00     0.022 A 
BRANCH  95  98
ATOM     98  S   UNL A   1      44.466  36.040  26.788  1.00  0.00     0.127 S 
ATOM     99  O   UNL A   1      43.117  36.132  26.231  1.00  0.00    -0.237 OA
ATOM    100  O   UNL A   1      45.194  37.310  26.830  1.00  0.00    -0.237 OA
ATOM    101  O   UNL A   1      45.270  34.907  26.348  1.00  0.00    -0.744 OA
ENDBRANCH  95  98
ENDBRANCH  68  91
ENDBRANCH  42  43
ENDBRANCH  34  37
ENDBRANCH  32  33
ENDBRANCH  31  32
ENDBRANCH   1  31
TORSDOF 17
ENDMDL
MODEL 3
REMARK VINA RESULT:     -13.4      4.212      9.979
REMARK SMILES Cc1ccc(C(=O)NC2CC2)cc1NC(=O)[C@@H]1[C@@H](C(=O)NCCCNC(=O)c2ccc(-c3c4nc(c(-c5cccc(S(=O)(=O)[O-])c5F)c5ccc([nH]5)c(-c5cccc(S(=O)(=O)[O-])c5F)c5nc(c(-c6cccc(S(=O)(=O)[O-])c6F)c6ccc3[nH]6)C=C5)C=C4)cc2)[C@H]2C=C[C@@H]1C2
REMARK SMILES IDX 22 1 21 2 19 3 20 4 18 6 17 7 94 8 91 9 93 10 95 11 92 12
REMARK SMILES IDX 15 13 14 14 16 16 13 17 1 18 2 19 3 20 4 21 12 22 5 23 6 24
REMARK SMILES IDX 7 25 8 26 9 28 10 29 11 30 23 31 24 32 25 33 26 34 27 36
REMARK SMILES IDX 28 37 29 38 90 39 30 40 89 41 31 42 32 43 33 44 83 45 34 46
REMARK SMILES IDX 88 47 82 48 84 49 35 50 87 51 81 52 80 53 36 55 68 56 48 57
REMARK SMILES IDX 67 58 49 59 52 60 66 61 85 62 50 63 51 64 65 66 86 67 53 68
REMARK SMILES IDX 37 69 38 70 46 71 39 72 41 73 47 74 40 75 42 76 43 77 44 78
REMARK SMILES IDX 45 79 69 80 70 81 78 82 71 83 73 84 79 85 72 86 74 87 75 88
REMARK SMILES IDX 76 89 77 90 54 91 55 92 63 93 56 94 58 95 64 96 57 97 59 98
REMARK SMILES IDX 60 99 61 100 62 101
REMARK H PARENT 21 5 14 15 8 27 25 35 84 54 52 65
REMARK Flexibility Score: inf
ROOT
ATOM      1  C   UNL A   1      36.812  22.688  24.036  1.00  0.00     0.117 C 
ENDROOT
BRANCH   1   2
ATOM      2  N   UNL A   1      36.047  23.696  24.747  1.00  0.00    -0.356 N 
ATOM      3  C   UNL A   1      34.784  24.163  24.603  1.00  0.00     0.224 C 
ATOM      4  O   UNL A   1      34.471  25.114  25.332  1.00  0.00    -0.275 OA
ATOM      5  H   UNL A   1      36.546  24.127  25.479  1.00  0.00     0.163 HD
BRANCH   3   6
ATOM      6  C   UNL A   1      33.773  23.658  23.575  1.00  0.00     0.098 C 
ATOM      7  C   UNL A   1      32.764  24.832  23.264  1.00  0.00     0.099 C 
ATOM      8  C   UNL A   1      31.383  24.126  23.294  1.00  0.00     0.025 C 
ATOM      9  C   UNL A   1      32.801  22.502  23.896  1.00  0.00     0.025 C 
ATOM     10  C   UNL A   1      31.067  23.778  24.726  1.00  0.00    -0.027 C 
ATOM     11  C   UNL A   1      31.745  22.722  22.804  1.00  0.00     0.017 C 
ATOM     12  C   UNL A   1      31.925  22.818  25.092  1.00  0.00    -0.027 C 
BRANCH   7  13
ATOM     13  C   UNL A   1      32.966  25.578  21.957  1.00  0.00     0.228 C 
ATOM     14  N   UNL A   1      32.405  26.821  21.755  1.00  0.00    -0.326 N 
ATOM     15  H   UNL A   1      32.579  27.193  20.860  1.00  0.00     0.169 HD
ATOM     16  O   UNL A   1      33.541  25.053  21.000  1.00  0.00    -0.274 OA
BRANCH  14  17
ATOM     17  C   UNL A   1      31.628  27.667  22.583  1.00  0.00     0.044 A 
ATOM     18  C   UNL A   1      33.653  28.119  24.119  1.00  0.00     0.046 C 
ATOM     19  C   UNL A   1      32.243  28.355  23.644  1.00  0.00    -0.027 A 
ATOM     20  C   UNL A   1      31.498  29.318  24.347  1.00  0.00     0.006 A 
ATOM     21  C   UNL A   1      30.170  29.592  24.009  1.00  0.00     0.014 A 
ATOM     22  C   UNL A   1      30.249  27.848  22.379  1.00  0.00     0.040 A 
ATOM     23  C   UNL A   1      29.513  28.849  23.023  1.00  0.00     0.041 A 
BRANCH  23  24
ATOM     24  C   UNL A   1      28.073  29.194  22.757  1.00  0.00     0.251 C 
ATOM     25  O   UNL A   1      27.198  28.522  23.307  1.00  0.00    -0.269 OA
ATOM     26  N   UNL A   1      27.651  30.245  21.966  1.00  0.00    -0.349 N 
ATOM     27  H   UNL A   1      26.674  30.330  21.889  1.00  0.00     0.164 HD
BRANCH  26  28
ATOM     28  C   UNL A   1      28.383  31.221  21.246  1.00  0.00     0.082 C 
ATOM     29  C   UNL A   1      27.656  32.325  20.530  1.00  0.00     0.027 C 
ATOM     30  C   UNL A   1      28.539  32.643  21.700  1.00  0.00     0.027 C 
ENDBRANCH  26  28
ENDBRANCH  23  24
ENDBRANCH  14  17
ENDBRANCH   7  13
ENDBRANCH   3   6
ENDBRANCH   1   2
BRANCH   1  31
ATOM     31  C   UNL A   1      37.660  21.856  24.981  1.00  0.00     0.042 C 
BRANCH  31  32
ATOM     32  C   UNL A   1      37.937  22.612  26.267  1.00  0.00     0.118 C 
BRANCH  32  33
ATOM     33  N   UNL A   1      39.330  22.544  26.682  1.00  0.00    -0.352 N 
ATOM     34  C   UNL A   1      40.247  23.565  26.854  1.00  0.00     0.251 C 
ATOM     35  H   UNL A   1      39.670  21.639  26.869  1.00  0.00     0.163 HD
ATOM     36  O   UNL A   1      41.440  23.278  26.931  1.00  0.00    -0.269 OA
BRANCH  34  37
ATOM     37  C   UNL A   1      39.773  24.951  27.081  1.00  0.00     0.039 A 
ATOM     38  C   UNL A   1      40.390  25.978  26.355  1.00  0.00     0.014 A 
ATOM     39  C   UNL A   1      38.947  25.258  28.156  1.00  0.00     0.014 A 
ATOM     40  C   UNL A   1      40.402  27.272  26.868  1.00  0.00     0.010 A 
ATOM     41  C   UNL A   1      39.042  26.503  28.725  1.00  0.00     0.010 A 
ATOM     42  C   UNL A   1      39.824  27.485  28.113  1.00  0.00    -0.014 A 
BRANCH  42  43
ATOM     43  C   UNL A   1      39.944  28.699  28.891  1.00  0.00     0.031 A 
ATOM     44  C   UNL A   1      38.978  29.786  28.672  1.00  0.00     0.074 A 
ATOM     45  C   UNL A   1      40.757  28.669  29.969  1.00  0.00     0.049 A 
ATOM     46  N   UNL A   1      39.157  31.001  29.051  1.00  0.00    -0.248 NA
ATOM     47  C   UNL A   1      37.707  29.561  27.990  1.00  0.00     0.031 C 
ATOM     48  C   UNL A   1      40.724  29.546  31.130  1.00  0.00     0.029 A 
ATOM     49  N   UNL A   1      41.915  27.903  30.150  1.00  0.00    -0.354 N 
ATOM     50  C   UNL A   1      37.939  31.641  28.931  1.00  0.00     0.074 A 
ATOM     51  C   UNL A   1      37.095  30.729  28.195  1.00  0.00     0.031 C 
ATOM     52  C   UNL A   1      41.914  29.478  31.751  1.00  0.00     0.029 A 
ATOM     53  C   UNL A   1      42.798  28.703  30.894  1.00  0.00     0.049 A 
ATOM     54  H   UNL A   1      42.077  26.989  29.823  1.00  0.00     0.167 HD
ATOM     55  C   UNL A   1      37.719  32.791  29.626  1.00  0.00     0.034 A 
ATOM     56  C   UNL A   1      44.002  29.129  30.408  1.00  0.00     0.034 A 
ATOM     57  C   UNL A   1      38.902  33.150  30.417  1.00  0.00     0.049 A 
ATOM     58  C   UNL A   1      44.087  30.645  30.309  1.00  0.00     0.074 A 
ATOM     59  C   UNL A   1      39.255  32.885  31.731  1.00  0.00     0.029 A 
ATOM     60  N   UNL A   1      40.064  33.557  29.775  1.00  0.00    -0.354 N 
ATOM     61  N   UNL A   1      43.081  31.448  30.523  1.00  0.00    -0.248 NA
ATOM     62  C   UNL A   1      45.296  31.375  29.937  1.00  0.00     0.031 C 
ATOM     63  C   UNL A   1      40.663  33.036  31.847  1.00  0.00     0.029 A 
ATOM     64  C   UNL A   1      41.161  33.424  30.615  1.00  0.00     0.049 A 
ATOM     65  H   UNL A   1      40.103  33.894  28.851  1.00  0.00     0.167 HD
ATOM     66  C   UNL A   1      43.426  32.732  30.199  1.00  0.00     0.074 A 
ATOM     67  C   UNL A   1      44.849  32.645  29.918  1.00  0.00     0.031 C 
ATOM     68  C   UNL A   1      42.501  33.739  30.127  1.00  0.00     0.034 A 
BRANCH  55  69
ATOM     69  C   UNL A   1      36.337  33.365  29.870  1.00  0.00     0.023 A 
ATOM     70  C   UNL A   1      35.668  33.943  28.769  1.00  0.00     0.012 A 
ATOM     71  C   UNL A   1      35.664  33.428  31.113  1.00  0.00     0.148 A 
ATOM     72  C   UNL A   1      34.461  34.637  28.901  1.00  0.00     0.002 A 
ATOM     73  C   UNL A   1      34.494  34.181  31.260  1.00  0.00     0.091 A 
ATOM     74  F   UNL A   1      36.114  32.703  32.145  1.00  0.00    -0.205 F 
ATOM     75  C   UNL A   1      33.893  34.790  30.155  1.00  0.00     0.022 A 
BRANCH  73  76
ATOM     76  S   UNL A   1      33.754  34.517  32.869  1.00  0.00     0.127 S 
ATOM     77  O   UNL A   1      34.635  35.557  33.409  1.00  0.00    -0.237 OA
ATOM     78  O   UNL A   1      32.417  34.983  32.514  1.00  0.00    -0.237 OA
ATOM     79  O   UNL A   1      33.816  33.257  33.601  1.00  0.00    -0.744 OA
ENDBRANCH  73  76
ENDBRANCH  55  69
BRANCH  56  80
ATOM     80  C   UNL A   1      44.638  28.149  29.476  1.00  0.00     0.023 A 
ATOM     81  C   UNL A   1      44.885  26.855  29.999  1.00  0.00     0.012 A 
ATOM     82  C   UNL A   1      44.585  28.316  28.081  1.00  0.00     0.148 A 
ATOM     83  C   UNL A   1      44.906  25.735  29.166  1.00  0.00     0.002 A 
ATOM     84  C   UNL A   1      44.616  27.191  27.254  1.00  0.00     0.091 A 
ATOM     85  F   UNL A   1      44.418  29.548  27.587  1.00  0.00    -0.205 F 
ATOM     86  C   UNL A   1      44.728  25.900  27.798  1.00  0.00     0.022 A 
BRANCH  84  87
ATOM     87  S   UNL A   1      44.379  27.321  25.477  1.00  0.00     0.127 S 
ATOM     88  O   UNL A   1      43.137  28.083  25.403  1.00  0.00    -0.237 OA
ATOM     89  O   UNL A   1      45.573  28.051  25.053  1.00  0.00    -0.237 OA
ATOM     90  O   UNL A   1      44.322  25.945  25.008  1.00  0.00    -0.744 OA
ENDBRANCH  84  87
ENDBRANCH  56  80
BRANCH  68  91
ATOM     91  C   UNL A   1      42.756  35.124  29.564  1.00  0.00     0.023 A 
ATOM     92  C   UNL A   1      42.148  35.575  28.378  1.00  0.00     0.012 A 
ATOM     93  C   UNL A   1      43.487  36.081  30.315  1.00  0.00     0.148 A 
ATOM     94  C   UNL A   1      42.303  36.892  27.929  1.00  0.00     0.002 A 
ATOM     95  C   UNL A   1      43.533  37.416  29.928  1.00  0.00     0.091 A 
ATOM     96  F   UNL A   1      44.160  35.697  31.411  1.00  0.00    -0.205 F 
ATOM     97  C   UNL A   1      42.970  37.820  28.717  1.00  0.00     0.022 A 
BRANCH  95  98
ATOM     98  S   UNL A   1      44.153  38.677  31.050  1.00  0.00     0.127 S 
ATOM     99  O   UNL A   1      43.499  38.317  32.306  1.00  0.00    -0.237 OA
ATOM    100  O   UNL A   1      45.598  38.440  31.026  1.00  0.00    -0.237 OA
ATOM    101  O   UNL A   1      43.748  39.943  30.452  1.00  0.00    -0.744 OA
ENDBRANCH  95  98
ENDBRANCH  68  91
ENDBRANCH  42  43
ENDBRANCH  34  37
ENDBRANCH  32  33
ENDBRANCH  31  32
ENDBRANCH   1  31
TORSDOF 17
ENDMDL
