MODEL 1
REMARK VINA RESULT:     -10.9      0.000      0.000
REMARK SMILES CC[C@@H](O)C[NH+]1CC(n2cc(C(=O)NCCCNC(=O)c3ccc(-c4c5nc(c(-c6cccc(S(=O)(=O)[O-])c6F)c6ccc([nH]6)c(-c6cccc(S(=O)(=O)[O-])c6F)c6nc(c(-c7cccc(S(=O)(=O)[O-])c7F)c7ccc4[nH]7)C=C6)C=C5)cc3)nn2)C1
REMARK SMILES IDX 15 1 14 2 12 3 13 4 11 6 9 7 10 8 85 9 84 10 8 11 6 12 7 13
REMARK SMILES IDX 86 14 5 16 3 17 2 18 1 19 4 20 16 22 17 23 18 24 19 25 20 27
REMARK SMILES IDX 21 28 22 29 83 30 23 31 82 32 24 33 25 34 26 35 76 36 27 37
REMARK SMILES IDX 81 38 75 39 77 40 28 41 80 42 74 43 73 44 29 46 61 47 41 48
REMARK SMILES IDX 60 49 42 50 45 51 59 52 78 53 43 54 44 55 58 57 79 58 46 59
REMARK SMILES IDX 30 60 31 61 39 62 32 63 34 64 40 65 33 66 35 67 36 68 37 69
REMARK SMILES IDX 38 70 62 71 63 72 71 73 64 74 66 75 72 76 65 77 67 78 68 79
REMARK SMILES IDX 69 80 70 81 47 82 48 83 56 84 49 85 51 86 57 87 50 88 52 89
REMARK SMILES IDX 53 90 54 91 55 92
REMARK H PARENT 14 5 6 15 4 21 18 26 77 45 45 56
REMARK Flexibility Score: inf
ROOT
ATOM      1  C   UNL A   1      32.290  29.996  25.709  1.00  0.00     0.118 C 
ENDROOT
BRANCH   1   2
ATOM      2  N   UNL A   1      33.230  29.739  24.629  1.00  0.00    -0.351 N 
ATOM      3  C   UNL A   1      33.204  28.781  23.638  1.00  0.00     0.273 C 
ATOM      4  O   UNL A   1      33.946  28.944  22.665  1.00  0.00    -0.267 OA
ATOM      5  H   UNL A   1      34.007  30.343  24.602  1.00  0.00     0.163 HD
BRANCH   3   6
ATOM      6  C   UNL A   1      32.297  27.647  23.725  1.00  0.00     0.170 A 
ATOM      7  N   UNL A   1      31.324  25.744  24.092  1.00  0.00    -0.237 N 
ATOM      8  C   UNL A   1      32.551  26.342  24.095  1.00  0.00     0.145 A 
ATOM      9  N   UNL A   1      30.366  26.587  23.691  1.00  0.00    -0.066 NA
ATOM     10  N   UNL A   1      30.955  27.747  23.418  1.00  0.00    -0.125 NA
BRANCH   7  11
ATOM     11  C   UNL A   1      31.110  24.448  24.643  1.00  0.00     0.218 C 
ATOM     12  N   UNL A   1      31.626  22.433  24.441  1.00  0.00    -0.329 N 
ATOM     13  C   UNL A   1      32.338  23.612  25.056  1.00  0.00     0.296 C 
ATOM     14  C   UNL A   1      31.006  23.409  23.503  1.00  0.00     0.296 C 
ATOM     15  H   UNL A   1      31.069  21.773  24.983  1.00  0.00     0.348 HD
BRANCH  12  16
ATOM     16  C   UNL A   1      32.584  21.552  23.758  1.00  0.00     0.294 C 
BRANCH  16  17
ATOM     17  C   UNL A   1      32.896  20.236  24.521  1.00  0.00     0.169 C 
BRANCH  17  18
ATOM     18  C   UNL A   1      34.177  20.306  25.365  1.00  0.00     0.034 C 
ATOM     19  C   UNL A   1      35.249  21.221  24.788  1.00  0.00     0.007 C 
ENDBRANCH  17  18
BRANCH  17  20
ATOM     20  O   UNL A   1      31.783  19.959  25.382  1.00  0.00    -0.387 OA
ATOM     21  H   UNL A   1      31.391  20.794  25.682  1.00  0.00     0.211 HD
ENDBRANCH  17  20
ENDBRANCH  16  17
ENDBRANCH  12  16
ENDBRANCH   7  11
ENDBRANCH   3   6
ENDBRANCH   1   2
BRANCH   1  22
ATOM     22  C   UNL A   1      32.789  29.506  27.071  1.00  0.00     0.042 C 
BRANCH  22  23
ATOM     23  C   UNL A   1      34.170  30.049  27.402  1.00  0.00     0.118 C 
BRANCH  23  24
ATOM     24  N   UNL A   1      34.117  31.342  28.101  1.00  0.00    -0.352 N 
ATOM     25  C   UNL A   1      34.886  31.780  29.166  1.00  0.00     0.251 C 
ATOM     26  H   UNL A   1      33.447  31.980  27.767  1.00  0.00     0.163 HD
ATOM     27  O   UNL A   1      34.518  32.728  29.851  1.00  0.00    -0.269 OA
BRANCH  25  28
ATOM     28  C   UNL A   1      36.159  31.095  29.450  1.00  0.00     0.039 A 
ATOM     29  C   UNL A   1      36.244  29.707  29.601  1.00  0.00     0.014 A 
ATOM     30  C   UNL A   1      37.295  31.889  29.532  1.00  0.00     0.014 A 
ATOM     31  C   UNL A   1      37.503  29.131  29.764  1.00  0.00     0.010 A 
ATOM     32  C   UNL A   1      38.529  31.313  29.465  1.00  0.00     0.010 A 
ATOM     33  C   UNL A   1      38.640  29.948  29.681  1.00  0.00    -0.014 A 
BRANCH  33  34
ATOM     34  C   UNL A   1      39.990  29.404  29.682  1.00  0.00     0.031 A 
ATOM     35  C   UNL A   1      40.541  29.227  31.051  1.00  0.00     0.074 A 
ATOM     36  C   UNL A   1      40.534  28.861  28.568  1.00  0.00     0.049 A 
ATOM     37  N   UNL A   1      41.474  29.915  31.621  1.00  0.00    -0.248 NA
ATOM     38  C   UNL A   1      39.819  28.332  31.975  1.00  0.00     0.031 C 
ATOM     39  C   UNL A   1      39.895  28.674  27.255  1.00  0.00     0.029 A 
ATOM     40  N   UNL A   1      41.712  28.202  28.411  1.00  0.00    -0.354 N 
ATOM     41  C   UNL A   1      41.648  29.324  32.873  1.00  0.00     0.074 A 
ATOM     42  C   UNL A   1      40.436  28.599  33.127  1.00  0.00     0.031 C 
ATOM     43  C   UNL A   1      40.567  27.734  26.555  1.00  0.00     0.029 A 
ATOM     44  C   UNL A   1      41.766  27.378  27.286  1.00  0.00     0.049 A 
ATOM     45  H   UNL A   1      42.465  28.298  29.039  1.00  0.00     0.167 HD
ATOM     46  C   UNL A   1      42.896  29.199  33.412  1.00  0.00     0.034 A 
ATOM     47  C   UNL A   1      42.698  26.430  27.012  1.00  0.00     0.034 A 
ATOM     48  C   UNL A   1      43.834  30.037  32.692  1.00  0.00     0.049 A 
ATOM     49  C   UNL A   1      43.872  26.722  27.866  1.00  0.00     0.074 A 
ATOM     50  C   UNL A   1      43.928  31.381  32.393  1.00  0.00     0.029 A 
ATOM     51  N   UNL A   1      44.656  29.392  31.797  1.00  0.00    -0.354 N 
ATOM     52  N   UNL A   1      44.601  27.794  27.738  1.00  0.00    -0.248 NA
ATOM     53  C   UNL A   1      43.943  26.062  29.157  1.00  0.00     0.031 C 
ATOM     54  C   UNL A   1      44.431  31.428  31.059  1.00  0.00     0.029 A 
ATOM     55  C   UNL A   1      44.705  30.123  30.645  1.00  0.00     0.049 A 
ATOM     56  H   UNL A   1      45.128  28.545  31.959  1.00  0.00     0.167 HD
ATOM     57  C   UNL A   1      44.819  28.210  29.044  1.00  0.00     0.074 A 
ATOM     58  C   UNL A   1      44.493  27.048  29.872  1.00  0.00     0.031 C 
ATOM     59  C   UNL A   1      44.934  29.538  29.341  1.00  0.00     0.034 A 
BRANCH  46  60
ATOM     60  C   UNL A   1      43.397  28.010  34.230  1.00  0.00     0.023 A 
ATOM     61  C   UNL A   1      44.056  28.324  35.444  1.00  0.00     0.012 A 
ATOM     62  C   UNL A   1      43.537  26.679  33.772  1.00  0.00     0.148 A 
ATOM     63  C   UNL A   1      44.922  27.424  36.076  1.00  0.00     0.002 A 
ATOM     64  C   UNL A   1      44.363  25.770  34.428  1.00  0.00     0.091 A 
ATOM     65  F   UNL A   1      42.944  26.276  32.653  1.00  0.00    -0.205 F 
ATOM     66  C   UNL A   1      45.090  26.150  35.556  1.00  0.00     0.022 A 
BRANCH  64  67
ATOM     67  S   UNL A   1      44.595  24.090  33.821  1.00  0.00     0.127 S 
ATOM     68  O   UNL A   1      43.275  23.514  34.059  1.00  0.00    -0.237 OA
ATOM     69  O   UNL A   1      44.928  24.328  32.417  1.00  0.00    -0.237 OA
ATOM     70  O   UNL A   1      45.683  23.524  34.608  1.00  0.00    -0.744 OA
ENDBRANCH  64  67
ENDBRANCH  46  60
BRANCH  47  71
ATOM     71  C   UNL A   1      42.571  25.136  26.295  1.00  0.00     0.023 A 
ATOM     72  C   UNL A   1      43.562  24.746  25.370  1.00  0.00     0.012 A 
ATOM     73  C   UNL A   1      41.651  24.158  26.729  1.00  0.00     0.148 A 
ATOM     74  C   UNL A   1      43.656  23.421  24.923  1.00  0.00     0.002 A 
ATOM     75  C   UNL A   1      41.745  22.843  26.280  1.00  0.00     0.091 A 
ATOM     76  F   UNL A   1      40.744  24.495  27.657  1.00  0.00    -0.205 F 
ATOM     77  C   UNL A   1      42.755  22.467  25.385  1.00  0.00     0.022 A 
BRANCH  75  78
ATOM     78  S   UNL A   1      40.638  21.552  26.863  1.00  0.00     0.127 S 
ATOM     79  O   UNL A   1      39.337  22.045  26.409  1.00  0.00    -0.237 OA
ATOM     80  O   UNL A   1      41.135  20.383  26.142  1.00  0.00    -0.237 OA
ATOM     81  O   UNL A   1      40.800  21.518  28.310  1.00  0.00    -0.744 OA
ENDBRANCH  75  78
ENDBRANCH  47  71
BRANCH  59  82
ATOM     82  C   UNL A   1      45.105  30.509  28.202  1.00  0.00     0.023 A 
ATOM     83  C   UNL A   1      44.019  31.073  27.500  1.00  0.00     0.012 A 
ATOM     84  C   UNL A   1      46.398  30.995  27.956  1.00  0.00     0.148 A 
ATOM     85  C   UNL A   1      44.226  32.091  26.562  1.00  0.00     0.002 A 
ATOM     86  C   UNL A   1      46.595  32.036  27.062  1.00  0.00     0.091 A 
ATOM     87  F   UNL A   1      47.418  30.444  28.634  1.00  0.00    -0.205 F 
ATOM     88  C   UNL A   1      45.513  32.583  26.354  1.00  0.00     0.022 A 
BRANCH  86  89
ATOM     89  S   UNL A   1      48.208  32.791  26.857  1.00  0.00     0.127 S 
ATOM     90  O   UNL A   1      47.956  33.762  25.795  1.00  0.00    -0.237 OA
ATOM     91  O   UNL A   1      48.453  33.375  28.177  1.00  0.00    -0.237 OA
ATOM     92  O   UNL A   1      49.117  31.705  26.512  1.00  0.00    -0.744 OA
ENDBRANCH  86  89
ENDBRANCH  59  82
ENDBRANCH  33  34
ENDBRANCH  25  28
ENDBRANCH  23  24
ENDBRANCH  22  23
ENDBRANCH   1  22
TORSDOF 18
ENDMDL
MODEL 2
REMARK VINA RESULT:     -10.9      1.830      2.246
REMARK SMILES CC[C@@H](O)C[NH+]1CC(n2cc(C(=O)NCCCNC(=O)c3ccc(-c4c5nc(c(-c6cccc(S(=O)(=O)[O-])c6F)c6ccc([nH]6)c(-c6cccc(S(=O)(=O)[O-])c6F)c6nc(c(-c7cccc(S(=O)(=O)[O-])c7F)c7ccc4[nH]7)C=C6)C=C5)cc3)nn2)C1
REMARK SMILES IDX 15 1 14 2 12 3 13 4 11 6 9 7 10 8 85 9 84 10 8 11 6 12 7 13
REMARK SMILES IDX 86 14 5 16 3 17 2 18 1 19 4 20 16 22 17 23 18 24 19 25 20 27
REMARK SMILES IDX 21 28 22 29 83 30 23 31 82 32 24 33 25 34 26 35 76 36 27 37
REMARK SMILES IDX 81 38 75 39 77 40 28 41 80 42 74 43 73 44 29 46 61 47 41 48
REMARK SMILES IDX 60 49 42 50 45 51 59 52 78 53 43 54 44 55 58 57 79 58 46 59
REMARK SMILES IDX 30 60 31 61 39 62 32 63 34 64 40 65 33 66 35 67 36 68 37 69
REMARK SMILES IDX 38 70 62 71 63 72 71 73 64 74 66 75 72 76 65 77 67 78 68 79
REMARK SMILES IDX 69 80 70 81 47 82 48 83 56 84 49 85 51 86 57 87 50 88 52 89
REMARK SMILES IDX 53 90 54 91 55 92
REMARK H PARENT 14 5 6 15 4 21 18 26 77 45 45 56
REMARK Flexibility Score: inf
ROOT
ATOM      1  C   UNL A   1      31.910  28.449  25.283  1.00  0.00     0.118 C 
ENDROOT
BRANCH   1   2
ATOM      2  N   UNL A   1      31.290  28.775  24.009  1.00  0.00    -0.351 N 
ATOM      3  C   UNL A   1      31.205  28.037  22.848  1.00  0.00     0.273 C 
ATOM      4  O   UNL A   1      30.378  28.394  22.003  1.00  0.00    -0.267 OA
ATOM      5  H   UNL A   1      30.864  29.662  23.970  1.00  0.00     0.163 HD
BRANCH   3   6
ATOM      6  C   UNL A   1      32.032  26.856  22.657  1.00  0.00     0.170 A 
ATOM      7  N   UNL A   1      32.844  24.854  22.466  1.00  0.00    -0.237 N 
ATOM      8  C   UNL A   1      31.759  25.533  22.941  1.00  0.00     0.145 A 
ATOM      9  N   UNL A   1      33.768  25.686  21.974  1.00  0.00    -0.066 NA
ATOM     10  N   UNL A   1      33.304  26.921  22.125  1.00  0.00    -0.125 NA
BRANCH   7  11
ATOM     11  C   UNL A   1      32.860  23.435  22.352  1.00  0.00     0.218 C 
ATOM     12  N   UNL A   1      33.141  21.667  23.430  1.00  0.00    -0.329 N 
ATOM     13  C   UNL A   1      31.970  22.609  23.302  1.00  0.00     0.296 C 
ATOM     14  C   UNL A   1      34.009  22.856  23.208  1.00  0.00     0.296 C 
ATOM     15  H   UNL A   1      33.235  20.815  22.876  1.00  0.00     0.348 HD
BRANCH  12  16
ATOM     16  C   UNL A   1      33.248  21.161  24.806  1.00  0.00     0.294 C 
BRANCH  16  17
ATOM     17  C   UNL A   1      33.377  19.617  24.909  1.00  0.00     0.169 C 
BRANCH  17  18
ATOM     18  C   UNL A   1      32.763  18.870  23.715  1.00  0.00     0.034 C 
ATOM     19  C   UNL A   1      33.405  17.518  23.435  1.00  0.00     0.007 C 
ENDBRANCH  17  18
BRANCH  17  20
ATOM     20  O   UNL A   1      34.773  19.302  24.990  1.00  0.00    -0.387 OA
ATOM     21  H   UNL A   1      35.276  20.108  25.183  1.00  0.00     0.211 HD
ENDBRANCH  17  20
ENDBRANCH  16  17
ENDBRANCH  12  16
ENDBRANCH   7  11
ENDBRANCH   3   6
ENDBRANCH   1   2
BRANCH   1  22
ATOM     22  C   UNL A   1      33.371  28.900  25.375  1.00  0.00     0.042 C 
BRANCH  22  23
ATOM     23  C   UNL A   1      33.732  29.386  26.770  1.00  0.00     0.118 C 
BRANCH  23  24
ATOM     24  N   UNL A   1      33.870  30.848  26.841  1.00  0.00    -0.352 N 
ATOM     25  C   UNL A   1      34.735  31.597  27.621  1.00  0.00     0.251 C 
ATOM     26  H   UNL A   1      33.268  31.363  26.256  1.00  0.00     0.163 HD
ATOM     27  O   UNL A   1      34.518  32.786  27.825  1.00  0.00    -0.269 OA
BRANCH  25  28
ATOM     28  C   UNL A   1      35.925  30.941  28.187  1.00  0.00     0.039 A 
ATOM     29  C   UNL A   1      36.109  29.555  28.143  1.00  0.00     0.014 A 
ATOM     30  C   UNL A   1      36.891  31.766  28.749  1.00  0.00     0.014 A 
ATOM     31  C   UNL A   1      37.312  29.026  28.609  1.00  0.00     0.010 A 
ATOM     32  C   UNL A   1      38.140  31.277  28.992  1.00  0.00     0.010 A 
ATOM     33  C   UNL A   1      38.326  29.904  29.020  1.00  0.00    -0.014 A 
BRANCH  33  34
ATOM     34  C   UNL A   1      39.661  29.442  29.369  1.00  0.00     0.031 A 
ATOM     35  C   UNL A   1      39.966  29.595  30.815  1.00  0.00     0.074 A 
ATOM     36  C   UNL A   1      40.396  28.696  28.512  1.00  0.00     0.049 A 
ATOM     37  N   UNL A   1      40.778  30.436  31.365  1.00  0.00    -0.248 NA
ATOM     38  C   UNL A   1      39.105  28.888  31.781  1.00  0.00     0.031 C 
ATOM     39  C   UNL A   1      39.999  28.195  27.186  1.00  0.00     0.029 A 
ATOM     40  N   UNL A   1      41.591  28.078  28.706  1.00  0.00    -0.354 N 
ATOM     41  C   UNL A   1      40.737  30.143  32.728  1.00  0.00     0.074 A 
ATOM     42  C   UNL A   1      39.508  29.431  32.931  1.00  0.00     0.031 C 
ATOM     43  C   UNL A   1      40.793  27.160  26.836  1.00  0.00     0.029 A 
ATOM     44  C   UNL A   1      41.849  27.032  27.819  1.00  0.00     0.049 A 
ATOM     45  H   UNL A   1      42.222  28.346  29.414  1.00  0.00     0.167 HD
ATOM     46  C   UNL A   1      41.874  30.201  33.483  1.00  0.00     0.034 A 
ATOM     47  C   UNL A   1      42.826  26.094  27.924  1.00  0.00     0.034 A 
ATOM     48  C   UNL A   1      42.913  30.906  32.761  1.00  0.00     0.049 A 
ATOM     49  C   UNL A   1      43.829  26.624  28.875  1.00  0.00     0.074 A 
ATOM     50  C   UNL A   1      43.043  32.156  32.190  1.00  0.00     0.029 A 
ATOM     51  N   UNL A   1      43.886  30.123  32.183  1.00  0.00    -0.354 N 
ATOM     52  N   UNL A   1      44.558  27.677  28.634  1.00  0.00    -0.248 NA
ATOM     53  C   UNL A   1      43.682  26.266  30.275  1.00  0.00     0.031 C 
ATOM     54  C   UNL A   1      43.771  31.935  30.982  1.00  0.00     0.029 A 
ATOM     55  C   UNL A   1      44.127  30.586  30.922  1.00  0.00     0.049 A 
ATOM     56  H   UNL A   1      44.332  29.356  32.608  1.00  0.00     0.167 HD
ATOM     57  C   UNL A   1      44.540  28.378  29.832  1.00  0.00     0.074 A 
ATOM     58  C   UNL A   1      44.087  27.411  30.832  1.00  0.00     0.031 C 
ATOM     59  C   UNL A   1      44.587  29.744  29.840  1.00  0.00     0.034 A 
BRANCH  46  60
ATOM     60  C   UNL A   1      42.237  29.245  34.618  1.00  0.00     0.023 A 
ATOM     61  C   UNL A   1      42.860  29.831  35.748  1.00  0.00     0.012 A 
ATOM     62  C   UNL A   1      42.293  27.834  34.539  1.00  0.00     0.148 A 
ATOM     63  C   UNL A   1      43.620  29.080  36.652  1.00  0.00     0.002 A 
ATOM     64  C   UNL A   1      43.010  27.083  35.466  1.00  0.00     0.091 A 
ATOM     65  F   UNL A   1      41.724  27.184  33.528  1.00  0.00    -0.205 F 
ATOM     66  C   UNL A   1      43.710  27.704  36.500  1.00  0.00     0.022 A 
BRANCH  64  67
ATOM     67  S   UNL A   1      43.136  25.290  35.342  1.00  0.00     0.127 S 
ATOM     68  O   UNL A   1      43.790  25.138  34.046  1.00  0.00    -0.237 OA
ATOM     69  O   UNL A   1      43.969  24.973  36.502  1.00  0.00    -0.237 OA
ATOM     70  O   UNL A   1      41.772  24.784  35.426  1.00  0.00    -0.744 OA
ENDBRANCH  64  67
ENDBRANCH  46  60
BRANCH  47  71
ATOM     71  C   UNL A   1      42.840  24.671  27.504  1.00  0.00     0.023 A 
ATOM     72  C   UNL A   1      41.698  23.867  27.705  1.00  0.00     0.012 A 
ATOM     73  C   UNL A   1      43.847  24.183  26.644  1.00  0.00     0.148 A 
ATOM     74  C   UNL A   1      41.548  22.640  27.045  1.00  0.00     0.002 A 
ATOM     75  C   UNL A   1      43.697  22.961  25.992  1.00  0.00     0.091 A 
ATOM     76  F   UNL A   1      44.908  24.961  26.390  1.00  0.00    -0.205 F 
ATOM     77  C   UNL A   1      42.542  22.191  26.181  1.00  0.00     0.022 A 
BRANCH  75  78
ATOM     78  S   UNL A   1      44.922  22.337  24.835  1.00  0.00     0.127 S 
ATOM     79  O   UNL A   1      46.067  22.094  25.713  1.00  0.00    -0.237 OA
ATOM     80  O   UNL A   1      44.271  21.131  24.330  1.00  0.00    -0.237 OA
ATOM     81  O   UNL A   1      45.123  23.402  23.861  1.00  0.00    -0.744 OA
ENDBRANCH  75  78
ENDBRANCH  47  71
BRANCH  59  82
ATOM     82  C   UNL A   1      44.942  30.450  28.557  1.00  0.00     0.023 A 
ATOM     83  C   UNL A   1      43.977  30.945  27.656  1.00  0.00     0.012 A 
ATOM     84  C   UNL A   1      46.292  30.773  28.352  1.00  0.00     0.148 A 
ATOM     85  C   UNL A   1      44.357  31.734  26.565  1.00  0.00     0.002 A 
ATOM     86  C   UNL A   1      46.661  31.595  27.298  1.00  0.00     0.091 A 
ATOM     87  F   UNL A   1      47.195  30.290  29.220  1.00  0.00    -0.205 F 
ATOM     88  C   UNL A   1      45.698  32.071  26.394  1.00  0.00     0.022 A 
BRANCH  86  89
ATOM     89  S   UNL A   1      48.350  32.164  27.111  1.00  0.00     0.127 S 
ATOM     90  O   UNL A   1      48.639  32.701  28.438  1.00  0.00    -0.237 OA
ATOM     91  O   UNL A   1      49.064  30.930  26.780  1.00  0.00    -0.237 OA
ATOM     92  O   UNL A   1      48.326  33.142  26.030  1.00  0.00    -0.744 OA
ENDBRANCH  86  89
ENDBRANCH  59  82
ENDBRANCH  33  34
ENDBRANCH  25  28
ENDBRANCH  23  24
ENDBRANCH  22  23
ENDBRANCH   1  22
TORSDOF 18
ENDMDL
MODEL 3
REMARK VINA RESULT:     -10.7      3.074      8.632
REMARK SMILES CC[C@@H](O)C[NH+]1CC(n2cc(C(=O)NCCCNC(=O)c3ccc(-c4c5nc(c(-c6cccc(S(=O)(=O)[O-])c6F)c6ccc([nH]6)c(-c6cccc(S(=O)(=O)[O-])c6F)c6nc(c(-c7cccc(S(=O)(=O)[O-])c7F)c7ccc4[nH]7)C=C6)C=C5)cc3)nn2)C1
REMARK SMILES IDX 15 1 14 2 12 3 13 4 11 6 9 7 10 8 85 9 84 10 8 11 6 12 7 13
REMARK SMILES IDX 86 14 5 16 3 17 2 18 1 19 4 20 16 22 17 23 18 24 19 25 20 27
REMARK SMILES IDX 21 28 22 29 83 30 23 31 82 32 24 33 25 34 26 35 76 36 27 37
REMARK SMILES IDX 81 38 75 39 77 40 28 41 80 42 74 43 73 44 29 46 61 47 41 48
REMARK SMILES IDX 60 49 42 50 45 51 59 52 78 53 43 54 44 55 58 57 79 58 46 59
REMARK SMILES IDX 30 60 31 61 39 62 32 63 34 64 40 65 33 66 35 67 36 68 37 69
REMARK SMILES IDX 38 70 62 71 63 72 71 73 64 74 66 75 72 76 65 77 67 78 68 79
REMARK SMILES IDX 69 80 70 81 47 82 48 83 56 84 49 85 51 86 57 87 50 88 52 89
REMARK SMILES IDX 53 90 54 91 55 92
REMARK H PARENT 14 5 6 15 4 21 18 26 77 45 45 56
REMARK Flexibility Score: inf
ROOT
ATOM      1  C   UNL A   1      35.457  21.116  24.907  1.00  0.00     0.118 C 
ENDROOT
BRANCH   1   2
ATOM      2  N   UNL A   1      34.484  20.157  25.408  1.00  0.00    -0.351 N 
ATOM      3  C   UNL A   1      33.111  20.147  25.300  1.00  0.00     0.273 C 
ATOM      4  O   UNL A   1      32.525  19.087  25.543  1.00  0.00    -0.267 OA
ATOM      5  H   UNL A   1      34.868  19.397  25.903  1.00  0.00     0.163 HD
BRANCH   3   6
ATOM      6  C   UNL A   1      32.391  21.335  24.870  1.00  0.00     0.170 A 
ATOM      7  N   UNL A   1      31.331  23.221  24.710  1.00  0.00    -0.237 N 
ATOM      8  C   UNL A   1      31.734  22.289  25.622  1.00  0.00     0.145 A 
ATOM      9  N   UNL A   1      31.651  22.860  23.463  1.00  0.00    -0.066 NA
ATOM     10  N   UNL A   1      32.261  21.683  23.541  1.00  0.00    -0.125 NA
BRANCH   7  11
ATOM     11  C   UNL A   1      30.817  24.491  25.101  1.00  0.00     0.218 C 
ATOM     12  N   UNL A   1      31.325  26.296  26.023  1.00  0.00    -0.329 N 
ATOM     13  C   UNL A   1      31.556  25.761  24.631  1.00  0.00     0.296 C 
ATOM     14  C   UNL A   1      31.388  24.881  26.483  1.00  0.00     0.296 C 
ATOM     15  H   UNL A   1      30.546  26.910  26.262  1.00  0.00     0.348 HD
BRANCH  12  16
ATOM     16  C   UNL A   1      32.489  27.071  26.477  1.00  0.00     0.294 C 
BRANCH  16  17
ATOM     17  C   UNL A   1      32.140  28.244  27.432  1.00  0.00     0.169 C 
BRANCH  17  18
ATOM     18  C   UNL A   1      31.965  29.590  26.712  1.00  0.00     0.034 C 
ATOM     19  C   UNL A   1      32.391  29.569  25.250  1.00  0.00     0.007 C 
ENDBRANCH  17  18
BRANCH  17  20
ATOM     20  O   UNL A   1      30.918  27.909  28.102  1.00  0.00    -0.387 OA
ATOM     21  H   UNL A   1      30.979  28.166  29.035  1.00  0.00     0.211 HD
ENDBRANCH  17  20
ENDBRANCH  16  17
ENDBRANCH  12  16
ENDBRANCH   7  11
ENDBRANCH   3   6
ENDBRANCH   1   2
BRANCH   1  22
ATOM     22  C   UNL A   1      35.693  22.290  25.861  1.00  0.00     0.042 C 
BRANCH  22  23
ATOM     23  C   UNL A   1      37.118  22.814  25.778  1.00  0.00     0.118 C 
BRANCH  23  24
ATOM     24  N   UNL A   1      38.112  21.818  26.202  1.00  0.00    -0.352 N 
ATOM     25  C   UNL A   1      39.442  22.012  26.536  1.00  0.00     0.251 C 
ATOM     26  H   UNL A   1      37.790  20.889  26.257  1.00  0.00     0.163 HD
ATOM     27  O   UNL A   1      40.226  21.069  26.546  1.00  0.00    -0.269 OA
BRANCH  25  28
ATOM     28  C   UNL A   1      39.892  23.369  26.890  1.00  0.00     0.039 A 
ATOM     29  C   UNL A   1      39.142  24.510  26.585  1.00  0.00     0.014 A 
ATOM     30  C   UNL A   1      41.094  23.473  27.577  1.00  0.00     0.014 A 
ATOM     31  C   UNL A   1      39.591  25.746  27.049  1.00  0.00     0.010 A 
ATOM     32  C   UNL A   1      41.410  24.636  28.215  1.00  0.00     0.010 A 
ATOM     33  C   UNL A   1      40.723  25.791  27.876  1.00  0.00    -0.014 A 
BRANCH  33  34
ATOM     34  C   UNL A   1      41.162  27.016  28.527  1.00  0.00     0.031 A 
ATOM     35  C   UNL A   1      42.422  27.556  27.954  1.00  0.00     0.074 A 
ATOM     36  C   UNL A   1      40.343  27.711  29.351  1.00  0.00     0.049 A 
ATOM     37  N   UNL A   1      43.594  27.571  28.498  1.00  0.00    -0.248 NA
ATOM     38  C   UNL A   1      42.431  27.917  26.524  1.00  0.00     0.031 C 
ATOM     39  C   UNL A   1      38.938  27.418  29.678  1.00  0.00     0.029 A 
ATOM     40  N   UNL A   1      40.529  28.921  29.940  1.00  0.00    -0.354 N 
ATOM     41  C   UNL A   1      44.414  28.221  27.577  1.00  0.00     0.074 A 
ATOM     42  C   UNL A   1      43.733  28.122  26.318  1.00  0.00     0.031 C 
ATOM     43  C   UNL A   1      38.343  28.532  30.158  1.00  0.00     0.029 A 
ATOM     44  C   UNL A   1      39.351  29.558  30.332  1.00  0.00     0.049 A 
ATOM     45  H   UNL A   1      41.422  29.315  30.079  1.00  0.00     0.167 HD
ATOM     46  C   UNL A   1      45.390  29.077  28.002  1.00  0.00     0.034 A 
ATOM     47  C   UNL A   1      39.212  30.855  30.711  1.00  0.00     0.034 A 
ATOM     48  C   UNL A   1      45.621  28.901  29.421  1.00  0.00     0.049 A 
ATOM     49  C   UNL A   1      40.562  31.346  31.067  1.00  0.00     0.074 A 
ATOM     50  C   UNL A   1      45.973  27.847  30.240  1.00  0.00     0.029 A 
ATOM     51  N   UNL A   1      45.066  29.851  30.247  1.00  0.00    -0.354 N 
ATOM     52  N   UNL A   1      41.246  30.891  32.079  1.00  0.00    -0.248 NA
ATOM     53  C   UNL A   1      41.336  31.996  30.024  1.00  0.00     0.031 C 
ATOM     54  C   UNL A   1      45.199  28.026  31.425  1.00  0.00     0.029 A 
ATOM     55  C   UNL A   1      44.487  29.222  31.311  1.00  0.00     0.049 A 
ATOM     56  H   UNL A   1      45.083  30.823  30.094  1.00  0.00     0.167 HD
ATOM     57  C   UNL A   1      42.534  30.753  31.578  1.00  0.00     0.074 A 
ATOM     58  C   UNL A   1      42.553  31.553  30.353  1.00  0.00     0.031 C 
ATOM     59  C   UNL A   1      43.352  29.757  32.030  1.00  0.00     0.034 A 
BRANCH  46  60
ATOM     60  C   UNL A   1      45.792  30.380  27.312  1.00  0.00     0.023 A 
ATOM     61  C   UNL A   1      47.184  30.628  27.216  1.00  0.00     0.012 A 
ATOM     62  C   UNL A   1      44.945  31.478  27.038  1.00  0.00     0.148 A 
ATOM     63  C   UNL A   1      47.699  31.913  27.015  1.00  0.00     0.002 A 
ATOM     64  C   UNL A   1      45.459  32.748  26.792  1.00  0.00     0.091 A 
ATOM     65  F   UNL A   1      43.622  31.348  27.083  1.00  0.00    -0.205 F 
ATOM     66  C   UNL A   1      46.834  32.979  26.821  1.00  0.00     0.022 A 
BRANCH  64  67
ATOM     67  S   UNL A   1      44.388  34.166  26.498  1.00  0.00     0.127 S 
ATOM     68  O   UNL A   1      43.681  33.747  25.291  1.00  0.00    -0.237 OA
ATOM     69  O   UNL A   1      43.582  34.183  27.719  1.00  0.00    -0.237 OA
ATOM     70  O   UNL A   1      45.272  35.315  26.347  1.00  0.00    -0.744 OA
ENDBRANCH  64  67
ENDBRANCH  46  60
BRANCH  47  71
ATOM     71  C   UNL A   1      38.075  31.792  30.529  1.00  0.00     0.023 A 
ATOM     72  C   UNL A   1      37.404  31.851  29.289  1.00  0.00     0.012 A 
ATOM     73  C   UNL A   1      37.459  32.403  31.643  1.00  0.00     0.148 A 
ATOM     74  C   UNL A   1      36.150  32.464  29.171  1.00  0.00     0.002 A 
ATOM     75  C   UNL A   1      36.214  33.015  31.521  1.00  0.00     0.091 A 
ATOM     76  F   UNL A   1      38.050  32.300  32.841  1.00  0.00    -0.205 F 
ATOM     77  C   UNL A   1      35.549  33.037  30.288  1.00  0.00     0.022 A 
BRANCH  75  78
ATOM     78  S   UNL A   1      35.363  33.742  32.928  1.00  0.00     0.127 S 
ATOM     79  O   UNL A   1      35.575  32.729  33.962  1.00  0.00    -0.237 OA
ATOM     80  O   UNL A   1      36.111  34.982  33.122  1.00  0.00    -0.237 OA
ATOM     81  O   UNL A   1      33.976  33.899  32.511  1.00  0.00    -0.744 OA
ENDBRANCH  75  78
ENDBRANCH  47  71
BRANCH  59  82
ATOM     82  C   UNL A   1      42.939  29.003  33.267  1.00  0.00     0.023 A 
ATOM     83  C   UNL A   1      42.080  27.884  33.238  1.00  0.00     0.012 A 
ATOM     84  C   UNL A   1      43.581  29.335  34.469  1.00  0.00     0.148 A 
ATOM     85  C   UNL A   1      41.858  27.124  34.391  1.00  0.00     0.002 A 
ATOM     86  C   UNL A   1      43.398  28.551  35.599  1.00  0.00     0.091 A 
ATOM     87  F   UNL A   1      44.393  30.404  34.476  1.00  0.00    -0.205 F 
ATOM     88  C   UNL A   1      42.529  27.448  35.569  1.00  0.00     0.022 A 
BRANCH  86  89
ATOM     89  S   UNL A   1      44.336  28.847  37.097  1.00  0.00     0.127 S 
ATOM     90  O   UNL A   1      43.749  30.093  37.582  1.00  0.00    -0.237 OA
ATOM     91  O   UNL A   1      44.024  27.666  37.903  1.00  0.00    -0.237 OA
ATOM     92  O   UNL A   1      45.733  28.930  36.684  1.00  0.00    -0.744 OA
ENDBRANCH  86  89
ENDBRANCH  59  82
ENDBRANCH  33  34
ENDBRANCH  25  28
ENDBRANCH  23  24
ENDBRANCH  22  23
ENDBRANCH   1  22
TORSDOF 18
ENDMDL
