MODEL 1
REMARK VINA RESULT:     -10.3      0.000      0.000
REMARK SMILES O=C(NCCCNC(=O)c1cc(-c2ccc(Cl)cc2)nc2c3c(C4CC4)cc(C(F)(F)F)nc3nn12)c1ccc(-c2c3nc(c(-c4cccc(S(=O)(=O)[O-])c4F)c4ccc([nH]4)c(-c4cccc(S(=O)(=O)[O-])c4F)c4nc(c(-c5cccc(S(=O)(=O)[O-])c5F)c5ccc2[nH]5)C=C4)C=C3)cc1
REMARK SMILES IDX 4 1 3 2 1 3 2 4 37 6 38 7 99 8 39 9 98 10 40 11 41 12 42 13
REMARK SMILES IDX 92 14 43 15 97 16 91 17 93 18 44 19 96 20 90 21 89 22 45 24
REMARK SMILES IDX 77 25 57 26 76 27 58 28 61 29 75 30 94 31 59 32 60 33 74 35
REMARK SMILES IDX 95 36 62 37 46 38 47 39 55 40 48 41 50 42 56 43 49 44 51 45
REMARK SMILES IDX 52 46 53 47 54 48 78 49 79 50 87 51 80 52 82 53 88 54 81 55
REMARK SMILES IDX 83 56 84 57 85 58 86 59 63 60 64 61 72 62 65 63 67 64 73 65
REMARK SMILES IDX 66 66 68 67 69 68 70 69 71 70 5 71 6 72 7 73 8 74 9 76 10 77
REMARK SMILES IDX 11 78 36 79 12 80 21 81 35 82 20 83 22 84 34 85 23 86 33 87
REMARK SMILES IDX 27 88 28 89 13 90 14 91 19 92 15 93 18 94 16 95 17 96 24 97
REMARK SMILES IDX 25 98 26 99 29 100 30 101 31 102 32 103
REMARK H PARENT 3 5 93 23 61 34 7 75
REMARK Flexibility Score: inf
ROOT
ATOM      1  C   UNL A   1      43.065  34.331  25.341  1.00  0.00     0.118 C 
ENDROOT
BRANCH   1   2
ATOM      2  N   UNL A   1      43.530  35.685  25.608  1.00  0.00    -0.352 N 
ATOM      3  O   UNL A   1      44.023  37.462  26.919  1.00  0.00    -0.269 OA
ATOM      4  C   UNL A   1      43.655  36.309  26.830  1.00  0.00     0.251 C 
ATOM      5  H   UNL A   1      43.786  36.218  24.822  1.00  0.00     0.163 HD
BRANCH   4   6
ATOM      6  C   UNL A   1      43.317  35.520  28.031  1.00  0.00     0.039 A 
ATOM      7  C   UNL A   1      44.337  34.887  28.750  1.00  0.00     0.014 A 
ATOM      8  C   UNL A   1      41.976  35.341  28.364  1.00  0.00     0.014 A 
ATOM      9  C   UNL A   1      44.005  33.999  29.767  1.00  0.00     0.010 A 
ATOM     10  C   UNL A   1      41.648  34.470  29.399  1.00  0.00     0.010 A 
ATOM     11  C   UNL A   1      42.660  33.789  30.095  1.00  0.00    -0.014 A 
BRANCH  11  12
ATOM     12  C   UNL A   1      42.357  32.929  31.249  1.00  0.00     0.031 A 
ATOM     13  C   UNL A   1      40.991  33.104  31.810  1.00  0.00     0.074 A 
ATOM     14  C   UNL A   1      43.008  31.772  31.488  1.00  0.00     0.049 A 
ATOM     15  N   UNL A   1      39.957  32.514  31.290  1.00  0.00    -0.248 NA
ATOM     16  C   UNL A   1      40.660  34.129  32.797  1.00  0.00     0.031 C 
ATOM     17  C   UNL A   1      43.702  30.987  30.458  1.00  0.00     0.029 A 
ATOM     18  N   UNL A   1      42.989  30.949  32.589  1.00  0.00    -0.354 N 
ATOM     19  C   UNL A   1      38.837  33.138  31.797  1.00  0.00     0.074 A 
ATOM     20  C   UNL A   1      39.319  34.104  32.762  1.00  0.00     0.031 C 
ATOM     21  C   UNL A   1      43.862  29.727  30.914  1.00  0.00     0.029 A 
ATOM     22  C   UNL A   1      43.442  29.661  32.310  1.00  0.00     0.049 A 
ATOM     23  H   UNL A   1      42.687  31.238  33.481  1.00  0.00     0.167 HD
ATOM     24  C   UNL A   1      37.580  32.853  31.369  1.00  0.00     0.034 A 
ATOM     25  C   UNL A   1      43.035  28.530  32.950  1.00  0.00     0.034 A 
ATOM     26  C   UNL A   1      37.489  31.879  30.319  1.00  0.00     0.049 A 
ATOM     27  C   UNL A   1      41.586  28.459  32.527  1.00  0.00     0.074 A 
ATOM     28  C   UNL A   1      37.456  31.904  28.941  1.00  0.00     0.029 A 
ATOM     29  N   UNL A   1      37.601  30.547  30.642  1.00  0.00    -0.354 N 
ATOM     30  N   UNL A   1      41.145  28.067  31.358  1.00  0.00    -0.248 NA
ATOM     31  C   UNL A   1      40.609  29.195  33.331  1.00  0.00     0.031 C 
ATOM     32  C   UNL A   1      38.006  30.651  28.518  1.00  0.00     0.029 A 
ATOM     33  C   UNL A   1      38.371  29.956  29.669  1.00  0.00     0.049 A 
ATOM     34  H   UNL A   1      37.205  30.099  31.425  1.00  0.00     0.167 HD
ATOM     35  C   UNL A   1      39.954  28.772  31.161  1.00  0.00     0.074 A 
ATOM     36  C   UNL A   1      39.671  29.425  32.422  1.00  0.00     0.031 C 
ATOM     37  C   UNL A   1      39.352  28.928  29.946  1.00  0.00     0.034 A 
BRANCH  24  38
ATOM     38  C   UNL A   1      36.369  33.394  32.016  1.00  0.00     0.023 A 
ATOM     39  C   UNL A   1      36.101  32.961  33.328  1.00  0.00     0.012 A 
ATOM     40  C   UNL A   1      35.433  34.190  31.336  1.00  0.00     0.148 A 
ATOM     41  C   UNL A   1      34.902  33.289  33.952  1.00  0.00     0.002 A 
ATOM     42  C   UNL A   1      34.235  34.515  31.967  1.00  0.00     0.091 A 
ATOM     43  F   UNL A   1      35.714  34.586  30.087  1.00  0.00    -0.205 F 
ATOM     44  C   UNL A   1      33.967  34.059  33.269  1.00  0.00     0.022 A 
BRANCH  42  45
ATOM     45  S   UNL A   1      32.954  35.504  31.187  1.00  0.00     0.127 S 
ATOM     46  O   UNL A   1      31.869  35.416  32.163  1.00  0.00    -0.237 OA
ATOM     47  O   UNL A   1      33.595  36.818  31.103  1.00  0.00    -0.237 OA
ATOM     48  O   UNL A   1      32.690  34.878  29.899  1.00  0.00    -0.744 OA
ENDBRANCH  42  45
ENDBRANCH  24  38
BRANCH  25  49
ATOM     49  C   UNL A   1      43.475  28.428  34.388  1.00  0.00     0.023 A 
ATOM     50  C   UNL A   1      44.183  29.529  34.934  1.00  0.00     0.012 A 
ATOM     51  C   UNL A   1      43.252  27.324  35.232  1.00  0.00     0.148 A 
ATOM     52  C   UNL A   1      44.548  29.581  36.281  1.00  0.00     0.002 A 
ATOM     53  C   UNL A   1      43.566  27.402  36.591  1.00  0.00     0.091 A 
ATOM     54  F   UNL A   1      42.721  26.209  34.716  1.00  0.00    -0.205 F 
ATOM     55  C   UNL A   1      44.212  28.528  37.117  1.00  0.00     0.022 A 
BRANCH  53  56
ATOM     56  S   UNL A   1      43.099  26.121  37.765  1.00  0.00     0.127 S 
ATOM     57  O   UNL A   1      41.642  26.239  37.785  1.00  0.00    -0.237 OA
ATOM     58  O   UNL A   1      43.612  24.924  37.101  1.00  0.00    -0.237 OA
ATOM     59  O   UNL A   1      43.759  26.472  39.014  1.00  0.00    -0.744 OA
ENDBRANCH  53  56
ENDBRANCH  25  49
BRANCH  37  60
ATOM     60  C   UNL A   1      39.893  28.104  28.819  1.00  0.00     0.023 A 
ATOM     61  C   UNL A   1      39.290  26.857  28.571  1.00  0.00     0.012 A 
ATOM     62  C   UNL A   1      40.915  28.560  27.961  1.00  0.00     0.148 A 
ATOM     63  C   UNL A   1      39.674  26.084  27.475  1.00  0.00     0.002 A 
ATOM     64  C   UNL A   1      41.283  27.793  26.859  1.00  0.00     0.091 A 
ATOM     65  F   UNL A   1      41.486  29.750  28.207  1.00  0.00    -0.205 F 
ATOM     66  C   UNL A   1      40.662  26.557  26.615  1.00  0.00     0.022 A 
BRANCH  64  67
ATOM     67  S   UNL A   1      42.535  28.317  25.677  1.00  0.00     0.127 S 
ATOM     68  O   UNL A   1      43.716  28.480  26.525  1.00  0.00    -0.237 OA
ATOM     69  O   UNL A   1      42.593  27.172  24.769  1.00  0.00    -0.237 OA
ATOM     70  O   UNL A   1      42.052  29.559  25.085  1.00  0.00    -0.744 OA
ENDBRANCH  64  67
ENDBRANCH  37  60
ENDBRANCH  11  12
ENDBRANCH   4   6
ENDBRANCH   1   2
BRANCH   1  71
ATOM     71  C   UNL A   1      44.169  33.403  24.849  1.00  0.00     0.042 C 
BRANCH  71  72
ATOM     72  C   UNL A   1      45.030  32.853  25.981  1.00  0.00     0.118 C 
BRANCH  72  73
ATOM     73  N   UNL A   1      46.431  33.246  25.825  1.00  0.00    -0.351 N 
ATOM     74  C   UNL A   1      47.504  33.023  26.628  1.00  0.00     0.270 C 
ATOM     75  H   UNL A   1      46.628  33.754  25.005  1.00  0.00     0.163 HD
ATOM     76  O   UNL A   1      48.559  33.621  26.416  1.00  0.00    -0.268 OA
BRANCH  74  77
ATOM     77  C   UNL A   1      47.387  32.096  27.766  1.00  0.00     0.134 A 
ATOM     78  C   UNL A   1      47.247  32.648  28.980  1.00  0.00     0.063 A 
ATOM     79  N   UNL A   1      47.452  30.715  27.617  1.00  0.00    -0.207 N 
ATOM     80  C   UNL A   1      47.229  31.683  30.120  1.00  0.00     0.075 A 
ATOM     81  C   UNL A   1      47.287  29.875  28.733  1.00  0.00     0.166 A 
ATOM     82  N   UNL A   1      47.660  30.013  26.473  1.00  0.00    -0.145 NA
ATOM     83  N   UNL A   1      47.279  30.385  30.010  1.00  0.00    -0.228 NA
ATOM     84  C   UNL A   1      47.053  28.626  28.187  1.00  0.00     0.069 A 
ATOM     85  C   UNL A   1      47.283  28.781  26.789  1.00  0.00     0.184 A 
ATOM     86  C   UNL A   1      46.641  27.456  28.838  1.00  0.00    -0.028 A 
ATOM     87  N   UNL A   1      47.137  27.770  25.902  1.00  0.00    -0.222 NA
ATOM     88  C   UNL A   1      46.434  26.443  27.877  1.00  0.00     0.038 A 
ATOM     89  C   UNL A   1      46.678  26.616  26.483  1.00  0.00     0.147 A 
BRANCH  80  90
ATOM     90  C   UNL A   1      47.241  32.324  31.455  1.00  0.00     0.000 A 
ATOM     91  C   UNL A   1      47.832  33.585  31.590  1.00  0.00     0.012 A 
ATOM     92  C   UNL A   1      46.600  31.722  32.544  1.00  0.00     0.012 A 
ATOM     93  C   UNL A   1      47.749  34.262  32.809  1.00  0.00     0.021 A 
ATOM     94  C   UNL A   1      46.525  32.400  33.765  1.00  0.00     0.021 A 
ATOM     95  C   UNL A   1      47.089  33.669  33.888  1.00  0.00     0.041 A 
ATOM     96  Cl  UNL A   1      46.962  34.523  35.378  1.00  0.00    -0.084 Cl
ENDBRANCH  80  90
BRANCH  86  97
ATOM     97  C   UNL A   1      46.431  27.370  30.314  1.00  0.00     0.020 C 
ATOM     98  C   UNL A   1      45.461  26.395  30.943  1.00  0.00     0.009 C 
ATOM     99  C   UNL A   1      46.935  26.143  31.041  1.00  0.00     0.009 C 
ENDBRANCH  86  97
BRANCH  89 100
ATOM    100  C   UNL A   1      46.412  25.442  25.546  1.00  0.00     0.433 C 
ATOM    101  F   UNL A   1      46.162  24.272  26.196  1.00  0.00    -0.165 F 
ATOM    102  F   UNL A   1      45.338  25.652  24.726  1.00  0.00    -0.165 F 
ATOM    103  F   UNL A   1      47.450  25.176  24.697  1.00  0.00    -0.165 F 
ENDBRANCH  89 100
ENDBRANCH  74  77
ENDBRANCH  72  73
ENDBRANCH  71  72
ENDBRANCH   1  71
TORSDOF 16
ENDMDL
MODEL 2
REMARK VINA RESULT:     -10.3      3.733     11.054
REMARK SMILES O=C(NCCCNC(=O)c1cc(-c2ccc(Cl)cc2)nc2c3c(C4CC4)cc(C(F)(F)F)nc3nn12)c1ccc(-c2c3nc(c(-c4cccc(S(=O)(=O)[O-])c4F)c4ccc([nH]4)c(-c4cccc(S(=O)(=O)[O-])c4F)c4nc(c(-c5cccc(S(=O)(=O)[O-])c5F)c5ccc2[nH]5)C=C4)C=C3)cc1
REMARK SMILES IDX 4 1 3 2 1 3 2 4 37 6 38 7 99 8 39 9 98 10 40 11 41 12 42 13
REMARK SMILES IDX 92 14 43 15 97 16 91 17 93 18 44 19 96 20 90 21 89 22 45 24
REMARK SMILES IDX 77 25 57 26 76 27 58 28 61 29 75 30 94 31 59 32 60 33 74 35
REMARK SMILES IDX 95 36 62 37 46 38 47 39 55 40 48 41 50 42 56 43 49 44 51 45
REMARK SMILES IDX 52 46 53 47 54 48 78 49 79 50 87 51 80 52 82 53 88 54 81 55
REMARK SMILES IDX 83 56 84 57 85 58 86 59 63 60 64 61 72 62 65 63 67 64 73 65
REMARK SMILES IDX 66 66 68 67 69 68 70 69 71 70 5 71 6 72 7 73 8 74 9 76 10 77
REMARK SMILES IDX 11 78 36 79 12 80 21 81 35 82 20 83 22 84 34 85 23 86 33 87
REMARK SMILES IDX 27 88 28 89 13 90 14 91 19 92 15 93 18 94 16 95 17 96 24 97
REMARK SMILES IDX 25 98 26 99 29 100 30 101 31 102 32 103
REMARK H PARENT 3 5 93 23 61 34 7 75
REMARK Flexibility Score: inf
ROOT
ATOM      1  C   UNL A   1      41.789  24.681  35.839  1.00  0.00     0.118 C 
ENDROOT
BRANCH   1   2
ATOM      2  N   UNL A   1      42.852  23.720  36.094  1.00  0.00    -0.352 N 
ATOM      3  O   UNL A   1      44.820  22.681  35.681  1.00  0.00    -0.269 OA
ATOM      4  C   UNL A   1      44.024  23.549  35.389  1.00  0.00     0.251 C 
ATOM      5  H   UNL A   1      42.719  23.119  36.862  1.00  0.00     0.163 HD
BRANCH   4   6
ATOM      6  C   UNL A   1      44.270  24.462  34.255  1.00  0.00     0.039 A 
ATOM      7  C   UNL A   1      43.833  24.105  32.975  1.00  0.00     0.014 A 
ATOM      8  C   UNL A   1      45.023  25.615  34.470  1.00  0.00     0.014 A 
ATOM      9  C   UNL A   1      44.223  24.872  31.882  1.00  0.00     0.010 A 
ATOM     10  C   UNL A   1      45.391  26.394  33.375  1.00  0.00     0.010 A 
ATOM     11  C   UNL A   1      45.001  26.018  32.080  1.00  0.00    -0.014 A 
BRANCH  11  12
ATOM     12  C   UNL A   1      45.298  26.861  30.912  1.00  0.00     0.031 A 
ATOM     13  C   UNL A   1      45.424  26.118  29.629  1.00  0.00     0.074 A 
ATOM     14  C   UNL A   1      45.007  28.177  30.868  1.00  0.00     0.049 A 
ATOM     15  N   UNL A   1      44.383  25.778  28.930  1.00  0.00    -0.248 NA
ATOM     16  C   UNL A   1      46.670  25.494  29.189  1.00  0.00     0.031 C 
ATOM     17  C   UNL A   1      43.974  28.822  31.690  1.00  0.00     0.029 A 
ATOM     18  N   UNL A   1      45.369  29.141  29.956  1.00  0.00    -0.354 N 
ATOM     19  C   UNL A   1      44.799  24.831  28.020  1.00  0.00     0.074 A 
ATOM     20  C   UNL A   1      46.233  24.717  28.185  1.00  0.00     0.031 C 
ATOM     21  C   UNL A   1      43.646  30.000  31.119  1.00  0.00     0.029 A 
ATOM     22  C   UNL A   1      44.550  30.267  30.005  1.00  0.00     0.049 A 
ATOM     23  H   UNL A   1      46.127  29.046  29.335  1.00  0.00     0.167 HD
ATOM     24  C   UNL A   1      43.938  24.164  27.207  1.00  0.00     0.034 A 
ATOM     25  C   UNL A   1      44.267  31.079  28.948  1.00  0.00     0.034 A 
ATOM     26  C   UNL A   1      42.549  24.484  27.381  1.00  0.00     0.049 A 
ATOM     27  C   UNL A   1      43.477  30.144  28.062  1.00  0.00     0.074 A 
ATOM     28  C   UNL A   1      41.503  23.989  28.129  1.00  0.00     0.029 A 
ATOM     29  N   UNL A   1      42.064  25.643  26.823  1.00  0.00    -0.354 N 
ATOM     30  N   UNL A   1      42.229  29.788  28.240  1.00  0.00    -0.248 NA
ATOM     31  C   UNL A   1      44.226  29.295  27.135  1.00  0.00     0.031 C 
ATOM     32  C   UNL A   1      40.622  25.098  28.342  1.00  0.00     0.029 A 
ATOM     33  C   UNL A   1      41.208  26.208  27.738  1.00  0.00     0.049 A 
ATOM     34  H   UNL A   1      42.288  26.003  25.934  1.00  0.00     0.167 HD
ATOM     35  C   UNL A   1      42.133  28.505  27.695  1.00  0.00     0.074 A 
ATOM     36  C   UNL A   1      43.388  28.274  27.010  1.00  0.00     0.031 C 
ATOM     37  C   UNL A   1      41.117  27.634  27.968  1.00  0.00     0.034 A 
BRANCH  24  38
ATOM     38  C   UNL A   1      44.385  23.271  26.122  1.00  0.00     0.023 A 
ATOM     39  C   UNL A   1      45.020  23.875  25.020  1.00  0.00     0.012 A 
ATOM     40  C   UNL A   1      44.084  21.900  26.091  1.00  0.00     0.148 A 
ATOM     41  C   UNL A   1      45.325  23.134  23.883  1.00  0.00     0.002 A 
ATOM     42  C   UNL A   1      44.394  21.163  24.951  1.00  0.00     0.091 A 
ATOM     43  F   UNL A   1      43.478  21.351  27.153  1.00  0.00    -0.205 F 
ATOM     44  C   UNL A   1      45.006  21.781  23.846  1.00  0.00     0.022 A 
BRANCH  42  45
ATOM     45  S   UNL A   1      44.032  19.411  24.787  1.00  0.00     0.127 S 
ATOM     46  O   UNL A   1      44.363  19.165  23.384  1.00  0.00    -0.237 OA
ATOM     47  O   UNL A   1      44.965  18.819  25.747  1.00  0.00    -0.237 OA
ATOM     48  O   UNL A   1      42.627  19.256  25.135  1.00  0.00    -0.744 OA
ENDBRANCH  42  45
ENDBRANCH  24  38
BRANCH  25  49
ATOM     49  C   UNL A   1      45.437  31.889  28.448  1.00  0.00     0.023 A 
ATOM     50  C   UNL A   1      46.717  31.580  28.973  1.00  0.00     0.012 A 
ATOM     51  C   UNL A   1      45.361  32.936  27.511  1.00  0.00     0.148 A 
ATOM     52  C   UNL A   1      47.879  32.198  28.505  1.00  0.00     0.002 A 
ATOM     53  C   UNL A   1      46.527  33.513  27.004  1.00  0.00     0.091 A 
ATOM     54  F   UNL A   1      44.157  33.357  27.104  1.00  0.00    -0.205 F 
ATOM     55  C   UNL A   1      47.786  33.145  27.497  1.00  0.00     0.022 A 
BRANCH  53  56
ATOM     56  S   UNL A   1      46.510  34.690  25.643  1.00  0.00     0.127 S 
ATOM     57  O   UNL A   1      46.156  35.936  26.320  1.00  0.00    -0.237 OA
ATOM     58  O   UNL A   1      47.894  34.610  25.181  1.00  0.00    -0.237 OA
ATOM     59  O   UNL A   1      45.511  34.195  24.707  1.00  0.00    -0.744 OA
ENDBRANCH  53  56
ENDBRANCH  25  49
BRANCH  37  60
ATOM     60  C   UNL A   1      39.943  28.187  28.715  1.00  0.00     0.023 A 
ATOM     61  C   UNL A   1      38.843  28.640  27.963  1.00  0.00     0.012 A 
ATOM     62  C   UNL A   1      39.868  28.195  30.122  1.00  0.00     0.148 A 
ATOM     63  C   UNL A   1      37.677  29.070  28.594  1.00  0.00     0.002 A 
ATOM     64  C   UNL A   1      38.695  28.609  30.748  1.00  0.00     0.091 A 
ATOM     65  F   UNL A   1      40.923  27.763  30.831  1.00  0.00    -0.205 F 
ATOM     66  C   UNL A   1      37.600  29.045  29.984  1.00  0.00     0.022 A 
BRANCH  64  67
ATOM     67  S   UNL A   1      38.484  28.601  32.535  1.00  0.00     0.127 S 
ATOM     68  O   UNL A   1      39.253  29.776  32.946  1.00  0.00    -0.237 OA
ATOM     69  O   UNL A   1      37.035  28.746  32.670  1.00  0.00    -0.237 OA
ATOM     70  O   UNL A   1      39.032  27.336  33.011  1.00  0.00    -0.744 OA
ENDBRANCH  64  67
ENDBRANCH  37  60
ENDBRANCH  11  12
ENDBRANCH   4   6
ENDBRANCH   1   2
BRANCH   1  71
ATOM     71  C   UNL A   1      41.764  25.829  36.841  1.00  0.00     0.042 C 
BRANCH  71  72
ATOM     72  C   UNL A   1      42.542  27.050  36.363  1.00  0.00     0.118 C 
BRANCH  72  73
ATOM     73  N   UNL A   1      43.602  27.410  37.306  1.00  0.00    -0.351 N 
ATOM     74  C   UNL A   1      44.533  28.399  37.249  1.00  0.00     0.270 C 
ATOM     75  H   UNL A   1      43.648  26.846  38.110  1.00  0.00     0.163 HD
ATOM     76  O   UNL A   1      45.469  28.400  38.049  1.00  0.00    -0.268 OA
BRANCH  74  77
ATOM     77  C   UNL A   1      44.435  29.440  36.213  1.00  0.00     0.134 A 
ATOM     78  C   UNL A   1      45.433  29.496  35.319  1.00  0.00     0.063 A 
ATOM     79  N   UNL A   1      43.387  30.352  36.164  1.00  0.00    -0.207 N 
ATOM     80  C   UNL A   1      45.351  30.623  34.343  1.00  0.00     0.075 A 
ATOM     81  C   UNL A   1      43.319  31.297  35.124  1.00  0.00     0.166 A 
ATOM     82  N   UNL A   1      42.348  30.469  37.031  1.00  0.00    -0.145 NA
ATOM     83  N   UNL A   1      44.378  31.487  34.268  1.00  0.00    -0.228 NA
ATOM     84  C   UNL A   1      42.022  31.772  35.181  1.00  0.00     0.069 A 
ATOM     85  C   UNL A   1      41.471  31.213  36.370  1.00  0.00     0.184 A 
ATOM     86  C   UNL A   1      41.357  32.595  34.262  1.00  0.00    -0.028 A 
ATOM     87  N   UNL A   1      40.197  31.436  36.768  1.00  0.00    -0.222 NA
ATOM     88  C   UNL A   1      40.015  32.751  34.672  1.00  0.00     0.038 A 
ATOM     89  C   UNL A   1      39.485  32.190  35.871  1.00  0.00     0.147 A 
BRANCH  80  90
ATOM     90  C   UNL A   1      46.545  30.759  33.477  1.00  0.00     0.000 A 
ATOM     91  C   UNL A   1      46.978  32.043  33.127  1.00  0.00     0.012 A 
ATOM     92  C   UNL A   1      47.277  29.633  33.083  1.00  0.00     0.012 A 
ATOM     93  C   UNL A   1      48.169  32.201  32.413  1.00  0.00     0.021 A 
ATOM     94  C   UNL A   1      48.465  29.795  32.363  1.00  0.00     0.021 A 
ATOM     95  C   UNL A   1      48.909  31.077  32.041  1.00  0.00     0.041 A 
ATOM     96  Cl  UNL A   1      50.392  31.281  31.190  1.00  0.00    -0.084 Cl
ENDBRANCH  80  90
BRANCH  86  97
ATOM     97  C   UNL A   1      42.008  33.153  33.040  1.00  0.00     0.020 C 
ATOM     98  C   UNL A   1      41.281  34.056  32.069  1.00  0.00     0.009 C 
ATOM     99  C   UNL A   1      42.305  34.635  32.997  1.00  0.00     0.009 C 
ENDBRANCH  86  97
BRANCH  89 100
ATOM    100  C   UNL A   1      38.015  32.430  36.200  1.00  0.00     0.433 C 
ATOM    101  F   UNL A   1      37.714  33.739  36.426  1.00  0.00    -0.165 F 
ATOM    102  F   UNL A   1      37.175  32.020  35.202  1.00  0.00    -0.165 F 
ATOM    103  F   UNL A   1      37.589  31.758  37.312  1.00  0.00    -0.165 F 
ENDBRANCH  89 100
ENDBRANCH  74  77
ENDBRANCH  72  73
ENDBRANCH  71  72
ENDBRANCH   1  71
TORSDOF 16
ENDMDL
MODEL 3
REMARK VINA RESULT:     -10.2      3.478      9.216
REMARK SMILES O=C(NCCCNC(=O)c1cc(-c2ccc(Cl)cc2)nc2c3c(C4CC4)cc(C(F)(F)F)nc3nn12)c1ccc(-c2c3nc(c(-c4cccc(S(=O)(=O)[O-])c4F)c4ccc([nH]4)c(-c4cccc(S(=O)(=O)[O-])c4F)c4nc(c(-c5cccc(S(=O)(=O)[O-])c5F)c5ccc2[nH]5)C=C4)C=C3)cc1
REMARK SMILES IDX 4 1 3 2 1 3 2 4 37 6 38 7 99 8 39 9 98 10 40 11 41 12 42 13
REMARK SMILES IDX 92 14 43 15 97 16 91 17 93 18 44 19 96 20 90 21 89 22 45 24
REMARK SMILES IDX 77 25 57 26 76 27 58 28 61 29 75 30 94 31 59 32 60 33 74 35
REMARK SMILES IDX 95 36 62 37 46 38 47 39 55 40 48 41 50 42 56 43 49 44 51 45
REMARK SMILES IDX 52 46 53 47 54 48 78 49 79 50 87 51 80 52 82 53 88 54 81 55
REMARK SMILES IDX 83 56 84 57 85 58 86 59 63 60 64 61 72 62 65 63 67 64 73 65
REMARK SMILES IDX 66 66 68 67 69 68 70 69 71 70 5 71 6 72 7 73 8 74 9 76 10 77
REMARK SMILES IDX 11 78 36 79 12 80 21 81 35 82 20 83 22 84 34 85 23 86 33 87
REMARK SMILES IDX 27 88 28 89 13 90 14 91 19 92 15 93 18 94 16 95 17 96 24 97
REMARK SMILES IDX 25 98 26 99 29 100 30 101 31 102 32 103
REMARK H PARENT 3 5 93 23 61 34 7 75
REMARK Flexibility Score: inf
ROOT
ATOM      1  C   UNL A   1      47.923  29.450  28.572  1.00  0.00     0.118 C 
ENDROOT
BRANCH   1   2
ATOM      2  N   UNL A   1      48.114  30.499  27.581  1.00  0.00    -0.352 N 
ATOM      3  O   UNL A   1      47.466  32.237  26.284  1.00  0.00    -0.269 OA
ATOM      4  C   UNL A   1      47.194  31.430  27.149  1.00  0.00     0.251 C 
ATOM      5  H   UNL A   1      49.007  30.551  27.171  1.00  0.00     0.163 HD
BRANCH   4   6
ATOM      6  C   UNL A   1      45.858  31.402  27.776  1.00  0.00     0.039 A 
ATOM      7  C   UNL A   1      45.677  31.978  29.038  1.00  0.00     0.014 A 
ATOM      8  C   UNL A   1      44.828  30.714  27.137  1.00  0.00     0.014 A 
ATOM      9  C   UNL A   1      44.471  31.793  29.705  1.00  0.00     0.010 A 
ATOM     10  C   UNL A   1      43.614  30.551  27.799  1.00  0.00     0.010 A 
ATOM     11  C   UNL A   1      43.436  31.081  29.087  1.00  0.00    -0.014 A 
BRANCH  11  12
ATOM     12  C   UNL A   1      42.141  31.003  29.780  1.00  0.00     0.031 A 
ATOM     13  C   UNL A   1      42.003  29.847  30.705  1.00  0.00     0.074 A 
ATOM     14  C   UNL A   1      41.349  32.078  29.970  1.00  0.00     0.049 A 
ATOM     15  N   UNL A   1      42.477  29.876  31.914  1.00  0.00    -0.248 NA
ATOM     16  C   UNL A   1      41.570  28.522  30.264  1.00  0.00     0.031 C 
ATOM     17  C   UNL A   1      41.830  33.466  29.980  1.00  0.00     0.029 A 
ATOM     18  N   UNL A   1      40.053  32.163  30.421  1.00  0.00    -0.354 N 
ATOM     19  C   UNL A   1      42.500  28.576  32.371  1.00  0.00     0.074 A 
ATOM     20  C   UNL A   1      41.887  27.774  31.333  1.00  0.00     0.031 C 
ATOM     21  C   UNL A   1      40.912  34.233  30.604  1.00  0.00     0.029 A 
ATOM     22  C   UNL A   1      39.722  33.435  30.881  1.00  0.00     0.049 A 
ATOM     23  H   UNL A   1      39.425  31.404  30.419  1.00  0.00     0.167 HD
ATOM     24  C   UNL A   1      43.055  28.225  33.561  1.00  0.00     0.034 A 
ATOM     25  C   UNL A   1      38.811  33.706  31.857  1.00  0.00     0.034 A 
ATOM     26  C   UNL A   1      43.656  29.297  34.304  1.00  0.00     0.049 A 
ATOM     27  C   UNL A   1      39.484  33.093  33.064  1.00  0.00     0.074 A 
ATOM     28  C   UNL A   1      44.914  29.852  34.405  1.00  0.00     0.029 A 
ATOM     29  N   UNL A   1      42.841  30.143  35.018  1.00  0.00    -0.354 N 
ATOM     30  N   UNL A   1      40.487  33.609  33.729  1.00  0.00    -0.248 NA
ATOM     31  C   UNL A   1      39.251  31.671  33.320  1.00  0.00     0.031 C 
ATOM     32  C   UNL A   1      44.704  31.219  34.777  1.00  0.00     0.029 A 
ATOM     33  C   UNL A   1      43.326  31.417  34.845  1.00  0.00     0.049 A 
ATOM     34  H   UNL A   1      42.055  29.885  35.553  1.00  0.00     0.167 HD
ATOM     35  C   UNL A   1      41.191  32.515  34.239  1.00  0.00     0.074 A 
ATOM     36  C   UNL A   1      40.362  31.357  33.973  1.00  0.00     0.031 C 
ATOM     37  C   UNL A   1      42.476  32.579  34.694  1.00  0.00     0.034 A 
BRANCH  24  38
ATOM     38  C   UNL A   1      42.942  26.870  34.132  1.00  0.00     0.023 A 
ATOM     39  C   UNL A   1      41.838  26.622  34.970  1.00  0.00     0.012 A 
ATOM     40  C   UNL A   1      43.941  25.894  33.983  1.00  0.00     0.148 A 
ATOM     41  C   UNL A   1      41.740  25.430  35.680  1.00  0.00     0.002 A 
ATOM     42  C   UNL A   1      43.836  24.702  34.694  1.00  0.00     0.091 A 
ATOM     43  F   UNL A   1      44.981  26.158  33.179  1.00  0.00    -0.205 F 
ATOM     44  C   UNL A   1      42.742  24.474  35.548  1.00  0.00     0.022 A 
BRANCH  42  45
ATOM     45  S   UNL A   1      45.064  23.395  34.604  1.00  0.00     0.127 S 
ATOM     46  O   UNL A   1      44.536  22.418  35.555  1.00  0.00    -0.237 OA
ATOM     47  O   UNL A   1      44.972  22.990  33.199  1.00  0.00    -0.237 OA
ATOM     48  O   UNL A   1      46.332  24.007  34.974  1.00  0.00    -0.744 OA
ENDBRANCH  42  45
ENDBRANCH  24  38
BRANCH  25  49
ATOM     49  C   UNL A   1      37.381  33.414  31.480  1.00  0.00     0.023 A 
ATOM     50  C   UNL A   1      36.566  32.776  32.449  1.00  0.00     0.012 A 
ATOM     51  C   UNL A   1      36.789  33.713  30.238  1.00  0.00     0.148 A 
ATOM     52  C   UNL A   1      35.203  32.552  32.242  1.00  0.00     0.002 A 
ATOM     53  C   UNL A   1      35.416  33.540  30.053  1.00  0.00     0.091 A 
ATOM     54  F   UNL A   1      37.559  34.177  29.247  1.00  0.00    -0.205 F 
ATOM     55  C   UNL A   1      34.622  32.962  31.052  1.00  0.00     0.022 A 
BRANCH  53  56
ATOM     56  S   UNL A   1      34.560  34.113  28.578  1.00  0.00     0.127 S 
ATOM     57  O   UNL A   1      35.072  33.204  27.553  1.00  0.00    -0.237 OA
ATOM     58  O   UNL A   1      33.165  33.895  28.955  1.00  0.00    -0.237 OA
ATOM     59  O   UNL A   1      34.950  35.506  28.412  1.00  0.00    -0.744 OA
ENDBRANCH  53  56
ENDBRANCH  25  49
BRANCH  37  60
ATOM     60  C   UNL A   1      43.063  33.947  34.854  1.00  0.00     0.023 A 
ATOM     61  C   UNL A   1      43.007  34.538  36.130  1.00  0.00     0.012 A 
ATOM     62  C   UNL A   1      43.730  34.619  33.809  1.00  0.00     0.148 A 
ATOM     63  C   UNL A   1      43.624  35.764  36.375  1.00  0.00     0.002 A 
ATOM     64  C   UNL A   1      44.360  35.834  34.063  1.00  0.00     0.091 A 
ATOM     65  F   UNL A   1      43.776  34.048  32.596  1.00  0.00    -0.205 F 
ATOM     66  C   UNL A   1      44.308  36.406  35.345  1.00  0.00     0.022 A 
BRANCH  64  67
ATOM     67  S   UNL A   1      45.283  36.738  32.811  1.00  0.00     0.127 S 
ATOM     68  O   UNL A   1      45.710  37.933  33.538  1.00  0.00    -0.237 OA
ATOM     69  O   UNL A   1      46.362  35.802  32.495  1.00  0.00    -0.237 OA
ATOM     70  O   UNL A   1      44.352  37.006  31.722  1.00  0.00    -0.744 OA
ENDBRANCH  64  67
ENDBRANCH  37  60
ENDBRANCH  11  12
ENDBRANCH   4   6
ENDBRANCH   1   2
BRANCH   1  71
ATOM     71  C   UNL A   1      48.219  28.055  28.033  1.00  0.00     0.042 C 
BRANCH  71  72
ATOM     72  C   UNL A   1      46.993  27.382  27.426  1.00  0.00     0.118 C 
BRANCH  72  73
ATOM     73  N   UNL A   1      46.754  27.843  26.057  1.00  0.00    -0.351 N 
ATOM     74  C   UNL A   1      45.802  27.479  25.157  1.00  0.00     0.270 C 
ATOM     75  H   UNL A   1      47.385  28.527  25.737  1.00  0.00     0.163 HD
ATOM     76  O   UNL A   1      45.905  27.838  23.984  1.00  0.00    -0.268 OA
BRANCH  74  77
ATOM     77  C   UNL A   1      44.677  26.632  25.584  1.00  0.00     0.134 A 
ATOM     78  C   UNL A   1      43.516  27.255  25.835  1.00  0.00     0.063 A 
ATOM     79  N   UNL A   1      44.797  25.258  25.759  1.00  0.00    -0.207 N 
ATOM     80  C   UNL A   1      42.424  26.381  26.359  1.00  0.00     0.075 A 
ATOM     81  C   UNL A   1      43.675  24.491  26.123  1.00  0.00     0.166 A 
ATOM     82  N   UNL A   1      45.913  24.498  25.614  1.00  0.00    -0.145 NA
ATOM     83  N   UNL A   1      42.505  25.091  26.524  1.00  0.00    -0.228 NA
ATOM     84  C   UNL A   1      44.056  23.188  25.859  1.00  0.00     0.069 A 
ATOM     85  C   UNL A   1      45.442  23.261  25.536  1.00  0.00     0.184 A 
ATOM     86  C   UNL A   1      43.262  22.033  25.864  1.00  0.00    -0.028 A 
ATOM     87  N   UNL A   1      46.178  22.177  25.199  1.00  0.00    -0.222 NA
ATOM     88  C   UNL A   1      44.044  20.935  25.443  1.00  0.00     0.038 A 
ATOM     89  C   UNL A   1      45.433  21.028  25.132  1.00  0.00     0.147 A 
BRANCH  80  90
ATOM     90  C   UNL A   1      41.211  27.118  26.783  1.00  0.00     0.000 A 
ATOM     91  C   UNL A   1      40.254  26.449  27.554  1.00  0.00     0.012 A 
ATOM     92  C   UNL A   1      41.061  28.479  26.490  1.00  0.00     0.012 A 
ATOM     93  C   UNL A   1      39.163  27.155  28.067  1.00  0.00     0.021 A 
ATOM     94  C   UNL A   1      39.964  29.180  27.000  1.00  0.00     0.021 A 
ATOM     95  C   UNL A   1      39.027  28.517  27.794  1.00  0.00     0.041 A 
ATOM     96  Cl  UNL A   1      37.697  29.388  28.456  1.00  0.00    -0.084 Cl
ENDBRANCH  80  90
BRANCH  86  97
ATOM     97  C   UNL A   1      41.813  22.035  26.227  1.00  0.00     0.020 C 
ATOM     98  C   UNL A   1      41.011  20.764  26.381  1.00  0.00     0.009 C 
ATOM     99  C   UNL A   1      41.415  21.538  27.598  1.00  0.00     0.009 C 
ENDBRANCH  86  97
BRANCH  89 100
ATOM    100  C   UNL A   1      46.165  19.767  24.686  1.00  0.00     0.433 C 
ATOM    101  F   UNL A   1      46.189  18.787  25.632  1.00  0.00    -0.165 F 
ATOM    102  F   UNL A   1      45.611  19.199  23.573  1.00  0.00    -0.165 F 
ATOM    103  F   UNL A   1      47.473  19.986  24.351  1.00  0.00    -0.165 F 
ENDBRANCH  89 100
ENDBRANCH  74  77
ENDBRANCH  72  73
ENDBRANCH  71  72
ENDBRANCH   1  71
TORSDOF 16
ENDMDL
