MODEL 1
REMARK VINA RESULT:     -11.7      0.000      0.000
REMARK SMILES O=C(NCCCNC(=O)[C@@H]1CCCN(C(=O)Cc2ccc3c(c2)CCO3)C1)c1ccc(-c2c3nc(c(-c4cccc(S(=O)(=O)[O-])c4F)c4ccc([nH]4)c(-c4cccc(S(=O)(=O)[O-])c4F)c4nc(c(-c5cccc(S(=O)(=O)[O-])c5F)c5ccc2[nH]5)C=C4)C=C3)cc1
REMARK SMILES IDX 5 1 4 2 3 3 1 4 2 5 28 7 29 8 90 9 30 10 89 11 31 12 32 13
REMARK SMILES IDX 33 14 83 15 34 16 88 17 82 18 84 19 35 20 87 21 81 22 80 23
REMARK SMILES IDX 36 25 68 26 48 27 67 28 49 29 52 30 66 31 85 32 50 33 51 34
REMARK SMILES IDX 65 36 86 37 53 38 37 39 38 40 46 41 39 42 41 43 47 44 40 45
REMARK SMILES IDX 42 46 43 47 44 48 45 49 69 50 70 51 78 52 71 53 73 54 79 55
REMARK SMILES IDX 72 56 74 57 75 58 76 59 77 60 54 61 55 62 63 63 56 64 58 65
REMARK SMILES IDX 64 66 57 67 59 68 60 69 61 70 62 71 6 72 7 73 8 74 9 76
REMARK SMILES IDX 10 77 11 78 27 79 12 80 14 81 13 82 15 83 16 84 17 85 18 86
REMARK SMILES IDX 19 87 23 88 20 89 22 90 21 91 24 92 26 93 25 94
REMARK H PARENT 3 6 84 24 52 35 7 75
REMARK Flexibility Score: inf
ROOT
ATOM      1  C   UNL A   1      33.330  27.481  26.415  1.00  0.00     0.042 C 
ENDROOT
BRANCH   1   2
ATOM      2  C   UNL A   1      34.050  28.653  25.745  1.00  0.00     0.118 C 
BRANCH   2   3
ATOM      3  N   UNL A   1      33.740  29.932  26.366  1.00  0.00    -0.352 N 
ATOM      4  O   UNL A   1      33.773  31.557  27.912  1.00  0.00    -0.269 OA
ATOM      5  C   UNL A   1      34.347  30.589  27.416  1.00  0.00     0.251 C 
ATOM      6  H   UNL A   1      32.971  30.405  25.973  1.00  0.00     0.163 HD
BRANCH   5   7
ATOM      7  C   UNL A   1      35.651  30.144  27.971  1.00  0.00     0.039 A 
ATOM      8  C   UNL A   1      36.844  30.368  27.295  1.00  0.00     0.014 A 
ATOM      9  C   UNL A   1      35.696  29.541  29.235  1.00  0.00     0.014 A 
ATOM     10  C   UNL A   1      38.039  29.842  27.796  1.00  0.00     0.010 A 
ATOM     11  C   UNL A   1      36.919  29.101  29.778  1.00  0.00     0.010 A 
ATOM     12  C   UNL A   1      38.111  29.198  29.046  1.00  0.00    -0.014 A 
BRANCH  12  13
ATOM     13  C   UNL A   1      39.431  28.692  29.559  1.00  0.00     0.031 A 
ATOM     14  C   UNL A   1      40.188  27.555  28.894  1.00  0.00     0.074 A 
ATOM     15  C   UNL A   1      39.986  29.279  30.643  1.00  0.00     0.049 A 
ATOM     16  N   UNL A   1      41.344  27.025  29.225  1.00  0.00    -0.248 NA
ATOM     17  C   UNL A   1      39.583  26.929  27.708  1.00  0.00     0.031 C 
ATOM     18  C   UNL A   1      39.377  30.360  31.421  1.00  0.00     0.029 A 
ATOM     19  N   UNL A   1      41.183  29.056  31.285  1.00  0.00    -0.354 N 
ATOM     20  C   UNL A   1      41.586  25.998  28.316  1.00  0.00     0.074 A 
ATOM     21  C   UNL A   1      40.457  25.977  27.411  1.00  0.00     0.031 C 
ATOM     22  C   UNL A   1      40.214  30.738  32.394  1.00  0.00     0.029 A 
ATOM     23  C   UNL A   1      41.376  29.860  32.385  1.00  0.00     0.049 A 
ATOM     24  H   UNL A   1      41.839  28.384  30.986  1.00  0.00     0.167 HD
ATOM     25  C   UNL A   1      42.642  25.149  28.232  1.00  0.00     0.034 A 
ATOM     26  C   UNL A   1      42.342  29.874  33.324  1.00  0.00     0.034 A 
ATOM     27  C   UNL A   1      43.770  25.150  29.131  1.00  0.00     0.049 A 
ATOM     28  C   UNL A   1      43.475  28.896  33.233  1.00  0.00     0.074 A 
ATOM     29  C   UNL A   1      44.890  24.334  29.104  1.00  0.00     0.029 A 
ATOM     30  N   UNL A   1      43.918  25.987  30.224  1.00  0.00    -0.354 N 
ATOM     31  N   UNL A   1      43.717  27.998  32.309  1.00  0.00    -0.248 NA
ATOM     32  C   UNL A   1      44.477  28.942  34.307  1.00  0.00     0.031 C 
ATOM     33  C   UNL A   1      45.695  24.652  30.202  1.00  0.00     0.029 A 
ATOM     34  C   UNL A   1      45.100  25.696  30.889  1.00  0.00     0.049 A 
ATOM     35  H   UNL A   1      43.277  26.686  30.491  1.00  0.00     0.167 HD
ATOM     36  C   UNL A   1      44.911  27.391  32.677  1.00  0.00     0.074 A 
ATOM     37  C   UNL A   1      45.358  28.044  33.890  1.00  0.00     0.031 C 
ATOM     38  C   UNL A   1      45.567  26.372  32.072  1.00  0.00     0.034 A 
BRANCH  25  39
ATOM     39  C   UNL A   1      42.654  24.135  27.110  1.00  0.00     0.023 A 
ATOM     40  C   UNL A   1      43.349  24.423  25.917  1.00  0.00     0.012 A 
ATOM     41  C   UNL A   1      42.064  22.864  27.273  1.00  0.00     0.148 A 
ATOM     42  C   UNL A   1      43.434  23.475  24.896  1.00  0.00     0.002 A 
ATOM     43  C   UNL A   1      42.188  21.910  26.267  1.00  0.00     0.091 A 
ATOM     44  F   UNL A   1      41.399  22.609  28.408  1.00  0.00    -0.205 F 
ATOM     45  C   UNL A   1      42.864  22.217  25.075  1.00  0.00     0.022 A 
BRANCH  43  46
ATOM     46  S   UNL A   1      41.559  20.234  26.428  1.00  0.00     0.127 S 
ATOM     47  O   UNL A   1      42.074  19.853  27.741  1.00  0.00    -0.237 OA
ATOM     48  O   UNL A   1      40.113  20.440  26.377  1.00  0.00    -0.237 OA
ATOM     49  O   UNL A   1      42.109  19.489  25.302  1.00  0.00    -0.744 OA
ENDBRANCH  43  46
ENDBRANCH  25  39
BRANCH  26  50
ATOM     50  C   UNL A   1      42.263  30.848  34.451  1.00  0.00     0.023 A 
ATOM     51  C   UNL A   1      41.647  30.474  35.660  1.00  0.00     0.012 A 
ATOM     52  C   UNL A   1      42.824  32.134  34.335  1.00  0.00     0.148 A 
ATOM     53  C   UNL A   1      41.570  31.374  36.724  1.00  0.00     0.002 A 
ATOM     54  C   UNL A   1      42.809  32.999  35.422  1.00  0.00     0.091 A 
ATOM     55  F   UNL A   1      43.383  32.483  33.167  1.00  0.00    -0.205 F 
ATOM     56  C   UNL A   1      42.163  32.629  36.611  1.00  0.00     0.022 A 
BRANCH  54  57
ATOM     57  S   UNL A   1      43.691  34.563  35.409  1.00  0.00     0.127 S 
ATOM     58  O   UNL A   1      43.433  35.062  36.756  1.00  0.00    -0.237 OA
ATOM     59  O   UNL A   1      45.067  34.133  35.162  1.00  0.00    -0.237 OA
ATOM     60  O   UNL A   1      43.103  35.334  34.322  1.00  0.00    -0.744 OA
ENDBRANCH  54  57
ENDBRANCH  26  50
BRANCH  38  61
ATOM     61  C   UNL A   1      46.867  25.921  32.685  1.00  0.00     0.023 A 
ATOM     62  C   UNL A   1      48.067  26.589  32.369  1.00  0.00     0.012 A 
ATOM     63  C   UNL A   1      46.892  24.855  33.607  1.00  0.00     0.148 A 
ATOM     64  C   UNL A   1      49.277  26.175  32.925  1.00  0.00     0.002 A 
ATOM     65  C   UNL A   1      48.094  24.483  34.197  1.00  0.00     0.091 A 
ATOM     66  F   UNL A   1      45.744  24.220  33.881  1.00  0.00    -0.205 F 
ATOM     67  C   UNL A   1      49.289  25.130  33.846  1.00  0.00     0.022 A 
BRANCH  65  68
ATOM     68  S   UNL A   1      48.193  23.210  35.460  1.00  0.00     0.127 S 
ATOM     69  O   UNL A   1      47.801  22.016  34.713  1.00  0.00    -0.237 OA
ATOM     70  O   UNL A   1      49.607  23.257  35.836  1.00  0.00    -0.237 OA
ATOM     71  O   UNL A   1      47.273  23.616  36.514  1.00  0.00    -0.744 OA
ENDBRANCH  65  68
ENDBRANCH  38  61
ENDBRANCH  12  13
ENDBRANCH   5   7
ENDBRANCH   2   3
ENDBRANCH   1   2
BRANCH   1  72
ATOM     72  C   UNL A   1      33.668  26.120  25.809  1.00  0.00     0.117 C 
BRANCH  72  73
ATOM     73  N   UNL A   1      32.766  25.073  26.252  1.00  0.00    -0.356 N 
ATOM     74  C   UNL A   1      32.881  23.833  26.769  1.00  0.00     0.224 C 
ATOM     75  H   UNL A   1      31.823  25.338  26.149  1.00  0.00     0.163 HD
ATOM     76  O   UNL A   1      31.811  23.382  27.203  1.00  0.00    -0.275 OA
BRANCH  74  77
ATOM     77  C   UNL A   1      34.169  23.025  26.984  1.00  0.00     0.098 C 
ATOM     78  C   UNL A   1      35.493  23.386  26.297  1.00  0.00     0.017 C 
ATOM     79  C   UNL A   1      33.851  21.532  26.690  1.00  0.00     0.133 C 
ATOM     80  C   UNL A   1      35.530  23.006  24.818  1.00  0.00     0.022 C 
ATOM     81  N   UNL A   1      33.903  21.256  25.249  1.00  0.00    -0.342 N 
ATOM     82  C   UNL A   1      35.200  21.527  24.650  1.00  0.00     0.119 C 
BRANCH  81  83
ATOM     83  C   UNL A   1      32.733  20.927  24.568  1.00  0.00     0.227 C 
ATOM     84  O   UNL A   1      31.852  20.237  25.092  1.00  0.00    -0.275 OA
BRANCH  83  85
ATOM     85  C   UNL A   1      32.539  21.395  23.127  1.00  0.00     0.135 C 
BRANCH  85  86
ATOM     86  C   UNL A   1      32.093  22.834  23.003  1.00  0.00    -0.038 A 
ATOM     87  C   UNL A   1      30.876  23.260  23.582  1.00  0.00     0.008 A 
ATOM     88  C   UNL A   1      32.904  23.763  22.333  1.00  0.00     0.012 A 
ATOM     89  C   UNL A   1      30.486  24.598  23.514  1.00  0.00     0.047 A 
ATOM     90  C   UNL A   1      32.559  25.094  22.371  1.00  0.00    -0.002 A 
ATOM     91  C   UNL A   1      31.361  25.488  22.930  1.00  0.00     0.122 A 
ATOM     92  C   UNL A   1      33.294  26.277  21.874  1.00  0.00     0.081 C 
ATOM     93  O   UNL A   1      31.168  26.833  22.862  1.00  0.00    -0.493 OA
ATOM     94  C   UNL A   1      32.478  27.361  22.566  1.00  0.00     0.234 C 
ENDBRANCH  85  86
ENDBRANCH  83  85
ENDBRANCH  81  83
ENDBRANCH  74  77
ENDBRANCH  72  73
ENDBRANCH   1  72
TORSDOF 16
ENDMDL
MODEL 2
REMARK VINA RESULT:     -11.5      2.308      3.756
REMARK SMILES O=C(NCCCNC(=O)[C@@H]1CCCN(C(=O)Cc2ccc3c(c2)CCO3)C1)c1ccc(-c2c3nc(c(-c4cccc(S(=O)(=O)[O-])c4F)c4ccc([nH]4)c(-c4cccc(S(=O)(=O)[O-])c4F)c4nc(c(-c5cccc(S(=O)(=O)[O-])c5F)c5ccc2[nH]5)C=C4)C=C3)cc1
REMARK SMILES IDX 5 1 4 2 3 3 1 4 2 5 28 7 29 8 90 9 30 10 89 11 31 12 32 13
REMARK SMILES IDX 33 14 83 15 34 16 88 17 82 18 84 19 35 20 87 21 81 22 80 23
REMARK SMILES IDX 36 25 68 26 48 27 67 28 49 29 52 30 66 31 85 32 50 33 51 34
REMARK SMILES IDX 65 36 86 37 53 38 37 39 38 40 46 41 39 42 41 43 47 44 40 45
REMARK SMILES IDX 42 46 43 47 44 48 45 49 69 50 70 51 78 52 71 53 73 54 79 55
REMARK SMILES IDX 72 56 74 57 75 58 76 59 77 60 54 61 55 62 63 63 56 64 58 65
REMARK SMILES IDX 64 66 57 67 59 68 60 69 61 70 62 71 6 72 7 73 8 74 9 76
REMARK SMILES IDX 10 77 11 78 27 79 12 80 14 81 13 82 15 83 16 84 17 85 18 86
REMARK SMILES IDX 19 87 23 88 20 89 22 90 21 91 24 92 26 93 25 94
REMARK H PARENT 3 6 84 24 52 35 7 75
REMARK Flexibility Score: inf
ROOT
ATOM      1  C   UNL A   1      31.696  28.409  26.334  1.00  0.00     0.042 C 
ENDROOT
BRANCH   1   2
ATOM      2  C   UNL A   1      32.521  29.433  25.551  1.00  0.00     0.118 C 
BRANCH   2   3
ATOM      3  N   UNL A   1      32.252  30.804  25.963  1.00  0.00    -0.352 N 
ATOM      4  O   UNL A   1      32.312  32.640  27.250  1.00  0.00    -0.269 OA
ATOM      5  C   UNL A   1      32.854  31.585  26.927  1.00  0.00     0.251 C 
ATOM      6  H   UNL A   1      31.521  31.245  25.473  1.00  0.00     0.163 HD
BRANCH   5   7
ATOM      7  C   UNL A   1      34.116  31.173  27.594  1.00  0.00     0.039 A 
ATOM      8  C   UNL A   1      34.320  29.867  28.022  1.00  0.00     0.014 A 
ATOM      9  C   UNL A   1      35.155  32.101  27.743  1.00  0.00     0.014 A 
ATOM     10  C   UNL A   1      35.476  29.542  28.741  1.00  0.00     0.010 A 
ATOM     11  C   UNL A   1      36.357  31.738  28.382  1.00  0.00     0.010 A 
ATOM     12  C   UNL A   1      36.522  30.462  28.939  1.00  0.00    -0.014 A 
BRANCH  12  13
ATOM     13  C   UNL A   1      37.763  30.045  29.680  1.00  0.00     0.031 A 
ATOM     14  C   UNL A   1      38.799  29.107  29.084  1.00  0.00     0.074 A 
ATOM     15  C   UNL A   1      37.985  30.535  30.921  1.00  0.00     0.049 A 
ATOM     16  N   UNL A   1      39.922  28.673  29.609  1.00  0.00    -0.248 NA
ATOM     17  C   UNL A   1      38.554  28.587  27.729  1.00  0.00     0.031 C 
ATOM     18  C   UNL A   1      37.077  31.420  31.653  1.00  0.00     0.029 A 
ATOM     19  N   UNL A   1      39.039  30.364  31.789  1.00  0.00    -0.354 N 
ATOM     20  C   UNL A   1      40.496  27.818  28.671  1.00  0.00     0.074 A 
ATOM     21  C   UNL A   1      39.598  27.793  27.536  1.00  0.00     0.031 C 
ATOM     22  C   UNL A   1      37.627  31.752  32.827  1.00  0.00     0.029 A 
ATOM     23  C   UNL A   1      38.878  31.024  32.987  1.00  0.00     0.049 A 
ATOM     24  H   UNL A   1      39.833  29.821  31.575  1.00  0.00     0.167 HD
ATOM     25  C   UNL A   1      41.656  27.116  28.737  1.00  0.00     0.034 A 
ATOM     26  C   UNL A   1      39.611  31.018  34.117  1.00  0.00     0.034 A 
ATOM     27  C   UNL A   1      42.556  27.122  29.863  1.00  0.00     0.049 A 
ATOM     28  C   UNL A   1      40.866  30.199  34.178  1.00  0.00     0.074 A 
ATOM     29  C   UNL A   1      43.761  26.453  30.003  1.00  0.00     0.029 A 
ATOM     30  N   UNL A   1      42.348  27.810  31.048  1.00  0.00    -0.354 N 
ATOM     31  N   UNL A   1      41.424  29.474  33.241  1.00  0.00    -0.248 NA
ATOM     32  C   UNL A   1      41.601  30.210  35.451  1.00  0.00     0.031 C 
ATOM     33  C   UNL A   1      44.262  26.705  31.284  1.00  0.00     0.029 A 
ATOM     34  C   UNL A   1      43.391  27.567  31.928  1.00  0.00     0.049 A 
ATOM     35  H   UNL A   1      41.571  28.386  31.237  1.00  0.00     0.167 HD
ATOM     36  C   UNL A   1      42.588  28.963  33.802  1.00  0.00     0.074 A 
ATOM     37  C   UNL A   1      42.670  29.487  35.149  1.00  0.00     0.031 C 
ATOM     38  C   UNL A   1      43.496  28.120  33.253  1.00  0.00     0.034 A 
BRANCH  25  39
ATOM     39  C   UNL A   1      42.050  26.277  27.542  1.00  0.00     0.023 A 
ATOM     40  C   UNL A   1      42.784  26.863  26.491  1.00  0.00     0.012 A 
ATOM     41  C   UNL A   1      41.781  24.893  27.506  1.00  0.00     0.148 A 
ATOM     42  C   UNL A   1      43.222  26.092  25.412  1.00  0.00     0.002 A 
ATOM     43  C   UNL A   1      42.255  24.124  26.447  1.00  0.00     0.091 A 
ATOM     44  F   UNL A   1      41.073  24.353  28.507  1.00  0.00    -0.205 F 
ATOM     45  C   UNL A   1      42.966  24.723  25.395  1.00  0.00     0.022 A 
BRANCH  43  46
ATOM     46  S   UNL A   1      42.048  22.340  26.367  1.00  0.00     0.127 S 
ATOM     47  O   UNL A   1      40.609  22.221  26.149  1.00  0.00    -0.237 OA
ATOM     48  O   UNL A   1      42.871  21.985  25.212  1.00  0.00    -0.237 OA
ATOM     49  O   UNL A   1      42.532  21.823  27.642  1.00  0.00    -0.744 OA
ENDBRANCH  43  46
ENDBRANCH  25  39
BRANCH  26  50
ATOM     50  C   UNL A   1      39.157  31.809  35.296  1.00  0.00     0.023 A 
ATOM     51  C   UNL A   1      38.306  31.221  36.251  1.00  0.00     0.012 A 
ATOM     52  C   UNL A   1      39.591  33.135  35.488  1.00  0.00     0.148 A 
ATOM     53  C   UNL A   1      37.877  31.949  37.362  1.00  0.00     0.002 A 
ATOM     54  C   UNL A   1      39.220  33.829  36.632  1.00  0.00     0.091 A 
ATOM     55  F   UNL A   1      40.380  33.688  34.555  1.00  0.00    -0.205 F 
ATOM     56  C   UNL A   1      38.345  33.246  37.561  1.00  0.00     0.022 A 
BRANCH  54  57
ATOM     57  S   UNL A   1      39.909  35.436  37.039  1.00  0.00     0.127 S 
ATOM     58  O   UNL A   1      39.169  35.781  38.249  1.00  0.00    -0.237 OA
ATOM     59  O   UNL A   1      41.321  35.116  37.249  1.00  0.00    -0.237 OA
ATOM     60  O   UNL A   1      39.654  36.276  35.877  1.00  0.00    -0.744 OA
ENDBRANCH  54  57
ENDBRANCH  26  50
BRANCH  38  61
ATOM     61  C   UNL A   1      44.687  27.741  34.094  1.00  0.00     0.023 A 
ATOM     62  C   UNL A   1      45.845  28.545  34.082  1.00  0.00     0.012 A 
ATOM     63  C   UNL A   1      44.645  26.605  34.925  1.00  0.00     0.148 A 
ATOM     64  C   UNL A   1      46.956  28.200  34.850  1.00  0.00     0.002 A 
ATOM     65  C   UNL A   1      45.737  26.296  35.728  1.00  0.00     0.091 A 
ATOM     66  F   UNL A   1      43.543  25.841  34.909  1.00  0.00    -0.205 F 
ATOM     67  C   UNL A   1      46.899  27.082  35.679  1.00  0.00     0.022 A 
BRANCH  65  68
ATOM     68  S   UNL A   1      45.721  24.930  36.893  1.00  0.00     0.127 S 
ATOM     69  O   UNL A   1      45.672  23.774  35.999  1.00  0.00    -0.237 OA
ATOM     70  O   UNL A   1      46.994  25.106  37.593  1.00  0.00    -0.237 OA
ATOM     71  O   UNL A   1      44.541  25.125  37.726  1.00  0.00    -0.744 OA
ENDBRANCH  65  68
ENDBRANCH  38  61
ENDBRANCH  12  13
ENDBRANCH   5   7
ENDBRANCH   2   3
ENDBRANCH   1   2
BRANCH   1  72
ATOM     72  C   UNL A   1      31.024  27.357  25.455  1.00  0.00     0.117 C 
BRANCH  72  73
ATOM     73  N   UNL A   1      30.933  26.063  26.106  1.00  0.00    -0.356 N 
ATOM     74  C   UNL A   1      31.786  25.078  26.452  1.00  0.00     0.224 C 
ATOM     75  H   UNL A   1      30.007  25.849  26.364  1.00  0.00     0.163 HD
ATOM     76  O   UNL A   1      31.277  24.229  27.200  1.00  0.00    -0.275 OA
BRANCH  74  77
ATOM     77  C   UNL A   1      33.285  24.983  26.136  1.00  0.00     0.098 C 
ATOM     78  C   UNL A   1      33.966  25.884  25.096  1.00  0.00     0.017 C 
ATOM     79  C   UNL A   1      33.610  23.502  25.795  1.00  0.00     0.133 C 
ATOM     80  C   UNL A   1      33.661  25.479  23.654  1.00  0.00     0.022 C 
ATOM     81  N   UNL A   1      33.282  23.199  24.396  1.00  0.00    -0.342 N 
ATOM     82  C   UNL A   1      34.013  24.012  23.437  1.00  0.00     0.119 C 
BRANCH  81  83
ATOM     83  C   UNL A   1      32.241  22.320  24.108  1.00  0.00     0.227 C 
ATOM     84  O   UNL A   1      31.528  22.466  23.110  1.00  0.00    -0.275 OA
BRANCH  83  85
ATOM     85  C   UNL A   1      31.942  21.163  25.060  1.00  0.00     0.135 C 
BRANCH  85  86
ATOM     86  C   UNL A   1      32.332  19.806  24.520  1.00  0.00    -0.038 A 
ATOM     87  C   UNL A   1      32.162  19.504  23.150  1.00  0.00     0.008 A 
ATOM     88  C   UNL A   1      32.894  18.847  25.377  1.00  0.00     0.012 A 
ATOM     89  C   UNL A   1      32.569  18.271  22.638  1.00  0.00     0.047 A 
ATOM     90  C   UNL A   1      33.389  17.683  24.837  1.00  0.00    -0.002 A 
ATOM     91  C   UNL A   1      33.202  17.401  23.499  1.00  0.00     0.122 A 
ATOM     92  C   UNL A   1      34.139  16.584  25.481  1.00  0.00     0.081 C 
ATOM     93  O   UNL A   1      33.732  16.201  23.137  1.00  0.00    -0.493 OA
ATOM     94  C   UNL A   1      34.618  15.867  24.226  1.00  0.00     0.234 C 
ENDBRANCH  85  86
ENDBRANCH  83  85
ENDBRANCH  81  83
ENDBRANCH  74  77
ENDBRANCH  72  73
ENDBRANCH   1  72
TORSDOF 16
ENDMDL
MODEL 3
REMARK VINA RESULT:     -11.5      4.957      7.661
REMARK SMILES O=C(NCCCNC(=O)[C@@H]1CCCN(C(=O)Cc2ccc3c(c2)CCO3)C1)c1ccc(-c2c3nc(c(-c4cccc(S(=O)(=O)[O-])c4F)c4ccc([nH]4)c(-c4cccc(S(=O)(=O)[O-])c4F)c4nc(c(-c5cccc(S(=O)(=O)[O-])c5F)c5ccc2[nH]5)C=C4)C=C3)cc1
REMARK SMILES IDX 5 1 4 2 3 3 1 4 2 5 28 7 29 8 90 9 30 10 89 11 31 12 32 13
REMARK SMILES IDX 33 14 83 15 34 16 88 17 82 18 84 19 35 20 87 21 81 22 80 23
REMARK SMILES IDX 36 25 68 26 48 27 67 28 49 29 52 30 66 31 85 32 50 33 51 34
REMARK SMILES IDX 65 36 86 37 53 38 37 39 38 40 46 41 39 42 41 43 47 44 40 45
REMARK SMILES IDX 42 46 43 47 44 48 45 49 69 50 70 51 78 52 71 53 73 54 79 55
REMARK SMILES IDX 72 56 74 57 75 58 76 59 77 60 54 61 55 62 63 63 56 64 58 65
REMARK SMILES IDX 64 66 57 67 59 68 60 69 61 70 62 71 6 72 7 73 8 74 9 76
REMARK SMILES IDX 10 77 11 78 27 79 12 80 14 81 13 82 15 83 16 84 17 85 18 86
REMARK SMILES IDX 19 87 23 88 20 89 22 90 21 91 24 92 26 93 25 94
REMARK H PARENT 3 6 84 24 52 35 7 75
REMARK Flexibility Score: inf
ROOT
ATOM      1  C   UNL A   1      35.278  23.118  24.640  1.00  0.00     0.042 C 
ENDROOT
BRANCH   1   2
ATOM      2  C   UNL A   1      35.650  22.403  25.941  1.00  0.00     0.118 C 
BRANCH   2   3
ATOM      3  N   UNL A   1      36.658  21.371  25.746  1.00  0.00    -0.352 N 
ATOM      4  O   UNL A   1      38.681  20.487  25.348  1.00  0.00    -0.269 OA
ATOM      5  C   UNL A   1      38.035  21.450  25.757  1.00  0.00     0.251 C 
ATOM      6  H   UNL A   1      36.298  20.470  25.578  1.00  0.00     0.163 HD
BRANCH   5   7
ATOM      7  C   UNL A   1      38.747  22.667  26.225  1.00  0.00     0.039 A 
ATOM      8  C   UNL A   1      38.315  23.941  25.878  1.00  0.00     0.014 A 
ATOM      9  C   UNL A   1      39.843  22.539  27.088  1.00  0.00     0.014 A 
ATOM     10  C   UNL A   1      39.072  25.058  26.248  1.00  0.00     0.010 A 
ATOM     11  C   UNL A   1      40.541  23.676  27.537  1.00  0.00     0.010 A 
ATOM     12  C   UNL A   1      40.200  24.959  27.084  1.00  0.00    -0.014 A 
BRANCH  12  13
ATOM     13  C   UNL A   1      40.949  26.198  27.489  1.00  0.00     0.031 A 
ATOM     14  C   UNL A   1      42.405  26.434  27.122  1.00  0.00     0.074 A 
ATOM     15  C   UNL A   1      40.305  27.158  28.191  1.00  0.00     0.049 A 
ATOM     16  N   UNL A   1      43.172  27.464  27.398  1.00  0.00    -0.248 NA
ATOM     17  C   UNL A   1      43.095  25.389  26.349  1.00  0.00     0.031 C 
ATOM     18  C   UNL A   1      38.919  27.078  28.653  1.00  0.00     0.029 A 
ATOM     19  N   UNL A   1      40.724  28.390  28.641  1.00  0.00    -0.354 N 
ATOM     20  C   UNL A   1      44.426  27.182  26.862  1.00  0.00     0.074 A 
ATOM     21  C   UNL A   1      44.322  25.880  26.239  1.00  0.00     0.031 C 
ATOM     22  C   UNL A   1      38.586  28.217  29.272  1.00  0.00     0.029 A 
ATOM     23  C   UNL A   1      39.762  29.073  29.350  1.00  0.00     0.049 A 
ATOM     24  H   UNL A   1      41.626  28.748  28.473  1.00  0.00     0.167 HD
ATOM     25  C   UNL A   1      45.561  27.926  26.880  1.00  0.00     0.034 A 
ATOM     26  C   UNL A   1      39.811  30.231  30.037  1.00  0.00     0.034 A 
ATOM     27  C   UNL A   1      45.685  29.220  27.504  1.00  0.00     0.049 A 
ATOM     28  C   UNL A   1      41.090  31.012  30.077  1.00  0.00     0.074 A 
ATOM     29  C   UNL A   1      46.795  30.048  27.553  1.00  0.00     0.029 A 
ATOM     30  N   UNL A   1      44.680  29.868  28.204  1.00  0.00    -0.354 N 
ATOM     31  N   UNL A   1      42.230  30.758  29.485  1.00  0.00    -0.248 NA
ATOM     32  C   UNL A   1      41.085  32.249  30.871  1.00  0.00     0.031 C 
ATOM     33  C   UNL A   1      46.473  31.177  28.313  1.00  0.00     0.029 A 
ATOM     34  C   UNL A   1      45.148  31.074  28.701  1.00  0.00     0.049 A 
ATOM     35  H   UNL A   1      43.766  29.521  28.330  1.00  0.00     0.167 HD
ATOM     36  C   UNL A   1      43.070  31.815  29.813  1.00  0.00     0.074 A 
ATOM     37  C   UNL A   1      42.297  32.727  30.630  1.00  0.00     0.031 C 
ATOM     38  C   UNL A   1      44.369  32.002  29.480  1.00  0.00     0.034 A 
BRANCH  25  39
ATOM     39  C   UNL A   1      46.786  27.374  26.185  1.00  0.00     0.023 A 
ATOM     40  C   UNL A   1      47.581  26.408  26.835  1.00  0.00     0.012 A 
ATOM     41  C   UNL A   1      47.092  27.737  24.857  1.00  0.00     0.148 A 
ATOM     42  C   UNL A   1      48.674  25.832  26.187  1.00  0.00     0.002 A 
ATOM     43  C   UNL A   1      48.159  27.128  24.203  1.00  0.00     0.091 A 
ATOM     44  F   UNL A   1      46.333  28.664  24.256  1.00  0.00    -0.205 F 
ATOM     45  C   UNL A   1      48.956  26.183  24.869  1.00  0.00     0.022 A 
BRANCH  43  46
ATOM     46  S   UNL A   1      48.561  27.451  22.481  1.00  0.00     0.127 S 
ATOM     47  O   UNL A   1      48.653  26.096  21.942  1.00  0.00    -0.237 OA
ATOM     48  O   UNL A   1      47.395  28.209  22.028  1.00  0.00    -0.237 OA
ATOM     49  O   UNL A   1      49.810  28.204  22.494  1.00  0.00    -0.744 OA
ENDBRANCH  43  46
ENDBRANCH  25  39
BRANCH  26  50
ATOM     50  C   UNL A   1      38.599  30.711  30.762  1.00  0.00     0.023 A 
ATOM     51  C   UNL A   1      38.486  30.511  32.150  1.00  0.00     0.012 A 
ATOM     52  C   UNL A   1      37.571  31.392  30.080  1.00  0.00     0.148 A 
ATOM     53  C   UNL A   1      37.360  30.959  32.842  1.00  0.00     0.002 A 
ATOM     54  C   UNL A   1      36.488  31.900  30.786  1.00  0.00     0.091 A 
ATOM     55  F   UNL A   1      37.683  31.551  28.753  1.00  0.00    -0.205 F 
ATOM     56  C   UNL A   1      36.369  31.666  32.164  1.00  0.00     0.022 A 
BRANCH  54  57
ATOM     57  S   UNL A   1      35.259  32.958  30.015  1.00  0.00     0.127 S 
ATOM     58  O   UNL A   1      34.692  32.069  29.005  1.00  0.00    -0.237 OA
ATOM     59  O   UNL A   1      34.372  33.261  31.138  1.00  0.00    -0.237 OA
ATOM     60  O   UNL A   1      35.996  34.108  29.509  1.00  0.00    -0.744 OA
ENDBRANCH  54  57
ENDBRANCH  26  50
BRANCH  38  61
ATOM     61  C   UNL A   1      45.035  33.264  29.963  1.00  0.00     0.023 A 
ATOM     62  C   UNL A   1      45.731  33.271  31.189  1.00  0.00     0.012 A 
ATOM     63  C   UNL A   1      45.002  34.436  29.182  1.00  0.00     0.148 A 
ATOM     64  C   UNL A   1      46.344  34.435  31.650  1.00  0.00     0.002 A 
ATOM     65  C   UNL A   1      45.660  35.578  29.623  1.00  0.00     0.091 A 
ATOM     66  F   UNL A   1      44.320  34.416  28.028  1.00  0.00    -0.205 F 
ATOM     67  C   UNL A   1      46.318  35.585  30.863  1.00  0.00     0.022 A 
BRANCH  65  68
ATOM     68  S   UNL A   1      45.757  37.076  28.636  1.00  0.00     0.127 S 
ATOM     69  O   UNL A   1      46.472  36.607  27.451  1.00  0.00    -0.237 OA
ATOM     70  O   UNL A   1      44.345  37.389  28.413  1.00  0.00    -0.237 OA
ATOM     71  O   UNL A   1      46.472  38.049  29.451  1.00  0.00    -0.744 OA
ENDBRANCH  65  68
ENDBRANCH  38  61
ENDBRANCH  12  13
ENDBRANCH   5   7
ENDBRANCH   2   3
ENDBRANCH   1   2
BRANCH   1  72
ATOM     72  C   UNL A   1      34.802  24.556  24.841  1.00  0.00     0.117 C 
BRANCH  72  73
ATOM     73  N   UNL A   1      34.030  25.049  23.715  1.00  0.00    -0.356 N 
ATOM     74  C   UNL A   1      33.651  26.252  23.239  1.00  0.00     0.224 C 
ATOM     75  H   UNL A   1      33.698  24.313  23.151  1.00  0.00     0.163 HD
ATOM     76  O   UNL A   1      33.164  26.196  22.099  1.00  0.00    -0.275 OA
BRANCH  74  77
ATOM     77  C   UNL A   1      33.877  27.628  23.882  1.00  0.00     0.098 C 
ATOM     78  C   UNL A   1      33.884  27.835  25.403  1.00  0.00     0.017 C 
ATOM     79  C   UNL A   1      32.864  28.623  23.252  1.00  0.00     0.133 C 
ATOM     80  C   UNL A   1      32.488  27.801  26.023  1.00  0.00     0.022 C 
ATOM     81  N   UNL A   1      31.551  28.520  23.902  1.00  0.00    -0.342 N 
ATOM     82  C   UNL A   1      31.582  28.810  25.327  1.00  0.00     0.119 C 
BRANCH  81  83
ATOM     83  C   UNL A   1      30.464  28.026  23.184  1.00  0.00     0.227 C 
ATOM     84  O   UNL A   1      30.277  28.331  22.001  1.00  0.00    -0.275 OA
BRANCH  83  85
ATOM     85  C   UNL A   1      29.452  27.114  23.875  1.00  0.00     0.135 C 
BRANCH  85  86
ATOM     86  C   UNL A   1      29.978  25.729  24.176  1.00  0.00    -0.038 A 
ATOM     87  C   UNL A   1      30.277  24.832  23.126  1.00  0.00     0.008 A 
ATOM     88  C   UNL A   1      30.201  25.339  25.506  1.00  0.00     0.012 A 
ATOM     89  C   UNL A   1      30.811  23.572  23.398  1.00  0.00     0.047 A 
ATOM     90  C   UNL A   1      30.830  24.140  25.749  1.00  0.00    -0.002 A 
ATOM     91  C   UNL A   1      31.101  23.272  24.711  1.00  0.00     0.122 A 
ATOM     92  C   UNL A   1      31.299  23.559  27.025  1.00  0.00     0.081 C 
ATOM     93  O   UNL A   1      31.702  22.125  25.130  1.00  0.00    -0.493 OA
ATOM     94  C   UNL A   1      32.162  22.437  26.461  1.00  0.00     0.234 C 
ENDBRANCH  85  86
ENDBRANCH  83  85
ENDBRANCH  81  83
ENDBRANCH  74  77
ENDBRANCH  72  73
ENDBRANCH   1  72
TORSDOF 16
ENDMDL
