MODEL 1
REMARK VINA RESULT:     -11.6      0.000      0.000
REMARK SMILES C[C@H]1CC[C@H]([N@@H+](CC(=O)NCCCNC(=O)c2ccc(-c3c4nc(c(-c5cccc(S(=O)(=O)[O-])c5F)c5ccc([nH]5)c(-c5cccc(S(=O)(=O)[O-])c5F)c5nc(c(-c6cccc(S(=O)(=O)[O-])c6F)c6ccc3[nH]6)C=C5)C=C4)cc2)C(C)(C)C)C[C@@H]1C
REMARK SMILES IDX 12 1 11 2 10 3 8 4 9 5 7 7 6 8 5 10 1 11 2 12 3 13 85 14
REMARK SMILES IDX 4 15 84 16 86 17 80 18 81 19 82 20 83 21 13 22 14 23 15 24
REMARK SMILES IDX 16 26 17 27 18 28 79 29 19 30 78 31 20 32 21 33 22 34 72 35
REMARK SMILES IDX 23 36 77 37 71 38 73 39 24 40 76 41 70 42 69 43 25 45 57 46
REMARK SMILES IDX 37 47 56 48 38 49 41 50 55 51 74 52 39 53 40 54 54 56 75 57
REMARK SMILES IDX 42 58 26 59 27 60 35 61 28 62 30 63 36 64 29 65 31 66 32 67
REMARK SMILES IDX 33 68 34 69 58 70 59 71 67 72 60 73 62 74 68 75 61 76 63 77
REMARK SMILES IDX 64 78 65 79 66 80 43 81 44 82 52 83 45 84 47 85 53 86 46 87
REMARK SMILES IDX 48 88 49 89 50 90 51 91
REMARK H PARENT 10 6 6 9 14 25 73 44 41 55
REMARK Flexibility Score: inf
ROOT
ATOM      1  C   UNL A   1      33.168  29.329  23.717  1.00  0.00     0.042 C 
ENDROOT
BRANCH   1   2
ATOM      2  C   UNL A   1      32.398  28.378  22.761  1.00  0.00     0.118 C 
BRANCH   2   3
ATOM      3  N   UNL A   1      33.123  27.278  22.130  1.00  0.00    -0.351 N 
ATOM      4  C   UNL A   1      32.775  25.967  21.879  1.00  0.00     0.275 C 
ATOM      5  O   UNL A   1      33.270  25.470  20.861  1.00  0.00    -0.269 OA
ATOM      6  H   UNL A   1      34.028  27.517  21.826  1.00  0.00     0.163 HD
BRANCH   4   7
ATOM      7  C   UNL A   1      31.870  25.115  22.814  1.00  0.00     0.364 C 
BRANCH   7   8
ATOM      8  N   UNL A   1      32.295  25.038  24.260  1.00  0.00    -0.321 N 
ATOM      9  H   UNL A   1      32.860  25.864  24.455  1.00  0.00     0.349 HD
BRANCH   8  10
ATOM     10  C   UNL A   1      33.174  23.872  24.443  1.00  0.00     0.185 C 
ATOM     11  C   UNL A   1      36.015  20.672  24.998  1.00  0.00     0.008 C 
ATOM     12  C   UNL A   1      35.361  21.875  24.319  1.00  0.00    -0.011 C 
ATOM     13  C   UNL A   1      33.891  21.499  23.991  1.00  0.00     0.010 C 
ATOM     14  C   UNL A   1      35.419  23.136  25.197  1.00  0.00    -0.006 C 
ATOM     15  C   UNL A   1      33.028  22.671  23.492  1.00  0.00     0.065 C 
ATOM     16  C   UNL A   1      34.642  24.257  24.548  1.00  0.00     0.068 C 
ATOM     17  C   UNL A   1      36.782  23.701  25.586  1.00  0.00     0.008 C 
ENDBRANCH   8  10
BRANCH   8  18
ATOM     18  C   UNL A   1      31.308  25.399  25.331  1.00  0.00     0.090 C 
ATOM     19  C   UNL A   1      31.806  26.319  26.473  1.00  0.00     0.078 C 
ATOM     20  C   UNL A   1      30.036  26.069  24.739  1.00  0.00     0.078 C 
ATOM     21  C   UNL A   1      30.781  24.115  26.023  1.00  0.00     0.078 C 
ENDBRANCH   8  18
ENDBRANCH   7   8
ENDBRANCH   4   7
ENDBRANCH   2   3
ENDBRANCH   1   2
BRANCH   1  22
ATOM     22  C   UNL A   1      32.932  29.294  25.244  1.00  0.00     0.118 C 
BRANCH  22  23
ATOM     23  N   UNL A   1      32.320  30.432  25.889  1.00  0.00    -0.352 N 
ATOM     24  C   UNL A   1      32.897  31.243  26.857  1.00  0.00     0.251 C 
ATOM     25  H   UNL A   1      31.400  30.655  25.616  1.00  0.00     0.163 HD
ATOM     26  O   UNL A   1      32.301  32.254  27.227  1.00  0.00    -0.269 OA
BRANCH  24  27
ATOM     27  C   UNL A   1      34.211  30.917  27.494  1.00  0.00     0.039 A 
ATOM     28  C   UNL A   1      34.424  29.631  28.003  1.00  0.00     0.014 A 
ATOM     29  C   UNL A   1      35.179  31.893  27.742  1.00  0.00     0.014 A 
ATOM     30  C   UNL A   1      35.605  29.319  28.712  1.00  0.00     0.010 A 
ATOM     31  C   UNL A   1      36.378  31.564  28.422  1.00  0.00     0.010 A 
ATOM     32  C   UNL A   1      36.616  30.272  28.927  1.00  0.00    -0.014 A 
BRANCH  32  33
ATOM     33  C   UNL A   1      37.879  29.911  29.678  1.00  0.00     0.031 A 
ATOM     34  C   UNL A   1      38.156  30.440  31.074  1.00  0.00     0.074 A 
ATOM     35  C   UNL A   1      38.816  29.103  29.127  1.00  0.00     0.049 A 
ATOM     36  N   UNL A   1      39.151  30.160  31.885  1.00  0.00    -0.248 NA
ATOM     37  C   UNL A   1      37.203  31.413  31.625  1.00  0.00     0.031 C 
ATOM     38  C   UNL A   1      38.766  28.552  27.774  1.00  0.00     0.029 A 
ATOM     39  N   UNL A   1      40.006  28.615  29.632  1.00  0.00    -0.354 N 
ATOM     40  C   UNL A   1      38.955  30.932  33.028  1.00  0.00     0.074 A 
ATOM     41  C   UNL A   1      37.764  31.721  32.788  1.00  0.00     0.031 C 
ATOM     42  C   UNL A   1      39.863  27.807  27.555  1.00  0.00     0.029 A 
ATOM     43  C   UNL A   1      40.711  27.826  28.746  1.00  0.00     0.049 A 
ATOM     44  H   UNL A   1      40.323  28.812  30.542  1.00  0.00     0.167 HD
ATOM     45  C   UNL A   1      39.666  30.970  34.184  1.00  0.00     0.034 A 
ATOM     46  C   UNL A   1      41.895  27.183  28.863  1.00  0.00     0.034 A 
ATOM     47  C   UNL A   1      40.834  30.175  34.467  1.00  0.00     0.049 A 
ATOM     48  C   UNL A   1      42.657  27.218  30.166  1.00  0.00     0.074 A 
ATOM     49  C   UNL A   1      41.549  30.090  35.651  1.00  0.00     0.029 A 
ATOM     50  N   UNL A   1      41.472  29.345  33.562  1.00  0.00    -0.354 N 
ATOM     51  N   UNL A   1      42.341  27.810  31.291  1.00  0.00    -0.248 NA
ATOM     52  C   UNL A   1      43.918  26.459  30.227  1.00  0.00     0.031 C 
ATOM     53  C   UNL A   1      42.641  29.239  35.451  1.00  0.00     0.029 A 
ATOM     54  C   UNL A   1      42.583  28.760  34.153  1.00  0.00     0.049 A 
ATOM     55  H   UNL A   1      41.182  29.192  32.634  1.00  0.00     0.167 HD
ATOM     56  C   UNL A   1      43.340  27.465  32.199  1.00  0.00     0.074 A 
ATOM     57  C   UNL A   1      44.260  26.594  31.502  1.00  0.00     0.031 C 
ATOM     58  C   UNL A   1      43.480  27.849  33.491  1.00  0.00     0.034 A 
BRANCH  45  59
ATOM     59  C   UNL A   1      39.169  31.877  35.286  1.00  0.00     0.023 A 
ATOM     60  C   UNL A   1      38.218  31.393  36.207  1.00  0.00     0.012 A 
ATOM     61  C   UNL A   1      39.702  33.171  35.462  1.00  0.00     0.148 A 
ATOM     62  C   UNL A   1      37.774  32.193  37.260  1.00  0.00     0.002 A 
ATOM     63  C   UNL A   1      39.289  33.946  36.541  1.00  0.00     0.091 A 
ATOM     64  F   UNL A   1      40.601  33.619  34.575  1.00  0.00    -0.205 F 
ATOM     65  C   UNL A   1      38.316  33.463  37.432  1.00  0.00     0.022 A 
BRANCH  63  66
ATOM     66  S   UNL A   1      39.987  35.562  36.902  1.00  0.00     0.127 S 
ATOM     67  O   UNL A   1      39.313  35.900  38.154  1.00  0.00    -0.237 OA
ATOM     68  O   UNL A   1      41.412  35.258  37.039  1.00  0.00    -0.237 OA
ATOM     69  O   UNL A   1      39.653  36.407  35.765  1.00  0.00    -0.744 OA
ENDBRANCH  63  66
ENDBRANCH  45  59
BRANCH  46  70
ATOM     70  C   UNL A   1      42.428  26.384  27.717  1.00  0.00     0.023 A 
ATOM     71  C   UNL A   1      43.334  26.976  26.812  1.00  0.00     0.012 A 
ATOM     72  C   UNL A   1      42.038  25.046  27.517  1.00  0.00     0.148 A 
ATOM     73  C   UNL A   1      43.813  26.261  25.713  1.00  0.00     0.002 A 
ATOM     74  C   UNL A   1      42.566  24.321  26.453  1.00  0.00     0.091 A 
ATOM     75  F   UNL A   1      41.161  24.507  28.375  1.00  0.00    -0.205 F 
ATOM     76  C   UNL A   1      43.437  24.932  25.539  1.00  0.00     0.022 A 
BRANCH  74  77
ATOM     77  S   UNL A   1      42.240  22.569  26.229  1.00  0.00     0.127 S 
ATOM     78  O   UNL A   1      42.792  22.003  27.461  1.00  0.00    -0.237 OA
ATOM     79  O   UNL A   1      40.778  22.546  26.144  1.00  0.00    -0.237 OA
ATOM     80  O   UNL A   1      42.920  22.193  25.002  1.00  0.00    -0.744 OA
ENDBRANCH  74  77
ENDBRANCH  46  70
BRANCH  58  81
ATOM     81  C   UNL A   1      44.649  27.307  34.277  1.00  0.00     0.023 A 
ATOM     82  C   UNL A   1      45.852  28.040  34.353  1.00  0.00     0.012 A 
ATOM     83  C   UNL A   1      44.532  26.106  35.008  1.00  0.00     0.148 A 
ATOM     84  C   UNL A   1      46.925  27.572  35.113  1.00  0.00     0.002 A 
ATOM     85  C   UNL A   1      45.588  25.671  35.802  1.00  0.00     0.091 A 
ATOM     86  F   UNL A   1      43.389  25.410  34.913  1.00  0.00    -0.205 F 
ATOM     87  C   UNL A   1      46.789  26.395  35.846  1.00  0.00     0.022 A 
BRANCH  85  88
ATOM     88  S   UNL A   1      45.473  24.218  36.854  1.00  0.00     0.127 S 
ATOM     89  O   UNL A   1      46.811  24.167  37.441  1.00  0.00    -0.237 OA
ATOM     90  O   UNL A   1      44.411  24.594  37.787  1.00  0.00    -0.237 OA
ATOM     91  O   UNL A   1      45.137  23.108  35.972  1.00  0.00    -0.744 OA
ENDBRANCH  85  88
ENDBRANCH  58  81
ENDBRANCH  32  33
ENDBRANCH  24  27
ENDBRANCH  22  23
ENDBRANCH   1  22
TORSDOF 16
ENDMDL
MODEL 2
REMARK VINA RESULT:     -11.5      1.199      2.052
REMARK SMILES C[C@H]1CC[C@H]([N@@H+](CC(=O)NCCCNC(=O)c2ccc(-c3c4nc(c(-c5cccc(S(=O)(=O)[O-])c5F)c5ccc([nH]5)c(-c5cccc(S(=O)(=O)[O-])c5F)c5nc(c(-c6cccc(S(=O)(=O)[O-])c6F)c6ccc3[nH]6)C=C5)C=C4)cc2)C(C)(C)C)C[C@@H]1C
REMARK SMILES IDX 12 1 11 2 10 3 8 4 9 5 7 7 6 8 5 10 1 11 2 12 3 13 85 14
REMARK SMILES IDX 4 15 84 16 86 17 80 18 81 19 82 20 83 21 13 22 14 23 15 24
REMARK SMILES IDX 16 26 17 27 18 28 79 29 19 30 78 31 20 32 21 33 22 34 72 35
REMARK SMILES IDX 23 36 77 37 71 38 73 39 24 40 76 41 70 42 69 43 25 45 57 46
REMARK SMILES IDX 37 47 56 48 38 49 41 50 55 51 74 52 39 53 40 54 54 56 75 57
REMARK SMILES IDX 42 58 26 59 27 60 35 61 28 62 30 63 36 64 29 65 31 66 32 67
REMARK SMILES IDX 33 68 34 69 58 70 59 71 67 72 60 73 62 74 68 75 61 76 63 77
REMARK SMILES IDX 64 78 65 79 66 80 43 81 44 82 52 83 45 84 47 85 53 86 46 87
REMARK SMILES IDX 48 88 49 89 50 90 51 91
REMARK H PARENT 10 6 6 9 14 25 73 44 41 55
REMARK Flexibility Score: inf
ROOT
ATOM      1  C   UNL A   1      31.919  27.951  25.356  1.00  0.00     0.042 C 
ENDROOT
BRANCH   1   2
ATOM      2  C   UNL A   1      32.161  26.935  26.505  1.00  0.00     0.118 C 
BRANCH   2   3
ATOM      3  N   UNL A   1      31.381  25.700  26.527  1.00  0.00    -0.351 N 
ATOM      4  C   UNL A   1      31.755  24.373  26.558  1.00  0.00     0.275 C 
ATOM      5  O   UNL A   1      30.985  23.617  27.161  1.00  0.00    -0.269 OA
ATOM      6  H   UNL A   1      30.407  25.841  26.518  1.00  0.00     0.163 HD
BRANCH   4   7
ATOM      7  C   UNL A   1      33.022  23.811  25.852  1.00  0.00     0.364 C 
BRANCH   7   8
ATOM      8  N   UNL A   1      32.807  23.204  24.488  1.00  0.00    -0.321 N 
ATOM      9  H   UNL A   1      31.808  23.023  24.389  1.00  0.00     0.349 HD
BRANCH   8  10
ATOM     10  C   UNL A   1      33.480  21.896  24.429  1.00  0.00     0.185 C 
ATOM     11  C   UNL A   1      35.141  17.918  24.257  1.00  0.00     0.008 C 
ATOM     12  C   UNL A   1      34.339  19.087  24.826  1.00  0.00    -0.011 C 
ATOM     13  C   UNL A   1      35.313  20.278  25.037  1.00  0.00     0.010 C 
ATOM     14  C   UNL A   1      33.174  19.491  23.908  1.00  0.00    -0.006 C 
ATOM     15  C   UNL A   1      34.629  21.604  25.411  1.00  0.00     0.065 C 
ATOM     16  C   UNL A   1      32.500  20.733  24.440  1.00  0.00     0.068 C 
ATOM     17  C   UNL A   1      32.075  18.471  23.621  1.00  0.00     0.008 C 
ENDBRANCH   8  10
BRANCH   8  18
ATOM     18  C   UNL A   1      32.816  24.097  23.282  1.00  0.00     0.090 C 
ATOM     19  C   UNL A   1      33.251  23.466  21.936  1.00  0.00     0.078 C 
ATOM     20  C   UNL A   1      31.426  24.751  23.040  1.00  0.00     0.078 C 
ATOM     21  C   UNL A   1      33.771  25.295  23.515  1.00  0.00     0.078 C 
ENDBRANCH   8  18
ENDBRANCH   7   8
ENDBRANCH   4   7
ENDBRANCH   2   3
ENDBRANCH   1   2
BRANCH   1  22
ATOM     22  C   UNL A   1      32.694  29.287  25.290  1.00  0.00     0.118 C 
BRANCH  22  23
ATOM     23  N   UNL A   1      32.118  30.467  25.892  1.00  0.00    -0.352 N 
ATOM     24  C   UNL A   1      32.732  31.312  26.806  1.00  0.00     0.251 C 
ATOM     25  H   UNL A   1      31.197  30.694  25.628  1.00  0.00     0.163 HD
ATOM     26  O   UNL A   1      32.164  32.352  27.138  1.00  0.00    -0.269 OA
BRANCH  24  27
ATOM     27  C   UNL A   1      34.054  30.992  27.430  1.00  0.00     0.039 A 
ATOM     28  C   UNL A   1      34.290  29.696  27.903  1.00  0.00     0.014 A 
ATOM     29  C   UNL A   1      35.005  31.976  27.703  1.00  0.00     0.014 A 
ATOM     30  C   UNL A   1      35.478  29.384  28.601  1.00  0.00     0.010 A 
ATOM     31  C   UNL A   1      36.212  31.649  28.371  1.00  0.00     0.010 A 
ATOM     32  C   UNL A   1      36.473  30.348  28.839  1.00  0.00    -0.014 A 
BRANCH  32  33
ATOM     33  C   UNL A   1      37.744  29.988  29.576  1.00  0.00     0.031 A 
ATOM     34  C   UNL A   1      38.042  30.528  30.964  1.00  0.00     0.074 A 
ATOM     35  C   UNL A   1      38.671  29.171  29.020  1.00  0.00     0.049 A 
ATOM     36  N   UNL A   1      39.047  30.252  31.764  1.00  0.00    -0.248 NA
ATOM     37  C   UNL A   1      37.101  31.511  31.518  1.00  0.00     0.031 C 
ATOM     38  C   UNL A   1      38.600  28.607  27.673  1.00  0.00     0.029 A 
ATOM     39  N   UNL A   1      39.865  28.682  29.514  1.00  0.00    -0.354 N 
ATOM     40  C   UNL A   1      38.869  31.035  32.902  1.00  0.00     0.074 A 
ATOM     41  C   UNL A   1      37.679  31.827  32.671  1.00  0.00     0.031 C 
ATOM     42  C   UNL A   1      39.691  27.855  27.447  1.00  0.00     0.029 A 
ATOM     43  C   UNL A   1      40.554  27.882  28.626  1.00  0.00     0.049 A 
ATOM     44  H   UNL A   1      40.195  28.886  30.418  1.00  0.00     0.167 HD
ATOM     45  C   UNL A   1      39.596  31.080  34.048  1.00  0.00     0.034 A 
ATOM     46  C   UNL A   1      41.737  27.234  28.733  1.00  0.00     0.034 A 
ATOM     47  C   UNL A   1      40.764  30.282  34.323  1.00  0.00     0.049 A 
ATOM     48  C   UNL A   1      42.516  27.278  30.025  1.00  0.00     0.074 A 
ATOM     49  C   UNL A   1      41.494  30.205  35.498  1.00  0.00     0.029 A 
ATOM     50  N   UNL A   1      41.387  29.441  33.417  1.00  0.00    -0.354 N 
ATOM     51  N   UNL A   1      42.219  27.882  31.149  1.00  0.00    -0.248 NA
ATOM     52  C   UNL A   1      43.775  26.514  30.077  1.00  0.00     0.031 C 
ATOM     53  C   UNL A   1      42.580  29.347  35.291  1.00  0.00     0.029 A 
ATOM     54  C   UNL A   1      42.502  28.856  33.999  1.00  0.00     0.049 A 
ATOM     55  H   UNL A   1      41.083  29.280  32.494  1.00  0.00     0.167 HD
ATOM     56  C   UNL A   1      43.228  27.540  32.046  1.00  0.00     0.074 A 
ATOM     57  C   UNL A   1      44.135  26.659  31.345  1.00  0.00     0.031 C 
ATOM     58  C   UNL A   1      43.386  27.935  33.334  1.00  0.00     0.034 A 
BRANCH  45  59
ATOM     59  C   UNL A   1      39.118  31.999  35.149  1.00  0.00     0.023 A 
ATOM     60  C   UNL A   1      38.134  31.548  36.051  1.00  0.00     0.012 A 
ATOM     61  C   UNL A   1      39.699  33.270  35.341  1.00  0.00     0.148 A 
ATOM     62  C   UNL A   1      37.705  32.358  37.102  1.00  0.00     0.002 A 
ATOM     63  C   UNL A   1      39.299  34.053  36.419  1.00  0.00     0.091 A 
ATOM     64  F   UNL A   1      40.629  33.687  34.472  1.00  0.00    -0.205 F 
ATOM     65  C   UNL A   1      38.295  33.605  37.292  1.00  0.00     0.022 A 
BRANCH  63  66
ATOM     66  S   UNL A   1      40.055  35.639  36.802  1.00  0.00     0.127 S 
ATOM     67  O   UNL A   1      39.636  36.448  35.658  1.00  0.00    -0.237 OA
ATOM     68  O   UNL A   1      39.409  35.991  38.066  1.00  0.00    -0.237 OA
ATOM     69  O   UNL A   1      41.486  35.389  36.899  1.00  0.00    -0.744 OA
ENDBRANCH  63  66
ENDBRANCH  45  59
BRANCH  46  70
ATOM     70  C   UNL A   1      42.252  26.423  27.587  1.00  0.00     0.023 A 
ATOM     71  C   UNL A   1      43.066  27.030  26.609  1.00  0.00     0.012 A 
ATOM     72  C   UNL A   1      41.933  25.057  27.461  1.00  0.00     0.148 A 
ATOM     73  C   UNL A   1      43.523  26.300  25.510  1.00  0.00     0.002 A 
ATOM     74  C   UNL A   1      42.442  24.322  26.395  1.00  0.00     0.091 A 
ATOM     75  F   UNL A   1      41.141  24.502  28.389  1.00  0.00    -0.205 F 
ATOM     76  C   UNL A   1      43.220  24.946  25.409  1.00  0.00     0.022 A 
BRANCH  74  77
ATOM     77  S   UNL A   1      42.212  22.546  26.255  1.00  0.00     0.127 S 
ATOM     78  O   UNL A   1      42.759  22.073  27.528  1.00  0.00    -0.237 OA
ATOM     79  O   UNL A   1      40.756  22.443  26.136  1.00  0.00    -0.237 OA
ATOM     80  O   UNL A   1      42.943  22.144  25.067  1.00  0.00    -0.744 OA
ENDBRANCH  74  77
ENDBRANCH  46  70
BRANCH  58  81
ATOM     81  C   UNL A   1      44.564  27.395  34.109  1.00  0.00     0.023 A 
ATOM     82  C   UNL A   1      45.797  28.079  34.091  1.00  0.00     0.012 A 
ATOM     83  C   UNL A   1      44.427  26.249  34.920  1.00  0.00     0.148 A 
ATOM     84  C   UNL A   1      46.880  27.615  34.840  1.00  0.00     0.002 A 
ATOM     85  C   UNL A   1      45.496  25.821  35.701  1.00  0.00     0.091 A 
ATOM     86  F   UNL A   1      43.255  25.597  34.914  1.00  0.00    -0.205 F 
ATOM     87  C   UNL A   1      46.726  26.495  35.653  1.00  0.00     0.022 A 
BRANCH  85  88
ATOM     88  S   UNL A   1      45.366  24.444  36.850  1.00  0.00     0.127 S 
ATOM     89  O   UNL A   1      45.046  23.335  35.952  1.00  0.00    -0.237 OA
ATOM     90  O   UNL A   1      46.708  24.393  37.427  1.00  0.00    -0.237 OA
ATOM     91  O   UNL A   1      44.315  24.805  37.792  1.00  0.00    -0.744 OA
ENDBRANCH  85  88
ENDBRANCH  58  81
ENDBRANCH  32  33
ENDBRANCH  24  27
ENDBRANCH  22  23
ENDBRANCH   1  22
TORSDOF 16
ENDMDL
MODEL 3
REMARK VINA RESULT:     -11.1      2.647      3.324
REMARK SMILES C[C@H]1CC[C@H]([N@@H+](CC(=O)NCCCNC(=O)c2ccc(-c3c4nc(c(-c5cccc(S(=O)(=O)[O-])c5F)c5ccc([nH]5)c(-c5cccc(S(=O)(=O)[O-])c5F)c5nc(c(-c6cccc(S(=O)(=O)[O-])c6F)c6ccc3[nH]6)C=C5)C=C4)cc2)C(C)(C)C)C[C@@H]1C
REMARK SMILES IDX 12 1 11 2 10 3 8 4 9 5 7 7 6 8 5 10 1 11 2 12 3 13 85 14
REMARK SMILES IDX 4 15 84 16 86 17 80 18 81 19 82 20 83 21 13 22 14 23 15 24
REMARK SMILES IDX 16 26 17 27 18 28 79 29 19 30 78 31 20 32 21 33 22 34 72 35
REMARK SMILES IDX 23 36 77 37 71 38 73 39 24 40 76 41 70 42 69 43 25 45 57 46
REMARK SMILES IDX 37 47 56 48 38 49 41 50 55 51 74 52 39 53 40 54 54 56 75 57
REMARK SMILES IDX 42 58 26 59 27 60 35 61 28 62 30 63 36 64 29 65 31 66 32 67
REMARK SMILES IDX 33 68 34 69 58 70 59 71 67 72 60 73 62 74 68 75 61 76 63 77
REMARK SMILES IDX 64 78 65 79 66 80 43 81 44 82 52 83 45 84 47 85 53 86 46 87
REMARK SMILES IDX 48 88 49 89 50 90 51 91
REMARK H PARENT 10 6 6 9 14 25 73 44 41 55
REMARK Flexibility Score: inf
ROOT
ATOM      1  C   UNL A   1      33.555  29.087  24.400  1.00  0.00     0.042 C 
ENDROOT
BRANCH   1   2
ATOM      2  C   UNL A   1      32.690  28.046  23.639  1.00  0.00     0.118 C 
BRANCH   2   3
ATOM      3  N   UNL A   1      33.341  27.161  22.677  1.00  0.00    -0.351 N 
ATOM      4  C   UNL A   1      32.972  25.941  22.149  1.00  0.00     0.275 C 
ATOM      5  O   UNL A   1      33.346  25.727  20.990  1.00  0.00    -0.269 OA
ATOM      6  H   UNL A   1      34.203  27.498  22.342  1.00  0.00     0.163 HD
BRANCH   4   7
ATOM      7  C   UNL A   1      32.187  24.854  22.939  1.00  0.00     0.364 C 
BRANCH   7   8
ATOM      8  N   UNL A   1      32.501  24.748  24.411  1.00  0.00    -0.321 N 
ATOM      9  H   UNL A   1      32.953  25.619  24.690  1.00  0.00     0.349 HD
BRANCH   8  10
ATOM     10  C   UNL A   1      33.487  23.675  24.619  1.00  0.00     0.185 C 
ATOM     11  C   UNL A   1      36.617  20.772  25.241  1.00  0.00     0.008 C 
ATOM     12  C   UNL A   1      35.855  21.894  24.539  1.00  0.00    -0.011 C 
ATOM     13  C   UNL A   1      34.429  21.374  24.212  1.00  0.00     0.010 C 
ATOM     14  C   UNL A   1      35.787  23.170  25.394  1.00  0.00    -0.006 C 
ATOM     15  C   UNL A   1      33.461  22.449  23.688  1.00  0.00     0.065 C 
ATOM     16  C   UNL A   1      34.910  24.200  24.723  1.00  0.00     0.068 C 
ATOM     17  C   UNL A   1      37.088  23.870  25.778  1.00  0.00     0.008 C 
ENDBRANCH   8  10
BRANCH   8  18
ATOM     18  C   UNL A   1      31.397  24.945  25.409  1.00  0.00     0.090 C 
ATOM     19  C   UNL A   1      30.852  23.682  26.120  1.00  0.00     0.078 C 
ATOM     20  C   UNL A   1      31.803  25.947  26.526  1.00  0.00     0.078 C 
ATOM     21  C   UNL A   1      30.173  25.606  24.724  1.00  0.00     0.078 C 
ENDBRANCH   8  18
ENDBRANCH   7   8
ENDBRANCH   4   7
ENDBRANCH   2   3
ENDBRANCH   1   2
BRANCH   1  22
ATOM     22  C   UNL A   1      33.786  28.978  25.924  1.00  0.00     0.118 C 
BRANCH  22  23
ATOM     23  N   UNL A   1      33.451  30.099  26.771  1.00  0.00    -0.352 N 
ATOM     24  C   UNL A   1      34.287  30.722  27.687  1.00  0.00     0.251 C 
ATOM     25  H   UNL A   1      32.538  30.458  26.690  1.00  0.00     0.163 HD
ATOM     26  O   UNL A   1      33.904  31.747  28.250  1.00  0.00    -0.269 OA
BRANCH  24  27
ATOM     27  C   UNL A   1      35.634  30.174  28.043  1.00  0.00     0.039 A 
ATOM     28  C   UNL A   1      35.823  29.589  29.300  1.00  0.00     0.014 A 
ATOM     29  C   UNL A   1      36.752  30.365  27.229  1.00  0.00     0.014 A 
ATOM     30  C   UNL A   1      37.105  29.165  29.717  1.00  0.00     0.010 A 
ATOM     31  C   UNL A   1      38.029  29.904  27.637  1.00  0.00     0.010 A 
ATOM     32  C   UNL A   1      38.236  29.299  28.891  1.00  0.00    -0.014 A 
BRANCH  32  33
ATOM     33  C   UNL A   1      39.596  28.825  29.353  1.00  0.00     0.031 A 
ATOM     34  C   UNL A   1      40.343  29.519  30.479  1.00  0.00     0.074 A 
ATOM     35  C   UNL A   1      40.203  27.763  28.772  1.00  0.00     0.049 A 
ATOM     36  N   UNL A   1      41.479  29.188  31.048  1.00  0.00    -0.248 NA
ATOM     37  C   UNL A   1      39.744  30.744  31.027  1.00  0.00     0.031 C 
ATOM     38  C   UNL A   1      39.681  27.009  27.634  1.00  0.00     0.029 A 
ATOM     39  N   UNL A   1      41.405  27.139  29.049  1.00  0.00    -0.354 N 
ATOM     40  C   UNL A   1      41.740  30.168  32.003  1.00  0.00     0.074 A 
ATOM     41  C   UNL A   1      40.659  31.128  31.909  1.00  0.00     0.031 C 
ATOM     42  C   UNL A   1      40.546  26.033  27.311  1.00  0.00     0.029 A 
ATOM     43  C   UNL A   1      41.698  26.085  28.210  1.00  0.00     0.049 A 
ATOM     44  H   UNL A   1      41.999  27.422  29.781  1.00  0.00     0.167 HD
ATOM     45  C   UNL A   1      42.756  30.259  32.900  1.00  0.00     0.034 A 
ATOM     46  C   UNL A   1      42.758  25.247  28.157  1.00  0.00     0.034 A 
ATOM     47  C   UNL A   1      43.826  29.306  33.042  1.00  0.00     0.049 A 
ATOM     48  C   UNL A   1      43.863  25.350  29.180  1.00  0.00     0.074 A 
ATOM     49  C   UNL A   1      44.836  29.284  33.991  1.00  0.00     0.029 A 
ATOM     50  N   UNL A   1      44.045  28.222  32.209  1.00  0.00    -0.354 N 
ATOM     51  N   UNL A   1      43.980  26.178  30.188  1.00  0.00    -0.248 NA
ATOM     52  C   UNL A   1      44.963  24.375  29.081  1.00  0.00     0.031 C 
ATOM     53  C   UNL A   1      45.686  28.209  33.710  1.00  0.00     0.029 A 
ATOM     54  C   UNL A   1      45.182  27.536  32.610  1.00  0.00     0.049 A 
ATOM     55  H   UNL A   1      43.477  27.974  31.445  1.00  0.00     0.167 HD
ATOM     56  C   UNL A   1      45.139  25.800  30.862  1.00  0.00     0.074 A 
ATOM     57  C   UNL A   1      45.679  24.655  30.163  1.00  0.00     0.031 C 
ATOM     58  C   UNL A   1      45.705  26.363  31.958  1.00  0.00     0.034 A 
BRANCH  45  59
ATOM     59  C   UNL A   1      42.739  31.424  33.864  1.00  0.00     0.023 A 
ATOM     60  C   UNL A   1      43.295  32.658  33.471  1.00  0.00     0.012 A 
ATOM     61  C   UNL A   1      42.102  31.323  35.118  1.00  0.00     0.148 A 
ATOM     62  C   UNL A   1      43.255  33.761  34.323  1.00  0.00     0.002 A 
ATOM     63  C   UNL A   1      42.025  32.440  35.943  1.00  0.00     0.091 A 
ATOM     64  F   UNL A   1      41.584  30.141  35.480  1.00  0.00    -0.205 F 
ATOM     65  C   UNL A   1      42.612  33.655  35.553  1.00  0.00     0.022 A 
BRANCH  63  66
ATOM     66  S   UNL A   1      41.145  32.432  37.511  1.00  0.00     0.127 S 
ATOM     67  O   UNL A   1      39.869  31.829  37.129  1.00  0.00    -0.237 OA
ATOM     68  O   UNL A   1      41.999  31.579  38.339  1.00  0.00    -0.237 OA
ATOM     69  O   UNL A   1      41.075  33.821  37.940  1.00  0.00    -0.744 OA
ENDBRANCH  63  66
ENDBRANCH  45  59
BRANCH  46  70
ATOM     70  C   UNL A   1      42.811  24.172  27.118  1.00  0.00     0.023 A 
ATOM     71  C   UNL A   1      43.535  24.385  25.927  1.00  0.00     0.012 A 
ATOM     72  C   UNL A   1      42.144  22.946  27.303  1.00  0.00     0.148 A 
ATOM     73  C   UNL A   1      43.564  23.412  24.927  1.00  0.00     0.002 A 
ATOM     74  C   UNL A   1      42.227  21.957  26.328  1.00  0.00     0.091 A 
ATOM     75  F   UNL A   1      41.444  22.769  28.432  1.00  0.00    -0.205 F 
ATOM     76  C   UNL A   1      42.920  22.195  25.132  1.00  0.00     0.022 A 
BRANCH  74  77
ATOM     77  S   UNL A   1      41.539  20.314  26.563  1.00  0.00     0.127 S 
ATOM     78  O   UNL A   1      40.101  20.586  26.533  1.00  0.00    -0.237 OA
ATOM     79  O   UNL A   1      42.055  19.606  25.389  1.00  0.00    -0.237 OA
ATOM     80  O   UNL A   1      42.066  19.841  27.831  1.00  0.00    -0.744 OA
ENDBRANCH  74  77
ENDBRANCH  46  70
BRANCH  58  81
ATOM     81  C   UNL A   1      46.961  25.740  32.517  1.00  0.00     0.023 A 
ATOM     82  C   UNL A   1      46.889  24.881  33.632  1.00  0.00     0.012 A 
ATOM     83  C   UNL A   1      48.207  25.943  31.887  1.00  0.00     0.148 A 
ATOM     84  C   UNL A   1      48.038  24.262  34.130  1.00  0.00     0.002 A 
ATOM     85  C   UNL A   1      49.339  25.285  32.359  1.00  0.00     0.091 A 
ATOM     86  F   UNL A   1      48.265  26.777  30.838  1.00  0.00    -0.205 F 
ATOM     87  C   UNL A   1      49.258  24.455  33.487  1.00  0.00     0.022 A 
BRANCH  85  88
ATOM     88  S   UNL A   1      50.935  25.397  31.542  1.00  0.00     0.127 S 
ATOM     89  O   UNL A   1      51.683  24.325  32.196  1.00  0.00    -0.237 OA
ATOM     90  O   UNL A   1      50.588  25.134  30.145  1.00  0.00    -0.237 OA
ATOM     91  O   UNL A   1      51.425  26.745  31.799  1.00  0.00    -0.744 OA
ENDBRANCH  85  88
ENDBRANCH  58  81
ENDBRANCH  32  33
ENDBRANCH  24  27
ENDBRANCH  22  23
ENDBRANCH   1  22
TORSDOF 16
ENDMDL
