MODEL 1
REMARK VINA RESULT:     -13.4      0.000      0.000
REMARK SMILES CC(C)n1c2c(c3ccccc31)[C@@H](c1ccccc1)N(CC(=O)NCCCNC(=O)c1ccc(-c3c4nc(c(-c5cccc(S(=O)(=O)[O-])c5F)c5ccc([nH]5)c(-c5cccc(S(=O)(=O)[O-])c5F)c5nc(c(-c6cccc(S(=O)(=O)[O-])c6F)c6ccc3[nH]6)C=C5)C=C4)cc1)C2=O
REMARK SMILES IDX 26 1 25 2 24 3 22 4 23 5 21 7 20 8 4 9 5 10 12 11 6 12 94 13
REMARK SMILES IDX 7 14 11 15 13 16 95 17 8 18 10 19 9 20 2 21 1 22 3 23 14 24
REMARK SMILES IDX 15 25 19 26 16 27 18 28 17 29 27 30 28 31 29 32 30 34 31 35
REMARK SMILES IDX 32 36 93 37 33 38 92 39 34 40 35 41 36 42 86 43 37 44 91 45
REMARK SMILES IDX 85 46 87 47 38 48 90 49 84 50 83 51 39 53 71 54 51 55 70 56
REMARK SMILES IDX 52 57 55 58 69 59 88 60 53 61 54 62 68 64 89 65 56 66 40 67
REMARK SMILES IDX 41 68 49 69 42 70 44 71 50 72 43 73 45 74 46 75 47 76 48 77
REMARK SMILES IDX 72 78 73 79 81 80 74 81 76 82 82 83 75 84 77 85 78 86 79 87
REMARK SMILES IDX 80 88 57 89 58 90 66 91 59 92 61 93 67 94 60 95 62 96 63 97
REMARK SMILES IDX 64 98 65 99
REMARK H PARENT 24 6 28 33 87 52 55 63
REMARK Flexibility Score: inf
ROOT
ATOM      1  C   UNL A   1      32.104  29.392  27.144  1.00  0.00     0.042 C 
ENDROOT
BRANCH   1   2
ATOM      2  C   UNL A   1      31.650  27.937  27.292  1.00  0.00     0.117 C 
BRANCH   2   3
ATOM      3  N   UNL A   1      30.838  27.497  26.167  1.00  0.00    -0.354 N 
ATOM      4  C   UNL A   1      30.549  26.230  25.751  1.00  0.00     0.239 C 
ATOM      5  O   UNL A   1      29.888  26.090  24.717  1.00  0.00    -0.273 OA
ATOM      6  H   UNL A   1      30.440  28.218  25.628  1.00  0.00     0.163 HD
BRANCH   4   7
ATOM      7  C   UNL A   1      31.078  25.013  26.516  1.00  0.00     0.220 C 
BRANCH   7   8
ATOM      8  N   UNL A   1      32.133  24.347  25.778  1.00  0.00    -0.317 N 
ATOM      9  N   UNL A   1      34.073  21.478  24.890  1.00  0.00    -0.334 N 
ATOM     10  C   UNL A   1      33.375  22.619  25.144  1.00  0.00     0.114 A 
ATOM     11  C   UNL A   1      35.433  21.790  24.990  1.00  0.00     0.049 A 
ATOM     12  C   UNL A   1      34.237  23.655  25.374  1.00  0.00     0.018 A 
ATOM     13  C   UNL A   1      32.024  23.022  25.350  1.00  0.00     0.272 C 
ATOM     14  C   UNL A   1      35.543  23.153  25.346  1.00  0.00     0.006 A 
ATOM     15  C   UNL A   1      36.590  21.013  24.812  1.00  0.00     0.027 A 
ATOM     16  C   UNL A   1      33.501  24.913  25.655  1.00  0.00     0.150 C 
ATOM     17  O   UNL A   1      31.010  22.344  25.299  1.00  0.00    -0.267 OA
ATOM     18  C   UNL A   1      36.808  23.722  25.575  1.00  0.00     0.011 A 
ATOM     19  C   UNL A   1      37.839  21.601  25.049  1.00  0.00     0.002 A 
ATOM     20  C   UNL A   1      37.950  22.933  25.432  1.00  0.00     0.001 A 
BRANCH   9  21
ATOM     21  C   UNL A   1      33.445  20.189  24.586  1.00  0.00     0.082 C 
ATOM     22  C   UNL A   1      32.842  19.563  25.841  1.00  0.00     0.031 C 
ATOM     23  C   UNL A   1      32.447  20.214  23.426  1.00  0.00     0.031 C 
ENDBRANCH   9  21
BRANCH  16  24
ATOM     24  C   UNL A   1      33.617  25.859  24.466  1.00  0.00    -0.021 A 
ATOM     25  C   UNL A   1      33.964  27.201  24.715  1.00  0.00     0.006 A 
ATOM     26  C   UNL A   1      33.360  25.502  23.127  1.00  0.00     0.006 A 
ATOM     27  C   UNL A   1      34.010  28.146  23.685  1.00  0.00     0.000 A 
ATOM     28  C   UNL A   1      33.428  26.440  22.093  1.00  0.00     0.000 A 
ATOM     29  C   UNL A   1      33.741  27.764  22.374  1.00  0.00     0.000 A 
ENDBRANCH  16  24
ENDBRANCH   7   8
ENDBRANCH   4   7
ENDBRANCH   2   3
ENDBRANCH   1   2
BRANCH   1  30
ATOM     30  C   UNL A   1      33.606  29.592  27.335  1.00  0.00     0.118 C 
BRANCH  30  31
ATOM     31  N   UNL A   1      34.002  30.981  27.387  1.00  0.00    -0.352 N 
ATOM     32  C   UNL A   1      35.120  31.659  27.774  1.00  0.00     0.251 C 
ATOM     33  H   UNL A   1      33.294  31.584  27.065  1.00  0.00     0.163 HD
ATOM     34  O   UNL A   1      35.096  32.874  27.564  1.00  0.00    -0.269 OA
BRANCH  32  35
ATOM     35  C   UNL A   1      36.287  31.072  28.484  1.00  0.00     0.039 A 
ATOM     36  C   UNL A   1      37.324  31.787  29.086  1.00  0.00     0.014 A 
ATOM     37  C   UNL A   1      36.377  29.668  28.424  1.00  0.00     0.014 A 
ATOM     38  C   UNL A   1      38.494  31.134  29.456  1.00  0.00     0.010 A 
ATOM     39  C   UNL A   1      37.529  29.010  28.819  1.00  0.00     0.010 A 
ATOM     40  C   UNL A   1      38.617  29.761  29.240  1.00  0.00    -0.014 A 
BRANCH  40  41
ATOM     41  C   UNL A   1      39.912  29.136  29.469  1.00  0.00     0.031 A 
ATOM     42  C   UNL A   1      40.385  29.176  30.881  1.00  0.00     0.074 A 
ATOM     43  C   UNL A   1      40.581  28.507  28.481  1.00  0.00     0.049 A 
ATOM     44  N   UNL A   1      41.408  29.805  31.364  1.00  0.00    -0.248 NA
ATOM     45  C   UNL A   1      39.527  28.551  31.901  1.00  0.00     0.031 C 
ATOM     46  C   UNL A   1      40.118  28.173  27.128  1.00  0.00     0.029 A 
ATOM     47  N   UNL A   1      41.803  27.911  28.529  1.00  0.00    -0.354 N 
ATOM     48  C   UNL A   1      41.441  29.480  32.720  1.00  0.00     0.074 A 
ATOM     49  C   UNL A   1      40.188  28.838  33.023  1.00  0.00     0.031 C 
ATOM     50  C   UNL A   1      40.921  27.218  26.604  1.00  0.00     0.029 A 
ATOM     51  C   UNL A   1      42.032  26.993  27.508  1.00  0.00     0.049 A 
ATOM     52  H   UNL A   1      42.468  28.112  29.227  1.00  0.00     0.167 HD
ATOM     53  C   UNL A   1      42.576  29.567  33.467  1.00  0.00     0.034 A 
ATOM     54  C   UNL A   1      43.024  26.067  27.478  1.00  0.00     0.034 A 
ATOM     55  C   UNL A   1      43.603  30.331  32.822  1.00  0.00     0.049 A 
ATOM     56  C   UNL A   1      44.076  26.553  28.404  1.00  0.00     0.074 A 
ATOM     57  C   UNL A   1      43.752  31.649  32.442  1.00  0.00     0.029 A 
ATOM     58  N   UNL A   1      44.547  29.627  32.116  1.00  0.00    -0.354 N 
ATOM     59  N   UNL A   1      44.746  27.657  28.219  1.00  0.00    -0.248 NA
ATOM     60  C   UNL A   1      44.063  26.040  29.763  1.00  0.00     0.031 C 
ATOM     61  C   UNL A   1      44.426  31.593  31.187  1.00  0.00     0.029 A 
ATOM     62  C   UNL A   1      44.694  30.251  30.905  1.00  0.00     0.049 A 
ATOM     63  H   UNL A   1      45.028  28.824  32.422  1.00  0.00     0.167 HD
ATOM     64  C   UNL A   1      44.863  28.205  29.488  1.00  0.00     0.074 A 
ATOM     65  C   UNL A   1      44.501  27.127  30.407  1.00  0.00     0.031 C 
ATOM     66  C   UNL A   1      44.962  29.554  29.668  1.00  0.00     0.034 A 
BRANCH  53  67
ATOM     67  C   UNL A   1      42.873  28.672  34.639  1.00  0.00     0.023 A 
ATOM     68  C   UNL A   1      43.243  29.258  35.866  1.00  0.00     0.012 A 
ATOM     69  C   UNL A   1      43.053  27.277  34.501  1.00  0.00     0.148 A 
ATOM     70  C   UNL A   1      43.767  28.487  36.910  1.00  0.00     0.002 A 
ATOM     71  C   UNL A   1      43.517  26.507  35.559  1.00  0.00     0.091 A 
ATOM     72  F   UNL A   1      42.892  26.712  33.298  1.00  0.00    -0.205 F 
ATOM     73  C   UNL A   1      43.892  27.110  36.762  1.00  0.00     0.022 A 
BRANCH  71  74
ATOM     74  S   UNL A   1      43.694  24.724  35.426  1.00  0.00     0.127 S 
ATOM     75  O   UNL A   1      44.687  24.610  34.363  1.00  0.00    -0.237 OA
ATOM     76  O   UNL A   1      44.172  24.373  36.764  1.00  0.00    -0.237 OA
ATOM     77  O   UNL A   1      42.361  24.225  35.117  1.00  0.00    -0.744 OA
ENDBRANCH  71  74
ENDBRANCH  53  67
BRANCH  54  78
ATOM     78  C   UNL A   1      42.973  24.640  27.053  1.00  0.00     0.023 A 
ATOM     79  C   UNL A   1      41.736  23.959  27.098  1.00  0.00     0.012 A 
ATOM     80  C   UNL A   1      44.022  24.053  26.311  1.00  0.00     0.148 A 
ATOM     81  C   UNL A   1      41.531  22.775  26.377  1.00  0.00     0.002 A 
ATOM     82  C   UNL A   1      43.815  22.870  25.602  1.00  0.00     0.091 A 
ATOM     83  F   UNL A   1      45.188  24.700  26.215  1.00  0.00    -0.205 F 
ATOM     84  C   UNL A   1      42.565  22.240  25.617  1.00  0.00     0.022 A 
BRANCH  82  85
ATOM     85  S   UNL A   1      45.100  22.122  24.590  1.00  0.00     0.127 S 
ATOM     86  O   UNL A   1      46.160  21.884  25.571  1.00  0.00    -0.237 OA
ATOM     87  O   UNL A   1      44.438  20.916  24.100  1.00  0.00    -0.237 OA
ATOM     88  O   UNL A   1      45.436  23.116  23.577  1.00  0.00    -0.744 OA
ENDBRANCH  82  85
ENDBRANCH  54  78
BRANCH  66  89
ATOM     89  C   UNL A   1      45.124  30.417  28.442  1.00  0.00     0.023 A 
ATOM     90  C   UNL A   1      44.019  30.852  27.677  1.00  0.00     0.012 A 
ATOM     91  C   UNL A   1      46.391  30.953  28.172  1.00  0.00     0.148 A 
ATOM     92  C   UNL A   1      44.179  31.800  26.661  1.00  0.00     0.002 A 
ATOM     93  C   UNL A   1      46.542  31.918  27.185  1.00  0.00     0.091 A 
ATOM     94  F   UNL A   1      47.421  30.541  28.927  1.00  0.00    -0.205 F 
ATOM     95  C   UNL A   1      45.440  32.343  26.424  1.00  0.00     0.022 A 
BRANCH  93  96
ATOM     96  S   UNL A   1      48.111  32.736  26.895  1.00  0.00     0.127 S 
ATOM     97  O   UNL A   1      47.772  33.682  25.834  1.00  0.00    -0.237 OA
ATOM     98  O   UNL A   1      48.382  33.346  28.197  1.00  0.00    -0.237 OA
ATOM     99  O   UNL A   1      49.052  31.689  26.515  1.00  0.00    -0.744 OA
ENDBRANCH  93  96
ENDBRANCH  66  89
ENDBRANCH  40  41
ENDBRANCH  32  35
ENDBRANCH  30  31
ENDBRANCH   1  30
TORSDOF 16
ENDMDL
MODEL 2
REMARK VINA RESULT:     -13.3      2.880      8.837
REMARK SMILES CC(C)n1c2c(c3ccccc31)[C@@H](c1ccccc1)N(CC(=O)NCCCNC(=O)c1ccc(-c3c4nc(c(-c5cccc(S(=O)(=O)[O-])c5F)c5ccc([nH]5)c(-c5cccc(S(=O)(=O)[O-])c5F)c5nc(c(-c6cccc(S(=O)(=O)[O-])c6F)c6ccc3[nH]6)C=C5)C=C4)cc1)C2=O
REMARK SMILES IDX 26 1 25 2 24 3 22 4 23 5 21 7 20 8 4 9 5 10 12 11 6 12 94 13
REMARK SMILES IDX 7 14 11 15 13 16 95 17 8 18 10 19 9 20 2 21 1 22 3 23 14 24
REMARK SMILES IDX 15 25 19 26 16 27 18 28 17 29 27 30 28 31 29 32 30 34 31 35
REMARK SMILES IDX 32 36 93 37 33 38 92 39 34 40 35 41 36 42 86 43 37 44 91 45
REMARK SMILES IDX 85 46 87 47 38 48 90 49 84 50 83 51 39 53 71 54 51 55 70 56
REMARK SMILES IDX 52 57 55 58 69 59 88 60 53 61 54 62 68 64 89 65 56 66 40 67
REMARK SMILES IDX 41 68 49 69 42 70 44 71 50 72 43 73 45 74 46 75 47 76 48 77
REMARK SMILES IDX 72 78 73 79 81 80 74 81 76 82 82 83 75 84 77 85 78 86 79 87
REMARK SMILES IDX 80 88 57 89 58 90 66 91 59 92 61 93 67 94 60 95 62 96 63 97
REMARK SMILES IDX 64 98 65 99
REMARK H PARENT 24 6 28 33 87 52 55 63
REMARK Flexibility Score: inf
ROOT
ATOM      1  C   UNL A   1      36.921  21.856  23.921  1.00  0.00     0.042 C 
ENDROOT
BRANCH   1   2
ATOM      2  C   UNL A   1      36.006  22.974  23.412  1.00  0.00     0.117 C 
BRANCH   2   3
ATOM      3  N   UNL A   1      34.651  22.506  23.163  1.00  0.00    -0.354 N 
ATOM      4  C   UNL A   1      33.575  23.189  22.675  1.00  0.00     0.239 C 
ATOM      5  O   UNL A   1      32.491  22.603  22.610  1.00  0.00    -0.273 OA
ATOM      6  H   UNL A   1      34.487  21.560  23.378  1.00  0.00     0.163 HD
BRANCH   4   7
ATOM      7  C   UNL A   1      33.698  24.661  22.270  1.00  0.00     0.220 C 
BRANCH   7   8
ATOM      8  N   UNL A   1      33.072  25.528  23.248  1.00  0.00    -0.317 N 
ATOM      9  N   UNL A   1      31.358  28.511  24.223  1.00  0.00    -0.334 N 
ATOM     10  C   UNL A   1      31.986  27.335  23.946  1.00  0.00     0.114 A 
ATOM     11  C   UNL A   1      32.020  29.091  25.311  1.00  0.00     0.049 A 
ATOM     12  C   UNL A   1      33.005  27.127  24.833  1.00  0.00     0.018 A 
ATOM     13  C   UNL A   1      31.964  26.323  22.944  1.00  0.00     0.272 C 
ATOM     14  C   UNL A   1      33.094  28.246  25.668  1.00  0.00     0.006 A 
ATOM     15  C   UNL A   1      31.794  30.282  26.021  1.00  0.00     0.027 A 
ATOM     16  C   UNL A   1      33.708  25.850  24.553  1.00  0.00     0.150 C 
ATOM     17  O   UNL A   1      31.238  26.233  21.966  1.00  0.00    -0.267 OA
ATOM     18  C   UNL A   1      33.970  28.619  26.703  1.00  0.00     0.011 A 
ATOM     19  C   UNL A   1      32.682  30.634  27.044  1.00  0.00     0.002 A 
ATOM     20  C   UNL A   1      33.760  29.822  27.378  1.00  0.00     0.001 A 
BRANCH   9  21
ATOM     21  C   UNL A   1      30.210  29.020  23.468  1.00  0.00     0.082 C 
ATOM     22  C   UNL A   1      30.636  29.510  22.086  1.00  0.00     0.031 C 
ATOM     23  C   UNL A   1      29.014  28.069  23.390  1.00  0.00     0.031 C 
ENDBRANCH   9  21
BRANCH  16  24
ATOM     24  C   UNL A   1      33.359  24.820  25.621  1.00  0.00    -0.021 A 
ATOM     25  C   UNL A   1      34.413  24.120  26.239  1.00  0.00     0.006 A 
ATOM     26  C   UNL A   1      32.048  24.480  26.011  1.00  0.00     0.006 A 
ATOM     27  C   UNL A   1      34.168  23.104  27.167  1.00  0.00     0.000 A 
ATOM     28  C   UNL A   1      31.802  23.480  26.956  1.00  0.00     0.000 A 
ATOM     29  C   UNL A   1      32.862  22.784  27.525  1.00  0.00     0.000 A 
ENDBRANCH  16  24
ENDBRANCH   7   8
ENDBRANCH   4   7
ENDBRANCH   2   3
ENDBRANCH   1   2
BRANCH   1  30
ATOM     30  C   UNL A   1      37.505  22.121  25.307  1.00  0.00     0.118 C 
BRANCH  30  31
ATOM     31  N   UNL A   1      38.899  21.754  25.427  1.00  0.00    -0.352 N 
ATOM     32  C   UNL A   1      39.955  22.180  26.176  1.00  0.00     0.251 C 
ATOM     33  H   UNL A   1      39.144  21.018  24.821  1.00  0.00     0.163 HD
ATOM     34  O   UNL A   1      40.989  21.520  26.047  1.00  0.00    -0.269 OA
BRANCH  32  35
ATOM     35  C   UNL A   1      39.973  23.391  27.039  1.00  0.00     0.039 A 
ATOM     36  C   UNL A   1      39.078  24.459  26.968  1.00  0.00     0.014 A 
ATOM     37  C   UNL A   1      41.071  23.482  27.916  1.00  0.00     0.014 A 
ATOM     38  C   UNL A   1      39.369  25.652  27.619  1.00  0.00     0.010 A 
ATOM     39  C   UNL A   1      41.349  24.658  28.590  1.00  0.00     0.010 A 
ATOM     40  C   UNL A   1      40.548  25.767  28.357  1.00  0.00    -0.014 A 
BRANCH  40  41
ATOM     41  C   UNL A   1      40.915  27.076  28.879  1.00  0.00     0.031 A 
ATOM     42  C   UNL A   1      42.201  27.619  28.358  1.00  0.00     0.074 A 
ATOM     43  C   UNL A   1      40.104  27.762  29.711  1.00  0.00     0.049 A 
ATOM     44  N   UNL A   1      43.295  27.849  29.009  1.00  0.00    -0.248 NA
ATOM     45  C   UNL A   1      42.320  27.795  26.901  1.00  0.00     0.031 C 
ATOM     46  C   UNL A   1      38.717  27.463  30.092  1.00  0.00     0.029 A 
ATOM     47  N   UNL A   1      40.319  28.966  30.304  1.00  0.00    -0.354 N 
ATOM     48  C   UNL A   1      44.177  28.398  28.079  1.00  0.00     0.074 A 
ATOM     49  C   UNL A   1      43.585  28.201  26.780  1.00  0.00     0.031 C 
ATOM     50  C   UNL A   1      38.146  28.576  30.609  1.00  0.00     0.029 A 
ATOM     51  C   UNL A   1      39.160  29.603  30.741  1.00  0.00     0.049 A 
ATOM     52  H   UNL A   1      41.216  29.355  30.414  1.00  0.00     0.167 HD
ATOM     53  C   UNL A   1      45.240  29.167  28.442  1.00  0.00     0.034 A 
ATOM     54  C   UNL A   1      39.056  30.909  31.098  1.00  0.00     0.034 A 
ATOM     55  C   UNL A   1      45.544  29.063  29.839  1.00  0.00     0.049 A 
ATOM     56  C   UNL A   1      40.427  31.357  31.445  1.00  0.00     0.074 A 
ATOM     57  C   UNL A   1      45.986  28.058  30.673  1.00  0.00     0.029 A 
ATOM     58  N   UNL A   1      45.018  30.030  30.660  1.00  0.00    -0.354 N 
ATOM     59  N   UNL A   1      41.115  30.870  32.440  1.00  0.00    -0.248 NA
ATOM     60  C   UNL A   1      41.198  32.024  30.409  1.00  0.00     0.031 C 
ATOM     61  C   UNL A   1      45.266  28.249  31.889  1.00  0.00     0.029 A 
ATOM     62  C   UNL A   1      44.471  29.388  31.740  1.00  0.00     0.049 A 
ATOM     63  H   UNL A   1      45.032  31.002  30.503  1.00  0.00     0.167 HD
ATOM     64  C   UNL A   1      42.410  30.778  31.951  1.00  0.00     0.074 A 
ATOM     65  C   UNL A   1      42.417  31.581  30.729  1.00  0.00     0.031 C 
ATOM     66  C   UNL A   1      43.276  29.833  32.420  1.00  0.00     0.034 A 
BRANCH  53  67
ATOM     67  C   UNL A   1      45.794  30.277  27.592  1.00  0.00     0.023 A 
ATOM     68  C   UNL A   1      47.193  30.422  27.489  1.00  0.00     0.012 A 
ATOM     69  C   UNL A   1      44.990  31.334  27.106  1.00  0.00     0.148 A 
ATOM     70  C   UNL A   1      47.763  31.568  26.924  1.00  0.00     0.002 A 
ATOM     71  C   UNL A   1      45.560  32.442  26.492  1.00  0.00     0.091 A 
ATOM     72  F   UNL A   1      43.675  31.322  27.351  1.00  0.00    -0.205 F 
ATOM     73  C   UNL A   1      46.948  32.572  26.414  1.00  0.00     0.022 A 
BRANCH  71  74
ATOM     74  S   UNL A   1      44.555  33.767  25.811  1.00  0.00     0.127 S 
ATOM     75  O   UNL A   1      45.579  34.671  25.296  1.00  0.00    -0.237 OA
ATOM     76  O   UNL A   1      43.782  33.057  24.791  1.00  0.00    -0.237 OA
ATOM     77  O   UNL A   1      43.761  34.263  26.927  1.00  0.00    -0.744 OA
ENDBRANCH  71  74
ENDBRANCH  53  67
BRANCH  54  78
ATOM     78  C   UNL A   1      37.983  31.892  30.782  1.00  0.00     0.023 A 
ATOM     79  C   UNL A   1      37.424  31.899  29.485  1.00  0.00     0.012 A 
ATOM     80  C   UNL A   1      37.287  32.578  31.803  1.00  0.00     0.148 A 
ATOM     81  C   UNL A   1      36.187  32.507  29.228  1.00  0.00     0.002 A 
ATOM     82  C   UNL A   1      36.061  33.189  31.541  1.00  0.00     0.091 A 
ATOM     83  F   UNL A   1      37.771  32.548  33.050  1.00  0.00    -0.205 F 
ATOM     84  C   UNL A   1      35.499  33.138  30.260  1.00  0.00     0.022 A 
BRANCH  82  85
ATOM     85  S   UNL A   1      35.108  34.015  32.823  1.00  0.00     0.127 S 
ATOM     86  O   UNL A   1      35.945  35.180  33.120  1.00  0.00    -0.237 OA
ATOM     87  O   UNL A   1      33.862  34.320  32.127  1.00  0.00    -0.237 OA
ATOM     88  O   UNL A   1      35.006  33.060  33.919  1.00  0.00    -0.744 OA
ENDBRANCH  82  85
ENDBRANCH  54  78
BRANCH  66  89
ATOM     89  C   UNL A   1      42.845  29.013  33.610  1.00  0.00     0.023 A 
ATOM     90  C   UNL A   1      41.841  28.024  33.517  1.00  0.00     0.012 A 
ATOM     91  C   UNL A   1      43.598  29.111  34.789  1.00  0.00     0.148 A 
ATOM     92  C   UNL A   1      41.594  27.152  34.584  1.00  0.00     0.002 A 
ATOM     93  C   UNL A   1      43.372  28.223  35.833  1.00  0.00     0.091 A 
ATOM     94  F   UNL A   1      44.561  30.044  34.844  1.00  0.00    -0.205 F 
ATOM     95  C   UNL A   1      42.368  27.245  35.738  1.00  0.00     0.022 A 
BRANCH  93  96
ATOM     96  S   UNL A   1      44.397  28.215  37.304  1.00  0.00     0.127 S 
ATOM     97  O   UNL A   1      44.153  29.546  37.855  1.00  0.00    -0.237 OA
ATOM     98  O   UNL A   1      43.814  27.115  38.075  1.00  0.00    -0.237 OA
ATOM     99  O   UNL A   1      45.760  27.972  36.850  1.00  0.00    -0.744 OA
ENDBRANCH  93  96
ENDBRANCH  66  89
ENDBRANCH  40  41
ENDBRANCH  32  35
ENDBRANCH  30  31
ENDBRANCH   1  30
TORSDOF 16
ENDMDL
MODEL 3
REMARK VINA RESULT:     -13.2      3.391      8.909
REMARK SMILES CC(C)n1c2c(c3ccccc31)[C@@H](c1ccccc1)N(CC(=O)NCCCNC(=O)c1ccc(-c3c4nc(c(-c5cccc(S(=O)(=O)[O-])c5F)c5ccc([nH]5)c(-c5cccc(S(=O)(=O)[O-])c5F)c5nc(c(-c6cccc(S(=O)(=O)[O-])c6F)c6ccc3[nH]6)C=C5)C=C4)cc1)C2=O
REMARK SMILES IDX 26 1 25 2 24 3 22 4 23 5 21 7 20 8 4 9 5 10 12 11 6 12 94 13
REMARK SMILES IDX 7 14 11 15 13 16 95 17 8 18 10 19 9 20 2 21 1 22 3 23 14 24
REMARK SMILES IDX 15 25 19 26 16 27 18 28 17 29 27 30 28 31 29 32 30 34 31 35
REMARK SMILES IDX 32 36 93 37 33 38 92 39 34 40 35 41 36 42 86 43 37 44 91 45
REMARK SMILES IDX 85 46 87 47 38 48 90 49 84 50 83 51 39 53 71 54 51 55 70 56
REMARK SMILES IDX 52 57 55 58 69 59 88 60 53 61 54 62 68 64 89 65 56 66 40 67
REMARK SMILES IDX 41 68 49 69 42 70 44 71 50 72 43 73 45 74 46 75 47 76 48 77
REMARK SMILES IDX 72 78 73 79 81 80 74 81 76 82 82 83 75 84 77 85 78 86 79 87
REMARK SMILES IDX 80 88 57 89 58 90 66 91 59 92 61 93 67 94 60 95 62 96 63 97
REMARK SMILES IDX 64 98 65 99
REMARK H PARENT 24 6 28 33 87 52 55 63
REMARK Flexibility Score: inf
ROOT
ATOM      1  C   UNL A   1      40.906  20.047  26.952  1.00  0.00     0.042 C 
ENDROOT
BRANCH   1   2
ATOM      2  C   UNL A   1      40.005  20.502  25.800  1.00  0.00     0.117 C 
BRANCH   2   3
ATOM      3  N   UNL A   1      39.178  21.643  26.164  1.00  0.00    -0.354 N 
ATOM      4  C   UNL A   1      37.971  22.032  25.663  1.00  0.00     0.239 C 
ATOM      5  O   UNL A   1      37.477  23.085  26.078  1.00  0.00    -0.273 OA
ATOM      6  H   UNL A   1      39.544  22.217  26.875  1.00  0.00     0.163 HD
BRANCH   4   7
ATOM      7  C   UNL A   1      37.272  21.212  24.574  1.00  0.00     0.220 C 
BRANCH   7   8
ATOM      8  N   UNL A   1      35.915  21.673  24.359  1.00  0.00    -0.317 N 
ATOM      9  N   UNL A   1      33.469  24.221  23.803  1.00  0.00    -0.334 N 
ATOM     10  C   UNL A   1      34.327  23.180  23.988  1.00  0.00     0.114 A 
ATOM     11  C   UNL A   1      32.423  24.067  24.720  1.00  0.00     0.049 A 
ATOM     12  C   UNL A   1      33.855  22.350  24.966  1.00  0.00     0.018 A 
ATOM     13  C   UNL A   1      35.615  22.766  23.543  1.00  0.00     0.272 C 
ATOM     14  C   UNL A   1      32.687  22.914  25.492  1.00  0.00     0.006 A 
ATOM     15  C   UNL A   1      31.265  24.826  24.960  1.00  0.00     0.027 A 
ATOM     16  C   UNL A   1      34.773  21.205  25.189  1.00  0.00     0.150 C 
ATOM     17  O   UNL A   1      36.354  23.307  22.735  1.00  0.00    -0.267 OA
ATOM     18  C   UNL A   1      31.820  22.553  26.539  1.00  0.00     0.011 A 
ATOM     19  C   UNL A   1      30.419  24.449  26.010  1.00  0.00     0.002 A 
ATOM     20  C   UNL A   1      30.693  23.335  26.796  1.00  0.00     0.001 A 
BRANCH   9  21
ATOM     21  C   UNL A   1      33.675  25.281  22.813  1.00  0.00     0.082 C 
ATOM     22  C   UNL A   1      32.690  25.146  21.654  1.00  0.00     0.031 C 
ATOM     23  C   UNL A   1      33.696  26.702  23.379  1.00  0.00     0.031 C 
ENDBRANCH   9  21
BRANCH  16  24
ATOM     24  C   UNL A   1      34.155  19.929  24.632  1.00  0.00    -0.021 A 
ATOM     25  C   UNL A   1      34.922  18.748  24.668  1.00  0.00     0.006 A 
ATOM     26  C   UNL A   1      32.879  19.846  24.039  1.00  0.00     0.006 A 
ATOM     27  C   UNL A   1      34.455  17.558  24.102  1.00  0.00     0.000 A 
ATOM     28  C   UNL A   1      32.402  18.651  23.494  1.00  0.00     0.000 A 
ATOM     29  C   UNL A   1      33.195  17.510  23.515  1.00  0.00     0.000 A 
ENDBRANCH  16  24
ENDBRANCH   7   8
ENDBRANCH   4   7
ENDBRANCH   2   3
ENDBRANCH   1   2
BRANCH   1  30
ATOM     30  C   UNL A   1      42.023  21.034  27.288  1.00  0.00     0.118 C 
BRANCH  30  31
ATOM     31  N   UNL A   1      42.482  21.796  26.147  1.00  0.00    -0.352 N 
ATOM     32  C   UNL A   1      42.584  23.120  25.841  1.00  0.00     0.251 C 
ATOM     33  H   UNL A   1      42.799  21.218  25.416  1.00  0.00     0.163 HD
ATOM     34  O   UNL A   1      43.137  23.369  24.767  1.00  0.00    -0.269 OA
BRANCH  32  35
ATOM     35  C   UNL A   1      42.018  24.240  26.639  1.00  0.00     0.039 A 
ATOM     36  C   UNL A   1      41.049  25.146  26.204  1.00  0.00     0.014 A 
ATOM     37  C   UNL A   1      42.619  24.440  27.896  1.00  0.00     0.014 A 
ATOM     38  C   UNL A   1      40.818  26.312  26.924  1.00  0.00     0.010 A 
ATOM     39  C   UNL A   1      42.370  25.586  28.631  1.00  0.00     0.010 A 
ATOM     40  C   UNL A   1      41.544  26.561  28.090  1.00  0.00    -0.014 A 
BRANCH  40  41
ATOM     41  C   UNL A   1      41.412  27.864  28.725  1.00  0.00     0.031 A 
ATOM     42  C   UNL A   1      42.354  28.903  28.223  1.00  0.00     0.074 A 
ATOM     43  C   UNL A   1      40.454  28.114  29.642  1.00  0.00     0.049 A 
ATOM     44  N   UNL A   1      43.315  29.489  28.863  1.00  0.00    -0.248 NA
ATOM     45  C   UNL A   1      42.305  29.225  26.787  1.00  0.00     0.031 C 
ATOM     46  C   UNL A   1      39.316  27.271  30.031  1.00  0.00     0.029 A 
ATOM     47  N   UNL A   1      40.227  29.256  30.342  1.00  0.00    -0.354 N 
ATOM     48  C   UNL A   1      43.857  30.408  27.966  1.00  0.00     0.074 A 
ATOM     49  C   UNL A   1      43.306  30.099  26.671  1.00  0.00     0.031 C 
ATOM     50  C   UNL A   1      38.395  28.030  30.669  1.00  0.00     0.029 A 
ATOM     51  C   UNL A   1      38.942  29.357  30.872  1.00  0.00     0.049 A 
ATOM     52  H   UNL A   1      40.911  29.953  30.464  1.00  0.00     0.167 HD
ATOM     53  C   UNL A   1      44.563  31.499  28.371  1.00  0.00     0.034 A 
ATOM     54  C   UNL A   1      38.367  30.487  31.355  1.00  0.00     0.034 A 
ATOM     55  C   UNL A   1      44.972  31.412  29.743  1.00  0.00     0.049 A 
ATOM     56  C   UNL A   1      39.480  31.404  31.705  1.00  0.00     0.074 A 
ATOM     57  C   UNL A   1      45.818  30.596  30.464  1.00  0.00     0.029 A 
ATOM     58  N   UNL A   1      44.168  32.031  30.668  1.00  0.00    -0.354 N 
ATOM     59  N   UNL A   1      40.363  31.147  32.629  1.00  0.00    -0.248 NA
ATOM     60  C   UNL A   1      39.867  32.397  30.718  1.00  0.00     0.031 C 
ATOM     61  C   UNL A   1      45.158  30.396  31.712  1.00  0.00     0.029 A 
ATOM     62  C   UNL A   1      43.979  31.145  31.696  1.00  0.00     0.049 A 
ATOM     63  H   UNL A   1      43.797  32.941  30.605  1.00  0.00     0.167 HD
ATOM     64  C   UNL A   1      41.560  31.603  32.098  1.00  0.00     0.074 A 
ATOM     65  C   UNL A   1      41.180  32.438  30.960  1.00  0.00     0.031 C 
ATOM     66  C   UNL A   1      42.750  31.036  32.449  1.00  0.00     0.034 A 
BRANCH  53  67
ATOM     67  C   UNL A   1      44.594  32.800  27.618  1.00  0.00     0.023 A 
ATOM     68  C   UNL A   1      45.699  33.081  26.789  1.00  0.00     0.012 A 
ATOM     69  C   UNL A   1      43.702  33.860  27.900  1.00  0.00     0.148 A 
ATOM     70  C   UNL A   1      45.904  34.361  26.263  1.00  0.00     0.002 A 
ATOM     71  C   UNL A   1      43.877  35.113  27.327  1.00  0.00     0.091 A 
ATOM     72  F   UNL A   1      42.751  33.687  28.825  1.00  0.00    -0.205 F 
ATOM     73  C   UNL A   1      44.987  35.374  26.521  1.00  0.00     0.022 A 
BRANCH  71  74
ATOM     74  S   UNL A   1      42.721  36.457  27.622  1.00  0.00     0.127 S 
ATOM     75  O   UNL A   1      41.461  35.853  27.200  1.00  0.00    -0.237 OA
ATOM     76  O   UNL A   1      42.863  36.658  29.064  1.00  0.00    -0.237 OA
ATOM     77  O   UNL A   1      43.204  37.568  26.812  1.00  0.00    -0.744 OA
ENDBRANCH  71  74
ENDBRANCH  53  67
BRANCH  54  78
ATOM     78  C   UNL A   1      36.981  30.997  31.166  1.00  0.00     0.023 A 
ATOM     79  C   UNL A   1      36.280  31.502  32.284  1.00  0.00     0.012 A 
ATOM     80  C   UNL A   1      36.473  31.295  29.882  1.00  0.00     0.148 A 
ATOM     81  C   UNL A   1      35.158  32.328  32.129  1.00  0.00     0.002 A 
ATOM     82  C   UNL A   1      35.351  32.109  29.732  1.00  0.00     0.091 A 
ATOM     83  F   UNL A   1      37.142  30.867  28.805  1.00  0.00    -0.205 F 
ATOM     84  C   UNL A   1      34.704  32.644  30.853  1.00  0.00     0.022 A 
BRANCH  82  85
ATOM     85  S   UNL A   1      34.709  32.570  28.116  1.00  0.00     0.127 S 
ATOM     86  O   UNL A   1      35.840  33.298  27.537  1.00  0.00    -0.237 OA
ATOM     87  O   UNL A   1      34.446  31.268  27.511  1.00  0.00    -0.237 OA
ATOM     88  O   UNL A   1      33.537  33.397  28.375  1.00  0.00    -0.744 OA
ENDBRANCH  82  85
ENDBRANCH  54  78
BRANCH  66  89
ATOM     89  C   UNL A   1      42.744  30.022  33.565  1.00  0.00     0.023 A 
ATOM     90  C   UNL A   1      42.413  28.666  33.348  1.00  0.00     0.012 A 
ATOM     91  C   UNL A   1      43.265  30.405  34.810  1.00  0.00     0.148 A 
ATOM     92  C   UNL A   1      42.597  27.714  34.357  1.00  0.00     0.002 A 
ATOM     93  C   UNL A   1      43.477  29.451  35.797  1.00  0.00     0.091 A 
ATOM     94  F   UNL A   1      43.593  31.694  34.984  1.00  0.00    -0.205 F 
ATOM     95  C   UNL A   1      43.140  28.105  35.578  1.00  0.00     0.022 A 
BRANCH  93  96
ATOM     96  S   UNL A   1      44.268  29.862  37.353  1.00  0.00     0.127 S 
ATOM     97  O   UNL A   1      43.304  30.782  37.954  1.00  0.00    -0.237 OA
ATOM     98  O   UNL A   1      44.356  28.555  38.005  1.00  0.00    -0.237 OA
ATOM     99  O   UNL A   1      45.557  30.451  37.012  1.00  0.00    -0.744 OA
ENDBRANCH  93  96
ENDBRANCH  66  89
ENDBRANCH  40  41
ENDBRANCH  32  35
ENDBRANCH  30  31
ENDBRANCH   1  30
TORSDOF 16
ENDMDL
