MODEL 1
REMARK VINA RESULT:     -11.8      0.000      0.000
REMARK SMILES O=C(CC1(NC(=O)Cc2ccc(F)cc2F)CCCC1)NCCCNC(=O)c1ccc(-c2c3nc(c(-c4cccc(S(=O)(=O)[O-])c4F)c4ccc([nH]4)c(-c4cccc(S(=O)(=O)[O-])c4F)c4nc(c(-c5cccc(S(=O)(=O)[O-])c5F)c5ccc2[nH]5)C=C4)C=C3)cc1
REMARK SMILES IDX 22 1 21 2 1 3 2 4 3 6 4 7 17 8 20 9 18 10 19 11 5 12 6 13
REMARK SMILES IDX 7 15 8 16 9 17 10 18 15 19 11 20 14 21 16 22 12 23 13 24
REMARK SMILES IDX 23 25 24 26 25 27 26 28 27 30 28 31 29 32 90 33 30 34 89 35
REMARK SMILES IDX 31 36 32 37 33 38 83 39 34 40 88 41 82 42 84 43 35 44 87 45
REMARK SMILES IDX 81 46 80 47 36 49 68 50 48 51 67 52 49 53 52 54 66 55 85 56
REMARK SMILES IDX 50 57 51 58 65 60 86 61 53 62 37 63 38 64 46 65 39 66 41 67
REMARK SMILES IDX 47 68 40 69 42 70 43 71 44 72 45 73 69 74 70 75 78 76 71 77
REMARK SMILES IDX 73 78 79 79 72 80 74 81 75 82 76 83 77 84 54 85 55 86 63 87
REMARK SMILES IDX 56 88 58 89 64 90 57 91 59 92 60 93 61 94 62 95
REMARK H PARENT 21 5 5 14 25 29 84 48 52 59
REMARK Flexibility Score: inf
ROOT
ATOM      1  C   UNL A   1      31.747  27.031  26.350  1.00  0.00     0.117 C 
ENDROOT
BRANCH   1   2
ATOM      2  N   UNL A   1      33.107  26.595  26.053  1.00  0.00    -0.356 N 
ATOM      3  O   UNL A   1      32.667  24.380  26.391  1.00  0.00    -0.275 OA
ATOM      4  C   UNL A   1      33.428  25.260  25.989  1.00  0.00     0.222 C 
ATOM      5  H   UNL A   1      33.809  27.269  25.897  1.00  0.00     0.163 HD
BRANCH   4   6
ATOM      6  C   UNL A   1      34.769  24.865  25.377  1.00  0.00     0.128 C 
BRANCH   6   7
ATOM      7  C   UNL A   1      35.013  23.417  24.918  1.00  0.00     0.049 C 
ATOM      8  C   UNL A   1      36.066  23.393  23.784  1.00  0.00     0.029 C 
ATOM      9  C   UNL A   1      35.721  22.608  26.037  1.00  0.00     0.029 C 
ATOM     10  C   UNL A   1      36.760  22.042  23.898  1.00  0.00     0.003 C 
ATOM     11  C   UNL A   1      36.754  21.700  25.377  1.00  0.00     0.003 C 
BRANCH   7  12
ATOM     12  N   UNL A   1      33.811  22.647  24.484  1.00  0.00    -0.350 N 
ATOM     13  C   UNL A   1      33.109  22.473  23.328  1.00  0.00     0.224 C 
ATOM     14  H   UNL A   1      33.424  22.129  25.226  1.00  0.00     0.164 HD
ATOM     15  O   UNL A   1      32.355  21.493  23.301  1.00  0.00    -0.275 OA
BRANCH  13  16
ATOM     16  C   UNL A   1      33.181  23.404  22.131  1.00  0.00     0.138 C 
BRANCH  16  17
ATOM     17  C   UNL A   1      32.770  24.829  22.419  1.00  0.00    -0.003 A 
ATOM     18  C   UNL A   1      33.653  25.906  22.280  1.00  0.00     0.010 A 
ATOM     19  C   UNL A   1      31.434  25.096  22.763  1.00  0.00     0.129 A 
ATOM     20  C   UNL A   1      33.162  27.211  22.338  1.00  0.00     0.040 A 
ATOM     21  C   UNL A   1      30.936  26.391  22.779  1.00  0.00     0.078 A 
ATOM     22  F   UNL A   1      30.586  24.077  22.963  1.00  0.00    -0.207 F 
ATOM     23  C   UNL A   1      31.805  27.439  22.527  1.00  0.00     0.126 A 
ATOM     24  F   UNL A   1      31.332  28.688  22.440  1.00  0.00    -0.207 F 
ENDBRANCH  16  17
ENDBRANCH  13  16
ENDBRANCH   7  12
ENDBRANCH   6   7
ENDBRANCH   4   6
ENDBRANCH   1   2
BRANCH   1  25
ATOM     25  C   UNL A   1      31.403  28.456  25.921  1.00  0.00     0.042 C 
BRANCH  25  26
ATOM     26  C   UNL A   1      32.591  29.404  25.774  1.00  0.00     0.118 C 
BRANCH  26  27
ATOM     27  N   UNL A   1      32.293  30.783  26.104  1.00  0.00    -0.352 N 
ATOM     28  C   UNL A   1      32.966  31.630  26.956  1.00  0.00     0.251 C 
ATOM     29  H   UNL A   1      31.502  31.166  25.660  1.00  0.00     0.163 HD
ATOM     30  O   UNL A   1      32.537  32.763  27.141  1.00  0.00    -0.269 OA
BRANCH  28  31
ATOM     31  C   UNL A   1      34.180  31.176  27.680  1.00  0.00     0.039 A 
ATOM     32  C   UNL A   1      35.147  32.133  28.002  1.00  0.00     0.014 A 
ATOM     33  C   UNL A   1      34.401  29.832  28.000  1.00  0.00     0.014 A 
ATOM     34  C   UNL A   1      36.319  31.751  28.663  1.00  0.00     0.010 A 
ATOM     35  C   UNL A   1      35.556  29.459  28.704  1.00  0.00     0.010 A 
ATOM     36  C   UNL A   1      36.535  30.411  29.031  1.00  0.00    -0.014 A 
BRANCH  36  37
ATOM     37  C   UNL A   1      37.786  30.031  29.749  1.00  0.00     0.031 A 
ATOM     38  C   UNL A   1      38.069  30.540  31.140  1.00  0.00     0.074 A 
ATOM     39  C   UNL A   1      38.680  29.216  29.153  1.00  0.00     0.049 A 
ATOM     40  N   UNL A   1      39.061  30.243  31.941  1.00  0.00    -0.248 NA
ATOM     41  C   UNL A   1      37.124  31.519  31.700  1.00  0.00     0.031 C 
ATOM     42  C   UNL A   1      38.570  28.700  27.788  1.00  0.00     0.029 A 
ATOM     43  N   UNL A   1      39.861  28.683  29.613  1.00  0.00    -0.354 N 
ATOM     44  C   UNL A   1      38.874  31.008  33.088  1.00  0.00     0.074 A 
ATOM     45  C   UNL A   1      37.690  31.809  32.864  1.00  0.00     0.031 C 
ATOM     46  C   UNL A   1      39.628  27.915  27.526  1.00  0.00     0.029 A 
ATOM     47  C   UNL A   1      40.505  27.887  28.694  1.00  0.00     0.049 A 
ATOM     48  H   UNL A   1      40.213  28.855  30.516  1.00  0.00     0.167 HD
ATOM     49  C   UNL A   1      39.601  31.025  34.233  1.00  0.00     0.034 A 
ATOM     50  C   UNL A   1      41.668  27.210  28.775  1.00  0.00     0.034 A 
ATOM     51  C   UNL A   1      40.767  30.213  34.467  1.00  0.00     0.049 A 
ATOM     52  C   UNL A   1      42.445  27.229  30.065  1.00  0.00     0.074 A 
ATOM     53  C   UNL A   1      41.521  30.106  35.624  1.00  0.00     0.029 A 
ATOM     54  N   UNL A   1      41.359  29.383  33.529  1.00  0.00    -0.354 N 
ATOM     55  N   UNL A   1      42.159  27.831  31.193  1.00  0.00    -0.248 NA
ATOM     56  C   UNL A   1      43.687  26.441  30.105  1.00  0.00     0.031 C 
ATOM     57  C   UNL A   1      42.591  29.241  35.371  1.00  0.00     0.029 A 
ATOM     58  C   UNL A   1      42.479  28.774  34.072  1.00  0.00     0.049 A 
ATOM     59  H   UNL A   1      41.032  29.246  32.610  1.00  0.00     0.167 HD
ATOM     60  C   UNL A   1      43.162  27.466  32.086  1.00  0.00     0.074 A 
ATOM     61  C   UNL A   1      44.049  26.572  31.374  1.00  0.00     0.031 C 
ATOM     62  C   UNL A   1      43.336  27.849  33.375  1.00  0.00     0.034 A 
BRANCH  49  63
ATOM     63  C   UNL A   1      39.135  31.929  35.348  1.00  0.00     0.023 A 
ATOM     64  C   UNL A   1      38.200  31.451  36.288  1.00  0.00     0.012 A 
ATOM     65  C   UNL A   1      39.671  33.222  35.505  1.00  0.00     0.148 A 
ATOM     66  C   UNL A   1      37.777  32.257  37.346  1.00  0.00     0.002 A 
ATOM     67  C   UNL A   1      39.280  34.003  36.587  1.00  0.00     0.091 A 
ATOM     68  F   UNL A   1      40.549  33.667  34.595  1.00  0.00    -0.205 F 
ATOM     69  C   UNL A   1      38.323  33.528  37.500  1.00  0.00     0.022 A 
BRANCH  67  70
ATOM     70  S   UNL A   1      39.985  35.621  36.924  1.00  0.00     0.127 S 
ATOM     71  O   UNL A   1      39.313  35.981  38.172  1.00  0.00    -0.237 OA
ATOM     72  O   UNL A   1      41.409  35.313  37.066  1.00  0.00    -0.237 OA
ATOM     73  O   UNL A   1      39.654  36.452  35.775  1.00  0.00    -0.744 OA
ENDBRANCH  67  70
ENDBRANCH  49  63
BRANCH  50  74
ATOM     74  C   UNL A   1      42.147  26.406  27.613  1.00  0.00     0.023 A 
ATOM     75  C   UNL A   1      42.969  27.005  26.639  1.00  0.00     0.012 A 
ATOM     76  C   UNL A   1      41.798  25.049  27.476  1.00  0.00     0.148 A 
ATOM     77  C   UNL A   1      43.406  26.278  25.531  1.00  0.00     0.002 A 
ATOM     78  C   UNL A   1      42.286  24.314  26.401  1.00  0.00     0.091 A 
ATOM     79  F   UNL A   1      41.005  24.500  28.406  1.00  0.00    -0.205 F 
ATOM     80  C   UNL A   1      43.074  24.931  25.418  1.00  0.00     0.022 A 
BRANCH  78  81
ATOM     81  S   UNL A   1      42.017  22.546  26.243  1.00  0.00     0.127 S 
ATOM     82  O   UNL A   1      42.724  22.245  25.001  1.00  0.00    -0.237 OA
ATOM     83  O   UNL A   1      42.657  22.036  27.456  1.00  0.00    -0.237 OA
ATOM     84  O   UNL A   1      40.571  22.369  26.206  1.00  0.00    -0.744 OA
ENDBRANCH  78  81
ENDBRANCH  50  74
BRANCH  62  85
ATOM     85  C   UNL A   1      44.509  27.272  34.127  1.00  0.00     0.023 A 
ATOM     86  C   UNL A   1      45.765  27.911  34.074  1.00  0.00     0.012 A 
ATOM     87  C   UNL A   1      44.351  26.131  34.937  1.00  0.00     0.148 A 
ATOM     88  C   UNL A   1      46.852  27.400  34.785  1.00  0.00     0.002 A 
ATOM     89  C   UNL A   1      45.424  25.658  35.684  1.00  0.00     0.091 A 
ATOM     90  F   UNL A   1      43.154  25.525  34.962  1.00  0.00    -0.205 F 
ATOM     91  C   UNL A   1      46.678  26.282  35.597  1.00  0.00     0.022 A 
BRANCH  89  92
ATOM     92  S   UNL A   1      45.270  24.285  36.833  1.00  0.00     0.127 S 
ATOM     93  O   UNL A   1      44.273  24.794  37.772  1.00  0.00    -0.237 OA
ATOM     94  O   UNL A   1      44.795  23.206  35.964  1.00  0.00    -0.237 OA
ATOM     95  O   UNL A   1      46.599  24.072  37.387  1.00  0.00    -0.744 OA
ENDBRANCH  89  92
ENDBRANCH  62  85
ENDBRANCH  36  37
ENDBRANCH  28  31
ENDBRANCH  26  27
ENDBRANCH  25  26
ENDBRANCH   1  25
TORSDOF 17
ENDMDL
MODEL 2
REMARK VINA RESULT:     -11.8      1.910      2.987
REMARK SMILES O=C(CC1(NC(=O)Cc2ccc(F)cc2F)CCCC1)NCCCNC(=O)c1ccc(-c2c3nc(c(-c4cccc(S(=O)(=O)[O-])c4F)c4ccc([nH]4)c(-c4cccc(S(=O)(=O)[O-])c4F)c4nc(c(-c5cccc(S(=O)(=O)[O-])c5F)c5ccc2[nH]5)C=C4)C=C3)cc1
REMARK SMILES IDX 22 1 21 2 1 3 2 4 3 6 4 7 17 8 20 9 18 10 19 11 5 12 6 13
REMARK SMILES IDX 7 15 8 16 9 17 10 18 15 19 11 20 14 21 16 22 12 23 13 24
REMARK SMILES IDX 23 25 24 26 25 27 26 28 27 30 28 31 29 32 90 33 30 34 89 35
REMARK SMILES IDX 31 36 32 37 33 38 83 39 34 40 88 41 82 42 84 43 35 44 87 45
REMARK SMILES IDX 81 46 80 47 36 49 68 50 48 51 67 52 49 53 52 54 66 55 85 56
REMARK SMILES IDX 50 57 51 58 65 60 86 61 53 62 37 63 38 64 46 65 39 66 41 67
REMARK SMILES IDX 47 68 40 69 42 70 43 71 44 72 45 73 69 74 70 75 78 76 71 77
REMARK SMILES IDX 73 78 79 79 72 80 74 81 75 82 76 83 77 84 54 85 55 86 63 87
REMARK SMILES IDX 56 88 58 89 64 90 57 91 59 92 60 93 61 94 62 95
REMARK H PARENT 21 5 5 14 25 29 84 48 52 59
REMARK Flexibility Score: inf
ROOT
ATOM      1  C   UNL A   1      32.862  27.784  23.033  1.00  0.00     0.117 C 
ENDROOT
BRANCH   1   2
ATOM      2  N   UNL A   1      33.672  26.577  23.160  1.00  0.00    -0.356 N 
ATOM      3  O   UNL A   1      32.298  25.596  24.699  1.00  0.00    -0.275 OA
ATOM      4  C   UNL A   1      33.247  25.512  23.919  1.00  0.00     0.222 C 
ATOM      5  H   UNL A   1      34.539  26.523  22.694  1.00  0.00     0.163 HD
BRANCH   4   6
ATOM      6  C   UNL A   1      33.972  24.178  23.767  1.00  0.00     0.128 C 
BRANCH   6   7
ATOM      7  C   UNL A   1      34.679  23.540  24.975  1.00  0.00     0.049 C 
ATOM      8  C   UNL A   1      35.316  22.191  24.563  1.00  0.00     0.029 C 
ATOM      9  C   UNL A   1      35.922  24.377  25.377  1.00  0.00     0.029 C 
ATOM     10  C   UNL A   1      36.519  22.009  25.479  1.00  0.00     0.003 C 
ATOM     11  C   UNL A   1      37.036  23.408  25.761  1.00  0.00     0.003 C 
BRANCH   7  12
ATOM     12  N   UNL A   1      33.849  23.334  26.197  1.00  0.00    -0.350 N 
ATOM     13  C   UNL A   1      32.768  22.580  26.547  1.00  0.00     0.224 C 
ATOM     14  H   UNL A   1      34.164  23.887  26.948  1.00  0.00     0.164 HD
ATOM     15  O   UNL A   1      32.573  22.452  27.761  1.00  0.00    -0.275 OA
BRANCH  13  16
ATOM     16  C   UNL A   1      31.810  21.941  25.556  1.00  0.00     0.138 C 
BRANCH  16  17
ATOM     17  C   UNL A   1      32.335  20.687  24.897  1.00  0.00    -0.003 A 
ATOM     18  C   UNL A   1      32.861  19.618  25.632  1.00  0.00     0.010 A 
ATOM     19  C   UNL A   1      32.223  20.551  23.503  1.00  0.00     0.129 A 
ATOM     20  C   UNL A   1      33.118  18.404  24.995  1.00  0.00     0.040 A 
ATOM     21  C   UNL A   1      32.437  19.334  22.875  1.00  0.00     0.078 A 
ATOM     22  F   UNL A   1      31.781  21.586  22.772  1.00  0.00    -0.207 F 
ATOM     23  C   UNL A   1      32.849  18.256  23.639  1.00  0.00     0.126 A 
ATOM     24  F   UNL A   1      32.969  17.048  23.075  1.00  0.00    -0.207 F 
ENDBRANCH  16  17
ENDBRANCH  13  16
ENDBRANCH   7  12
ENDBRANCH   6   7
ENDBRANCH   4   6
ENDBRANCH   1   2
BRANCH   1  25
ATOM     25  C   UNL A   1      33.412  29.023  23.735  1.00  0.00     0.042 C 
BRANCH  25  26
ATOM     26  C   UNL A   1      33.298  29.022  25.257  1.00  0.00     0.118 C 
BRANCH  26  27
ATOM     27  N   UNL A   1      32.647  30.197  25.803  1.00  0.00    -0.352 N 
ATOM     28  C   UNL A   1      33.064  31.013  26.831  1.00  0.00     0.251 C 
ATOM     29  H   UNL A   1      31.792  30.445  25.382  1.00  0.00     0.163 HD
ATOM     30  O   UNL A   1      32.353  31.948  27.182  1.00  0.00    -0.269 OA
BRANCH  28  31
ATOM     31  C   UNL A   1      34.341  30.752  27.541  1.00  0.00     0.039 A 
ATOM     32  C   UNL A   1      34.496  29.517  28.176  1.00  0.00     0.014 A 
ATOM     33  C   UNL A   1      35.356  31.710  27.631  1.00  0.00     0.014 A 
ATOM     34  C   UNL A   1      35.672  29.232  28.878  1.00  0.00     0.010 A 
ATOM     35  C   UNL A   1      36.552  31.405  28.297  1.00  0.00     0.010 A 
ATOM     36  C   UNL A   1      36.719  30.168  28.941  1.00  0.00    -0.014 A 
BRANCH  36  37
ATOM     37  C   UNL A   1      37.969  29.834  29.683  1.00  0.00     0.031 A 
ATOM     38  C   UNL A   1      38.225  30.386  31.062  1.00  0.00     0.074 A 
ATOM     39  C   UNL A   1      38.887  29.023  29.119  1.00  0.00     0.049 A 
ATOM     40  N   UNL A   1      39.214  30.132  31.882  1.00  0.00    -0.248 NA
ATOM     41  C   UNL A   1      37.254  31.359  31.585  1.00  0.00     0.031 C 
ATOM     42  C   UNL A   1      38.803  28.468  27.767  1.00  0.00     0.029 A 
ATOM     43  N   UNL A   1      40.074  28.528  29.606  1.00  0.00    -0.354 N 
ATOM     44  C   UNL A   1      38.998  30.923  33.005  1.00  0.00     0.074 A 
ATOM     45  C   UNL A   1      37.800  31.693  32.747  1.00  0.00     0.031 C 
ATOM     46  C   UNL A   1      39.880  27.699  27.539  1.00  0.00     0.029 A 
ATOM     47  C   UNL A   1      40.745  27.720  28.716  1.00  0.00     0.049 A 
ATOM     48  H   UNL A   1      40.411  28.731  30.508  1.00  0.00     0.167 HD
ATOM     49  C   UNL A   1      39.711  30.986  34.157  1.00  0.00     0.034 A 
ATOM     50  C   UNL A   1      41.921  27.071  28.828  1.00  0.00     0.034 A 
ATOM     51  C   UNL A   1      40.891  30.206  34.426  1.00  0.00     0.049 A 
ATOM     52  C   UNL A   1      42.683  27.141  30.126  1.00  0.00     0.074 A 
ATOM     53  C   UNL A   1      41.634  30.147  35.593  1.00  0.00     0.029 A 
ATOM     54  N   UNL A   1      41.511  29.364  33.518  1.00  0.00    -0.354 N 
ATOM     55  N   UNL A   1      42.371  27.767  31.234  1.00  0.00    -0.248 NA
ATOM     56  C   UNL A   1      43.940  26.381  30.201  1.00  0.00     0.031 C 
ATOM     57  C   UNL A   1      42.725  29.298  35.376  1.00  0.00     0.029 A 
ATOM     58  C   UNL A   1      42.638  28.795  34.090  1.00  0.00     0.049 A 
ATOM     59  H   UNL A   1      41.198  29.195  32.599  1.00  0.00     0.167 HD
ATOM     60  C   UNL A   1      43.370  27.448  32.147  1.00  0.00     0.074 A 
ATOM     61  C   UNL A   1      44.285  26.554  31.469  1.00  0.00     0.031 C 
ATOM     62  C   UNL A   1      43.521  27.869  33.427  1.00  0.00     0.034 A 
BRANCH  49  63
ATOM     63  C   UNL A   1      39.213  31.910  35.242  1.00  0.00     0.023 A 
ATOM     64  C   UNL A   1      39.347  33.305  35.087  1.00  0.00     0.012 A 
ATOM     65  C   UNL A   1      38.553  31.403  36.379  1.00  0.00     0.148 A 
ATOM     66  C   UNL A   1      38.867  34.180  36.062  1.00  0.00     0.002 A 
ATOM     67  C   UNL A   1      38.035  32.282  37.325  1.00  0.00     0.091 A 
ATOM     68  F   UNL A   1      38.445  30.075  36.519  1.00  0.00    -0.205 F 
ATOM     69  C   UNL A   1      38.204  33.670  37.174  1.00  0.00     0.022 A 
BRANCH  67  70
ATOM     70  S   UNL A   1      37.092  31.732  38.751  1.00  0.00     0.127 S 
ATOM     71  O   UNL A   1      35.915  32.597  38.677  1.00  0.00    -0.237 OA
ATOM     72  O   UNL A   1      36.837  30.328  38.428  1.00  0.00    -0.237 OA
ATOM     73  O   UNL A   1      37.950  31.945  39.908  1.00  0.00    -0.744 OA
ENDBRANCH  67  70
ENDBRANCH  49  63
BRANCH  50  74
ATOM     74  C   UNL A   1      42.430  26.247  27.694  1.00  0.00     0.023 A 
ATOM     75  C   UNL A   1      43.375  26.790  26.803  1.00  0.00     0.012 A 
ATOM     76  C   UNL A   1      41.987  24.924  27.501  1.00  0.00     0.148 A 
ATOM     77  C   UNL A   1      43.845  26.045  25.721  1.00  0.00     0.002 A 
ATOM     78  C   UNL A   1      42.504  24.166  26.456  1.00  0.00     0.091 A 
ATOM     79  F   UNL A   1      41.078  24.429  28.352  1.00  0.00    -0.205 F 
ATOM     80  C   UNL A   1      43.417  24.731  25.553  1.00  0.00     0.022 A 
BRANCH  78  81
ATOM     81  S   UNL A   1      42.109  22.428  26.241  1.00  0.00     0.127 S 
ATOM     82  O   UNL A   1      42.839  22.104  25.018  1.00  0.00    -0.237 OA
ATOM     83  O   UNL A   1      42.662  21.842  27.462  1.00  0.00    -0.237 OA
ATOM     84  O   UNL A   1      40.657  22.362  26.147  1.00  0.00    -0.744 OA
ENDBRANCH  78  81
ENDBRANCH  50  74
BRANCH  62  85
ATOM     85  C   UNL A   1      44.698  27.338  34.207  1.00  0.00     0.023 A 
ATOM     86  C   UNL A   1      45.924  28.034  34.197  1.00  0.00     0.012 A 
ATOM     87  C   UNL A   1      44.569  26.182  35.001  1.00  0.00     0.148 A 
ATOM     88  C   UNL A   1      47.013  27.565  34.934  1.00  0.00     0.002 A 
ATOM     89  C   UNL A   1      45.641  25.750  35.774  1.00  0.00     0.091 A 
ATOM     90  F   UNL A   1      43.402  25.522  34.985  1.00  0.00    -0.205 F 
ATOM     91  C   UNL A   1      46.868  26.431  35.730  1.00  0.00     0.022 A 
BRANCH  89  92
ATOM     92  S   UNL A   1      45.517  24.359  36.905  1.00  0.00     0.127 S 
ATOM     93  O   UNL A   1      45.220  23.258  35.990  1.00  0.00    -0.237 OA
ATOM     94  O   UNL A   1      46.857  24.318  37.493  1.00  0.00    -0.237 OA
ATOM     95  O   UNL A   1      44.455  24.695  37.842  1.00  0.00    -0.744 OA
ENDBRANCH  89  92
ENDBRANCH  62  85
ENDBRANCH  36  37
ENDBRANCH  28  31
ENDBRANCH  26  27
ENDBRANCH  25  26
ENDBRANCH   1  25
TORSDOF 17
ENDMDL
MODEL 3
REMARK VINA RESULT:     -11.6      1.593      2.072
REMARK SMILES O=C(CC1(NC(=O)Cc2ccc(F)cc2F)CCCC1)NCCCNC(=O)c1ccc(-c2c3nc(c(-c4cccc(S(=O)(=O)[O-])c4F)c4ccc([nH]4)c(-c4cccc(S(=O)(=O)[O-])c4F)c4nc(c(-c5cccc(S(=O)(=O)[O-])c5F)c5ccc2[nH]5)C=C4)C=C3)cc1
REMARK SMILES IDX 22 1 21 2 1 3 2 4 3 6 4 7 17 8 20 9 18 10 19 11 5 12 6 13
REMARK SMILES IDX 7 15 8 16 9 17 10 18 15 19 11 20 14 21 16 22 12 23 13 24
REMARK SMILES IDX 23 25 24 26 25 27 26 28 27 30 28 31 29 32 90 33 30 34 89 35
REMARK SMILES IDX 31 36 32 37 33 38 83 39 34 40 88 41 82 42 84 43 35 44 87 45
REMARK SMILES IDX 81 46 80 47 36 49 68 50 48 51 67 52 49 53 52 54 66 55 85 56
REMARK SMILES IDX 50 57 51 58 65 60 86 61 53 62 37 63 38 64 46 65 39 66 41 67
REMARK SMILES IDX 47 68 40 69 42 70 43 71 44 72 45 73 69 74 70 75 78 76 71 77
REMARK SMILES IDX 73 78 79 79 72 80 74 81 75 82 76 83 77 84 54 85 55 86 63 87
REMARK SMILES IDX 56 88 58 89 64 90 57 91 59 92 60 93 61 94 62 95
REMARK H PARENT 21 5 5 14 25 29 84 48 52 59
REMARK Flexibility Score: inf
ROOT
ATOM      1  C   UNL A   1      31.748  28.671  27.367  1.00  0.00     0.117 C 
ENDROOT
BRANCH   1   2
ATOM      2  N   UNL A   1      32.897  27.840  27.026  1.00  0.00    -0.356 N 
ATOM      3  O   UNL A   1      31.691  26.374  25.755  1.00  0.00    -0.275 OA
ATOM      4  C   UNL A   1      32.783  26.800  26.134  1.00  0.00     0.222 C 
ATOM      5  H   UNL A   1      33.770  28.026  27.442  1.00  0.00     0.163 HD
BRANCH   4   6
ATOM      6  C   UNL A   1      34.060  26.173  25.585  1.00  0.00     0.128 C 
BRANCH   6   7
ATOM      7  C   UNL A   1      34.127  24.658  25.322  1.00  0.00     0.049 C 
ATOM      8  C   UNL A   1      35.600  24.217  25.147  1.00  0.00     0.029 C 
ATOM      9  C   UNL A   1      33.701  23.871  26.590  1.00  0.00     0.029 C 
ATOM     10  C   UNL A   1      35.652  22.769  25.616  1.00  0.00     0.003 C 
ATOM     11  C   UNL A   1      34.613  22.655  26.716  1.00  0.00     0.003 C 
BRANCH   7  12
ATOM     12  N   UNL A   1      33.325  24.147  24.173  1.00  0.00    -0.350 N 
ATOM     13  C   UNL A   1      33.180  24.450  22.852  1.00  0.00     0.224 C 
ATOM     14  H   UNL A   1      32.748  23.395  24.438  1.00  0.00     0.164 HD
ATOM     15  O   UNL A   1      32.648  23.577  22.156  1.00  0.00    -0.275 OA
BRANCH  13  16
ATOM     16  C   UNL A   1      33.597  25.768  22.222  1.00  0.00     0.138 C 
BRANCH  16  17
ATOM     17  C   UNL A   1      32.603  26.892  22.403  1.00  0.00    -0.003 A 
ATOM     18  C   UNL A   1      31.220  26.684  22.344  1.00  0.00     0.010 A 
ATOM     19  C   UNL A   1      33.076  28.176  22.719  1.00  0.00     0.129 A 
ATOM     20  C   UNL A   1      30.353  27.703  22.741  1.00  0.00     0.040 A 
ATOM     21  C   UNL A   1      32.219  29.176  23.154  1.00  0.00     0.078 A 
ATOM     22  F   UNL A   1      34.396  28.413  22.719  1.00  0.00    -0.207 F 
ATOM     23  C   UNL A   1      30.861  28.914  23.197  1.00  0.00     0.126 A 
ATOM     24  F   UNL A   1      30.023  29.826  23.704  1.00  0.00    -0.207 F 
ENDBRANCH  16  17
ENDBRANCH  13  16
ENDBRANCH   7  12
ENDBRANCH   6   7
ENDBRANCH   4   6
ENDBRANCH   1   2
BRANCH   1  25
ATOM     25  C   UNL A   1      31.727  30.060  26.733  1.00  0.00     0.042 C 
BRANCH  25  26
ATOM     26  C   UNL A   1      33.041  30.834  26.799  1.00  0.00     0.118 C 
BRANCH  26  27
ATOM     27  N   UNL A   1      32.889  32.230  27.161  1.00  0.00    -0.352 N 
ATOM     28  C   UNL A   1      33.727  33.020  27.915  1.00  0.00     0.251 C 
ATOM     29  H   UNL A   1      32.077  32.672  26.823  1.00  0.00     0.163 HD
ATOM     30  O   UNL A   1      33.409  34.180  28.151  1.00  0.00    -0.269 OA
BRANCH  28  31
ATOM     31  C   UNL A   1      34.988  32.475  28.477  1.00  0.00     0.039 A 
ATOM     32  C   UNL A   1      34.900  31.386  29.349  1.00  0.00     0.014 A 
ATOM     33  C   UNL A   1      36.237  33.040  28.199  1.00  0.00     0.014 A 
ATOM     34  C   UNL A   1      36.058  30.851  29.922  1.00  0.00     0.010 A 
ATOM     35  C   UNL A   1      37.401  32.472  28.739  1.00  0.00     0.010 A 
ATOM     36  C   UNL A   1      37.324  31.380  29.618  1.00  0.00    -0.014 A 
BRANCH  36  37
ATOM     37  C   UNL A   1      38.546  30.782  30.231  1.00  0.00     0.031 A 
ATOM     38  C   UNL A   1      38.996  31.178  31.613  1.00  0.00     0.074 A 
ATOM     39  C   UNL A   1      39.261  29.867  29.543  1.00  0.00     0.049 A 
ATOM     40  N   UNL A   1      39.981  30.696  32.330  1.00  0.00    -0.248 NA
ATOM     41  C   UNL A   1      38.254  32.263  32.274  1.00  0.00     0.031 C 
ATOM     42  C   UNL A   1      38.981  29.437  28.173  1.00  0.00     0.029 A 
ATOM     43  N   UNL A   1      40.372  29.140  29.897  1.00  0.00    -0.354 N 
ATOM     44  C   UNL A   1      39.991  31.428  33.513  1.00  0.00     0.074 A 
ATOM     45  C   UNL A   1      38.934  32.410  33.404  1.00  0.00     0.031 C 
ATOM     46  C   UNL A   1      39.884  28.512  27.808  1.00  0.00     0.029 A 
ATOM     47  C   UNL A   1      40.822  28.297  28.907  1.00  0.00     0.049 A 
ATOM     48  H   UNL A   1      40.806  29.215  30.778  1.00  0.00     0.167 HD
ATOM     49  C   UNL A   1      40.786  31.282  34.602  1.00  0.00     0.034 A 
ATOM     50  C   UNL A   1      41.868  27.447  28.881  1.00  0.00     0.034 A 
ATOM     51  C   UNL A   1      41.825  30.292  34.723  1.00  0.00     0.049 A 
ATOM     52  C   UNL A   1      42.723  27.288  30.111  1.00  0.00     0.074 A 
ATOM     53  C   UNL A   1      42.628  30.018  35.817  1.00  0.00     0.029 A 
ATOM     54  N   UNL A   1      42.217  29.425  33.716  1.00  0.00    -0.354 N 
ATOM     55  N   UNL A   1      42.609  27.876  31.277  1.00  0.00    -0.248 NA
ATOM     56  C   UNL A   1      43.827  26.319  30.033  1.00  0.00     0.031 C 
ATOM     57  C   UNL A   1      43.532  29.013  35.458  1.00  0.00     0.029 A 
ATOM     58  C   UNL A   1      43.263  28.628  34.156  1.00  0.00     0.049 A 
ATOM     59  H   UNL A   1      41.813  29.380  32.819  1.00  0.00     0.167 HD
ATOM     60  C   UNL A   1      43.600  27.322  32.081  1.00  0.00     0.074 A 
ATOM     61  C   UNL A   1      44.288  26.336  31.276  1.00  0.00     0.031 C 
ATOM     62  C   UNL A   1      43.916  27.615  33.367  1.00  0.00     0.034 A 
BRANCH  49  63
ATOM     63  C   UNL A   1      40.541  32.195  35.779  1.00  0.00     0.023 A 
ATOM     64  C   UNL A   1      41.382  33.307  35.985  1.00  0.00     0.012 A 
ATOM     65  C   UNL A   1      39.442  31.993  36.637  1.00  0.00     0.148 A 
ATOM     66  C   UNL A   1      41.158  34.183  37.048  1.00  0.00     0.002 A 
ATOM     67  C   UNL A   1      39.196  32.896  37.665  1.00  0.00     0.091 A 
ATOM     68  F   UNL A   1      38.659  30.924  36.435  1.00  0.00    -0.205 F 
ATOM     69  C   UNL A   1      40.061  33.983  37.881  1.00  0.00     0.022 A 
BRANCH  67  70
ATOM     70  S   UNL A   1      37.763  32.776  38.743  1.00  0.00     0.127 S 
ATOM     71  O   UNL A   1      36.664  32.939  37.791  1.00  0.00    -0.237 OA
ATOM     72  O   UNL A   1      37.901  31.426  39.289  1.00  0.00    -0.237 OA
ATOM     73  O   UNL A   1      37.904  33.846  39.720  1.00  0.00    -0.744 OA
ENDBRANCH  67  70
ENDBRANCH  49  63
BRANCH  50  74
ATOM     74  C   UNL A   1      42.138  26.633  27.660  1.00  0.00     0.023 A 
ATOM     75  C   UNL A   1      42.783  27.222  26.555  1.00  0.00     0.012 A 
ATOM     76  C   UNL A   1      41.767  25.277  27.595  1.00  0.00     0.148 A 
ATOM     77  C   UNL A   1      43.022  26.485  25.394  1.00  0.00     0.002 A 
ATOM     78  C   UNL A   1      42.061  24.532  26.458  1.00  0.00     0.091 A 
ATOM     79  F   UNL A   1      41.142  24.738  28.652  1.00  0.00    -0.205 F 
ATOM     80  C   UNL A   1      42.671  25.138  25.350  1.00  0.00     0.022 A 
BRANCH  78  81
ATOM     81  S   UNL A   1      41.762  22.764  26.362  1.00  0.00     0.127 S 
ATOM     82  O   UNL A   1      42.429  22.416  25.110  1.00  0.00    -0.237 OA
ATOM     83  O   UNL A   1      42.430  22.281  27.571  1.00  0.00    -0.237 OA
ATOM     84  O   UNL A   1      40.314  22.608  26.372  1.00  0.00    -0.744 OA
ENDBRANCH  78  81
ENDBRANCH  50  74
BRANCH  62  85
ATOM     85  C   UNL A   1      45.034  26.833  34.011  1.00  0.00     0.023 A 
ATOM     86  C   UNL A   1      46.370  27.257  33.864  1.00  0.00     0.012 A 
ATOM     87  C   UNL A   1      44.752  25.711  34.816  1.00  0.00     0.148 A 
ATOM     88  C   UNL A   1      47.409  26.554  34.475  1.00  0.00     0.002 A 
ATOM     89  C   UNL A   1      45.787  25.048  35.465  1.00  0.00     0.091 A 
ATOM     90  F   UNL A   1      43.477  25.310  34.931  1.00  0.00    -0.205 F 
ATOM     91  C   UNL A   1      47.117  25.458  35.284  1.00  0.00     0.022 A 
BRANCH  89  92
ATOM     92  S   UNL A   1      45.497  23.688  36.603  1.00  0.00     0.127 S 
ATOM     93  O   UNL A   1      46.856  23.372  37.041  1.00  0.00    -0.237 OA
ATOM     94  O   UNL A   1      44.658  24.313  37.626  1.00  0.00    -0.237 OA
ATOM     95  O   UNL A   1      44.833  22.649  35.829  1.00  0.00    -0.744 OA
ENDBRANCH  89  92
ENDBRANCH  62  85
ENDBRANCH  36  37
ENDBRANCH  28  31
ENDBRANCH  26  27
ENDBRANCH  25  26
ENDBRANCH   1  25
TORSDOF 17
ENDMDL
