MODEL 1
REMARK VINA RESULT:     -13.3      0.000      0.000
REMARK SMILES COc1ccc(NC(=O)N[C@@H]2C=C[C@H](C(=O)NCCCNC(=O)c3ccc(-c4c5nc(c(-c6cccc(S(=O)(=O)[O-])c6F)c6ccc([nH]6)c(-c6cccc(S(=O)(=O)[O-])c6F)c6nc(c(-c7cccc(S(=O)(=O)[O-])c7F)c7ccc4[nH]7)C=C6)C=C5)cc3)C2)c(C)c1
REMARK SMILES IDX 19 1 18 2 17 3 15 4 16 5 14 7 11 8 12 9 87 10 13 11 10 12
REMARK SMILES IDX 7 13 8 14 9 16 6 18 3 19 4 20 90 21 5 22 88 23 89 24 2 25
REMARK SMILES IDX 1 26 20 27 21 28 22 29 23 31 24 32 25 33 86 34 26 35 85 36
REMARK SMILES IDX 27 37 28 38 29 39 79 40 30 41 84 42 78 43 80 44 31 45 83 46
REMARK SMILES IDX 77 47 76 48 32 50 64 51 44 52 63 53 45 54 48 55 62 56 81 57
REMARK SMILES IDX 46 58 47 59 61 61 82 62 49 63 33 64 34 65 42 66 35 67 37 68
REMARK SMILES IDX 43 69 36 70 38 71 39 72 40 73 41 74 65 75 66 76 74 77 67 78
REMARK SMILES IDX 69 79 75 80 68 81 70 82 71 83 72 84 73 85 50 86 51 87 59 88
REMARK SMILES IDX 52 89 54 90 60 91 53 92 55 93 56 94 57 95 58 96
REMARK H PARENT 17 6 7 15 10 17 21 30 80 49 48 60
REMARK Flexibility Score: inf
ROOT
ATOM      1  C   UNL A   1      37.472  21.349  24.983  1.00  0.00     0.042 C 
ENDROOT
BRANCH   1   2
ATOM      2  C   UNL A   1      35.961  21.440  24.856  1.00  0.00     0.117 C 
BRANCH   2   3
ATOM      3  N   UNL A   1      35.278  21.079  26.090  1.00  0.00    -0.356 N 
ATOM      4  C   UNL A   1      34.117  21.575  26.615  1.00  0.00     0.227 C 
ATOM      5  O   UNL A   1      33.739  21.184  27.718  1.00  0.00    -0.274 OA
ATOM      6  H   UNL A   1      35.717  20.378  26.625  1.00  0.00     0.163 HD
BRANCH   4   7
ATOM      7  C   UNL A   1      33.351  22.609  25.803  1.00  0.00     0.103 C 
ATOM      8  C   UNL A   1      32.242  24.735  26.020  1.00  0.00     0.107 C 
ATOM      9  C   UNL A   1      31.258  23.637  26.176  1.00  0.00    -0.006 C 
ATOM     10  C   UNL A   1      33.584  24.053  26.276  1.00  0.00     0.047 C 
ATOM     11  C   UNL A   1      31.863  22.458  26.018  1.00  0.00    -0.016 C 
BRANCH   8  12
ATOM     12  N   UNL A   1      31.947  25.835  26.895  1.00  0.00    -0.332 N 
ATOM     13  N   UNL A   1      31.472  27.727  25.503  1.00  0.00    -0.308 N 
ATOM     14  C   UNL A   1      31.553  27.102  26.695  1.00  0.00     0.319 C 
ATOM     15  H   UNL A   1      30.957  28.564  25.560  1.00  0.00     0.171 HD
ATOM     16  O   UNL A   1      31.125  27.718  27.678  1.00  0.00    -0.248 OA
ATOM     17  H   UNL A   1      32.058  25.612  27.847  1.00  0.00     0.165 HD
BRANCH  13  18
ATOM     18  C   UNL A   1      31.938  27.485  24.199  1.00  0.00     0.046 A 
ATOM     19  C   UNL A   1      32.927  26.511  21.762  1.00  0.00     0.119 A 
ATOM     20  C   UNL A   1      33.780  27.154  22.648  1.00  0.00     0.048 A 
ATOM     21  C   UNL A   1      31.556  26.544  21.997  1.00  0.00     0.052 A 
ATOM     22  C   UNL A   1      33.269  27.684  23.837  1.00  0.00     0.030 A 
ATOM     23  C   UNL A   1      31.041  27.050  23.208  1.00  0.00    -0.024 A 
ATOM     24  C   UNL A   1      29.546  27.182  23.331  1.00  0.00     0.047 C 
BRANCH  19  25
ATOM     25  O   UNL A   1      33.359  25.950  20.593  1.00  0.00    -0.497 OA
ATOM     26  C   UNL A   1      32.283  25.516  19.757  1.00  0.00     0.278 C 
ENDBRANCH  19  25
ENDBRANCH  13  18
ENDBRANCH   8  12
ENDBRANCH   4   7
ENDBRANCH   2   3
ENDBRANCH   1   2
BRANCH   1  27
ATOM     27  C   UNL A   1      38.063  22.563  25.671  1.00  0.00     0.118 C 
BRANCH  27  28
ATOM     28  N   UNL A   1      39.433  22.382  26.125  1.00  0.00    -0.352 N 
ATOM     29  C   UNL A   1      40.356  23.335  26.518  1.00  0.00     0.251 C 
ATOM     30  H   UNL A   1      39.749  21.450  26.157  1.00  0.00     0.163 HD
ATOM     31  O   UNL A   1      41.528  22.990  26.666  1.00  0.00    -0.269 OA
BRANCH  29  32
ATOM     32  C   UNL A   1      39.900  24.697  26.895  1.00  0.00     0.039 A 
ATOM     33  C   UNL A   1      40.499  25.789  26.254  1.00  0.00     0.014 A 
ATOM     34  C   UNL A   1      39.124  24.902  28.032  1.00  0.00     0.014 A 
ATOM     35  C   UNL A   1      40.555  27.022  26.900  1.00  0.00     0.010 A 
ATOM     36  C   UNL A   1      39.285  26.074  28.733  1.00  0.00     0.010 A 
ATOM     37  C   UNL A   1      40.050  27.110  28.191  1.00  0.00    -0.014 A 
BRANCH  37  38
ATOM     38  C   UNL A   1      40.259  28.224  29.096  1.00  0.00     0.031 A 
ATOM     39  C   UNL A   1      39.340  29.374  29.049  1.00  0.00     0.074 A 
ATOM     40  C   UNL A   1      41.129  28.073  30.116  1.00  0.00     0.049 A 
ATOM     41  N   UNL A   1      39.570  30.510  29.609  1.00  0.00    -0.248 NA
ATOM     42  C   UNL A   1      38.079  29.328  28.321  1.00  0.00     0.031 C 
ATOM     43  C   UNL A   1      41.161  28.824  31.364  1.00  0.00     0.029 A 
ATOM     44  N   UNL A   1      42.309  27.322  30.134  1.00  0.00    -0.354 N 
ATOM     45  C   UNL A   1      38.402  31.242  29.555  1.00  0.00     0.074 A 
ATOM     46  C   UNL A   1      37.537  30.496  28.674  1.00  0.00     0.031 C 
ATOM     47  C   UNL A   1      42.390  28.726  31.893  1.00  0.00     0.029 A 
ATOM     48  C   UNL A   1      43.223  28.056  30.910  1.00  0.00     0.049 A 
ATOM     49  H   UNL A   1      42.466  26.457  29.693  1.00  0.00     0.167 HD
ATOM     50  C   UNL A   1      38.263  32.317  30.382  1.00  0.00     0.034 A 
ATOM     51  C   UNL A   1      44.416  28.521  30.439  1.00  0.00     0.034 A 
ATOM     52  C   UNL A   1      39.495  32.537  31.154  1.00  0.00     0.049 A 
ATOM     53  C   UNL A   1      44.553  30.028  30.552  1.00  0.00     0.074 A 
ATOM     54  C   UNL A   1      39.878  32.167  32.433  1.00  0.00     0.029 A 
ATOM     55  N   UNL A   1      40.644  32.974  30.509  1.00  0.00    -0.354 N 
ATOM     56  N   UNL A   1      43.578  30.830  30.880  1.00  0.00    -0.248 NA
ATOM     57  C   UNL A   1      45.789  30.755  30.282  1.00  0.00     0.031 C 
ATOM     58  C   UNL A   1      41.286  32.318  32.530  1.00  0.00     0.029 A 
ATOM     59  C   UNL A   1      41.755  32.807  31.322  1.00  0.00     0.049 A 
ATOM     60  H   UNL A   1      40.668  33.350  29.600  1.00  0.00     0.167 HD
ATOM     61  C   UNL A   1      43.976  32.136  30.749  1.00  0.00     0.074 A 
ATOM     62  C   UNL A   1      45.394  32.031  30.450  1.00  0.00     0.031 C 
ATOM     63  C   UNL A   1      43.085  33.174  30.841  1.00  0.00     0.034 A 
BRANCH  50  64
ATOM     64  C   UNL A   1      36.951  33.001  30.740  1.00  0.00     0.023 A 
ATOM     65  C   UNL A   1      36.496  32.855  32.072  1.00  0.00     0.012 A 
ATOM     66  C   UNL A   1      36.089  33.715  29.877  1.00  0.00     0.148 A 
ATOM     67  C   UNL A   1      35.232  33.285  32.493  1.00  0.00     0.002 A 
ATOM     68  C   UNL A   1      34.801  34.092  30.274  1.00  0.00     0.091 A 
ATOM     69  F   UNL A   1      36.527  34.125  28.686  1.00  0.00    -0.205 F 
ATOM     70  C   UNL A   1      34.368  33.871  31.583  1.00  0.00     0.022 A 
BRANCH  68  71
ATOM     71  S   UNL A   1      33.604  34.805  29.131  1.00  0.00     0.127 S 
ATOM     72  O   UNL A   1      33.362  33.695  28.206  1.00  0.00    -0.237 OA
ATOM     73  O   UNL A   1      32.479  35.120  30.008  1.00  0.00    -0.237 OA
ATOM     74  O   UNL A   1      34.260  35.955  28.517  1.00  0.00    -0.744 OA
ENDBRANCH  68  71
ENDBRANCH  50  64
BRANCH  51  75
ATOM     75  C   UNL A   1      45.013  27.667  29.374  1.00  0.00     0.023 A 
ATOM     76  C   UNL A   1      45.413  26.365  29.758  1.00  0.00     0.012 A 
ATOM     77  C   UNL A   1      44.809  27.940  28.009  1.00  0.00     0.148 A 
ATOM     78  C   UNL A   1      45.477  25.328  28.826  1.00  0.00     0.002 A 
ATOM     79  C   UNL A   1      44.871  26.897  27.084  1.00  0.00     0.091 A 
ATOM     80  F   UNL A   1      44.468  29.184  27.650  1.00  0.00    -0.205 F 
ATOM     81  C   UNL A   1      45.169  25.588  27.496  1.00  0.00     0.022 A 
BRANCH  79  82
ATOM     82  S   UNL A   1      44.427  27.133  25.357  1.00  0.00     0.127 S 
ATOM     83  O   UNL A   1      44.073  25.776  24.957  1.00  0.00    -0.237 OA
ATOM     84  O   UNL A   1      43.299  28.062  25.451  1.00  0.00    -0.237 OA
ATOM     85  O   UNL A   1      45.614  27.702  24.738  1.00  0.00    -0.744 OA
ENDBRANCH  79  82
ENDBRANCH  51  75
BRANCH  63  86
ATOM     86  C   UNL A   1      43.354  34.627  30.474  1.00  0.00     0.023 A 
ATOM     87  C   UNL A   1      43.830  35.570  31.405  1.00  0.00     0.012 A 
ATOM     88  C   UNL A   1      43.278  35.063  29.123  1.00  0.00     0.148 A 
ATOM     89  C   UNL A   1      44.168  36.878  31.035  1.00  0.00     0.002 A 
ATOM     90  C   UNL A   1      43.727  36.327  28.742  1.00  0.00     0.091 A 
ATOM     91  F   UNL A   1      42.749  34.263  28.186  1.00  0.00    -0.205 F 
ATOM     92  C   UNL A   1      44.144  37.250  29.700  1.00  0.00     0.022 A 
BRANCH  90  93
ATOM     93  S   UNL A   1      43.942  36.740  27.003  1.00  0.00     0.127 S 
ATOM     94  O   UNL A   1      42.756  36.140  26.397  1.00  0.00    -0.237 OA
ATOM     95  O   UNL A   1      43.940  38.204  27.022  1.00  0.00    -0.237 OA
ATOM     96  O   UNL A   1      45.225  36.153  26.639  1.00  0.00    -0.744 OA
ENDBRANCH  90  93
ENDBRANCH  63  86
ENDBRANCH  37  38
ENDBRANCH  29  32
ENDBRANCH  27  28
ENDBRANCH   1  27
TORSDOF 16
ENDMDL
MODEL 2
REMARK VINA RESULT:     -13.2      4.638     11.486
REMARK SMILES COc1ccc(NC(=O)N[C@@H]2C=C[C@H](C(=O)NCCCNC(=O)c3ccc(-c4c5nc(c(-c6cccc(S(=O)(=O)[O-])c6F)c6ccc([nH]6)c(-c6cccc(S(=O)(=O)[O-])c6F)c6nc(c(-c7cccc(S(=O)(=O)[O-])c7F)c7ccc4[nH]7)C=C6)C=C5)cc3)C2)c(C)c1
REMARK SMILES IDX 19 1 18 2 17 3 15 4 16 5 14 7 11 8 12 9 87 10 13 11 10 12
REMARK SMILES IDX 7 13 8 14 9 16 6 18 3 19 4 20 90 21 5 22 88 23 89 24 2 25
REMARK SMILES IDX 1 26 20 27 21 28 22 29 23 31 24 32 25 33 86 34 26 35 85 36
REMARK SMILES IDX 27 37 28 38 29 39 79 40 30 41 84 42 78 43 80 44 31 45 83 46
REMARK SMILES IDX 77 47 76 48 32 50 64 51 44 52 63 53 45 54 48 55 62 56 81 57
REMARK SMILES IDX 46 58 47 59 61 61 82 62 49 63 33 64 34 65 42 66 35 67 37 68
REMARK SMILES IDX 43 69 36 70 38 71 39 72 40 73 41 74 65 75 66 76 74 77 67 78
REMARK SMILES IDX 69 79 75 80 68 81 70 82 71 83 72 84 73 85 50 86 51 87 59 88
REMARK SMILES IDX 52 89 54 90 60 91 53 92 55 93 56 94 57 95 58 96
REMARK H PARENT 17 6 7 15 10 17 21 30 80 49 48 60
REMARK Flexibility Score: inf
ROOT
ATOM      1  C   UNL A   1      34.915  33.064  27.860  1.00  0.00     0.042 C 
ENDROOT
BRANCH   1   2
ATOM      2  C   UNL A   1      34.747  34.487  28.363  1.00  0.00     0.117 C 
BRANCH   2   3
ATOM      3  N   UNL A   1      33.425  34.723  28.928  1.00  0.00    -0.356 N 
ATOM      4  C   UNL A   1      33.082  35.259  30.138  1.00  0.00     0.227 C 
ATOM      5  O   UNL A   1      31.897  35.309  30.462  1.00  0.00    -0.274 OA
ATOM      6  H   UNL A   1      32.669  34.456  28.357  1.00  0.00     0.163 HD
BRANCH   4   7
ATOM      7  C   UNL A   1      34.202  35.760  31.040  1.00  0.00     0.103 C 
ATOM      8  C   UNL A   1      35.117  35.473  33.249  1.00  0.00     0.107 C 
ATOM      9  C   UNL A   1      34.160  36.606  33.244  1.00  0.00    -0.006 C 
ATOM     10  C   UNL A   1      34.744  34.684  31.995  1.00  0.00     0.047 C 
ATOM     11  C   UNL A   1      33.680  36.791  32.012  1.00  0.00    -0.016 C 
BRANCH   8  12
ATOM     12  N   UNL A   1      35.046  34.729  34.475  1.00  0.00    -0.332 N 
ATOM     13  N   UNL A   1      37.107  33.523  34.680  1.00  0.00    -0.308 N 
ATOM     14  C   UNL A   1      35.909  33.943  35.136  1.00  0.00     0.319 C 
ATOM     15  H   UNL A   1      37.663  33.147  35.400  1.00  0.00     0.171 HD
ATOM     16  O   UNL A   1      35.629  33.664  36.308  1.00  0.00    -0.248 OA
ATOM     17  H   UNL A   1      34.176  34.813  34.929  1.00  0.00     0.165 HD
BRANCH  13  18
ATOM     18  C   UNL A   1      37.760  33.487  33.437  1.00  0.00     0.046 A 
ATOM     19  C   UNL A   1      39.437  33.162  31.212  1.00  0.00     0.119 A 
ATOM     20  C   UNL A   1      39.447  34.357  31.918  1.00  0.00     0.048 A 
ATOM     21  C   UNL A   1      38.448  32.222  31.486  1.00  0.00     0.052 A 
ATOM     22  C   UNL A   1      38.570  34.531  32.993  1.00  0.00     0.030 A 
ATOM     23  C   UNL A   1      37.582  32.381  32.587  1.00  0.00    -0.024 A 
ATOM     24  C   UNL A   1      36.451  31.399  32.735  1.00  0.00     0.047 C 
BRANCH  19  25
ATOM     25  O   UNL A   1      40.280  32.913  30.165  1.00  0.00    -0.497 OA
ATOM     26  C   UNL A   1      41.236  33.957  29.965  1.00  0.00     0.278 C 
ENDBRANCH  19  25
ENDBRANCH  13  18
ENDBRANCH   8  12
ENDBRANCH   4   7
ENDBRANCH   2   3
ENDBRANCH   1   2
BRANCH   1  27
ATOM     27  C   UNL A   1      34.780  32.044  28.971  1.00  0.00     0.118 C 
BRANCH  27  28
ATOM     28  N   UNL A   1      34.527  30.689  28.508  1.00  0.00    -0.352 N 
ATOM     29  C   UNL A   1      35.432  29.703  28.155  1.00  0.00     0.251 C 
ATOM     30  H   UNL A   1      33.578  30.437  28.433  1.00  0.00     0.163 HD
ATOM     31  O   UNL A   1      35.010  28.695  27.588  1.00  0.00    -0.269 OA
BRANCH  29  32
ATOM     32  C   UNL A   1      36.847  29.805  28.592  1.00  0.00     0.039 A 
ATOM     33  C   UNL A   1      37.809  30.130  27.627  1.00  0.00     0.014 A 
ATOM     34  C   UNL A   1      37.248  29.322  29.834  1.00  0.00     0.014 A 
ATOM     35  C   UNL A   1      39.126  29.712  27.799  1.00  0.00     0.010 A 
ATOM     36  C   UNL A   1      38.512  28.794  29.955  1.00  0.00     0.010 A 
ATOM     37  C   UNL A   1      39.430  28.939  28.912  1.00  0.00    -0.014 A 
BRANCH  37  38
ATOM     38  C   UNL A   1      40.668  28.208  29.110  1.00  0.00     0.031 A 
ATOM     39  C   UNL A   1      40.718  26.773  28.788  1.00  0.00     0.074 A 
ATOM     40  C   UNL A   1      41.799  28.907  29.345  1.00  0.00     0.049 A 
ATOM     41  N   UNL A   1      41.662  25.979  29.157  1.00  0.00    -0.248 NA
ATOM     42  C   UNL A   1      39.662  26.111  28.034  1.00  0.00     0.031 C 
ATOM     43  C   UNL A   1      43.169  28.465  29.118  1.00  0.00     0.029 A 
ATOM     44  N   UNL A   1      41.935  30.112  30.040  1.00  0.00    -0.354 N 
ATOM     45  C   UNL A   1      41.492  24.789  28.479  1.00  0.00     0.074 A 
ATOM     46  C   UNL A   1      40.192  24.898  27.862  1.00  0.00     0.031 C 
ATOM     47  C   UNL A   1      43.989  29.206  29.877  1.00  0.00     0.029 A 
ATOM     48  C   UNL A   1      43.151  30.021  30.739  1.00  0.00     0.049 A 
ATOM     49  H   UNL A   1      41.306  30.869  30.041  1.00  0.00     0.167 HD
ATOM     50  C   UNL A   1      42.539  23.920  28.407  1.00  0.00     0.034 A 
ATOM     51  C   UNL A   1      43.254  30.095  32.097  1.00  0.00     0.034 A 
ATOM     52  C   UNL A   1      43.682  24.424  29.183  1.00  0.00     0.049 A 
ATOM     53  C   UNL A   1      43.892  28.865  32.714  1.00  0.00     0.074 A 
ATOM     54  C   UNL A   1      44.821  25.127  28.824  1.00  0.00     0.029 A 
ATOM     55  N   UNL A   1      43.607  24.475  30.568  1.00  0.00    -0.354 N 
ATOM     56  N   UNL A   1      44.145  27.765  32.060  1.00  0.00    -0.248 NA
ATOM     57  C   UNL A   1      44.273  28.763  34.119  1.00  0.00     0.031 C 
ATOM     58  C   UNL A   1      45.394  25.665  30.006  1.00  0.00     0.029 A 
ATOM     59  C   UNL A   1      44.622  25.265  31.084  1.00  0.00     0.049 A 
ATOM     60  H   UNL A   1      42.926  24.014  31.109  1.00  0.00     0.167 HD
ATOM     61  C   UNL A   1      44.580  26.792  32.922  1.00  0.00     0.074 A 
ATOM     62  C   UNL A   1      44.719  27.495  34.186  1.00  0.00     0.031 C 
ATOM     63  C   UNL A   1      44.726  25.488  32.524  1.00  0.00     0.034 A 
BRANCH  50  64
ATOM     64  C   UNL A   1      42.675  22.771  27.417  1.00  0.00     0.023 A 
ATOM     65  C   UNL A   1      41.882  21.624  27.655  1.00  0.00     0.012 A 
ATOM     66  C   UNL A   1      43.555  22.685  26.315  1.00  0.00     0.148 A 
ATOM     67  C   UNL A   1      42.028  20.436  26.928  1.00  0.00     0.002 A 
ATOM     68  C   UNL A   1      43.750  21.483  25.625  1.00  0.00     0.091 A 
ATOM     69  F   UNL A   1      44.156  23.783  25.853  1.00  0.00    -0.205 F 
ATOM     70  C   UNL A   1      42.990  20.353  25.936  1.00  0.00     0.022 A 
BRANCH  68  71
ATOM     71  S   UNL A   1      45.022  21.285  24.363  1.00  0.00     0.127 S 
ATOM     72  O   UNL A   1      44.559  22.196  23.313  1.00  0.00    -0.237 OA
ATOM     73  O   UNL A   1      46.229  21.726  25.059  1.00  0.00    -0.237 OA
ATOM     74  O   UNL A   1      45.000  19.878  23.978  1.00  0.00    -0.744 OA
ENDBRANCH  68  71
ENDBRANCH  50  64
BRANCH  51  75
ATOM     75  C   UNL A   1      42.209  30.948  32.730  1.00  0.00     0.023 A 
ATOM     76  C   UNL A   1      41.095  30.275  33.288  1.00  0.00     0.012 A 
ATOM     77  C   UNL A   1      42.480  32.266  33.140  1.00  0.00     0.148 A 
ATOM     78  C   UNL A   1      40.355  30.846  34.324  1.00  0.00     0.002 A 
ATOM     79  C   UNL A   1      41.738  32.829  34.178  1.00  0.00     0.091 A 
ATOM     80  F   UNL A   1      43.512  32.910  32.579  1.00  0.00    -0.205 F 
ATOM     81  C   UNL A   1      40.701  32.108  34.793  1.00  0.00     0.022 A 
BRANCH  79  82
ATOM     82  S   UNL A   1      42.158  34.427  34.887  1.00  0.00     0.127 S 
ATOM     83  O   UNL A   1      43.470  34.155  35.466  1.00  0.00    -0.237 OA
ATOM     84  O   UNL A   1      42.173  35.296  33.709  1.00  0.00    -0.237 OA
ATOM     85  O   UNL A   1      41.084  34.716  35.824  1.00  0.00    -0.744 OA
ENDBRANCH  79  82
ENDBRANCH  51  75
BRANCH  63  86
ATOM     86  C   UNL A   1      44.959  24.289  33.434  1.00  0.00     0.023 A 
ATOM     87  C   UNL A   1      44.013  23.259  33.591  1.00  0.00     0.012 A 
ATOM     88  C   UNL A   1      46.222  24.080  34.053  1.00  0.00     0.148 A 
ATOM     89  C   UNL A   1      44.277  22.113  34.353  1.00  0.00     0.002 A 
ATOM     90  C   UNL A   1      46.520  22.887  34.708  1.00  0.00     0.091 A 
ATOM     91  F   UNL A   1      47.150  25.048  34.032  1.00  0.00    -0.205 F 
ATOM     92  C   UNL A   1      45.540  21.912  34.888  1.00  0.00     0.022 A 
BRANCH  90  93
ATOM     93  S   UNL A   1      48.212  22.499  35.187  1.00  0.00     0.127 S 
ATOM     94  O   UNL A   1      48.425  23.402  36.316  1.00  0.00    -0.237 OA
ATOM     95  O   UNL A   1      48.123  21.083  35.551  1.00  0.00    -0.237 OA
ATOM     96  O   UNL A   1      49.004  22.756  33.992  1.00  0.00    -0.744 OA
ENDBRANCH  90  93
ENDBRANCH  63  86
ENDBRANCH  37  38
ENDBRANCH  29  32
ENDBRANCH  27  28
ENDBRANCH   1  27
TORSDOF 16
ENDMDL
MODEL 3
REMARK VINA RESULT:     -13.1      3.863      9.517
REMARK SMILES COc1ccc(NC(=O)N[C@@H]2C=C[C@H](C(=O)NCCCNC(=O)c3ccc(-c4c5nc(c(-c6cccc(S(=O)(=O)[O-])c6F)c6ccc([nH]6)c(-c6cccc(S(=O)(=O)[O-])c6F)c6nc(c(-c7cccc(S(=O)(=O)[O-])c7F)c7ccc4[nH]7)C=C6)C=C5)cc3)C2)c(C)c1
REMARK SMILES IDX 19 1 18 2 17 3 15 4 16 5 14 7 11 8 12 9 87 10 13 11 10 12
REMARK SMILES IDX 7 13 8 14 9 16 6 18 3 19 4 20 90 21 5 22 88 23 89 24 2 25
REMARK SMILES IDX 1 26 20 27 21 28 22 29 23 31 24 32 25 33 86 34 26 35 85 36
REMARK SMILES IDX 27 37 28 38 29 39 79 40 30 41 84 42 78 43 80 44 31 45 83 46
REMARK SMILES IDX 77 47 76 48 32 50 64 51 44 52 63 53 45 54 48 55 62 56 81 57
REMARK SMILES IDX 46 58 47 59 61 61 82 62 49 63 33 64 34 65 42 66 35 67 37 68
REMARK SMILES IDX 43 69 36 70 38 71 39 72 40 73 41 74 65 75 66 76 74 77 67 78
REMARK SMILES IDX 69 79 75 80 68 81 70 82 71 83 72 84 73 85 50 86 51 87 59 88
REMARK SMILES IDX 52 89 54 90 60 91 53 92 55 93 56 94 57 95 58 96
REMARK H PARENT 17 6 7 15 10 17 21 30 80 49 48 60
REMARK Flexibility Score: inf
ROOT
ATOM      1  C   UNL A   1      32.350  30.657  26.581  1.00  0.00     0.042 C 
ENDROOT
BRANCH   1   2
ATOM      2  C   UNL A   1      32.539  29.968  25.240  1.00  0.00     0.117 C 
BRANCH   2   3
ATOM      3  N   UNL A   1      31.273  29.706  24.569  1.00  0.00    -0.356 N 
ATOM      4  C   UNL A   1      30.746  28.517  24.147  1.00  0.00     0.227 C 
ATOM      5  O   UNL A   1      29.682  28.515  23.531  1.00  0.00    -0.274 OA
ATOM      6  H   UNL A   1      30.717  30.499  24.394  1.00  0.00     0.163 HD
BRANCH   4   7
ATOM      7  C   UNL A   1      31.521  27.244  24.453  1.00  0.00     0.103 C 
ATOM      8  C   UNL A   1      31.229  25.022  25.337  1.00  0.00     0.107 C 
ATOM      9  C   UNL A   1      31.657  25.942  26.419  1.00  0.00    -0.006 C 
ATOM     10  C   UNL A   1      30.694  25.963  24.259  1.00  0.00     0.047 C 
ATOM     11  C   UNL A   1      31.856  27.166  25.924  1.00  0.00    -0.016 C 
BRANCH   8  12
ATOM     12  N   UNL A   1      30.286  24.050  25.813  1.00  0.00    -0.332 N 
ATOM     13  N   UNL A   1      31.556  22.216  26.690  1.00  0.00    -0.308 N 
ATOM     14  C   UNL A   1      30.404  22.877  26.453  1.00  0.00     0.319 C 
ATOM     15  H   UNL A   1      31.440  21.501  27.356  1.00  0.00     0.171 HD
ATOM     16  O   UNL A   1      29.379  22.410  26.963  1.00  0.00    -0.248 OA
ATOM     17  H   UNL A   1      29.351  24.298  25.633  1.00  0.00     0.165 HD
BRANCH  13  18
ATOM     18  C   UNL A   1      32.880  22.293  26.226  1.00  0.00     0.046 A 
ATOM     19  C   UNL A   1      35.605  22.040  25.613  1.00  0.00     0.119 A 
ATOM     20  C   UNL A   1      35.190  22.975  26.550  1.00  0.00     0.048 A 
ATOM     21  C   UNL A   1      34.650  21.388  24.837  1.00  0.00     0.052 A 
ATOM     22  C   UNL A   1      33.825  23.132  26.811  1.00  0.00     0.030 A 
ATOM     23  C   UNL A   1      33.275  21.522  25.118  1.00  0.00    -0.024 A 
ATOM     24  C   UNL A   1      32.301  20.902  24.152  1.00  0.00     0.047 C 
BRANCH  19  25
ATOM     25  O   UNL A   1      36.922  21.815  25.322  1.00  0.00    -0.497 OA
ATOM     26  C   UNL A   1      37.778  22.857  25.797  1.00  0.00     0.278 C 
ENDBRANCH  19  25
ENDBRANCH  13  18
ENDBRANCH   8  12
ENDBRANCH   4   7
ENDBRANCH   2   3
ENDBRANCH   1   2
BRANCH   1  27
ATOM     27  C   UNL A   1      33.398  30.240  27.592  1.00  0.00     0.118 C 
BRANCH  27  28
ATOM     28  N   UNL A   1      34.144  31.347  28.168  1.00  0.00    -0.352 N 
ATOM     29  C   UNL A   1      35.337  31.325  28.869  1.00  0.00     0.251 C 
ATOM     30  H   UNL A   1      33.744  32.238  28.043  1.00  0.00     0.163 HD
ATOM     31  O   UNL A   1      35.693  32.349  29.453  1.00  0.00    -0.269 OA
BRANCH  29  32
ATOM     32  C   UNL A   1      36.226  30.139  28.783  1.00  0.00     0.039 A 
ATOM     33  C   UNL A   1      36.566  29.487  29.975  1.00  0.00     0.014 A 
ATOM     34  C   UNL A   1      36.925  29.854  27.614  1.00  0.00     0.014 A 
ATOM     35  C   UNL A   1      37.762  28.778  30.057  1.00  0.00     0.010 A 
ATOM     36  C   UNL A   1      38.165  29.269  27.718  1.00  0.00     0.010 A 
ATOM     37  C   UNL A   1      38.606  28.785  28.953  1.00  0.00    -0.014 A 
BRANCH  37  38
ATOM     38  C   UNL A   1      39.983  28.331  28.952  1.00  0.00     0.031 A 
ATOM     39  C   UNL A   1      40.272  26.903  28.740  1.00  0.00     0.074 A 
ATOM     40  C   UNL A   1      40.967  29.254  28.896  1.00  0.00     0.049 A 
ATOM     41  N   UNL A   1      41.412  26.352  28.970  1.00  0.00    -0.248 NA
ATOM     42  C   UNL A   1      39.258  25.970  28.271  1.00  0.00     0.031 C 
ATOM     43  C   UNL A   1      42.333  29.056  28.430  1.00  0.00     0.029 A 
ATOM     44  N   UNL A   1      40.974  30.537  29.453  1.00  0.00    -0.354 N 
ATOM     45  C   UNL A   1      41.372  25.080  28.437  1.00  0.00     0.074 A 
ATOM     46  C   UNL A   1      39.988  24.867  28.090  1.00  0.00     0.031 C 
ATOM     47  C   UNL A   1      43.107  30.023  28.946  1.00  0.00     0.029 A 
ATOM     48  C   UNL A   1      42.290  30.761  29.894  1.00  0.00     0.049 A 
ATOM     49  H   UNL A   1      40.212  31.156  29.523  1.00  0.00     0.167 HD
ATOM     50  C   UNL A   1      42.547  24.422  28.221  1.00  0.00     0.034 A 
ATOM     51  C   UNL A   1      42.622  31.012  31.193  1.00  0.00     0.034 A 
ATOM     52  C   UNL A   1      43.682  25.221  28.706  1.00  0.00     0.049 A 
ATOM     53  C   UNL A   1      43.606  30.006  31.761  1.00  0.00     0.074 A 
ATOM     54  C   UNL A   1      44.564  26.080  28.069  1.00  0.00     0.029 A 
ATOM     55  N   UNL A   1      43.854  25.420  30.069  1.00  0.00    -0.354 N 
ATOM     56  N   UNL A   1      43.958  28.904  31.157  1.00  0.00    -0.248 NA
ATOM     57  C   UNL A   1      44.251  30.145  33.063  1.00  0.00     0.031 C 
ATOM     58  C   UNL A   1      45.218  26.852  29.063  1.00  0.00     0.029 A 
ATOM     59  C   UNL A   1      44.758  26.444  30.304  1.00  0.00     0.049 A 
ATOM     60  H   UNL A   1      43.395  24.906  30.772  1.00  0.00     0.167 HD
ATOM     61  C   UNL A   1      44.738  28.140  31.987  1.00  0.00     0.074 A 
ATOM     62  C   UNL A   1      44.956  29.000  33.137  1.00  0.00     0.031 C 
ATOM     63  C   UNL A   1      45.076  26.850  31.671  1.00  0.00     0.034 A 
BRANCH  50  64
ATOM     64  C   UNL A   1      42.736  23.211  27.317  1.00  0.00     0.023 A 
ATOM     65  C   UNL A   1      42.022  22.039  27.661  1.00  0.00     0.012 A 
ATOM     66  C   UNL A   1      43.596  23.096  26.203  1.00  0.00     0.148 A 
ATOM     67  C   UNL A   1      42.229  20.811  27.021  1.00  0.00     0.002 A 
ATOM     68  C   UNL A   1      43.854  21.859  25.601  1.00  0.00     0.091 A 
ATOM     69  F   UNL A   1      44.116  24.190  25.644  1.00  0.00    -0.205 F 
ATOM     70  C   UNL A   1      43.174  20.711  26.014  1.00  0.00     0.022 A 
BRANCH  68  71
ATOM     71  S   UNL A   1      45.110  21.645  24.325  1.00  0.00     0.127 S 
ATOM     72  O   UNL A   1      45.177  20.186  24.202  1.00  0.00    -0.237 OA
ATOM     73  O   UNL A   1      44.514  22.324  23.178  1.00  0.00    -0.237 OA
ATOM     74  O   UNL A   1      46.329  22.251  24.848  1.00  0.00    -0.744 OA
ENDBRANCH  68  71
ENDBRANCH  50  64
BRANCH  51  75
ATOM     75  C   UNL A   1      41.556  31.720  31.957  1.00  0.00     0.023 A 
ATOM     76  C   UNL A   1      41.260  33.044  31.552  1.00  0.00     0.012 A 
ATOM     77  C   UNL A   1      40.611  31.019  32.727  1.00  0.00     0.148 A 
ATOM     78  C   UNL A   1      40.005  33.605  31.788  1.00  0.00     0.002 A 
ATOM     79  C   UNL A   1      39.357  31.585  32.956  1.00  0.00     0.091 A 
ATOM     80  F   UNL A   1      40.914  29.781  33.139  1.00  0.00    -0.205 F 
ATOM     81  C   UNL A   1      39.042  32.860  32.458  1.00  0.00     0.022 A 
BRANCH  79  82
ATOM     82  S   UNL A   1      38.034  30.667  33.758  1.00  0.00     0.127 S 
ATOM     83  O   UNL A   1      36.858  31.185  33.068  1.00  0.00    -0.237 OA
ATOM     84  O   UNL A   1      38.378  29.281  33.435  1.00  0.00    -0.237 OA
ATOM     85  O   UNL A   1      38.153  30.994  35.171  1.00  0.00    -0.744 OA
ENDBRANCH  79  82
ENDBRANCH  51  75
BRANCH  63  86
ATOM     86  C   UNL A   1      45.718  25.832  32.605  1.00  0.00     0.023 A 
ATOM     87  C   UNL A   1      47.112  25.697  32.738  1.00  0.00     0.012 A 
ATOM     88  C   UNL A   1      44.925  25.069  33.505  1.00  0.00     0.148 A 
ATOM     89  C   UNL A   1      47.692  24.827  33.672  1.00  0.00     0.002 A 
ATOM     90  C   UNL A   1      45.507  24.297  34.509  1.00  0.00     0.091 A 
ATOM     91  F   UNL A   1      43.589  25.065  33.388  1.00  0.00    -0.205 F 
ATOM     92  C   UNL A   1      46.891  24.148  34.577  1.00  0.00     0.022 A 
BRANCH  90  93
ATOM     93  S   UNL A   1      44.505  23.614  35.840  1.00  0.00     0.127 S 
ATOM     94  O   UNL A   1      44.120  24.813  36.579  1.00  0.00    -0.237 OA
ATOM     95  O   UNL A   1      43.409  22.969  35.114  1.00  0.00    -0.237 OA
ATOM     96  O   UNL A   1      45.389  22.682  36.528  1.00  0.00    -0.744 OA
ENDBRANCH  90  93
ENDBRANCH  63  86
ENDBRANCH  37  38
ENDBRANCH  29  32
ENDBRANCH  27  28
ENDBRANCH   1  27
TORSDOF 16
ENDMDL
