MODEL 1
REMARK VINA RESULT:     -12.5      0.000      0.000
REMARK SMILES CC(C)c1ccc(NC(=O)C[C@H]2SC[C@@H](C(=O)NCCCNC(=O)c3ccc(-c4c5nc(c(-c6cccc(S(=O)(=O)[O-])c6F)c6ccc([nH]6)c(-c6cccc(S(=O)(=O)[O-])c6F)c6nc(c(-c7cccc(S(=O)(=O)[O-])c7F)c7ccc4[nH]7)C=C6)C=C5)cc3)NC2=O)cc1
REMARK SMILES IDX 19 1 18 2 16 3 17 4 15 6 12 7 13 8 89 9 14 10 88 11 90 12
REMARK SMILES IDX 11 14 9 15 8 16 10 18 7 19 4 20 5 21 92 22 6 23 91 24 2 25
REMARK SMILES IDX 1 26 3 27 20 28 21 29 22 30 23 31 24 33 25 34 26 35 87 36
REMARK SMILES IDX 27 37 86 38 28 39 29 40 30 41 80 42 31 43 85 44 79 45 81 46
REMARK SMILES IDX 32 47 84 48 78 49 77 50 33 52 65 53 45 54 64 55 46 56 49 57
REMARK SMILES IDX 63 58 82 59 47 60 48 61 62 63 83 64 50 65 34 66 35 67 43 68
REMARK SMILES IDX 36 69 38 70 44 71 37 72 39 73 40 74 41 75 42 76 66 77 67 78
REMARK SMILES IDX 75 79 68 80 70 81 76 82 69 83 71 84 72 85 73 86 74 87 51 88
REMARK SMILES IDX 52 89 60 90 53 91 55 92 61 93 54 94 56 95 57 96 58 97 59 98
REMARK H PARENT 18 5 88 13 8 17 22 32 81 51 49 62
REMARK Flexibility Score: inf
ROOT
ATOM      1  C   UNL A   1      31.030  31.700  25.964  1.00  0.00     0.117 C 
ENDROOT
BRANCH   1   2
ATOM      2  N   UNL A   1      31.802  30.474  25.963  1.00  0.00    -0.354 N 
ATOM      3  C   UNL A   1      31.482  29.272  25.395  1.00  0.00     0.243 C 
ATOM      4  O   UNL A   1      32.029  28.270  25.853  1.00  0.00    -0.273 OA
ATOM      5  H   UNL A   1      32.668  30.511  26.431  1.00  0.00     0.163 HD
BRANCH   3   6
ATOM      6  C   UNL A   1      30.704  29.277  24.063  1.00  0.00     0.181 C 
ATOM      7  C   UNL A   1      32.205  27.298  22.273  1.00  0.00     0.145 C 
ATOM      8  S   UNL A   1      30.945  26.541  23.385  1.00  0.00    -0.145 SA
ATOM      9  C   UNL A   1      32.691  28.671  22.755  1.00  0.00     0.234 C 
ATOM     10  C   UNL A   1      29.933  27.998  23.771  1.00  0.00     0.105 C 
ATOM     11  N   UNL A   1      31.735  29.602  23.085  1.00  0.00    -0.343 N 
ATOM     12  O   UNL A   1      33.853  29.065  22.741  1.00  0.00    -0.274 OA
ATOM     13  H   UNL A   1      31.747  30.489  22.660  1.00  0.00     0.164 HD
BRANCH   7  14
ATOM     14  C   UNL A   1      33.258  26.221  21.965  1.00  0.00     0.124 C 
BRANCH  14  15
ATOM     15  C   UNL A   1      32.991  25.164  20.913  1.00  0.00     0.226 C 
ATOM     16  N   UNL A   1      32.917  23.833  21.174  1.00  0.00    -0.326 N 
ATOM     17  H   UNL A   1      32.722  23.286  20.379  1.00  0.00     0.169 HD
ATOM     18  O   UNL A   1      32.856  25.506  19.731  1.00  0.00    -0.275 OA
BRANCH  16  19
ATOM     19  C   UNL A   1      33.064  23.083  22.345  1.00  0.00     0.041 A 
ATOM     20  C   UNL A   1      33.616  21.484  24.607  1.00  0.00    -0.045 A 
ATOM     21  C   UNL A   1      32.339  21.506  24.021  1.00  0.00     0.006 A 
ATOM     22  C   UNL A   1      34.601  22.314  24.063  1.00  0.00     0.006 A 
ATOM     23  C   UNL A   1      32.060  22.311  22.913  1.00  0.00     0.026 A 
ATOM     24  C   UNL A   1      34.322  23.112  22.951  1.00  0.00     0.026 A 
BRANCH  20  25
ATOM     25  C   UNL A   1      33.856  20.584  25.807  1.00  0.00     0.013 C 
ATOM     26  C   UNL A   1      33.691  21.261  27.174  1.00  0.00     0.012 C 
ATOM     27  C   UNL A   1      32.950  19.352  25.730  1.00  0.00     0.012 C 
ENDBRANCH  20  25
ENDBRANCH  16  19
ENDBRANCH  14  15
ENDBRANCH   7  14
ENDBRANCH   3   6
ENDBRANCH   1   2
BRANCH   1  28
ATOM     28  C   UNL A   1      31.304  32.489  27.241  1.00  0.00     0.042 C 
BRANCH  28  29
ATOM     29  C   UNL A   1      32.657  33.199  27.233  1.00  0.00     0.118 C 
BRANCH  29  30
ATOM     30  N   UNL A   1      32.581  34.542  27.793  1.00  0.00    -0.352 N 
ATOM     31  C   UNL A   1      33.234  35.072  28.876  1.00  0.00     0.251 C 
ATOM     32  H   UNL A   1      31.973  35.159  27.325  1.00  0.00     0.163 HD
ATOM     33  O   UNL A   1      32.882  36.164  29.324  1.00  0.00    -0.269 OA
BRANCH  31  34
ATOM     34  C   UNL A   1      34.339  34.327  29.513  1.00  0.00     0.039 A 
ATOM     35  C   UNL A   1      35.541  34.176  28.819  1.00  0.00     0.014 A 
ATOM     36  C   UNL A   1      34.186  33.773  30.788  1.00  0.00     0.014 A 
ATOM     37  C   UNL A   1      36.614  33.525  29.432  1.00  0.00     0.010 A 
ATOM     38  C   UNL A   1      35.278  33.192  31.423  1.00  0.00     0.010 A 
ATOM     39  C   UNL A   1      36.502  33.058  30.751  1.00  0.00    -0.014 A 
BRANCH  39  40
ATOM     40  C   UNL A   1      37.658  32.443  31.455  1.00  0.00     0.031 A 
ATOM     41  C   UNL A   1      38.401  31.294  30.831  1.00  0.00     0.074 A 
ATOM     42  C   UNL A   1      37.975  32.860  32.696  1.00  0.00     0.049 A 
ATOM     43  N   UNL A   1      39.382  30.583  31.325  1.00  0.00    -0.248 NA
ATOM     44  C   UNL A   1      37.972  30.870  29.488  1.00  0.00     0.031 C 
ATOM     45  C   UNL A   1      37.280  33.915  33.439  1.00  0.00     0.029 A 
ATOM     46  N   UNL A   1      38.945  32.428  33.566  1.00  0.00    -0.354 N 
ATOM     47  C   UNL A   1      39.664  29.611  30.372  1.00  0.00     0.074 A 
ATOM     48  C   UNL A   1      38.730  29.801  29.284  1.00  0.00     0.031 C 
ATOM     49  C   UNL A   1      37.847  34.047  34.650  1.00  0.00     0.029 A 
ATOM     50  C   UNL A   1      38.920  33.069  34.783  1.00  0.00     0.049 A 
ATOM     51  H   UNL A   1      39.597  31.725  33.340  1.00  0.00     0.167 HD
ATOM     52  C   UNL A   1      40.632  28.664  30.386  1.00  0.00     0.034 A 
ATOM     53  C   UNL A   1      39.673  32.884  35.886  1.00  0.00     0.034 A 
ATOM     54  C   UNL A   1      41.588  28.506  31.450  1.00  0.00     0.049 A 
ATOM     55  C   UNL A   1      40.762  31.847  35.861  1.00  0.00     0.074 A 
ATOM     56  C   UNL A   1      42.659  27.631  31.520  1.00  0.00     0.029 A 
ATOM     57  N   UNL A   1      41.589  29.233  32.629  1.00  0.00    -0.354 N 
ATOM     58  N   UNL A   1      41.115  31.043  34.887  1.00  0.00    -0.248 NA
ATOM     59  C   UNL A   1      41.583  31.716  37.073  1.00  0.00     0.031 C 
ATOM     60  C   UNL A   1      43.296  27.819  32.750  1.00  0.00     0.029 A 
ATOM     61  C   UNL A   1      42.635  28.825  33.436  1.00  0.00     0.049 A 
ATOM     62  H   UNL A   1      40.939  29.937  32.858  1.00  0.00     0.167 HD
ATOM     63  C   UNL A   1      42.217  30.337  35.354  1.00  0.00     0.074 A 
ATOM     64  C   UNL A   1      42.490  30.826  36.690  1.00  0.00     0.031 C 
ATOM     65  C   UNL A   1      42.930  29.361  34.741  1.00  0.00     0.034 A 
BRANCH  52  66
ATOM     66  C   UNL A   1      40.748  27.761  29.186  1.00  0.00     0.023 A 
ATOM     67  C   UNL A   1      39.955  26.597  29.118  1.00  0.00     0.012 A 
ATOM     68  C   UNL A   1      41.580  28.094  28.100  1.00  0.00     0.148 A 
ATOM     69  C   UNL A   1      40.012  25.762  28.003  1.00  0.00     0.002 A 
ATOM     70  C   UNL A   1      41.600  27.280  26.974  1.00  0.00     0.091 A 
ATOM     71  F   UNL A   1      42.341  29.195  28.191  1.00  0.00    -0.205 F 
ATOM     72  C   UNL A   1      40.825  26.110  26.928  1.00  0.00     0.022 A 
BRANCH  70  73
ATOM     73  S   UNL A   1      42.552  27.680  25.503  1.00  0.00     0.127 S 
ATOM     74  O   UNL A   1      43.910  27.743  26.040  1.00  0.00    -0.237 OA
ATOM     75  O   UNL A   1      42.289  26.524  24.644  1.00  0.00    -0.237 OA
ATOM     76  O   UNL A   1      42.017  28.940  25.008  1.00  0.00    -0.744 OA
ENDBRANCH  70  73
ENDBRANCH  52  66
BRANCH  53  77
ATOM     77  C   UNL A   1      39.464  33.743  37.086  1.00  0.00     0.023 A 
ATOM     78  C   UNL A   1      39.904  35.081  37.060  1.00  0.00     0.012 A 
ATOM     79  C   UNL A   1      38.818  33.256  38.239  1.00  0.00     0.148 A 
ATOM     80  C   UNL A   1      39.739  35.908  38.172  1.00  0.00     0.002 A 
ATOM     81  C   UNL A   1      38.605  34.101  39.322  1.00  0.00     0.091 A 
ATOM     82  F   UNL A   1      38.418  31.978  38.251  1.00  0.00    -0.205 F 
ATOM     83  C   UNL A   1      39.081  35.421  39.299  1.00  0.00     0.022 A 
BRANCH  81  84
ATOM     84  S   UNL A   1      37.647  33.598  40.755  1.00  0.00     0.127 S 
ATOM     85  O   UNL A   1      37.465  34.866  41.456  1.00  0.00    -0.237 OA
ATOM     86  O   UNL A   1      36.436  33.056  40.137  1.00  0.00    -0.237 OA
ATOM     87  O   UNL A   1      38.462  32.603  41.440  1.00  0.00    -0.744 OA
ENDBRANCH  81  84
ENDBRANCH  53  77
BRANCH  65  88
ATOM     88  C   UNL A   1      44.098  28.774  35.489  1.00  0.00     0.023 A 
ATOM     89  C   UNL A   1      45.386  29.316  35.313  1.00  0.00     0.012 A 
ATOM     90  C   UNL A   1      43.906  27.734  36.420  1.00  0.00     0.148 A 
ATOM     91  C   UNL A   1      46.471  28.811  36.029  1.00  0.00     0.002 A 
ATOM     92  C   UNL A   1      44.983  27.268  37.164  1.00  0.00     0.091 A 
ATOM     93  F   UNL A   1      42.676  27.218  36.559  1.00  0.00    -0.205 F 
ATOM     94  C   UNL A   1      46.268  27.797  36.961  1.00  0.00     0.022 A 
BRANCH  92  95
ATOM     95  S   UNL A   1      44.799  26.030  38.453  1.00  0.00     0.127 S 
ATOM     96  O   UNL A   1      44.301  24.883  37.697  1.00  0.00    -0.237 OA
ATOM     97  O   UNL A   1      46.169  25.888  38.946  1.00  0.00    -0.237 OA
ATOM     98  O   UNL A   1      43.866  26.596  39.420  1.00  0.00    -0.744 OA
ENDBRANCH  92  95
ENDBRANCH  65  88
ENDBRANCH  39  40
ENDBRANCH  31  34
ENDBRANCH  29  30
ENDBRANCH  28  29
ENDBRANCH   1  28
TORSDOF 17
ENDMDL
MODEL 2
REMARK VINA RESULT:     -12.4      1.940      7.905
REMARK SMILES CC(C)c1ccc(NC(=O)C[C@H]2SC[C@@H](C(=O)NCCCNC(=O)c3ccc(-c4c5nc(c(-c6cccc(S(=O)(=O)[O-])c6F)c6ccc([nH]6)c(-c6cccc(S(=O)(=O)[O-])c6F)c6nc(c(-c7cccc(S(=O)(=O)[O-])c7F)c7ccc4[nH]7)C=C6)C=C5)cc3)NC2=O)cc1
REMARK SMILES IDX 19 1 18 2 16 3 17 4 15 6 12 7 13 8 89 9 14 10 88 11 90 12
REMARK SMILES IDX 11 14 9 15 8 16 10 18 7 19 4 20 5 21 92 22 6 23 91 24 2 25
REMARK SMILES IDX 1 26 3 27 20 28 21 29 22 30 23 31 24 33 25 34 26 35 87 36
REMARK SMILES IDX 27 37 86 38 28 39 29 40 30 41 80 42 31 43 85 44 79 45 81 46
REMARK SMILES IDX 32 47 84 48 78 49 77 50 33 52 65 53 45 54 64 55 46 56 49 57
REMARK SMILES IDX 63 58 82 59 47 60 48 61 62 63 83 64 50 65 34 66 35 67 43 68
REMARK SMILES IDX 36 69 38 70 44 71 37 72 39 73 40 74 41 75 42 76 66 77 67 78
REMARK SMILES IDX 75 79 68 80 70 81 76 82 69 83 71 84 72 85 73 86 74 87 51 88
REMARK SMILES IDX 52 89 60 90 53 91 55 92 61 93 54 94 56 95 57 96 58 97 59 98
REMARK H PARENT 18 5 88 13 8 17 22 32 81 51 49 62
REMARK Flexibility Score: inf
ROOT
ATOM      1  C   UNL A   1      32.478  30.638  26.776  1.00  0.00     0.117 C 
ENDROOT
BRANCH   1   2
ATOM      2  N   UNL A   1      31.773  29.991  25.689  1.00  0.00    -0.354 N 
ATOM      3  C   UNL A   1      32.267  29.113  24.764  1.00  0.00     0.243 C 
ATOM      4  O   UNL A   1      31.657  29.015  23.700  1.00  0.00    -0.273 OA
ATOM      5  H   UNL A   1      30.817  30.212  25.604  1.00  0.00     0.163 HD
BRANCH   3   6
ATOM      6  C   UNL A   1      33.352  28.113  25.212  1.00  0.00     0.181 C 
ATOM      7  C   UNL A   1      31.836  25.514  25.777  1.00  0.00     0.145 C 
ATOM      8  S   UNL A   1      32.326  25.762  24.017  1.00  0.00    -0.145 SA
ATOM      9  C   UNL A   1      31.775  26.820  26.579  1.00  0.00     0.234 C 
ATOM     10  C   UNL A   1      33.641  26.998  24.217  1.00  0.00     0.105 C 
ATOM     11  N   UNL A   1      32.862  27.659  26.507  1.00  0.00    -0.343 N 
ATOM     12  O   UNL A   1      30.905  27.123  27.390  1.00  0.00    -0.274 OA
ATOM     13  H   UNL A   1      33.309  27.954  27.333  1.00  0.00     0.164 HD
BRANCH   7  14
ATOM     14  C   UNL A   1      30.604  24.595  25.790  1.00  0.00     0.124 C 
BRANCH  14  15
ATOM     15  C   UNL A   1      30.516  23.439  26.765  1.00  0.00     0.226 C 
ATOM     16  N   UNL A   1      31.455  22.465  26.877  1.00  0.00    -0.326 N 
ATOM     17  H   UNL A   1      31.250  21.797  27.572  1.00  0.00     0.169 HD
ATOM     18  O   UNL A   1      29.523  23.339  27.498  1.00  0.00    -0.275 OA
BRANCH  16  19
ATOM     19  C   UNL A   1      32.656  22.218  26.203  1.00  0.00     0.041 A 
ATOM     20  C   UNL A   1      35.182  21.961  24.967  1.00  0.00    -0.045 A 
ATOM     21  C   UNL A   1      33.994  21.716  24.259  1.00  0.00     0.006 A 
ATOM     22  C   UNL A   1      35.082  22.295  26.322  1.00  0.00     0.006 A 
ATOM     23  C   UNL A   1      32.744  21.825  24.875  1.00  0.00     0.026 A 
ATOM     24  C   UNL A   1      33.832  22.411  26.933  1.00  0.00     0.026 A 
BRANCH  20  25
ATOM     25  C   UNL A   1      36.509  21.829  24.239  1.00  0.00     0.013 C 
ATOM     26  C   UNL A   1      36.760  22.872  23.143  1.00  0.00     0.012 C 
ATOM     27  C   UNL A   1      37.664  21.853  25.246  1.00  0.00     0.012 C 
ENDBRANCH  20  25
ENDBRANCH  16  19
ENDBRANCH  14  15
ENDBRANCH   7  14
ENDBRANCH   3   6
ENDBRANCH   1   2
BRANCH   1  28
ATOM     28  C   UNL A   1      31.876  32.015  27.042  1.00  0.00     0.042 C 
BRANCH  28  29
ATOM     29  C   UNL A   1      32.863  33.160  26.815  1.00  0.00     0.118 C 
BRANCH  29  30
ATOM     30  N   UNL A   1      32.628  34.281  27.716  1.00  0.00    -0.352 N 
ATOM     31  C   UNL A   1      33.196  34.551  28.934  1.00  0.00     0.251 C 
ATOM     32  H   UNL A   1      31.965  34.939  27.405  1.00  0.00     0.163 HD
ATOM     33  O   UNL A   1      32.717  35.436  29.646  1.00  0.00    -0.269 OA
BRANCH  31  34
ATOM     34  C   UNL A   1      34.362  33.774  29.398  1.00  0.00     0.039 A 
ATOM     35  C   UNL A   1      35.646  34.235  29.099  1.00  0.00     0.014 A 
ATOM     36  C   UNL A   1      34.189  32.589  30.120  1.00  0.00     0.014 A 
ATOM     37  C   UNL A   1      36.758  33.541  29.581  1.00  0.00     0.010 A 
ATOM     38  C   UNL A   1      35.296  31.942  30.661  1.00  0.00     0.010 A 
ATOM     39  C   UNL A   1      36.592  32.409  30.395  1.00  0.00    -0.014 A 
BRANCH  39  40
ATOM     40  C   UNL A   1      37.757  31.708  30.992  1.00  0.00     0.031 A 
ATOM     41  C   UNL A   1      38.170  31.994  32.410  1.00  0.00     0.074 A 
ATOM     42  C   UNL A   1      38.498  30.885  30.224  1.00  0.00     0.049 A 
ATOM     43  N   UNL A   1      39.200  31.538  33.075  1.00  0.00    -0.248 NA
ATOM     44  C   UNL A   1      37.332  32.933  33.174  1.00  0.00     0.031 C 
ATOM     45  C   UNL A   1      38.245  30.586  28.813  1.00  0.00     0.029 A 
ATOM     46  N   UNL A   1      39.634  30.170  30.514  1.00  0.00    -0.354 N 
ATOM     47  C   UNL A   1      39.154  32.158  34.318  1.00  0.00     0.074 A 
ATOM     48  C   UNL A   1      38.013  33.047  34.305  1.00  0.00     0.031 C 
ATOM     49  C   UNL A   1      39.195  29.751  28.361  1.00  0.00     0.029 A 
ATOM     50  C   UNL A   1      40.143  29.480  29.438  1.00  0.00     0.049 A 
ATOM     51  H   UNL A   1      40.047  30.154  31.408  1.00  0.00     0.167 HD
ATOM     52  C   UNL A   1      39.969  31.982  35.386  1.00  0.00     0.034 A 
ATOM     53  C   UNL A   1      41.251  28.722  29.328  1.00  0.00     0.034 A 
ATOM     54  C   UNL A   1      41.076  31.063  35.411  1.00  0.00     0.049 A 
ATOM     55  C   UNL A   1      42.119  28.517  30.539  1.00  0.00     0.074 A 
ATOM     56  C   UNL A   1      41.909  30.751  36.470  1.00  0.00     0.029 A 
ATOM     57  N   UNL A   1      41.507  30.313  34.328  1.00  0.00    -0.354 N 
ATOM     58  N   UNL A   1      41.968  28.990  31.753  1.00  0.00    -0.248 NA
ATOM     59  C   UNL A   1      43.292  27.645  30.377  1.00  0.00     0.031 C 
ATOM     60  C   UNL A   1      42.856  29.824  36.022  1.00  0.00     0.029 A 
ATOM     61  C   UNL A   1      42.598  29.543  34.691  1.00  0.00     0.049 A 
ATOM     62  H   UNL A   1      41.097  30.326  33.433  1.00  0.00     0.167 HD
ATOM     63  C   UNL A   1      43.001  28.446  32.506  1.00  0.00     0.074 A 
ATOM     64  C   UNL A   1      43.759  27.589  31.618  1.00  0.00     0.031 C 
ATOM     65  C   UNL A   1      43.307  28.650  33.811  1.00  0.00     0.034 A 
BRANCH  52  66
ATOM     66  C   UNL A   1      39.657  32.754  36.642  1.00  0.00     0.023 A 
ATOM     67  C   UNL A   1      40.298  33.988  36.872  1.00  0.00     0.012 A 
ATOM     68  C   UNL A   1      38.685  32.299  37.554  1.00  0.00     0.148 A 
ATOM     69  C   UNL A   1      40.002  34.742  38.005  1.00  0.00     0.002 A 
ATOM     70  C   UNL A   1      38.363  33.078  38.659  1.00  0.00     0.091 A 
ATOM     71  F   UNL A   1      38.099  31.115  37.328  1.00  0.00    -0.205 F 
ATOM     72  C   UNL A   1      39.028  34.293  38.892  1.00  0.00     0.022 A 
BRANCH  70  73
ATOM     73  S   UNL A   1      37.066  32.629  39.820  1.00  0.00     0.127 S 
ATOM     74  O   UNL A   1      35.887  32.622  38.955  1.00  0.00    -0.237 OA
ATOM     75  O   UNL A   1      37.500  31.306  40.269  1.00  0.00    -0.237 OA
ATOM     76  O   UNL A   1      37.078  33.655  40.852  1.00  0.00    -0.744 OA
ENDBRANCH  70  73
ENDBRANCH  52  66
BRANCH  53  77
ATOM     77  C   UNL A   1      41.569  28.047  28.037  1.00  0.00     0.023 A 
ATOM     78  C   UNL A   1      42.010  28.819  26.946  1.00  0.00     0.012 A 
ATOM     79  C   UNL A   1      41.459  26.650  27.889  1.00  0.00     0.148 A 
ATOM     80  C   UNL A   1      42.300  28.220  25.719  1.00  0.00     0.002 A 
ATOM     81  C   UNL A   1      41.804  26.054  26.682  1.00  0.00     0.091 A 
ATOM     82  F   UNL A   1      41.024  25.932  28.933  1.00  0.00    -0.205 F 
ATOM     83  C   UNL A   1      42.207  26.837  25.590  1.00  0.00     0.022 A 
BRANCH  81  84
ATOM     84  S   UNL A   1      41.845  24.270  26.472  1.00  0.00     0.127 S 
ATOM     85  O   UNL A   1      40.424  23.935  26.457  1.00  0.00    -0.237 OA
ATOM     86  O   UNL A   1      42.526  24.130  25.184  1.00  0.00    -0.237 OA
ATOM     87  O   UNL A   1      42.608  23.761  27.606  1.00  0.00    -0.744 OA
ENDBRANCH  81  84
ENDBRANCH  53  77
BRANCH  65  88
ATOM     88  C   UNL A   1      44.492  27.910  34.374  1.00  0.00     0.023 A 
ATOM     89  C   UNL A   1      45.773  28.494  34.316  1.00  0.00     0.012 A 
ATOM     90  C   UNL A   1      44.325  26.673  35.025  1.00  0.00     0.148 A 
ATOM     91  C   UNL A   1      46.875  27.842  34.869  1.00  0.00     0.002 A 
ATOM     92  C   UNL A   1      45.418  26.051  35.615  1.00  0.00     0.091 A 
ATOM     93  F   UNL A   1      43.101  26.124  35.052  1.00  0.00    -0.205 F 
ATOM     94  C   UNL A   1      46.696  26.628  35.528  1.00  0.00     0.022 A 
BRANCH  92  95
ATOM     95  S   UNL A   1      45.266  24.533  36.565  1.00  0.00     0.127 S 
ATOM     96  O   UNL A   1      44.312  24.924  37.601  1.00  0.00    -0.237 OA
ATOM     97  O   UNL A   1      44.740  23.596  35.572  1.00  0.00    -0.237 OA
ATOM     98  O   UNL A   1      46.609  24.221  37.037  1.00  0.00    -0.744 OA
ENDBRANCH  92  95
ENDBRANCH  65  88
ENDBRANCH  39  40
ENDBRANCH  31  34
ENDBRANCH  29  30
ENDBRANCH  28  29
ENDBRANCH   1  28
TORSDOF 17
ENDMDL
MODEL 3
REMARK VINA RESULT:     -12.4      2.457      3.612
REMARK SMILES CC(C)c1ccc(NC(=O)C[C@H]2SC[C@@H](C(=O)NCCCNC(=O)c3ccc(-c4c5nc(c(-c6cccc(S(=O)(=O)[O-])c6F)c6ccc([nH]6)c(-c6cccc(S(=O)(=O)[O-])c6F)c6nc(c(-c7cccc(S(=O)(=O)[O-])c7F)c7ccc4[nH]7)C=C6)C=C5)cc3)NC2=O)cc1
REMARK SMILES IDX 19 1 18 2 16 3 17 4 15 6 12 7 13 8 89 9 14 10 88 11 90 12
REMARK SMILES IDX 11 14 9 15 8 16 10 18 7 19 4 20 5 21 92 22 6 23 91 24 2 25
REMARK SMILES IDX 1 26 3 27 20 28 21 29 22 30 23 31 24 33 25 34 26 35 87 36
REMARK SMILES IDX 27 37 86 38 28 39 29 40 30 41 80 42 31 43 85 44 79 45 81 46
REMARK SMILES IDX 32 47 84 48 78 49 77 50 33 52 65 53 45 54 64 55 46 56 49 57
REMARK SMILES IDX 63 58 82 59 47 60 48 61 62 63 83 64 50 65 34 66 35 67 43 68
REMARK SMILES IDX 36 69 38 70 44 71 37 72 39 73 40 74 41 75 42 76 66 77 67 78
REMARK SMILES IDX 75 79 68 80 70 81 76 82 69 83 71 84 72 85 73 86 74 87 51 88
REMARK SMILES IDX 52 89 60 90 53 91 55 92 61 93 54 94 56 95 57 96 58 97 59 98
REMARK H PARENT 18 5 88 13 8 17 22 32 81 51 49 62
REMARK Flexibility Score: inf
ROOT
ATOM      1  C   UNL A   1      32.690  28.884  22.731  1.00  0.00     0.117 C 
ENDROOT
BRANCH   1   2
ATOM      2  N   UNL A   1      33.266  27.777  21.996  1.00  0.00    -0.354 N 
ATOM      3  C   UNL A   1      32.840  26.478  21.951  1.00  0.00     0.243 C 
ATOM      4  O   UNL A   1      33.671  25.625  21.643  1.00  0.00    -0.273 OA
ATOM      5  H   UNL A   1      34.066  27.986  21.461  1.00  0.00     0.163 HD
BRANCH   3   6
ATOM      6  C   UNL A   1      31.323  26.204  21.999  1.00  0.00     0.181 C 
ATOM      7  C   UNL A   1      30.817  25.099  24.809  1.00  0.00     0.145 C 
ATOM      8  S   UNL A   1      30.814  26.938  24.684  1.00  0.00    -0.145 SA
ATOM      9  C   UNL A   1      31.572  24.415  23.662  1.00  0.00     0.234 C 
ATOM     10  C   UNL A   1      30.535  27.143  22.901  1.00  0.00     0.105 C 
ATOM     11  N   UNL A   1      31.258  24.799  22.380  1.00  0.00    -0.343 N 
ATOM     12  O   UNL A   1      32.330  23.457  23.774  1.00  0.00    -0.274 OA
ATOM     13  H   UNL A   1      30.990  24.123  21.717  1.00  0.00     0.164 HD
BRANCH   7  14
ATOM     14  C   UNL A   1      31.201  24.733  26.252  1.00  0.00     0.124 C 
BRANCH  14  15
ATOM     15  C   UNL A   1      30.760  23.415  26.855  1.00  0.00     0.226 C 
ATOM     16  N   UNL A   1      31.541  22.306  26.916  1.00  0.00    -0.326 N 
ATOM     17  H   UNL A   1      31.105  21.540  27.353  1.00  0.00     0.169 HD
ATOM     18  O   UNL A   1      29.609  23.309  27.301  1.00  0.00    -0.275 OA
BRANCH  16  19
ATOM     19  C   UNL A   1      32.842  22.034  26.482  1.00  0.00     0.041 A 
ATOM     20  C   UNL A   1      35.506  21.771  25.580  1.00  0.00    -0.045 A 
ATOM     21  C   UNL A   1      34.489  20.920  25.115  1.00  0.00     0.006 A 
ATOM     22  C   UNL A   1      35.170  22.729  26.542  1.00  0.00     0.006 A 
ATOM     23  C   UNL A   1      33.175  21.038  25.574  1.00  0.00     0.026 A 
ATOM     24  C   UNL A   1      33.854  22.850  26.994  1.00  0.00     0.026 A 
BRANCH  20  25
ATOM     25  C   UNL A   1      36.915  21.594  25.039  1.00  0.00     0.013 C 
ATOM     26  C   UNL A   1      37.424  20.148  25.001  1.00  0.00     0.012 C 
ATOM     27  C   UNL A   1      37.023  22.214  23.643  1.00  0.00     0.012 C 
ENDBRANCH  20  25
ENDBRANCH  16  19
ENDBRANCH  14  15
ENDBRANCH   7  14
ENDBRANCH   3   6
ENDBRANCH   1   2
BRANCH   1  28
ATOM     28  C   UNL A   1      33.647  29.335  23.831  1.00  0.00     0.042 C 
BRANCH  28  29
ATOM     29  C   UNL A   1      33.061  29.199  25.235  1.00  0.00     0.118 C 
BRANCH  29  30
ATOM     30  N   UNL A   1      32.544  30.463  25.745  1.00  0.00    -0.352 N 
ATOM     31  C   UNL A   1      32.973  31.211  26.812  1.00  0.00     0.251 C 
ATOM     32  H   UNL A   1      31.777  30.833  25.252  1.00  0.00     0.163 HD
ATOM     33  O   UNL A   1      32.279  32.144  27.218  1.00  0.00    -0.269 OA
BRANCH  31  34
ATOM     34  C   UNL A   1      34.248  30.886  27.480  1.00  0.00     0.039 A 
ATOM     35  C   UNL A   1      35.195  31.896  27.660  1.00  0.00     0.014 A 
ATOM     36  C   UNL A   1      34.512  29.586  27.923  1.00  0.00     0.014 A 
ATOM     37  C   UNL A   1      36.381  31.617  28.343  1.00  0.00     0.010 A 
ATOM     38  C   UNL A   1      35.659  29.329  28.667  1.00  0.00     0.010 A 
ATOM     39  C   UNL A   1      36.607  30.340  28.882  1.00  0.00    -0.014 A 
BRANCH  39  40
ATOM     40  C   UNL A   1      37.820  30.045  29.688  1.00  0.00     0.031 A 
ATOM     41  C   UNL A   1      38.863  29.095  29.169  1.00  0.00     0.074 A 
ATOM     42  C   UNL A   1      37.932  30.562  30.928  1.00  0.00     0.049 A 
ATOM     43  N   UNL A   1      39.946  28.658  29.759  1.00  0.00    -0.248 NA
ATOM     44  C   UNL A   1      38.653  28.542  27.821  1.00  0.00     0.031 C 
ATOM     45  C   UNL A   1      36.950  31.436  31.573  1.00  0.00     0.029 A 
ATOM     46  N   UNL A   1      38.909  30.404  31.879  1.00  0.00    -0.354 N 
ATOM     47  C   UNL A   1      40.525  27.758  28.874  1.00  0.00     0.074 A 
ATOM     48  C   UNL A   1      39.658  27.684  27.718  1.00  0.00     0.031 C 
ATOM     49  C   UNL A   1      37.373  31.737  32.812  1.00  0.00     0.029 A 
ATOM     50  C   UNL A   1      38.638  31.053  33.062  1.00  0.00     0.049 A 
ATOM     51  H   UNL A   1      39.726  29.875  31.730  1.00  0.00     0.167 HD
ATOM     52  C   UNL A   1      41.689  27.076  28.996  1.00  0.00     0.034 A 
ATOM     53  C   UNL A   1      39.326  31.088  34.219  1.00  0.00     0.034 A 
ATOM     54  C   UNL A   1      42.572  27.185  30.127  1.00  0.00     0.049 A 
ATOM     55  C   UNL A   1      40.632  30.348  34.315  1.00  0.00     0.074 A 
ATOM     56  C   UNL A   1      43.813  26.600  30.308  1.00  0.00     0.029 A 
ATOM     57  N   UNL A   1      42.307  27.924  31.269  1.00  0.00    -0.354 N 
ATOM     58  N   UNL A   1      41.241  29.627  33.405  1.00  0.00    -0.248 NA
ATOM     59  C   UNL A   1      41.366  30.455  35.584  1.00  0.00     0.031 C 
ATOM     60  C   UNL A   1      44.290  26.972  31.569  1.00  0.00     0.029 A 
ATOM     61  C   UNL A   1      43.357  27.806  32.162  1.00  0.00     0.049 A 
ATOM     62  H   UNL A   1      41.492  28.455  31.422  1.00  0.00     0.167 HD
ATOM     63  C   UNL A   1      42.442  29.224  33.976  1.00  0.00     0.074 A 
ATOM     64  C   UNL A   1      42.487  29.802  35.304  1.00  0.00     0.031 C 
ATOM     65  C   UNL A   1      43.414  28.434  33.458  1.00  0.00     0.034 A 
BRANCH  52  66
ATOM     66  C   UNL A   1      42.110  26.194  27.848  1.00  0.00     0.023 A 
ATOM     67  C   UNL A   1      42.999  26.701  26.878  1.00  0.00     0.012 A 
ATOM     68  C   UNL A   1      41.688  24.853  27.766  1.00  0.00     0.148 A 
ATOM     69  C   UNL A   1      43.435  25.897  25.826  1.00  0.00     0.002 A 
ATOM     70  C   UNL A   1      42.162  24.046  26.739  1.00  0.00     0.091 A 
ATOM     71  F   UNL A   1      40.828  24.395  28.687  1.00  0.00    -0.205 F 
ATOM     72  C   UNL A   1      43.026  24.568  25.763  1.00  0.00     0.022 A 
BRANCH  70  73
ATOM     73  S   UNL A   1      41.760  22.298  26.612  1.00  0.00     0.127 S 
ATOM     74  O   UNL A   1      42.327  21.775  27.855  1.00  0.00    -0.237 OA
ATOM     75  O   UNL A   1      40.297  22.322  26.573  1.00  0.00    -0.237 OA
ATOM     76  O   UNL A   1      42.394  21.828  25.390  1.00  0.00    -0.744 OA
ENDBRANCH  70  73
ENDBRANCH  52  66
BRANCH  53  77
ATOM     77  C   UNL A   1      38.826  31.905  35.362  1.00  0.00     0.023 A 
ATOM     78  C   UNL A   1      38.928  33.308  35.302  1.00  0.00     0.012 A 
ATOM     79  C   UNL A   1      38.235  31.307  36.492  1.00  0.00     0.148 A 
ATOM     80  C   UNL A   1      38.484  34.101  36.362  1.00  0.00     0.002 A 
ATOM     81  C   UNL A   1      37.743  32.105  37.519  1.00  0.00     0.091 A 
ATOM     82  F   UNL A   1      38.159  29.970  36.539  1.00  0.00    -0.205 F 
ATOM     83  C   UNL A   1      37.883  33.500  37.465  1.00  0.00     0.022 A 
BRANCH  81  84
ATOM     84  S   UNL A   1      36.833  31.424  38.910  1.00  0.00     0.127 S 
ATOM     85  O   UNL A   1      37.820  31.501  39.983  1.00  0.00    -0.237 OA
ATOM     86  O   UNL A   1      35.715  32.361  39.031  1.00  0.00    -0.237 OA
ATOM     87  O   UNL A   1      36.441  30.081  38.500  1.00  0.00    -0.744 OA
ENDBRANCH  81  84
ENDBRANCH  53  77
BRANCH  65  88
ATOM     88  C   UNL A   1      44.628  28.170  34.309  1.00  0.00     0.023 A 
ATOM     89  C   UNL A   1      45.737  29.036  34.233  1.00  0.00     0.012 A 
ATOM     90  C   UNL A   1      44.641  27.108  35.234  1.00  0.00     0.148 A 
ATOM     91  C   UNL A   1      46.853  28.830  35.044  1.00  0.00     0.002 A 
ATOM     92  C   UNL A   1      45.736  26.937  36.072  1.00  0.00     0.091 A 
ATOM     93  F   UNL A   1      43.584  26.284  35.277  1.00  0.00    -0.205 F 
ATOM     94  C   UNL A   1      46.848  27.790  35.969  1.00  0.00     0.022 A 
BRANCH  92  95
ATOM     95  S   UNL A   1      45.779  25.684  37.358  1.00  0.00     0.127 S 
ATOM     96  O   UNL A   1      45.741  24.451  36.574  1.00  0.00    -0.237 OA
ATOM     97  O   UNL A   1      47.060  25.952  38.012  1.00  0.00    -0.237 OA
ATOM     98  O   UNL A   1      44.611  25.930  38.194  1.00  0.00    -0.744 OA
ENDBRANCH  92  95
ENDBRANCH  65  88
ENDBRANCH  39  40
ENDBRANCH  31  34
ENDBRANCH  29  30
ENDBRANCH  28  29
ENDBRANCH   1  28
TORSDOF 17
ENDMDL
