MODEL 1
REMARK VINA RESULT:     -11.4      0.000      0.000
REMARK SMILES CCN(C(=O)N[C@@H]1CCOC1)[C@H]1COC[C@H]1C(=O)NCCCNC(=O)c1ccc(-c2c3nc(c(-c4cccc(S(=O)(=O)[O-])c4F)c4ccc([nH]4)c(-c4cccc(S(=O)(=O)[O-])c4F)c4nc(c(-c5cccc(S(=O)(=O)[O-])c5F)c5ccc2[nH]5)C=C4)C=C3)cc1
REMARK SMILES IDX 21 1 20 2 19 3 17 4 18 5 16 7 12 8 13 9 14 10 15 11 3 12
REMARK SMILES IDX 2 13 1 14 4 15 5 16 6 17 7 19 8 20 11 21 9 22 10 23 22 24
REMARK SMILES IDX 23 25 24 26 25 28 26 29 27 30 88 31 28 32 87 33 29 34 30 35
REMARK SMILES IDX 31 36 81 37 32 38 86 39 80 40 82 41 33 42 85 43 79 44 78 45
REMARK SMILES IDX 34 47 66 48 46 49 65 50 47 51 50 52 64 53 83 54 48 55 49 56
REMARK SMILES IDX 63 58 84 59 51 60 35 61 36 62 44 63 37 64 39 65 45 66 38 67
REMARK SMILES IDX 40 68 41 69 42 70 43 71 67 72 68 73 76 74 69 75 71 76 77 77
REMARK SMILES IDX 70 78 72 79 73 80 74 81 75 82 52 83 53 84 61 85 54 86 56 87
REMARK SMILES IDX 62 88 55 89 57 90 58 91 59 92 60 93
REMARK H PARENT 19 6 6 18 23 27 82 46 50 57
REMARK Flexibility Score: inf
ROOT
ATOM      1  C   UNL A   1      36.068  22.308  23.846  1.00  0.00     0.042 C 
ENDROOT
BRANCH   1   2
ATOM      2  C   UNL A   1      34.907  23.224  23.484  1.00  0.00     0.117 C 
BRANCH   2   3
ATOM      3  N   UNL A   1      33.609  22.732  23.906  1.00  0.00    -0.356 N 
ATOM      4  C   UNL A   1      32.653  23.216  24.735  1.00  0.00     0.227 C 
ATOM      5  O   UNL A   1      31.656  22.495  24.873  1.00  0.00    -0.275 OA
ATOM      6  H   UNL A   1      33.373  21.865  23.505  1.00  0.00     0.163 HD
BRANCH   4   7
ATOM      7  C   UNL A   1      32.697  24.546  25.456  1.00  0.00     0.129 C 
ATOM      8  C   UNL A   1      32.616  25.922  24.755  1.00  0.00     0.127 C 
ATOM      9  C   UNL A   1      32.027  26.750  25.933  1.00  0.00     0.186 C 
ATOM     10  O   UNL A   1      31.156  25.881  26.669  1.00  0.00    -0.378 OA
ATOM     11  C   UNL A   1      31.784  24.605  26.674  1.00  0.00     0.176 C 
BRANCH   8  12
ATOM     12  N   UNL A   1      31.970  26.044  23.405  1.00  0.00    -0.319 N 
BRANCH  12  13
ATOM     13  C   UNL A   1      32.786  26.609  22.315  1.00  0.00     0.118 C 
ATOM     14  C   UNL A   1      33.687  27.781  22.699  1.00  0.00     0.027 C 
ENDBRANCH  12  13
BRANCH  12  15
ATOM     15  C   UNL A   1      30.601  26.249  23.390  1.00  0.00     0.318 C 
ATOM     16  O   UNL A   1      29.800  25.332  23.585  1.00  0.00    -0.249 OA
ATOM     17  N   UNL A   1      30.047  27.391  22.929  1.00  0.00    -0.333 N 
ATOM     18  H   UNL A   1      29.406  27.216  22.202  1.00  0.00     0.165 HD
BRANCH  17  19
ATOM     19  C   UNL A   1      30.153  28.826  23.228  1.00  0.00     0.112 C 
ATOM     20  C   UNL A   1      28.751  29.391  23.440  1.00  0.00     0.056 C 
ATOM     21  C   UNL A   1      30.540  29.722  22.065  1.00  0.00     0.185 C 
ATOM     22  C   UNL A   1      28.251  29.662  22.027  1.00  0.00     0.162 C 
ATOM     23  O   UNL A   1      29.404  29.882  21.211  1.00  0.00    -0.379 OA
ENDBRANCH  17  19
ENDBRANCH  12  15
ENDBRANCH   8  12
ENDBRANCH   4   7
ENDBRANCH   2   3
ENDBRANCH   1   2
BRANCH   1  24
ATOM     24  C   UNL A   1      36.232  21.840  25.304  1.00  0.00     0.118 C 
BRANCH  24  25
ATOM     25  N   UNL A   1      37.294  20.848  25.442  1.00  0.00    -0.352 N 
ATOM     26  C   UNL A   1      38.624  20.914  25.793  1.00  0.00     0.251 C 
ATOM     27  H   UNL A   1      36.994  19.933  25.239  1.00  0.00     0.163 HD
ATOM     28  O   UNL A   1      39.307  19.908  25.582  1.00  0.00    -0.269 OA
BRANCH  26  29
ATOM     29  C   UNL A   1      39.292  22.101  26.404  1.00  0.00     0.039 A 
ATOM     30  C   UNL A   1      38.850  23.382  26.016  1.00  0.00     0.014 A 
ATOM     31  C   UNL A   1      40.399  22.016  27.251  1.00  0.00     0.014 A 
ATOM     32  C   UNL A   1      39.477  24.554  26.486  1.00  0.00     0.010 A 
ATOM     33  C   UNL A   1      41.012  23.190  27.738  1.00  0.00     0.010 A 
ATOM     34  C   UNL A   1      40.572  24.477  27.355  1.00  0.00    -0.014 A 
BRANCH  34  35
ATOM     35  C   UNL A   1      41.341  25.690  27.795  1.00  0.00     0.031 A 
ATOM     36  C   UNL A   1      40.613  26.810  28.494  1.00  0.00     0.074 A 
ATOM     37  C   UNL A   1      42.655  25.860  27.531  1.00  0.00     0.049 A 
ATOM     38  N   UNL A   1      41.031  28.013  28.796  1.00  0.00    -0.248 NA
ATOM     39  C   UNL A   1      39.231  26.530  28.912  1.00  0.00     0.031 C 
ATOM     40  C   UNL A   1      43.534  24.861  26.939  1.00  0.00     0.029 A 
ATOM     41  N   UNL A   1      43.469  26.965  27.677  1.00  0.00    -0.354 N 
ATOM     42  C   UNL A   1      39.960  28.643  29.418  1.00  0.00     0.074 A 
ATOM     43  C   UNL A   1      38.863  27.698  29.421  1.00  0.00     0.031 C 
ATOM     44  C   UNL A   1      44.726  25.422  26.665  1.00  0.00     0.029 A 
ATOM     45  C   UNL A   1      44.706  26.823  27.082  1.00  0.00     0.049 A 
ATOM     46  H   UNL A   1      43.194  27.778  28.160  1.00  0.00     0.167 HD
ATOM     47  C   UNL A   1      39.894  29.881  29.965  1.00  0.00     0.034 A 
ATOM     48  C   UNL A   1      45.702  27.712  26.876  1.00  0.00     0.034 A 
ATOM     49  C   UNL A   1      40.979  30.825  29.997  1.00  0.00     0.049 A 
ATOM     50  C   UNL A   1      45.585  29.113  27.424  1.00  0.00     0.074 A 
ATOM     51  C   UNL A   1      41.002  32.086  30.569  1.00  0.00     0.029 A 
ATOM     52  N   UNL A   1      42.227  30.624  29.431  1.00  0.00    -0.354 N 
ATOM     53  N   UNL A   1      44.600  29.654  28.097  1.00  0.00    -0.248 NA
ATOM     54  C   UNL A   1      46.738  30.012  27.234  1.00  0.00     0.031 C 
ATOM     55  C   UNL A   1      42.252  32.660  30.321  1.00  0.00     0.029 A 
ATOM     56  C   UNL A   1      43.021  31.741  29.629  1.00  0.00     0.049 A 
ATOM     57  H   UNL A   1      42.507  29.808  28.957  1.00  0.00     0.167 HD
ATOM     58  C   UNL A   1      45.037  30.925  28.461  1.00  0.00     0.074 A 
ATOM     59  C   UNL A   1      46.375  31.078  27.934  1.00  0.00     0.031 C 
ATOM     60  C   UNL A   1      44.380  31.875  29.169  1.00  0.00     0.034 A 
BRANCH  47  61
ATOM     61  C   UNL A   1      38.595  30.283  30.610  1.00  0.00     0.023 A 
ATOM     62  C   UNL A   1      38.366  29.974  31.966  1.00  0.00     0.012 A 
ATOM     63  C   UNL A   1      37.628  31.013  29.893  1.00  0.00     0.148 A 
ATOM     64  C   UNL A   1      37.176  30.347  32.588  1.00  0.00     0.002 A 
ATOM     65  C   UNL A   1      36.465  31.424  30.533  1.00  0.00     0.091 A 
ATOM     66  F   UNL A   1      37.860  31.283  28.600  1.00  0.00    -0.205 F 
ATOM     67  C   UNL A   1      36.231  31.080  31.874  1.00  0.00     0.022 A 
BRANCH  65  68
ATOM     68  S   UNL A   1      35.224  32.440  29.727  1.00  0.00     0.127 S 
ATOM     69  O   UNL A   1      34.312  32.724  30.833  1.00  0.00    -0.237 OA
ATOM     70  O   UNL A   1      36.010  33.584  29.272  1.00  0.00    -0.237 OA
ATOM     71  O   UNL A   1      34.667  31.621  28.656  1.00  0.00    -0.744 OA
ENDBRANCH  65  68
ENDBRANCH  47  61
BRANCH  48  72
ATOM     72  C   UNL A   1      46.933  27.308  26.133  1.00  0.00     0.023 A 
ATOM     73  C   UNL A   1      47.022  27.534  24.745  1.00  0.00     0.012 A 
ATOM     74  C   UNL A   1      48.005  26.672  26.791  1.00  0.00     0.148 A 
ATOM     75  C   UNL A   1      48.133  27.098  24.020  1.00  0.00     0.002 A 
ATOM     76  C   UNL A   1      49.131  26.286  26.072  1.00  0.00     0.091 A 
ATOM     77  F   UNL A   1      47.897  26.452  28.109  1.00  0.00    -0.205 F 
ATOM     78  C   UNL A   1      49.190  26.481  24.683  1.00  0.00     0.022 A 
BRANCH  76  79
ATOM     79  S   UNL A   1      50.587  25.589  26.858  1.00  0.00     0.127 S 
ATOM     80  O   UNL A   1      50.048  24.374  27.463  1.00  0.00    -0.237 OA
ATOM     81  O   UNL A   1      51.468  25.369  25.711  1.00  0.00    -0.237 OA
ATOM     82  O   UNL A   1      51.054  26.606  27.789  1.00  0.00    -0.744 OA
ENDBRANCH  76  79
ENDBRANCH  48  72
BRANCH  60  83
ATOM     83  C   UNL A   1      45.101  33.160  29.494  1.00  0.00     0.023 A 
ATOM     84  C   UNL A   1      45.905  33.252  30.646  1.00  0.00     0.012 A 
ATOM     85  C   UNL A   1      45.064  34.243  28.590  1.00  0.00     0.148 A 
ATOM     86  C   UNL A   1      46.647  34.406  30.904  1.00  0.00     0.002 A 
ATOM     87  C   UNL A   1      45.845  35.368  28.826  1.00  0.00     0.091 A 
ATOM     88  F   UNL A   1      44.279  34.143  27.508  1.00  0.00    -0.205 F 
ATOM     89  C   UNL A   1      46.628  35.456  29.988  1.00  0.00     0.022 A 
BRANCH  87  90
ATOM     90  S   UNL A   1      45.963  36.728  27.658  1.00  0.00     0.127 S 
ATOM     91  O   UNL A   1      44.622  37.306  27.734  1.00  0.00    -0.237 OA
ATOM     92  O   UNL A   1      47.016  37.553  28.252  1.00  0.00    -0.237 OA
ATOM     93  O   UNL A   1      46.309  36.131  26.375  1.00  0.00    -0.744 OA
ENDBRANCH  87  90
ENDBRANCH  60  83
ENDBRANCH  34  35
ENDBRANCH  26  29
ENDBRANCH  24  25
ENDBRANCH   1  24
TORSDOF 17
ENDMDL
MODEL 2
REMARK VINA RESULT:     -11.4      1.045      1.470
REMARK SMILES CCN(C(=O)N[C@@H]1CCOC1)[C@H]1COC[C@H]1C(=O)NCCCNC(=O)c1ccc(-c2c3nc(c(-c4cccc(S(=O)(=O)[O-])c4F)c4ccc([nH]4)c(-c4cccc(S(=O)(=O)[O-])c4F)c4nc(c(-c5cccc(S(=O)(=O)[O-])c5F)c5ccc2[nH]5)C=C4)C=C3)cc1
REMARK SMILES IDX 21 1 20 2 19 3 17 4 18 5 16 7 12 8 13 9 14 10 15 11 3 12
REMARK SMILES IDX 2 13 1 14 4 15 5 16 6 17 7 19 8 20 11 21 9 22 10 23 22 24
REMARK SMILES IDX 23 25 24 26 25 28 26 29 27 30 88 31 28 32 87 33 29 34 30 35
REMARK SMILES IDX 31 36 81 37 32 38 86 39 80 40 82 41 33 42 85 43 79 44 78 45
REMARK SMILES IDX 34 47 66 48 46 49 65 50 47 51 50 52 64 53 83 54 48 55 49 56
REMARK SMILES IDX 63 58 84 59 51 60 35 61 36 62 44 63 37 64 39 65 45 66 38 67
REMARK SMILES IDX 40 68 41 69 42 70 43 71 67 72 68 73 76 74 69 75 71 76 77 77
REMARK SMILES IDX 70 78 72 79 73 80 74 81 75 82 52 83 53 84 61 85 54 86 56 87
REMARK SMILES IDX 62 88 55 89 57 90 58 91 59 92 60 93
REMARK H PARENT 19 6 6 18 23 27 82 46 50 57
REMARK Flexibility Score: inf
ROOT
ATOM      1  C   UNL A   1      35.039  22.446  26.424  1.00  0.00     0.042 C 
ENDROOT
BRANCH   1   2
ATOM      2  C   UNL A   1      33.865  23.414  26.381  1.00  0.00     0.117 C 
BRANCH   2   3
ATOM      3  N   UNL A   1      34.167  24.685  25.749  1.00  0.00    -0.356 N 
ATOM      4  C   UNL A   1      33.403  25.654  25.191  1.00  0.00     0.227 C 
ATOM      5  O   UNL A   1      34.025  26.617  24.722  1.00  0.00    -0.275 OA
ATOM      6  H   UNL A   1      35.130  24.886  25.722  1.00  0.00     0.163 HD
BRANCH   4   7
ATOM      7  C   UNL A   1      31.890  25.664  25.130  1.00  0.00     0.129 C 
ATOM      8  C   UNL A   1      31.022  26.942  25.187  1.00  0.00     0.127 C 
ATOM      9  C   UNL A   1      29.777  26.414  24.418  1.00  0.00     0.186 C 
ATOM     10  O   UNL A   1      30.251  25.497  23.423  1.00  0.00    -0.378 OA
ATOM     11  C   UNL A   1      31.324  24.783  24.024  1.00  0.00     0.176 C 
BRANCH   8  12
ATOM     12  N   UNL A   1      31.602  28.266  24.782  1.00  0.00    -0.319 N 
BRANCH  12  13
ATOM     13  C   UNL A   1      31.769  29.282  25.838  1.00  0.00     0.118 C 
ATOM     14  C   UNL A   1      31.782  28.754  27.271  1.00  0.00     0.027 C 
ENDBRANCH  12  13
BRANCH  12  15
ATOM     15  C   UNL A   1      31.345  28.685  23.488  1.00  0.00     0.318 C 
ATOM     16  O   UNL A   1      32.012  28.291  22.529  1.00  0.00    -0.249 OA
ATOM     17  N   UNL A   1      30.522  29.720  23.214  1.00  0.00    -0.333 N 
ATOM     18  H   UNL A   1      30.978  30.418  22.690  1.00  0.00     0.165 HD
BRANCH  17  19
ATOM     19  C   UNL A   1      29.123  30.075  23.495  1.00  0.00     0.112 C 
ATOM     20  C   UNL A   1      28.244  29.557  22.360  1.00  0.00     0.056 C 
ATOM     21  C   UNL A   1      28.768  31.544  23.348  1.00  0.00     0.185 C 
ATOM     22  C   UNL A   1      28.364  30.631  21.287  1.00  0.00     0.162 C 
ATOM     23  O   UNL A   1      28.672  31.857  21.956  1.00  0.00    -0.379 OA
ENDBRANCH  17  19
ENDBRANCH  12  15
ENDBRANCH   8  12
ENDBRANCH   4   7
ENDBRANCH   2   3
ENDBRANCH   1   2
BRANCH   1  24
ATOM     24  C   UNL A   1      35.912  22.263  25.169  1.00  0.00     0.118 C 
BRANCH  24  25
ATOM     25  N   UNL A   1      36.915  21.218  25.350  1.00  0.00    -0.352 N 
ATOM     26  C   UNL A   1      38.236  21.218  25.739  1.00  0.00     0.251 C 
ATOM     27  H   UNL A   1      36.573  20.318  25.149  1.00  0.00     0.163 HD
ATOM     28  O   UNL A   1      38.869  20.175  25.561  1.00  0.00    -0.269 OA
BRANCH  26  29
ATOM     29  C   UNL A   1      38.948  22.376  26.355  1.00  0.00     0.039 A 
ATOM     30  C   UNL A   1      38.509  23.675  26.026  1.00  0.00     0.014 A 
ATOM     31  C   UNL A   1      40.089  22.250  27.149  1.00  0.00     0.014 A 
ATOM     32  C   UNL A   1      39.174  24.824  26.503  1.00  0.00     0.010 A 
ATOM     33  C   UNL A   1      40.741  23.400  27.643  1.00  0.00     0.010 A 
ATOM     34  C   UNL A   1      40.305  24.704  27.319  1.00  0.00    -0.014 A 
BRANCH  34  35
ATOM     35  C   UNL A   1      41.111  25.892  27.761  1.00  0.00     0.031 A 
ATOM     36  C   UNL A   1      40.423  27.022  28.485  1.00  0.00     0.074 A 
ATOM     37  C   UNL A   1      42.424  26.032  27.477  1.00  0.00     0.049 A 
ATOM     38  N   UNL A   1      40.876  28.210  28.794  1.00  0.00    -0.248 NA
ATOM     39  C   UNL A   1      39.042  26.771  28.922  1.00  0.00     0.031 C 
ATOM     40  C   UNL A   1      43.268  25.020  26.860  1.00  0.00     0.029 A 
ATOM     41  N   UNL A   1      43.269  27.115  27.623  1.00  0.00    -0.354 N 
ATOM     42  C   UNL A   1      39.832  28.859  29.441  1.00  0.00     0.074 A 
ATOM     43  C   UNL A   1      38.711  27.941  29.451  1.00  0.00     0.031 C 
ATOM     44  C   UNL A   1      44.470  25.554  26.573  1.00  0.00     0.029 A 
ATOM     45  C   UNL A   1      44.491  26.949  27.007  1.00  0.00     0.049 A 
ATOM     46  H   UNL A   1      43.021  27.928  28.120  1.00  0.00     0.167 HD
ATOM     47  C   UNL A   1      39.806  30.091  30.003  1.00  0.00     0.034 A 
ATOM     48  C   UNL A   1      45.507  27.816  26.794  1.00  0.00     0.034 A 
ATOM     49  C   UNL A   1      40.914  31.007  30.028  1.00  0.00     0.049 A 
ATOM     50  C   UNL A   1      45.433  29.212  27.361  1.00  0.00     0.074 A 
ATOM     51  C   UNL A   1      40.978  32.260  30.615  1.00  0.00     0.029 A 
ATOM     52  N   UNL A   1      42.147  30.782  29.440  1.00  0.00    -0.354 N 
ATOM     53  N   UNL A   1      44.474  29.770  28.056  1.00  0.00    -0.248 NA
ATOM     54  C   UNL A   1      46.605  30.084  27.162  1.00  0.00     0.031 C 
ATOM     55  C   UNL A   1      42.237  32.806  30.353  1.00  0.00     0.029 A 
ATOM     56  C   UNL A   1      42.972  31.876  29.638  1.00  0.00     0.049 A 
ATOM     57  H   UNL A   1      42.399  29.965  28.952  1.00  0.00     0.167 HD
ATOM     58  C   UNL A   1      44.948  31.025  28.428  1.00  0.00     0.074 A 
ATOM     59  C   UNL A   1      46.281  31.151  27.881  1.00  0.00     0.031 C 
ATOM     60  C   UNL A   1      44.326  31.983  29.158  1.00  0.00     0.034 A 
BRANCH  47  61
ATOM     61  C   UNL A   1      38.527  30.518  30.675  1.00  0.00     0.023 A 
ATOM     62  C   UNL A   1      38.328  30.230  32.040  1.00  0.00     0.012 A 
ATOM     63  C   UNL A   1      37.551  31.249  29.971  1.00  0.00     0.148 A 
ATOM     64  C   UNL A   1      37.158  30.626  32.686  1.00  0.00     0.002 A 
ATOM     65  C   UNL A   1      36.409  31.683  30.633  1.00  0.00     0.091 A 
ATOM     66  F   UNL A   1      37.754  31.498  28.670  1.00  0.00    -0.205 F 
ATOM     67  C   UNL A   1      36.204  31.360  31.985  1.00  0.00     0.022 A 
BRANCH  65  68
ATOM     68  S   UNL A   1      35.160  32.702  29.844  1.00  0.00     0.127 S 
ATOM     69  O   UNL A   1      34.251  32.969  30.956  1.00  0.00    -0.237 OA
ATOM     70  O   UNL A   1      35.940  33.855  29.400  1.00  0.00    -0.237 OA
ATOM     71  O   UNL A   1      34.603  31.892  28.765  1.00  0.00    -0.744 OA
ENDBRANCH  65  68
ENDBRANCH  47  61
BRANCH  48  72
ATOM     72  C   UNL A   1      46.715  27.390  26.026  1.00  0.00     0.023 A 
ATOM     73  C   UNL A   1      46.757  27.566  24.629  1.00  0.00     0.012 A 
ATOM     74  C   UNL A   1      47.811  26.784  26.672  1.00  0.00     0.148 A 
ATOM     75  C   UNL A   1      47.846  27.109  23.884  1.00  0.00     0.002 A 
ATOM     76  C   UNL A   1      48.915  26.377  25.931  1.00  0.00     0.091 A 
ATOM     77  F   UNL A   1      47.748  26.612  28.000  1.00  0.00    -0.205 F 
ATOM     78  C   UNL A   1      48.927  26.521  24.535  1.00  0.00     0.022 A 
BRANCH  76  79
ATOM     79  S   UNL A   1      50.401  25.716  26.694  1.00  0.00     0.127 S 
ATOM     80  O   UNL A   1      49.916  24.455  27.250  1.00  0.00    -0.237 OA
ATOM     81  O   UNL A   1      51.291  25.580  25.541  1.00  0.00    -0.237 OA
ATOM     82  O   UNL A   1      50.821  26.716  27.664  1.00  0.00    -0.744 OA
ENDBRANCH  76  79
ENDBRANCH  48  72
BRANCH  60  83
ATOM     83  C   UNL A   1      45.084  33.245  29.486  1.00  0.00     0.023 A 
ATOM     84  C   UNL A   1      45.897  33.307  30.634  1.00  0.00     0.012 A 
ATOM     85  C   UNL A   1      45.073  34.333  28.588  1.00  0.00     0.148 A 
ATOM     86  C   UNL A   1      46.672  34.439  30.894  1.00  0.00     0.002 A 
ATOM     87  C   UNL A   1      45.886  35.435  28.827  1.00  0.00     0.091 A 
ATOM     88  F   UNL A   1      44.280  34.262  27.510  1.00  0.00    -0.205 F 
ATOM     89  C   UNL A   1      46.677  35.495  29.984  1.00  0.00     0.022 A 
BRANCH  87  90
ATOM     90  S   UNL A   1      46.035  36.799  27.665  1.00  0.00     0.127 S 
ATOM     91  O   UNL A   1      44.685  37.358  27.685  1.00  0.00    -0.237 OA
ATOM     92  O   UNL A   1      47.051  37.636  28.304  1.00  0.00    -0.237 OA
ATOM     93  O   UNL A   1      46.444  36.208  26.398  1.00  0.00    -0.744 OA
ENDBRANCH  87  90
ENDBRANCH  60  83
ENDBRANCH  34  35
ENDBRANCH  26  29
ENDBRANCH  24  25
ENDBRANCH   1  24
TORSDOF 17
ENDMDL
MODEL 3
REMARK VINA RESULT:     -11.4      5.358      8.040
REMARK SMILES CCN(C(=O)N[C@@H]1CCOC1)[C@H]1COC[C@H]1C(=O)NCCCNC(=O)c1ccc(-c2c3nc(c(-c4cccc(S(=O)(=O)[O-])c4F)c4ccc([nH]4)c(-c4cccc(S(=O)(=O)[O-])c4F)c4nc(c(-c5cccc(S(=O)(=O)[O-])c5F)c5ccc2[nH]5)C=C4)C=C3)cc1
REMARK SMILES IDX 21 1 20 2 19 3 17 4 18 5 16 7 12 8 13 9 14 10 15 11 3 12
REMARK SMILES IDX 2 13 1 14 4 15 5 16 6 17 7 19 8 20 11 21 9 22 10 23 22 24
REMARK SMILES IDX 23 25 24 26 25 28 26 29 27 30 88 31 28 32 87 33 29 34 30 35
REMARK SMILES IDX 31 36 81 37 32 38 86 39 80 40 82 41 33 42 85 43 79 44 78 45
REMARK SMILES IDX 34 47 66 48 46 49 65 50 47 51 50 52 64 53 83 54 48 55 49 56
REMARK SMILES IDX 63 58 84 59 51 60 35 61 36 62 44 63 37 64 39 65 45 66 38 67
REMARK SMILES IDX 40 68 41 69 42 70 43 71 67 72 68 73 76 74 69 75 71 76 77 77
REMARK SMILES IDX 70 78 72 79 73 80 74 81 75 82 52 83 53 84 61 85 54 86 56 87
REMARK SMILES IDX 62 88 55 89 57 90 58 91 59 92 60 93
REMARK H PARENT 19 6 6 18 23 27 82 46 50 57
REMARK Flexibility Score: inf
ROOT
ATOM      1  C   UNL A   1      32.926  31.210  26.801  1.00  0.00     0.042 C 
ENDROOT
BRANCH   1   2
ATOM      2  C   UNL A   1      32.676  29.820  27.368  1.00  0.00     0.117 C 
BRANCH   2   3
ATOM      3  N   UNL A   1      33.473  28.776  26.751  1.00  0.00    -0.356 N 
ATOM      4  C   UNL A   1      33.188  27.534  26.290  1.00  0.00     0.227 C 
ATOM      5  O   UNL A   1      34.151  26.904  25.832  1.00  0.00    -0.275 OA
ATOM      6  H   UNL A   1      34.420  29.022  26.644  1.00  0.00     0.163 HD
BRANCH   4   7
ATOM      7  C   UNL A   1      31.817  26.893  26.264  1.00  0.00     0.129 C 
ATOM      8  C   UNL A   1      30.767  27.122  25.152  1.00  0.00     0.127 C 
ATOM      9  C   UNL A   1      29.987  25.782  25.288  1.00  0.00     0.186 C 
ATOM     10  O   UNL A   1      30.936  24.775  25.660  1.00  0.00    -0.378 OA
ATOM     11  C   UNL A   1      31.842  25.399  26.561  1.00  0.00     0.176 C 
BRANCH   8  12
ATOM     12  N   UNL A   1      31.201  27.558  23.783  1.00  0.00    -0.319 N 
BRANCH  12  13
ATOM     13  C   UNL A   1      32.065  26.636  23.022  1.00  0.00     0.118 C 
ATOM     14  C   UNL A   1      31.543  26.220  21.647  1.00  0.00     0.027 C 
ENDBRANCH  12  13
BRANCH  12  15
ATOM     15  C   UNL A   1      31.339  28.920  23.582  1.00  0.00     0.318 C 
ATOM     16  O   UNL A   1      32.375  29.523  23.873  1.00  0.00    -0.249 OA
ATOM     17  N   UNL A   1      30.289  29.717  23.289  1.00  0.00    -0.333 N 
ATOM     18  H   UNL A   1      30.193  30.448  23.942  1.00  0.00     0.165 HD
BRANCH  17  19
ATOM     19  C   UNL A   1      29.250  29.775  22.250  1.00  0.00     0.112 C 
ATOM     20  C   UNL A   1      28.872  31.234  22.011  1.00  0.00     0.056 C 
ATOM     21  C   UNL A   1      27.871  29.290  22.659  1.00  0.00     0.185 C 
ATOM     22  C   UNL A   1      27.867  31.535  23.116  1.00  0.00     0.162 C 
ATOM     23  O   UNL A   1      27.254  30.293  23.473  1.00  0.00    -0.379 OA
ENDBRANCH  17  19
ENDBRANCH  12  15
ENDBRANCH   8  12
ENDBRANCH   4   7
ENDBRANCH   2   3
ENDBRANCH   1   2
BRANCH   1  24
ATOM     24  C   UNL A   1      31.862  32.306  26.993  1.00  0.00     0.118 C 
BRANCH  24  25
ATOM     25  N   UNL A   1      32.462  33.612  27.247  1.00  0.00    -0.352 N 
ATOM     26  C   UNL A   1      33.563  34.036  27.958  1.00  0.00     0.251 C 
ATOM     27  H   UNL A   1      31.975  34.350  26.817  1.00  0.00     0.163 HD
ATOM     28  O   UNL A   1      33.659  35.248  28.165  1.00  0.00    -0.269 OA
BRANCH  26  29
ATOM     29  C   UNL A   1      34.637  33.145  28.489  1.00  0.00     0.039 A 
ATOM     30  C   UNL A   1      34.353  32.377  29.636  1.00  0.00     0.014 A 
ATOM     31  C   UNL A   1      35.936  33.111  27.981  1.00  0.00     0.014 A 
ATOM     32  C   UNL A   1      35.334  31.569  30.247  1.00  0.00     0.010 A 
ATOM     33  C   UNL A   1      36.912  32.285  28.580  1.00  0.00     0.010 A 
ATOM     34  C   UNL A   1      36.633  31.511  29.728  1.00  0.00    -0.014 A 
BRANCH  34  35
ATOM     35  C   UNL A   1      37.740  30.754  30.405  1.00  0.00     0.031 A 
ATOM     36  C   UNL A   1      38.192  31.182  31.779  1.00  0.00     0.074 A 
ATOM     37  C   UNL A   1      38.406  29.742  29.809  1.00  0.00     0.049 A 
ATOM     38  N   UNL A   1      39.236  30.797  32.468  1.00  0.00    -0.248 NA
ATOM     39  C   UNL A   1      37.348  32.171  32.465  1.00  0.00     0.031 C 
ATOM     40  C   UNL A   1      38.062  29.144  28.526  1.00  0.00     0.029 A 
ATOM     41  N   UNL A   1      39.553  29.071  30.184  1.00  0.00    -0.354 N 
ATOM     42  C   UNL A   1      39.190  31.511  33.658  1.00  0.00     0.074 A 
ATOM     43  C   UNL A   1      38.031  32.376  33.582  1.00  0.00     0.031 C 
ATOM     44  C   UNL A   1      39.030  28.283  28.162  1.00  0.00     0.029 A 
ATOM     45  C   UNL A   1      40.059  28.249  29.199  1.00  0.00     0.049 A 
ATOM     46  H   UNL A   1      39.970  29.171  31.070  1.00  0.00     0.167 HD
ATOM     47  C   UNL A   1      40.013  31.440  34.733  1.00  0.00     0.034 A 
ATOM     48  C   UNL A   1      41.220  27.561  29.122  1.00  0.00     0.034 A 
ATOM     49  C   UNL A   1      41.152  30.569  34.840  1.00  0.00     0.049 A 
ATOM     50  C   UNL A   1      42.166  27.551  30.298  1.00  0.00     0.074 A 
ATOM     51  C   UNL A   1      42.013  30.411  35.913  1.00  0.00     0.029 A 
ATOM     52  N   UNL A   1      41.600  29.717  33.844  1.00  0.00    -0.354 N 
ATOM     53  N   UNL A   1      42.050  28.157  31.453  1.00  0.00    -0.248 NA
ATOM     54  C   UNL A   1      43.378  26.720  30.183  1.00  0.00     0.031 C 
ATOM     55  C   UNL A   1      43.000  29.488  35.555  1.00  0.00     0.029 A 
ATOM     56  C   UNL A   1      42.730  29.041  34.273  1.00  0.00     0.049 A 
ATOM     57  H   UNL A   1      41.177  29.609  32.962  1.00  0.00     0.167 HD
ATOM     58  C   UNL A   1      43.134  27.733  32.218  1.00  0.00     0.074 A 
ATOM     59  C   UNL A   1      43.898  26.820  31.399  1.00  0.00     0.031 C 
ATOM     60  C   UNL A   1      43.458  28.077  33.489  1.00  0.00     0.034 A 
BRANCH  47  61
ATOM     61  C   UNL A   1      39.689  32.321  35.910  1.00  0.00     0.023 A 
ATOM     62  C   UNL A   1      40.308  33.583  36.027  1.00  0.00     0.012 A 
ATOM     63  C   UNL A   1      38.736  31.925  36.868  1.00  0.00     0.148 A 
ATOM     64  C   UNL A   1      40.014  34.420  37.101  1.00  0.00     0.002 A 
ATOM     65  C   UNL A   1      38.413  32.785  37.910  1.00  0.00     0.091 A 
ATOM     66  F   UNL A   1      38.172  30.715  36.746  1.00  0.00    -0.205 F 
ATOM     67  C   UNL A   1      39.060  34.025  38.036  1.00  0.00     0.022 A 
BRANCH  65  68
ATOM     68  S   UNL A   1      37.142  32.407  39.119  1.00  0.00     0.127 S 
ATOM     69  O   UNL A   1      37.428  31.005  39.419  1.00  0.00    -0.237 OA
ATOM     70  O   UNL A   1      37.455  33.340  40.199  1.00  0.00    -0.237 OA
ATOM     71  O   UNL A   1      35.867  32.653  38.453  1.00  0.00    -0.744 OA
ENDBRANCH  65  68
ENDBRANCH  47  61
BRANCH  48  72
ATOM     72  C   UNL A   1      41.559  26.786  27.891  1.00  0.00     0.023 A 
ATOM     73  C   UNL A   1      42.095  27.449  26.770  1.00  0.00     0.012 A 
ATOM     74  C   UNL A   1      41.325  25.398  27.818  1.00  0.00     0.148 A 
ATOM     75  C   UNL A   1      42.351  26.755  25.585  1.00  0.00     0.002 A 
ATOM     76  C   UNL A   1      41.630  24.703  26.652  1.00  0.00     0.091 A 
ATOM     77  F   UNL A   1      40.801  24.787  28.890  1.00  0.00    -0.205 F 
ATOM     78  C   UNL A   1      42.125  25.382  25.528  1.00  0.00     0.022 A 
BRANCH  76  79
ATOM     79  S   UNL A   1      41.480  22.918  26.524  1.00  0.00     0.127 S 
ATOM     80  O   UNL A   1      42.190  22.647  25.277  1.00  0.00    -0.237 OA
ATOM     81  O   UNL A   1      42.169  22.474  27.736  1.00  0.00    -0.237 OA
ATOM     82  O   UNL A   1      40.050  22.646  26.510  1.00  0.00    -0.744 OA
ENDBRANCH  76  79
ENDBRANCH  48  72
BRANCH  60  83
ATOM     83  C   UNL A   1      44.658  27.424  34.129  1.00  0.00     0.023 A 
ATOM     84  C   UNL A   1      45.919  28.047  34.078  1.00  0.00     0.012 A 
ATOM     85  C   UNL A   1      44.504  26.237  34.878  1.00  0.00     0.148 A 
ATOM     86  C   UNL A   1      47.012  27.493  34.746  1.00  0.00     0.002 A 
ATOM     87  C   UNL A   1      45.585  25.719  35.582  1.00  0.00     0.091 A 
ATOM     88  F   UNL A   1      43.300  25.649  34.899  1.00  0.00    -0.205 F 
ATOM     89  C   UNL A   1      46.842  26.339  35.508  1.00  0.00     0.022 A 
BRANCH  87  90
ATOM     90  S   UNL A   1      45.440  24.294  36.668  1.00  0.00     0.127 S 
ATOM     91  O   UNL A   1      44.899  23.282  35.762  1.00  0.00    -0.237 OA
ATOM     92  O   UNL A   1      46.830  24.072  37.069  1.00  0.00    -0.237 OA
ATOM     93  O   UNL A   1      44.552  24.699  37.749  1.00  0.00    -0.744 OA
ENDBRANCH  87  90
ENDBRANCH  60  83
ENDBRANCH  34  35
ENDBRANCH  26  29
ENDBRANCH  24  25
ENDBRANCH   1  24
TORSDOF 17
ENDMDL
