MODEL 1
REMARK VINA RESULT:     -11.9      0.000      0.000
REMARK SMILES C[C@H]1[C@@H](C(=O)NCCCNC(=O)c2ccc(-c3c4nc(c(-c5cccc(S(=O)(=O)[O-])c5F)c5ccc([nH]5)c(-c5cccc(S(=O)(=O)[O-])c5F)c5nc(c(-c6cccc(S(=O)(=O)[O-])c6F)c6ccc3[nH]6)C=C5)C=C4)cc2)CCN1C(=O)NCC(C1CC1)C1CC1
REMARK SMILES IDX 7 1 6 2 4 3 5 4 3 6 1 7 2 8 78 9 76 10 77 11 79 12 80 13
REMARK SMILES IDX 81 14 82 16 83 17 84 18 85 19 86 20 87 21 88 22 89 23 8 24
REMARK SMILES IDX 9 25 10 26 11 27 12 29 13 30 14 31 75 32 15 33 74 34 16 35
REMARK SMILES IDX 17 36 18 37 68 38 19 39 73 40 67 41 69 42 20 43 72 44 66 45
REMARK SMILES IDX 65 46 21 48 53 49 33 50 52 51 34 52 37 53 51 54 70 55 35 56
REMARK SMILES IDX 36 57 50 59 71 60 38 61 22 62 23 63 31 64 24 65 26 66 32 67
REMARK SMILES IDX 25 68 27 69 28 70 29 71 30 72 54 73 55 74 63 75 56 76 58 77
REMARK SMILES IDX 64 78 57 79 59 80 60 81 61 82 62 83 39 84 40 85 48 86 41 87
REMARK SMILES IDX 43 88 49 89 42 90 44 91 45 92 46 93 47 94
REMARK H PARENT 6 5 81 15 10 28 69 47 37 58
REMARK Flexibility Score: inf
ROOT
ATOM      1  C   UNL A   1      34.216  22.443  25.257  1.00  0.00     0.117 C 
ENDROOT
BRANCH   1   2
ATOM      2  N   UNL A   1      33.112  22.637  26.191  1.00  0.00    -0.356 N 
ATOM      3  C   UNL A   1      32.318  23.708  26.481  1.00  0.00     0.225 C 
ATOM      4  O   UNL A   1      31.468  23.531  27.357  1.00  0.00    -0.275 OA
ATOM      5  H   UNL A   1      32.896  21.834  26.717  1.00  0.00     0.163 HD
BRANCH   3   6
ATOM      6  C   UNL A   1      32.380  25.010  25.686  1.00  0.00     0.102 C 
ATOM      7  C   UNL A   1      31.769  23.704  23.500  1.00  0.00     0.032 C 
ATOM      8  C   UNL A   1      31.854  25.033  24.242  1.00  0.00     0.096 C 
ATOM      9  N   UNL A   1      32.758  25.887  23.495  1.00  0.00    -0.321 N 
ATOM     10  C   UNL A   1      33.793  25.629  25.585  1.00  0.00     0.037 C 
ATOM     11  C   UNL A   1      34.071  25.787  24.099  1.00  0.00     0.122 C 
BRANCH   9  12
ATOM     12  C   UNL A   1      32.605  26.452  22.263  1.00  0.00     0.317 C 
ATOM     13  O   UNL A   1      33.448  26.283  21.376  1.00  0.00    -0.249 OA
ATOM     14  N   UNL A   1      31.534  27.208  21.931  1.00  0.00    -0.338 N 
ATOM     15  H   UNL A   1      31.602  27.544  21.008  1.00  0.00     0.165 HD
BRANCH  14  16
ATOM     16  C   UNL A   1      30.298  27.658  22.575  1.00  0.00     0.121 C 
BRANCH  16  17
ATOM     17  C   UNL A   1      30.443  29.023  23.282  1.00  0.00     0.014 C 
BRANCH  17  18
ATOM     18  C   UNL A   1      29.143  29.798  23.406  1.00  0.00    -0.006 C 
ATOM     19  C   UNL A   1      29.022  31.285  23.650  1.00  0.00     0.004 C 
ATOM     20  C   UNL A   1      28.707  30.722  22.292  1.00  0.00     0.004 C 
ENDBRANCH  17  18
BRANCH  17  21
ATOM     21  C   UNL A   1      31.105  28.975  24.659  1.00  0.00    -0.006 C 
ATOM     22  C   UNL A   1      32.581  29.219  24.873  1.00  0.00     0.004 C 
ATOM     23  C   UNL A   1      31.573  30.196  25.418  1.00  0.00     0.004 C 
ENDBRANCH  17  21
ENDBRANCH  16  17
ENDBRANCH  14  16
ENDBRANCH   9  12
ENDBRANCH   3   6
ENDBRANCH   1   2
BRANCH   1  24
ATOM     24  C   UNL A   1      35.378  21.671  25.892  1.00  0.00     0.042 C 
BRANCH  24  25
ATOM     25  C   UNL A   1      36.750  22.312  25.752  1.00  0.00     0.118 C 
BRANCH  25  26
ATOM     26  N   UNL A   1      37.823  21.358  25.945  1.00  0.00    -0.352 N 
ATOM     27  C   UNL A   1      39.145  21.534  26.282  1.00  0.00     0.251 C 
ATOM     28  H   UNL A   1      37.560  20.418  25.811  1.00  0.00     0.163 HD
ATOM     29  O   UNL A   1      39.899  20.570  26.150  1.00  0.00    -0.269 OA
BRANCH  27  30
ATOM     30  C   UNL A   1      39.695  22.826  26.782  1.00  0.00     0.039 A 
ATOM     31  C   UNL A   1      39.215  24.011  26.208  1.00  0.00     0.014 A 
ATOM     32  C   UNL A   1      40.732  22.911  27.715  1.00  0.00     0.014 A 
ATOM     33  C   UNL A   1      39.748  25.253  26.579  1.00  0.00     0.010 A 
ATOM     34  C   UNL A   1      41.190  24.155  28.162  1.00  0.00     0.010 A 
ATOM     35  C   UNL A   1      40.733  25.342  27.576  1.00  0.00    -0.014 A 
BRANCH  35  36
ATOM     36  C   UNL A   1      41.312  26.658  27.975  1.00  0.00     0.031 A 
ATOM     37  C   UNL A   1      42.758  26.985  27.683  1.00  0.00     0.074 A 
ATOM     38  C   UNL A   1      40.554  27.552  28.643  1.00  0.00     0.049 A 
ATOM     39  N   UNL A   1      43.433  28.072  27.966  1.00  0.00    -0.248 NA
ATOM     40  C   UNL A   1      43.559  25.948  27.013  1.00  0.00     0.031 C 
ATOM     41  C   UNL A   1      39.170  27.335  29.067  1.00  0.00     0.029 A 
ATOM     42  N   UNL A   1      40.847  28.812  29.104  1.00  0.00    -0.354 N 
ATOM     43  C   UNL A   1      44.736  27.836  27.543  1.00  0.00     0.074 A 
ATOM     44  C   UNL A   1      44.770  26.487  27.023  1.00  0.00     0.031 C 
ATOM     45  C   UNL A   1      38.731  28.426  29.715  1.00  0.00     0.029 A 
ATOM     46  C   UNL A   1      39.808  29.411  29.778  1.00  0.00     0.049 A 
ATOM     47  H   UNL A   1      41.720  29.247  28.966  1.00  0.00     0.167 HD
ATOM     48  C   UNL A   1      45.804  28.672  27.548  1.00  0.00     0.034 A 
ATOM     49  C   UNL A   1      39.727  30.613  30.383  1.00  0.00     0.034 A 
ATOM     50  C   UNL A   1      45.764  30.030  28.018  1.00  0.00     0.049 A 
ATOM     51  C   UNL A   1      40.906  31.546  30.325  1.00  0.00     0.074 A 
ATOM     52  C   UNL A   1      46.767  30.983  27.987  1.00  0.00     0.029 A 
ATOM     53  N   UNL A   1      44.663  30.631  28.611  1.00  0.00    -0.354 N 
ATOM     54  N   UNL A   1      42.080  31.358  29.773  1.00  0.00    -0.248 NA
ATOM     55  C   UNL A   1      40.735  32.872  30.935  1.00  0.00     0.031 C 
ATOM     56  C   UNL A   1      46.278  32.154  28.577  1.00  0.00     0.029 A 
ATOM     57  C   UNL A   1      44.962  31.939  28.952  1.00  0.00     0.049 A 
ATOM     58  H   UNL A   1      43.795  30.191  28.764  1.00  0.00     0.167 HD
ATOM     59  C   UNL A   1      42.776  32.549  29.945  1.00  0.00     0.074 A 
ATOM     60  C   UNL A   1      41.880  33.463  30.624  1.00  0.00     0.031 C 
ATOM     61  C   UNL A   1      44.049  32.854  29.588  1.00  0.00     0.034 A 
BRANCH  48  62
ATOM     62  C   UNL A   1      47.098  28.158  26.966  1.00  0.00     0.023 A 
ATOM     63  C   UNL A   1      48.133  27.745  27.831  1.00  0.00     0.012 A 
ATOM     64  C   UNL A   1      47.276  28.032  25.573  1.00  0.00     0.148 A 
ATOM     65  C   UNL A   1      49.335  27.256  27.324  1.00  0.00     0.002 A 
ATOM     66  C   UNL A   1      48.461  27.500  25.075  1.00  0.00     0.091 A 
ATOM     67  F   UNL A   1      46.291  28.444  24.763  1.00  0.00    -0.205 F 
ATOM     68  C   UNL A   1      49.495  27.124  25.947  1.00  0.00     0.022 A 
BRANCH  66  69
ATOM     69  S   UNL A   1      48.735  27.214  23.323  1.00  0.00     0.127 S 
ATOM     70  O   UNL A   1      50.195  27.127  23.264  1.00  0.00    -0.237 OA
ATOM     71  O   UNL A   1      48.040  25.945  23.104  1.00  0.00    -0.237 OA
ATOM     72  O   UNL A   1      48.149  28.354  22.633  1.00  0.00    -0.744 OA
ENDBRANCH  66  69
ENDBRANCH  48  62
BRANCH  49  73
ATOM     73  C   UNL A   1      38.452  31.028  31.037  1.00  0.00     0.023 A 
ATOM     74  C   UNL A   1      38.283  30.830  32.420  1.00  0.00     0.012 A 
ATOM     75  C   UNL A   1      37.425  31.651  30.302  1.00  0.00     0.148 A 
ATOM     76  C   UNL A   1      37.103  31.218  33.057  1.00  0.00     0.002 A 
ATOM     77  C   UNL A   1      36.277  32.089  30.952  1.00  0.00     0.091 A 
ATOM     78  F   UNL A   1      37.599  31.818  28.984  1.00  0.00    -0.205 F 
ATOM     79  C   UNL A   1      36.107  31.858  32.326  1.00  0.00     0.022 A 
BRANCH  77  80
ATOM     80  S   UNL A   1      35.009  33.049  30.116  1.00  0.00     0.127 S 
ATOM     81  O   UNL A   1      34.505  32.087  29.137  1.00  0.00    -0.237 OA
ATOM     82  O   UNL A   1      34.087  33.349  31.216  1.00  0.00    -0.237 OA
ATOM     83  O   UNL A   1      35.690  34.212  29.574  1.00  0.00    -0.744 OA
ENDBRANCH  77  80
ENDBRANCH  49  73
BRANCH  61  84
ATOM     84  C   UNL A   1      44.547  34.241  29.901  1.00  0.00     0.023 A 
ATOM     85  C   UNL A   1      45.211  34.489  31.119  1.00  0.00     0.012 A 
ATOM     86  C   UNL A   1      44.410  35.286  28.966  1.00  0.00     0.148 A 
ATOM     87  C   UNL A   1      45.696  35.761  31.418  1.00  0.00     0.002 A 
ATOM     88  C   UNL A   1      44.938  36.540  29.250  1.00  0.00     0.091 A 
ATOM     89  F   UNL A   1      43.758  35.039  27.820  1.00  0.00    -0.205 F 
ATOM     90  C   UNL A   1      45.569  36.783  30.481  1.00  0.00     0.022 A 
BRANCH  88  91
ATOM     91  S   UNL A   1      44.904  37.888  28.063  1.00  0.00     0.127 S 
ATOM     92  O   UNL A   1      45.646  37.317  26.942  1.00  0.00    -0.237 OA
ATOM     93  O   UNL A   1      43.471  38.056  27.823  1.00  0.00    -0.237 OA
ATOM     94  O   UNL A   1      45.540  39.019  28.726  1.00  0.00    -0.744 OA
ENDBRANCH  88  91
ENDBRANCH  61  84
ENDBRANCH  35  36
ENDBRANCH  27  30
ENDBRANCH  25  26
ENDBRANCH  24  25
ENDBRANCH   1  24
TORSDOF 18
ENDMDL
MODEL 2
REMARK VINA RESULT:     -11.5      5.180     10.514
REMARK SMILES C[C@H]1[C@@H](C(=O)NCCCNC(=O)c2ccc(-c3c4nc(c(-c5cccc(S(=O)(=O)[O-])c5F)c5ccc([nH]5)c(-c5cccc(S(=O)(=O)[O-])c5F)c5nc(c(-c6cccc(S(=O)(=O)[O-])c6F)c6ccc3[nH]6)C=C5)C=C4)cc2)CCN1C(=O)NCC(C1CC1)C1CC1
REMARK SMILES IDX 7 1 6 2 4 3 5 4 3 6 1 7 2 8 78 9 76 10 77 11 79 12 80 13
REMARK SMILES IDX 81 14 82 16 83 17 84 18 85 19 86 20 87 21 88 22 89 23 8 24
REMARK SMILES IDX 9 25 10 26 11 27 12 29 13 30 14 31 75 32 15 33 74 34 16 35
REMARK SMILES IDX 17 36 18 37 68 38 19 39 73 40 67 41 69 42 20 43 72 44 66 45
REMARK SMILES IDX 65 46 21 48 53 49 33 50 52 51 34 52 37 53 51 54 70 55 35 56
REMARK SMILES IDX 36 57 50 59 71 60 38 61 22 62 23 63 31 64 24 65 26 66 32 67
REMARK SMILES IDX 25 68 27 69 28 70 29 71 30 72 54 73 55 74 63 75 56 76 58 77
REMARK SMILES IDX 64 78 57 79 59 80 60 81 61 82 62 83 39 84 40 85 48 86 41 87
REMARK SMILES IDX 43 88 49 89 42 90 44 91 45 92 46 93 47 94
REMARK H PARENT 6 5 81 15 10 28 69 47 37 58
REMARK Flexibility Score: inf
ROOT
ATOM      1  C   UNL A   1      33.377  30.044  26.851  1.00  0.00     0.117 C 
ENDROOT
BRANCH   1   2
ATOM      2  N   UNL A   1      33.327  29.760  25.421  1.00  0.00    -0.356 N 
ATOM      3  C   UNL A   1      32.763  28.754  24.692  1.00  0.00     0.225 C 
ATOM      4  O   UNL A   1      32.927  28.811  23.470  1.00  0.00    -0.275 OA
ATOM      5  H   UNL A   1      33.793  30.430  24.871  1.00  0.00     0.163 HD
BRANCH   3   6
ATOM      6  C   UNL A   1      31.870  27.689  25.324  1.00  0.00     0.102 C 
ATOM      7  C   UNL A   1      33.917  26.060  25.468  1.00  0.00     0.032 C 
ATOM      8  C   UNL A   1      32.516  26.438  25.940  1.00  0.00     0.096 C 
ATOM      9  N   UNL A   1      31.640  25.328  25.617  1.00  0.00    -0.321 N 
ATOM     10  C   UNL A   1      30.782  27.128  24.380  1.00  0.00     0.037 C 
ATOM     11  C   UNL A   1      30.989  25.622  24.357  1.00  0.00     0.122 C 
BRANCH   9  12
ATOM     12  C   UNL A   1      31.601  24.068  26.137  1.00  0.00     0.317 C 
ATOM     13  O   UNL A   1      31.134  23.859  27.262  1.00  0.00    -0.249 OA
ATOM     14  N   UNL A   1      32.047  22.982  25.466  1.00  0.00    -0.338 N 
ATOM     15  H   UNL A   1      31.955  22.163  26.004  1.00  0.00     0.165 HD
BRANCH  14  16
ATOM     16  C   UNL A   1      32.629  22.698  24.152  1.00  0.00     0.121 C 
BRANCH  16  17
ATOM     17  C   UNL A   1      33.800  21.695  24.210  1.00  0.00     0.014 C 
BRANCH  17  18
ATOM     18  C   UNL A   1      35.092  22.282  24.755  1.00  0.00    -0.006 C 
ATOM     19  C   UNL A   1      36.484  21.773  24.462  1.00  0.00     0.004 C 
ATOM     20  C   UNL A   1      36.012  23.058  23.841  1.00  0.00     0.004 C 
ENDBRANCH  17  18
BRANCH  17  21
ATOM     21  C   UNL A   1      33.509  20.397  24.964  1.00  0.00    -0.006 C 
ATOM     22  C   UNL A   1      32.565  19.337  24.446  1.00  0.00     0.004 C 
ATOM     23  C   UNL A   1      34.038  19.041  24.554  1.00  0.00     0.004 C 
ENDBRANCH  17  21
ENDBRANCH  16  17
ENDBRANCH  14  16
ENDBRANCH   9  12
ENDBRANCH   3   6
ENDBRANCH   1   2
BRANCH   1  24
ATOM     24  C   UNL A   1      33.520  31.543  27.135  1.00  0.00     0.042 C 
BRANCH  24  25
ATOM     25  C   UNL A   1      32.219  32.330  27.191  1.00  0.00     0.118 C 
BRANCH  25  26
ATOM     26  N   UNL A   1      32.430  33.710  27.578  1.00  0.00    -0.352 N 
ATOM     27  C   UNL A   1      33.374  34.290  28.394  1.00  0.00     0.251 C 
ATOM     28  H   UNL A   1      31.785  34.345  27.189  1.00  0.00     0.163 HD
ATOM     29  O   UNL A   1      33.185  35.455  28.743  1.00  0.00    -0.269 OA
BRANCH  27  30
ATOM     30  C   UNL A   1      34.590  33.574  28.873  1.00  0.00     0.039 A 
ATOM     31  C   UNL A   1      34.448  32.686  29.950  1.00  0.00     0.014 A 
ATOM     32  C   UNL A   1      35.872  33.816  28.376  1.00  0.00     0.014 A 
ATOM     33  C   UNL A   1      35.566  32.042  30.497  1.00  0.00     0.010 A 
ATOM     34  C   UNL A   1      36.972  33.094  28.852  1.00  0.00     0.010 A 
ATOM     35  C   UNL A   1      36.842  32.224  29.943  1.00  0.00    -0.014 A 
BRANCH  35  36
ATOM     36  C   UNL A   1      38.040  31.548  30.521  1.00  0.00     0.031 A 
ATOM     37  C   UNL A   1      38.598  31.976  31.858  1.00  0.00     0.074 A 
ATOM     38  C   UNL A   1      38.663  30.574  29.826  1.00  0.00     0.049 A 
ATOM     39  N   UNL A   1      39.635  31.510  32.509  1.00  0.00    -0.248 NA
ATOM     40  C   UNL A   1      37.921  33.089  32.543  1.00  0.00     0.031 C 
ATOM     41  C   UNL A   1      38.287  30.119  28.487  1.00  0.00     0.029 A 
ATOM     42  N   UNL A   1      39.758  29.806  30.140  1.00  0.00    -0.354 N 
ATOM     43  C   UNL A   1      39.755  32.292  33.652  1.00  0.00     0.074 A 
ATOM     44  C   UNL A   1      38.711  33.290  33.588  1.00  0.00     0.031 C 
ATOM     45  C   UNL A   1      39.127  29.147  28.098  1.00  0.00     0.029 A 
ATOM     46  C   UNL A   1      40.120  28.926  29.146  1.00  0.00     0.049 A 
ATOM     47  H   UNL A   1      40.240  29.879  30.995  1.00  0.00     0.167 HD
ATOM     48  C   UNL A   1      40.626  32.173  34.684  1.00  0.00     0.034 A 
ATOM     49  C   UNL A   1      41.136  28.042  29.080  1.00  0.00     0.034 A 
ATOM     50  C   UNL A   1      41.634  31.152  34.777  1.00  0.00     0.049 A 
ATOM     51  C   UNL A   1      42.055  27.888  30.262  1.00  0.00     0.074 A 
ATOM     52  C   UNL A   1      42.508  30.895  35.819  1.00  0.00     0.029 A 
ATOM     53  N   UNL A   1      41.909  30.218  33.789  1.00  0.00    -0.354 N 
ATOM     54  N   UNL A   1      42.045  28.533  31.403  1.00  0.00    -0.248 NA
ATOM     55  C   UNL A   1      43.097  26.857  30.164  1.00  0.00     0.031 C 
ATOM     56  C   UNL A   1      43.324  29.818  35.453  1.00  0.00     0.029 A 
ATOM     57  C   UNL A   1      42.940  29.388  34.194  1.00  0.00     0.049 A 
ATOM     58  H   UNL A   1      41.438  30.156  32.926  1.00  0.00     0.167 HD
ATOM     59  C   UNL A   1      43.059  27.967  32.168  1.00  0.00     0.074 A 
ATOM     60  C   UNL A   1      43.641  26.906  31.371  1.00  0.00     0.031 C 
ATOM     61  C   UNL A   1      43.483  28.306  33.411  1.00  0.00     0.034 A 
BRANCH  48  62
ATOM     62  C   UNL A   1      40.485  33.141  35.835  1.00  0.00     0.023 A 
ATOM     63  C   UNL A   1      41.090  34.412  35.752  1.00  0.00     0.012 A 
ATOM     64  C   UNL A   1      39.714  32.820  36.970  1.00  0.00     0.148 A 
ATOM     65  C   UNL A   1      40.969  35.330  36.793  1.00  0.00     0.002 A 
ATOM     66  C   UNL A   1      39.559  33.758  37.985  1.00  0.00     0.091 A 
ATOM     67  F   UNL A   1      39.159  31.602  37.043  1.00  0.00    -0.205 F 
ATOM     68  C   UNL A   1      40.196  35.008  37.904  1.00  0.00     0.022 A 
BRANCH  66  69
ATOM     69  S   UNL A   1      38.518  33.472  39.422  1.00  0.00     0.127 S 
ATOM     70  O   UNL A   1      39.228  32.378  40.085  1.00  0.00    -0.237 OA
ATOM     71  O   UNL A   1      38.592  34.757  40.118  1.00  0.00    -0.237 OA
ATOM     72  O   UNL A   1      37.200  33.137  38.902  1.00  0.00    -0.744 OA
ENDBRANCH  66  69
ENDBRANCH  48  62
BRANCH  49  73
ATOM     73  C   UNL A   1      41.291  27.183  27.871  1.00  0.00     0.023 A 
ATOM     74  C   UNL A   1      41.911  27.706  26.720  1.00  0.00     0.012 A 
ATOM     75  C   UNL A   1      40.864  25.841  27.870  1.00  0.00     0.148 A 
ATOM     76  C   UNL A   1      42.077  26.920  25.579  1.00  0.00     0.002 A 
ATOM     77  C   UNL A   1      41.085  25.045  26.751  1.00  0.00     0.091 A 
ATOM     78  F   UNL A   1      40.264  25.365  28.970  1.00  0.00    -0.205 F 
ATOM     79  C   UNL A   1      41.675  25.587  25.599  1.00  0.00     0.022 A 
BRANCH  77  80
ATOM     80  S   UNL A   1      40.732  23.284  26.744  1.00  0.00     0.127 S 
ATOM     81  O   UNL A   1      41.138  22.892  28.093  1.00  0.00    -0.237 OA
ATOM     82  O   UNL A   1      39.285  23.270  26.508  1.00  0.00    -0.237 OA
ATOM     83  O   UNL A   1      41.520  22.729  25.657  1.00  0.00    -0.744 OA
ENDBRANCH  77  80
ENDBRANCH  49  73
BRANCH  61  84
ATOM     84  C   UNL A   1      44.615  27.509  34.004  1.00  0.00     0.023 A 
ATOM     85  C   UNL A   1      45.948  27.908  33.774  1.00  0.00     0.012 A 
ATOM     86  C   UNL A   1      44.361  26.399  34.834  1.00  0.00     0.148 A 
ATOM     87  C   UNL A   1      47.008  27.194  34.329  1.00  0.00     0.002 A 
ATOM     88  C   UNL A   1      45.422  25.721  35.424  1.00  0.00     0.091 A 
ATOM     89  F   UNL A   1      43.089  26.021  35.026  1.00  0.00    -0.205 F 
ATOM     90  C   UNL A   1      46.746  26.108  35.162  1.00  0.00     0.022 A 
BRANCH  88  91
ATOM     91  S   UNL A   1      45.173  24.372  36.583  1.00  0.00     0.127 S 
ATOM     92  O   UNL A   1      44.577  23.349  35.727  1.00  0.00    -0.237 OA
ATOM     93  O   UNL A   1      46.538  24.081  37.021  1.00  0.00    -0.237 OA
ATOM     94  O   UNL A   1      44.305  24.899  37.629  1.00  0.00    -0.744 OA
ENDBRANCH  88  91
ENDBRANCH  61  84
ENDBRANCH  35  36
ENDBRANCH  27  30
ENDBRANCH  25  26
ENDBRANCH  24  25
ENDBRANCH   1  24
TORSDOF 18
ENDMDL
MODEL 3
REMARK VINA RESULT:     -11.5      5.664      8.749
REMARK SMILES C[C@H]1[C@@H](C(=O)NCCCNC(=O)c2ccc(-c3c4nc(c(-c5cccc(S(=O)(=O)[O-])c5F)c5ccc([nH]5)c(-c5cccc(S(=O)(=O)[O-])c5F)c5nc(c(-c6cccc(S(=O)(=O)[O-])c6F)c6ccc3[nH]6)C=C5)C=C4)cc2)CCN1C(=O)NCC(C1CC1)C1CC1
REMARK SMILES IDX 7 1 6 2 4 3 5 4 3 6 1 7 2 8 78 9 76 10 77 11 79 12 80 13
REMARK SMILES IDX 81 14 82 16 83 17 84 18 85 19 86 20 87 21 88 22 89 23 8 24
REMARK SMILES IDX 9 25 10 26 11 27 12 29 13 30 14 31 75 32 15 33 74 34 16 35
REMARK SMILES IDX 17 36 18 37 68 38 19 39 73 40 67 41 69 42 20 43 72 44 66 45
REMARK SMILES IDX 65 46 21 48 53 49 33 50 52 51 34 52 37 53 51 54 70 55 35 56
REMARK SMILES IDX 36 57 50 59 71 60 38 61 22 62 23 63 31 64 24 65 26 66 32 67
REMARK SMILES IDX 25 68 27 69 28 70 29 71 30 72 54 73 55 74 63 75 56 76 58 77
REMARK SMILES IDX 64 78 57 79 59 80 60 81 61 82 62 83 39 84 40 85 48 86 41 87
REMARK SMILES IDX 43 88 49 89 42 90 44 91 45 92 46 93 47 94
REMARK H PARENT 6 5 81 15 10 28 69 47 37 58
REMARK Flexibility Score: inf
ROOT
ATOM      1  C   UNL A   1      33.611  30.307  27.087  1.00  0.00     0.117 C 
ENDROOT
BRANCH   1   2
ATOM      2  N   UNL A   1      33.574  29.936  25.677  1.00  0.00    -0.356 N 
ATOM      3  C   UNL A   1      33.040  28.872  25.010  1.00  0.00     0.225 C 
ATOM      4  O   UNL A   1      33.206  28.861  23.787  1.00  0.00    -0.275 OA
ATOM      5  H   UNL A   1      34.023  30.584  25.088  1.00  0.00     0.163 HD
BRANCH   3   6
ATOM      6  C   UNL A   1      32.175  27.823  25.703  1.00  0.00     0.102 C 
ATOM      7  C   UNL A   1      34.105  26.069  25.452  1.00  0.00     0.032 C 
ATOM      8  C   UNL A   1      32.815  26.497  26.145  1.00  0.00     0.096 C 
ATOM      9  N   UNL A   1      31.827  25.465  25.891  1.00  0.00    -0.321 N 
ATOM     10  C   UNL A   1      30.928  27.393  24.898  1.00  0.00     0.037 C 
ATOM     11  C   UNL A   1      31.025  25.882  24.759  1.00  0.00     0.122 C 
BRANCH   9  12
ATOM     12  C   UNL A   1      31.777  24.178  26.338  1.00  0.00     0.317 C 
ATOM     13  O   UNL A   1      31.395  23.918  27.483  1.00  0.00    -0.249 OA
ATOM     14  N   UNL A   1      32.119  23.120  25.569  1.00  0.00    -0.338 N 
ATOM     15  H   UNL A   1      32.036  22.273  26.064  1.00  0.00     0.165 HD
BRANCH  14  16
ATOM     16  C   UNL A   1      32.579  22.896  24.197  1.00  0.00     0.121 C 
BRANCH  16  17
ATOM     17  C   UNL A   1      33.793  21.946  24.110  1.00  0.00     0.014 C 
BRANCH  17  18
ATOM     18  C   UNL A   1      35.126  22.619  24.388  1.00  0.00    -0.006 C 
ATOM     19  C   UNL A   1      36.473  21.933  24.405  1.00  0.00     0.004 C 
ATOM     20  C   UNL A   1      36.109  22.838  23.261  1.00  0.00     0.004 C 
ENDBRANCH  17  18
BRANCH  17  21
ATOM     21  C   UNL A   1      33.700  20.690  24.977  1.00  0.00    -0.006 C 
ATOM     22  C   UNL A   1      32.602  19.663  24.824  1.00  0.00     0.004 C 
ATOM     23  C   UNL A   1      34.023  19.296  24.487  1.00  0.00     0.004 C 
ENDBRANCH  17  21
ENDBRANCH  16  17
ENDBRANCH  14  16
ENDBRANCH   9  12
ENDBRANCH   3   6
ENDBRANCH   1   2
BRANCH   1  24
ATOM     24  C   UNL A   1      33.621  31.827  27.283  1.00  0.00     0.042 C 
BRANCH  24  25
ATOM     25  C   UNL A   1      32.256  32.498  27.300  1.00  0.00     0.118 C 
BRANCH  25  26
ATOM     26  N   UNL A   1      32.339  33.898  27.663  1.00  0.00    -0.352 N 
ATOM     27  C   UNL A   1      33.146  34.558  28.561  1.00  0.00     0.251 C 
ATOM     28  H   UNL A   1      31.707  34.481  27.181  1.00  0.00     0.163 HD
ATOM     29  O   UNL A   1      32.849  35.718  28.846  1.00  0.00    -0.269 OA
BRANCH  27  30
ATOM     30  C   UNL A   1      34.337  33.932  29.200  1.00  0.00     0.039 A 
ATOM     31  C   UNL A   1      34.121  33.026  30.248  1.00  0.00     0.014 A 
ATOM     32  C   UNL A   1      35.653  34.277  28.880  1.00  0.00     0.014 A 
ATOM     33  C   UNL A   1      35.202  32.463  30.942  1.00  0.00     0.010 A 
ATOM     34  C   UNL A   1      36.731  33.637  29.501  1.00  0.00     0.010 A 
ATOM     35  C   UNL A   1      36.523  32.749  30.565  1.00  0.00    -0.014 A 
BRANCH  35  36
ATOM     36  C   UNL A   1      37.681  32.160  31.299  1.00  0.00     0.031 A 
ATOM     37  C   UNL A   1      38.470  31.017  30.706  1.00  0.00     0.074 A 
ATOM     38  C   UNL A   1      38.003  32.620  32.526  1.00  0.00     0.049 A 
ATOM     39  N   UNL A   1      39.498  30.375  31.205  1.00  0.00    -0.248 NA
ATOM     40  C   UNL A   1      38.034  30.508  29.396  1.00  0.00     0.031 C 
ATOM     41  C   UNL A   1      37.276  33.660  33.256  1.00  0.00     0.029 A 
ATOM     42  N   UNL A   1      39.012  32.257  33.385  1.00  0.00    -0.354 N 
ATOM     43  C   UNL A   1      39.805  29.371  30.293  1.00  0.00     0.074 A 
ATOM     44  C   UNL A   1      38.829  29.460  29.229  1.00  0.00     0.031 C 
ATOM     45  C   UNL A   1      37.867  33.858  34.445  1.00  0.00     0.029 A 
ATOM     46  C   UNL A   1      38.997  32.943  34.577  1.00  0.00     0.049 A 
ATOM     47  H   UNL A   1      39.683  31.569  33.168  1.00  0.00     0.167 HD
ATOM     48  C   UNL A   1      40.825  28.478  30.311  1.00  0.00     0.034 A 
ATOM     49  C   UNL A   1      39.798  32.848  35.658  1.00  0.00     0.034 A 
ATOM     50  C   UNL A   1      41.826  28.418  31.342  1.00  0.00     0.049 A 
ATOM     51  C   UNL A   1      40.958  31.890  35.632  1.00  0.00     0.074 A 
ATOM     52  C   UNL A   1      42.947  27.608  31.408  1.00  0.00     0.029 A 
ATOM     53  N   UNL A   1      41.829  29.195  32.490  1.00  0.00    -0.354 N 
ATOM     54  N   UNL A   1      41.322  31.063  34.683  1.00  0.00    -0.248 NA
ATOM     55  C   UNL A   1      41.842  31.884  36.806  1.00  0.00     0.031 C 
ATOM     56  C   UNL A   1      43.616  27.882  32.606  1.00  0.00     0.029 A 
ATOM     57  C   UNL A   1      42.927  28.882  33.273  1.00  0.00     0.049 A 
ATOM     58  H   UNL A   1      41.149  29.871  32.715  1.00  0.00     0.167 HD
ATOM     59  C   UNL A   1      42.491  30.459  35.133  1.00  0.00     0.074 A 
ATOM     60  C   UNL A   1      42.790  31.039  36.426  1.00  0.00     0.031 C 
ATOM     61  C   UNL A   1      43.240  29.497  34.538  1.00  0.00     0.034 A 
BRANCH  48  62
ATOM     62  C   UNL A   1      40.946  27.530  29.143  1.00  0.00     0.023 A 
ATOM     63  C   UNL A   1      40.178  26.347  29.126  1.00  0.00     0.012 A 
ATOM     64  C   UNL A   1      41.773  27.828  28.042  1.00  0.00     0.148 A 
ATOM     65  C   UNL A   1      40.261  25.457  28.057  1.00  0.00     0.002 A 
ATOM     66  C   UNL A   1      41.817  26.958  26.957  1.00  0.00     0.091 A 
ATOM     67  F   UNL A   1      42.511  28.947  28.080  1.00  0.00    -0.205 F 
ATOM     68  C   UNL A   1      41.072  25.767  26.969  1.00  0.00     0.022 A 
BRANCH  66  69
ATOM     69  S   UNL A   1      42.766  27.304  25.472  1.00  0.00     0.127 S 
ATOM     70  O   UNL A   1      42.016  28.420  24.897  1.00  0.00    -0.237 OA
ATOM     71  O   UNL A   1      44.075  27.667  26.019  1.00  0.00    -0.237 OA
ATOM     72  O   UNL A   1      42.754  26.075  24.692  1.00  0.00    -0.744 OA
ENDBRANCH  66  69
ENDBRANCH  48  62
BRANCH  49  73
ATOM     73  C   UNL A   1      39.566  33.739  36.831  1.00  0.00     0.023 A 
ATOM     74  C   UNL A   1      39.888  35.107  36.741  1.00  0.00     0.012 A 
ATOM     75  C   UNL A   1      38.992  33.247  38.018  1.00  0.00     0.148 A 
ATOM     76  C   UNL A   1      39.672  35.963  37.822  1.00  0.00     0.002 A 
ATOM     77  C   UNL A   1      38.723  34.116  39.071  1.00  0.00     0.091 A 
ATOM     78  F   UNL A   1      38.704  31.940  38.090  1.00  0.00    -0.205 F 
ATOM     79  C   UNL A   1      39.079  35.470  38.981  1.00  0.00     0.022 A 
BRANCH  77  80
ATOM     80  S   UNL A   1      37.831  33.595  40.540  1.00  0.00     0.127 S 
ATOM     81  O   UNL A   1      38.764  32.636  41.131  1.00  0.00    -0.237 OA
ATOM     82  O   UNL A   1      37.701  34.857  41.274  1.00  0.00    -0.237 OA
ATOM     83  O   UNL A   1      36.573  33.048  40.064  1.00  0.00    -0.744 OA
ENDBRANCH  77  80
ENDBRANCH  49  73
BRANCH  61  84
ATOM     84  C   UNL A   1      44.472  29.024  35.264  1.00  0.00     0.023 A 
ATOM     85  C   UNL A   1      45.723  29.605  34.973  1.00  0.00     0.012 A 
ATOM     86  C   UNL A   1      44.385  28.047  36.276  1.00  0.00     0.148 A 
ATOM     87  C   UNL A   1      46.872  29.195  35.648  1.00  0.00     0.002 A 
ATOM     88  C   UNL A   1      45.526  27.677  36.978  1.00  0.00     0.091 A 
ATOM     89  F   UNL A   1      43.191  27.490  36.527  1.00  0.00    -0.205 F 
ATOM     90  C   UNL A   1      46.772  28.239  36.656  1.00  0.00     0.022 A 
BRANCH  88  91
ATOM     91  S   UNL A   1      45.475  26.524  38.355  1.00  0.00     0.127 S 
ATOM     92  O   UNL A   1      46.515  27.059  39.231  1.00  0.00    -0.237 OA
ATOM     93  O   UNL A   1      44.110  26.695  38.854  1.00  0.00    -0.237 OA
ATOM     94  O   UNL A   1      45.748  25.210  37.785  1.00  0.00    -0.744 OA
ENDBRANCH  88  91
ENDBRANCH  61  84
ENDBRANCH  35  36
ENDBRANCH  27  30
ENDBRANCH  25  26
ENDBRANCH  24  25
ENDBRANCH   1  24
TORSDOF 18
ENDMDL
