MODEL 1
REMARK VINA RESULT:     -12.0      0.000      0.000
REMARK SMILES O=C(NCCCNC(=O)[C@H]1C=C[C@H](NS(=O)(=O)c2ccc(F)c(F)c2F)C1)c1ccc(-c2c3nc(c(-c4cccc(S(=O)(=O)[O-])c4F)c4ccc([nH]4)c(-c4cccc(S(=O)(=O)[O-])c4F)c4nc(c(-c5cccc(S(=O)(=O)[O-])c5F)c5ccc2[nH]5)C=C4)C=C3)cc1
REMARK SMILES IDX 5 1 4 2 3 3 1 4 2 5 28 7 29 8 90 9 30 10 89 11 31 12 32 13
REMARK SMILES IDX 33 14 83 15 34 16 88 17 82 18 84 19 35 20 87 21 81 22 80 23
REMARK SMILES IDX 36 25 68 26 48 27 67 28 49 29 52 30 66 31 85 32 50 33 51 34
REMARK SMILES IDX 65 36 86 37 53 38 37 39 38 40 46 41 39 42 41 43 47 44 40 45
REMARK SMILES IDX 42 46 43 47 44 48 45 49 69 50 70 51 78 52 71 53 73 54 79 55
REMARK SMILES IDX 72 56 74 57 75 58 76 59 77 60 54 61 55 62 63 63 56 64 58 65
REMARK SMILES IDX 64 66 57 67 59 68 60 69 61 70 62 71 6 72 7 73 8 74 9 76
REMARK SMILES IDX 10 77 11 78 27 79 12 80 13 81 14 82 15 84 16 85 17 86 18 87
REMARK SMILES IDX 19 88 25 89 20 90 23 91 26 92 21 93 24 94 22 95
REMARK H PARENT 3 6 84 24 52 35 7 75 14 83
REMARK Flexibility Score: inf
ROOT
ATOM      1  C   UNL A   1      33.847  28.693  24.162  1.00  0.00     0.042 C 
ENDROOT
BRANCH   1   2
ATOM      2  C   UNL A   1      33.137  28.848  25.509  1.00  0.00     0.118 C 
BRANCH   2   3
ATOM      3  N   UNL A   1      32.827  30.237  25.820  1.00  0.00    -0.352 N 
ATOM      4  O   UNL A   1      32.641  32.095  27.050  1.00  0.00    -0.269 OA
ATOM      5  C   UNL A   1      33.281  31.074  26.807  1.00  0.00     0.251 C 
ATOM      6  H   UNL A   1      32.172  30.650  25.211  1.00  0.00     0.163 HD
BRANCH   5   7
ATOM      7  C   UNL A   1      34.512  30.774  27.573  1.00  0.00     0.039 A 
ATOM      8  C   UNL A   1      34.751  29.501  28.089  1.00  0.00     0.014 A 
ATOM      9  C   UNL A   1      35.498  31.762  27.687  1.00  0.00     0.014 A 
ATOM     10  C   UNL A   1      35.907  29.251  28.824  1.00  0.00     0.010 A 
ATOM     11  C   UNL A   1      36.695  31.487  28.358  1.00  0.00     0.010 A 
ATOM     12  C   UNL A   1      36.899  30.237  28.958  1.00  0.00    -0.014 A 
BRANCH  12  13
ATOM     13  C   UNL A   1      38.160  29.904  29.669  1.00  0.00     0.031 A 
ATOM     14  C   UNL A   1      38.428  30.407  31.061  1.00  0.00     0.074 A 
ATOM     15  C   UNL A   1      39.064  29.116  29.053  1.00  0.00     0.049 A 
ATOM     16  N   UNL A   1      39.427  30.123  31.857  1.00  0.00    -0.248 NA
ATOM     17  C   UNL A   1      37.460  31.358  31.631  1.00  0.00     0.031 C 
ATOM     18  C   UNL A   1      38.945  28.615  27.681  1.00  0.00     0.029 A 
ATOM     19  N   UNL A   1      40.249  28.585  29.496  1.00  0.00    -0.354 N 
ATOM     20  C   UNL A   1      39.229  30.882  33.004  1.00  0.00     0.074 A 
ATOM     21  C   UNL A   1      38.020  31.649  32.798  1.00  0.00     0.031 C 
ATOM     22  C   UNL A   1      39.985  27.814  27.412  1.00  0.00     0.029 A 
ATOM     23  C   UNL A   1      40.866  27.770  28.575  1.00  0.00     0.049 A 
ATOM     24  H   UNL A   1      40.622  28.771  30.388  1.00  0.00     0.167 HD
ATOM     25  C   UNL A   1      39.976  30.921  34.134  1.00  0.00     0.034 A 
ATOM     26  C   UNL A   1      42.005  27.057  28.659  1.00  0.00     0.034 A 
ATOM     27  C   UNL A   1      41.151  30.121  34.354  1.00  0.00     0.049 A 
ATOM     28  C   UNL A   1      42.783  27.079  29.944  1.00  0.00     0.074 A 
ATOM     29  C   UNL A   1      41.930  30.030  35.495  1.00  0.00     0.029 A 
ATOM     30  N   UNL A   1      41.722  29.276  33.415  1.00  0.00    -0.354 N 
ATOM     31  N   UNL A   1      42.496  27.684  31.071  1.00  0.00    -0.248 NA
ATOM     32  C   UNL A   1      44.027  26.297  29.979  1.00  0.00     0.031 C 
ATOM     33  C   UNL A   1      42.978  29.137  35.240  1.00  0.00     0.029 A 
ATOM     34  C   UNL A   1      42.846  28.666  33.944  1.00  0.00     0.049 A 
ATOM     35  H   UNL A   1      41.378  29.131  32.503  1.00  0.00     0.167 HD
ATOM     36  C   UNL A   1      43.509  27.340  31.955  1.00  0.00     0.074 A 
ATOM     37  C   UNL A   1      44.403  26.450  31.242  1.00  0.00     0.031 C 
ATOM     38  C   UNL A   1      43.696  27.743  33.237  1.00  0.00     0.034 A 
BRANCH  25  39
ATOM     39  C   UNL A   1      39.514  31.823  35.247  1.00  0.00     0.023 A 
ATOM     40  C   UNL A   1      38.555  31.352  36.166  1.00  0.00     0.012 A 
ATOM     41  C   UNL A   1      40.065  33.107  35.422  1.00  0.00     0.148 A 
ATOM     42  C   UNL A   1      38.133  32.152  37.227  1.00  0.00     0.002 A 
ATOM     43  C   UNL A   1      39.665  33.886  36.502  1.00  0.00     0.091 A 
ATOM     44  F   UNL A   1      40.956  33.550  34.523  1.00  0.00    -0.205 F 
ATOM     45  C   UNL A   1      38.695  33.414  37.400  1.00  0.00     0.022 A 
BRANCH  43  46
ATOM     46  S   UNL A   1      40.385  35.498  36.839  1.00  0.00     0.127 S 
ATOM     47  O   UNL A   1      40.153  35.630  38.276  1.00  0.00    -0.237 OA
ATOM     48  O   UNL A   1      41.785  35.302  36.464  1.00  0.00    -0.237 OA
ATOM     49  O   UNL A   1      39.661  36.436  35.991  1.00  0.00    -0.744 OA
ENDBRANCH  43  46
ENDBRANCH  25  39
BRANCH  26  50
ATOM     50  C   UNL A   1      42.423  26.196  27.517  1.00  0.00     0.023 A 
ATOM     51  C   UNL A   1      43.293  26.722  26.543  1.00  0.00     0.012 A 
ATOM     52  C   UNL A   1      42.017  24.852  27.422  1.00  0.00     0.148 A 
ATOM     53  C   UNL A   1      43.739  25.928  25.484  1.00  0.00     0.002 A 
ATOM     54  C   UNL A   1      42.509  24.051  26.398  1.00  0.00     0.091 A 
ATOM     55  F   UNL A   1      41.169  24.375  28.345  1.00  0.00    -0.205 F 
ATOM     56  C   UNL A   1      43.359  24.590  25.420  1.00  0.00     0.022 A 
BRANCH  54  57
ATOM     57  S   UNL A   1      42.182  22.285  26.333  1.00  0.00     0.127 S 
ATOM     58  O   UNL A   1      43.002  21.869  25.200  1.00  0.00    -0.237 OA
ATOM     59  O   UNL A   1      42.661  21.834  27.640  1.00  0.00    -0.237 OA
ATOM     60  O   UNL A   1      40.740  22.170  26.157  1.00  0.00    -0.744 OA
ENDBRANCH  54  57
ENDBRANCH  26  50
BRANCH  38  61
ATOM     61  C   UNL A   1      44.910  27.218  33.955  1.00  0.00     0.023 A 
ATOM     62  C   UNL A   1      46.084  27.995  33.992  1.00  0.00     0.012 A 
ATOM     63  C   UNL A   1      44.871  25.990  34.643  1.00  0.00     0.148 A 
ATOM     64  C   UNL A   1      47.211  27.546  34.678  1.00  0.00     0.002 A 
ATOM     65  C   UNL A   1      45.985  25.567  35.360  1.00  0.00     0.091 A 
ATOM     66  F   UNL A   1      43.753  25.251  34.575  1.00  0.00    -0.205 F 
ATOM     67  C   UNL A   1      47.158  26.338  35.371  1.00  0.00     0.022 A 
BRANCH  65  68
ATOM     68  S   UNL A   1      45.962  24.067  36.347  1.00  0.00     0.127 S 
ATOM     69  O   UNL A   1      44.840  24.317  37.248  1.00  0.00    -0.237 OA
ATOM     70  O   UNL A   1      45.718  23.029  35.343  1.00  0.00    -0.237 OA
ATOM     71  O   UNL A   1      47.275  23.991  36.975  1.00  0.00    -0.744 OA
ENDBRANCH  65  68
ENDBRANCH  38  61
ENDBRANCH  12  13
ENDBRANCH   5   7
ENDBRANCH   2   3
ENDBRANCH   1   2
BRANCH   1  72
ATOM     72  C   UNL A   1      32.904  28.695  22.965  1.00  0.00     0.117 C 
BRANCH  72  73
ATOM     73  N   UNL A   1      33.266  27.746  21.935  1.00  0.00    -0.356 N 
ATOM     74  C   UNL A   1      32.956  26.439  21.753  1.00  0.00     0.226 C 
ATOM     75  H   UNL A   1      33.847  28.120  21.234  1.00  0.00     0.163 HD
ATOM     76  O   UNL A   1      33.302  25.949  20.673  1.00  0.00    -0.274 OA
BRANCH  74  77
ATOM     77  C   UNL A   1      32.379  25.544  22.864  1.00  0.00     0.103 C 
ATOM     78  C   UNL A   1      30.966  25.624  23.348  1.00  0.00    -0.016 C 
ATOM     79  C   UNL A   1      32.428  24.074  22.385  1.00  0.00     0.042 C 
ATOM     80  C   UNL A   1      30.416  24.412  23.501  1.00  0.00    -0.011 C 
ATOM     81  C   UNL A   1      31.358  23.303  23.150  1.00  0.00     0.093 C 
BRANCH  81  82
ATOM     82  N   UNL A   1      31.727  22.692  24.424  1.00  0.00    -0.204 NA
ATOM     83  H   UNL A   1      30.846  22.498  24.900  1.00  0.00     0.142 HD
BRANCH  82  84
ATOM     84  S   UNL A   1      32.639  21.298  24.579  1.00  0.00     0.244 S 
ATOM     85  O   UNL A   1      32.116  20.619  25.745  1.00  0.00    -0.207 OA
ATOM     86  O   UNL A   1      32.686  20.655  23.289  1.00  0.00    -0.207 OA
BRANCH  84  87
ATOM     87  C   UNL A   1      34.206  21.953  25.044  1.00  0.00     0.121 A 
ATOM     88  C   UNL A   1      34.295  23.321  25.359  1.00  0.00     0.028 A 
ATOM     89  C   UNL A   1      35.349  21.164  25.008  1.00  0.00     0.181 A 
ATOM     90  C   UNL A   1      35.543  23.900  25.588  1.00  0.00     0.044 A 
ATOM     91  C   UNL A   1      36.591  21.748  25.236  1.00  0.00     0.195 A 
ATOM     92  F   UNL A   1      35.289  19.856  24.729  1.00  0.00    -0.202 F 
ATOM     93  C   UNL A   1      36.686  23.109  25.511  1.00  0.00     0.161 A 
ATOM     94  F   UNL A   1      37.702  21.004  25.163  1.00  0.00    -0.200 F 
ATOM     95  F   UNL A   1      37.885  23.679  25.682  1.00  0.00    -0.204 F 
ENDBRANCH  84  87
ENDBRANCH  82  84
ENDBRANCH  81  82
ENDBRANCH  74  77
ENDBRANCH  72  73
ENDBRANCH   1  72
TORSDOF 16
ENDMDL
MODEL 2
REMARK VINA RESULT:     -11.9      4.908      9.861
REMARK SMILES O=C(NCCCNC(=O)[C@H]1C=C[C@H](NS(=O)(=O)c2ccc(F)c(F)c2F)C1)c1ccc(-c2c3nc(c(-c4cccc(S(=O)(=O)[O-])c4F)c4ccc([nH]4)c(-c4cccc(S(=O)(=O)[O-])c4F)c4nc(c(-c5cccc(S(=O)(=O)[O-])c5F)c5ccc2[nH]5)C=C4)C=C3)cc1
REMARK SMILES IDX 5 1 4 2 3 3 1 4 2 5 28 7 29 8 90 9 30 10 89 11 31 12 32 13
REMARK SMILES IDX 33 14 83 15 34 16 88 17 82 18 84 19 35 20 87 21 81 22 80 23
REMARK SMILES IDX 36 25 68 26 48 27 67 28 49 29 52 30 66 31 85 32 50 33 51 34
REMARK SMILES IDX 65 36 86 37 53 38 37 39 38 40 46 41 39 42 41 43 47 44 40 45
REMARK SMILES IDX 42 46 43 47 44 48 45 49 69 50 70 51 78 52 71 53 73 54 79 55
REMARK SMILES IDX 72 56 74 57 75 58 76 59 77 60 54 61 55 62 63 63 56 64 58 65
REMARK SMILES IDX 64 66 57 67 59 68 60 69 61 70 62 71 6 72 7 73 8 74 9 76
REMARK SMILES IDX 10 77 11 78 27 79 12 80 13 81 14 82 15 84 16 85 17 86 18 87
REMARK SMILES IDX 19 88 25 89 20 90 23 91 26 92 21 93 24 94 22 95
REMARK H PARENT 3 6 84 24 52 35 7 75 14 83
REMARK Flexibility Score: inf
ROOT
ATOM      1  C   UNL A   1      35.155  22.339  27.090  1.00  0.00     0.042 C 
ENDROOT
BRANCH   1   2
ATOM      2  C   UNL A   1      35.815  22.220  25.716  1.00  0.00     0.118 C 
BRANCH   2   3
ATOM      3  N   UNL A   1      36.840  21.185  25.676  1.00  0.00    -0.352 N 
ATOM      4  O   UNL A   1      38.864  20.280  25.385  1.00  0.00    -0.269 OA
ATOM      5  C   UNL A   1      38.208  21.251  25.756  1.00  0.00     0.251 C 
ATOM      6  H   UNL A   1      36.486  20.271  25.573  1.00  0.00     0.163 HD
BRANCH   5   7
ATOM      7  C   UNL A   1      38.898  22.454  26.274  1.00  0.00     0.039 A 
ATOM      8  C   UNL A   1      40.021  22.346  27.094  1.00  0.00     0.014 A 
ATOM      9  C   UNL A   1      38.474  23.718  25.845  1.00  0.00     0.014 A 
ATOM     10  C   UNL A   1      40.639  23.494  27.586  1.00  0.00     0.010 A 
ATOM     11  C   UNL A   1      39.144  24.868  26.275  1.00  0.00     0.010 A 
ATOM     12  C   UNL A   1      40.216  24.768  27.174  1.00  0.00    -0.014 A 
BRANCH  12  13
ATOM     13  C   UNL A   1      40.959  25.966  27.645  1.00  0.00     0.031 A 
ATOM     14  C   UNL A   1      42.379  26.221  27.221  1.00  0.00     0.074 A 
ATOM     15  C   UNL A   1      40.328  26.846  28.448  1.00  0.00     0.049 A 
ATOM     16  N   UNL A   1      43.130  27.266  27.456  1.00  0.00    -0.248 NA
ATOM     17  C   UNL A   1      43.049  25.166  26.443  1.00  0.00     0.031 C 
ATOM     18  C   UNL A   1      38.971  26.679  28.975  1.00  0.00     0.029 A 
ATOM     19  N   UNL A   1      40.731  28.057  28.950  1.00  0.00    -0.354 N 
ATOM     20  C   UNL A   1      44.367  26.984  26.889  1.00  0.00     0.074 A 
ATOM     21  C   UNL A   1      44.272  25.664  26.307  1.00  0.00     0.031 C 
ATOM     22  C   UNL A   1      38.637  27.765  29.685  1.00  0.00     0.029 A 
ATOM     23  C   UNL A   1      39.764  28.692  29.696  1.00  0.00     0.049 A 
ATOM     24  H   UNL A   1      41.626  28.436  28.792  1.00  0.00     0.167 HD
ATOM     25  C   UNL A   1      45.475  27.763  26.841  1.00  0.00     0.034 A 
ATOM     26  C   UNL A   1      39.777  29.891  30.310  1.00  0.00     0.034 A 
ATOM     27  C   UNL A   1      45.550  29.095  27.380  1.00  0.00     0.049 A 
ATOM     28  C   UNL A   1      41.001  30.754  30.193  1.00  0.00     0.074 A 
ATOM     29  C   UNL A   1      46.602  29.993  27.312  1.00  0.00     0.029 A 
ATOM     30  N   UNL A   1      44.538  29.721  28.091  1.00  0.00    -0.354 N 
ATOM     31  N   UNL A   1      42.105  30.532  29.522  1.00  0.00    -0.248 NA
ATOM     32  C   UNL A   1      40.970  32.045  30.894  1.00  0.00     0.031 C 
ATOM     33  C   UNL A   1      46.227  31.158  27.990  1.00  0.00     0.029 A 
ATOM     34  C   UNL A   1      44.940  30.988  28.475  1.00  0.00     0.049 A 
ATOM     35  H   UNL A   1      43.661  29.321  28.295  1.00  0.00     0.167 HD
ATOM     36  C   UNL A   1      42.892  31.662  29.701  1.00  0.00     0.074 A 
ATOM     37  C   UNL A   1      42.126  32.579  30.520  1.00  0.00     0.031 C 
ATOM     38  C   UNL A   1      44.146  31.909  29.247  1.00  0.00     0.034 A 
BRANCH  25  39
ATOM     39  C   UNL A   1      46.685  27.214  26.133  1.00  0.00     0.023 A 
ATOM     40  C   UNL A   1      46.787  27.349  24.734  1.00  0.00     0.012 A 
ATOM     41  C   UNL A   1      47.743  26.623  26.849  1.00  0.00     0.148 A 
ATOM     42  C   UNL A   1      47.912  26.882  24.055  1.00  0.00     0.002 A 
ATOM     43  C   UNL A   1      48.877  26.190  26.169  1.00  0.00     0.091 A 
ATOM     44  F   UNL A   1      47.618  26.478  28.176  1.00  0.00    -0.205 F 
ATOM     45  C   UNL A   1      48.960  26.311  24.773  1.00  0.00     0.022 A 
BRANCH  43  46
ATOM     46  S   UNL A   1      50.302  25.503  27.023  1.00  0.00     0.127 S 
ATOM     47  O   UNL A   1      49.733  24.297  27.622  1.00  0.00    -0.237 OA
ATOM     48  O   UNL A   1      51.237  25.255  25.925  1.00  0.00    -0.237 OA
ATOM     49  O   UNL A   1      50.732  26.533  27.958  1.00  0.00    -0.744 OA
ENDBRANCH  43  46
ENDBRANCH  25  39
BRANCH  26  50
ATOM     50  C   UNL A   1      38.555  30.373  31.013  1.00  0.00     0.023 A 
ATOM     51  C   UNL A   1      38.422  30.143  32.395  1.00  0.00     0.012 A 
ATOM     52  C   UNL A   1      37.560  31.107  30.339  1.00  0.00     0.148 A 
ATOM     53  C   UNL A   1      37.310  30.621  33.092  1.00  0.00     0.002 A 
ATOM     54  C   UNL A   1      36.485  31.628  31.049  1.00  0.00     0.091 A 
ATOM     55  F   UNL A   1      37.692  31.296  29.018  1.00  0.00    -0.205 F 
ATOM     56  C   UNL A   1      36.350  31.375  32.422  1.00  0.00     0.022 A 
BRANCH  54  57
ATOM     57  S   UNL A   1      35.288  32.730  30.286  1.00  0.00     0.127 S 
ATOM     58  O   UNL A   1      34.728  31.884  29.237  1.00  0.00    -0.237 OA
ATOM     59  O   UNL A   1      34.380  33.017  31.397  1.00  0.00    -0.237 OA
ATOM     60  O   UNL A   1      36.060  33.881  29.837  1.00  0.00    -0.744 OA
ENDBRANCH  54  57
ENDBRANCH  26  50
BRANCH  38  61
ATOM     61  C   UNL A   1      44.767  33.229  29.619  1.00  0.00     0.023 A 
ATOM     62  C   UNL A   1      45.594  33.309  30.757  1.00  0.00     0.012 A 
ATOM     63  C   UNL A   1      44.584  34.369  28.813  1.00  0.00     0.148 A 
ATOM     64  C   UNL A   1      46.207  34.512  31.104  1.00  0.00     0.002 A 
ATOM     65  C   UNL A   1      45.232  35.555  29.142  1.00  0.00     0.091 A 
ATOM     66  F   UNL A   1      43.773  34.280  27.748  1.00  0.00    -0.205 F 
ATOM     67  C   UNL A   1      46.035  35.631  30.291  1.00  0.00     0.022 A 
BRANCH  65  68
ATOM     68  S   UNL A   1      45.129  37.011  28.096  1.00  0.00     0.127 S 
ATOM     69  O   UNL A   1      45.818  38.012  28.907  1.00  0.00    -0.237 OA
ATOM     70  O   UNL A   1      45.856  36.593  26.896  1.00  0.00    -0.237 OA
ATOM     71  O   UNL A   1      43.706  37.238  27.882  1.00  0.00    -0.744 OA
ENDBRANCH  65  68
ENDBRANCH  38  61
ENDBRANCH  12  13
ENDBRANCH   5   7
ENDBRANCH   2   3
ENDBRANCH   1   2
BRANCH   1  72
ATOM     72  C   UNL A   1      33.937  21.441  27.268  1.00  0.00     0.117 C 
BRANCH  72  73
ATOM     73  N   UNL A   1      32.738  22.153  27.656  1.00  0.00    -0.356 N 
ATOM     74  C   UNL A   1      31.817  22.841  26.940  1.00  0.00     0.226 C 
ATOM     75  H   UNL A   1      32.559  22.133  28.624  1.00  0.00     0.163 HD
ATOM     76  O   UNL A   1      30.812  23.205  27.561  1.00  0.00    -0.274 OA
BRANCH  74  77
ATOM     77  C   UNL A   1      32.053  23.319  25.496  1.00  0.00     0.103 C 
ATOM     78  C   UNL A   1      31.381  22.720  24.301  1.00  0.00    -0.016 C 
ATOM     79  C   UNL A   1      31.577  24.786  25.379  1.00  0.00     0.042 C 
ATOM     80  C   UNL A   1      30.940  23.656  23.449  1.00  0.00    -0.011 C 
ATOM     81  C   UNL A   1      31.237  25.047  23.916  1.00  0.00     0.093 C 
BRANCH  81  82
ATOM     82  N   UNL A   1      32.298  25.531  23.039  1.00  0.00    -0.204 NA
ATOM     83  H   UNL A   1      32.308  24.892  22.242  1.00  0.00     0.142 HD
BRANCH  82  84
ATOM     84  S   UNL A   1      32.360  27.068  22.382  1.00  0.00     0.244 S 
ATOM     85  O   UNL A   1      33.581  27.112  21.606  1.00  0.00    -0.207 OA
ATOM     86  O   UNL A   1      31.077  27.346  21.787  1.00  0.00    -0.207 OA
BRANCH  84  87
ATOM     87  C   UNL A   1      32.646  28.051  23.816  1.00  0.00     0.121 A 
ATOM     88  C   UNL A   1      33.703  27.695  24.673  1.00  0.00     0.028 A 
ATOM     89  C   UNL A   1      31.791  29.094  24.148  1.00  0.00     0.181 A 
ATOM     90  C   UNL A   1      33.863  28.362  25.888  1.00  0.00     0.044 A 
ATOM     91  C   UNL A   1      31.956  29.753  25.362  1.00  0.00     0.195 A 
ATOM     92  F   UNL A   1      30.789  29.464  23.341  1.00  0.00    -0.202 F 
ATOM     93  C   UNL A   1      32.978  29.380  26.229  1.00  0.00     0.161 A 
ATOM     94  F   UNL A   1      31.111  30.733  25.710  1.00  0.00    -0.200 F 
ATOM     95  F   UNL A   1      33.105  29.982  27.418  1.00  0.00    -0.204 F 
ENDBRANCH  84  87
ENDBRANCH  82  84
ENDBRANCH  81  82
ENDBRANCH  74  77
ENDBRANCH  72  73
ENDBRANCH   1  72
TORSDOF 16
ENDMDL
MODEL 3
REMARK VINA RESULT:     -11.9      5.247     10.184
REMARK SMILES O=C(NCCCNC(=O)[C@H]1C=C[C@H](NS(=O)(=O)c2ccc(F)c(F)c2F)C1)c1ccc(-c2c3nc(c(-c4cccc(S(=O)(=O)[O-])c4F)c4ccc([nH]4)c(-c4cccc(S(=O)(=O)[O-])c4F)c4nc(c(-c5cccc(S(=O)(=O)[O-])c5F)c5ccc2[nH]5)C=C4)C=C3)cc1
REMARK SMILES IDX 5 1 4 2 3 3 1 4 2 5 28 7 29 8 90 9 30 10 89 11 31 12 32 13
REMARK SMILES IDX 33 14 83 15 34 16 88 17 82 18 84 19 35 20 87 21 81 22 80 23
REMARK SMILES IDX 36 25 68 26 48 27 67 28 49 29 52 30 66 31 85 32 50 33 51 34
REMARK SMILES IDX 65 36 86 37 53 38 37 39 38 40 46 41 39 42 41 43 47 44 40 45
REMARK SMILES IDX 42 46 43 47 44 48 45 49 69 50 70 51 78 52 71 53 73 54 79 55
REMARK SMILES IDX 72 56 74 57 75 58 76 59 77 60 54 61 55 62 63 63 56 64 58 65
REMARK SMILES IDX 64 66 57 67 59 68 60 69 61 70 62 71 6 72 7 73 8 74 9 76
REMARK SMILES IDX 10 77 11 78 27 79 12 80 13 81 14 82 15 84 16 85 17 86 18 87
REMARK SMILES IDX 19 88 25 89 20 90 23 91 26 92 21 93 24 94 22 95
REMARK H PARENT 3 6 84 24 52 35 7 75 14 83
REMARK Flexibility Score: inf
ROOT
ATOM      1  C   UNL A   1      36.048  21.332  25.732  1.00  0.00     0.042 C 
ENDROOT
BRANCH   1   2
ATOM      2  C   UNL A   1      37.474  21.830  25.488  1.00  0.00     0.118 C 
BRANCH   2   3
ATOM      3  N   UNL A   1      38.483  20.888  25.956  1.00  0.00    -0.352 N 
ATOM      4  O   UNL A   1      40.517  20.105  26.452  1.00  0.00    -0.269 OA
ATOM      5  C   UNL A   1      39.762  21.074  26.414  1.00  0.00     0.251 C 
ATOM      6  H   UNL A   1      38.193  19.946  25.938  1.00  0.00     0.163 HD
BRANCH   5   7
ATOM      7  C   UNL A   1      40.241  22.402  26.860  1.00  0.00     0.039 A 
ATOM      8  C   UNL A   1      41.170  22.525  27.893  1.00  0.00     0.014 A 
ATOM      9  C   UNL A   1      39.831  23.542  26.159  1.00  0.00     0.014 A 
ATOM     10  C   UNL A   1      41.589  23.788  28.308  1.00  0.00     0.010 A 
ATOM     11  C   UNL A   1      40.314  24.804  26.525  1.00  0.00     0.010 A 
ATOM     12  C   UNL A   1      41.175  24.941  27.622  1.00  0.00    -0.014 A 
BRANCH  12  13
ATOM     13  C   UNL A   1      41.717  26.262  28.033  1.00  0.00     0.031 A 
ATOM     14  C   UNL A   1      43.116  26.680  27.673  1.00  0.00     0.074 A 
ATOM     15  C   UNL A   1      40.920  27.104  28.722  1.00  0.00     0.049 A 
ATOM     16  N   UNL A   1      43.702  27.834  27.863  1.00  0.00    -0.248 NA
ATOM     17  C   UNL A   1      43.973  25.673  27.026  1.00  0.00     0.031 C 
ATOM     18  C   UNL A   1      39.565  26.790  29.182  1.00  0.00     0.029 A 
ATOM     19  N   UNL A   1      41.121  28.394  29.144  1.00  0.00    -0.354 N 
ATOM     20  C   UNL A   1      45.001  27.685  27.395  1.00  0.00     0.074 A 
ATOM     21  C   UNL A   1      45.124  26.324  26.920  1.00  0.00     0.031 C 
ATOM     22  C   UNL A   1      39.040  27.870  29.777  1.00  0.00     0.029 A 
ATOM     23  C   UNL A   1      40.029  28.943  29.776  1.00  0.00     0.049 A 
ATOM     24  H   UNL A   1      41.966  28.880  29.007  1.00  0.00     0.167 HD
ATOM     25  C   UNL A   1      45.995  28.604  27.346  1.00  0.00     0.034 A 
ATOM     26  C   UNL A   1      39.839  30.174  30.287  1.00  0.00     0.034 A 
ATOM     27  C   UNL A   1      45.855  29.971  27.775  1.00  0.00     0.049 A 
ATOM     28  C   UNL A   1      40.941  31.188  30.170  1.00  0.00     0.074 A 
ATOM     29  C   UNL A   1      46.778  30.999  27.693  1.00  0.00     0.029 A 
ATOM     30  N   UNL A   1      44.721  30.501  28.371  1.00  0.00    -0.354 N 
ATOM     31  N   UNL A   1      42.109  31.072  29.585  1.00  0.00    -0.248 NA
ATOM     32  C   UNL A   1      40.689  32.511  30.757  1.00  0.00     0.031 C 
ATOM     33  C   UNL A   1      46.205  32.148  28.249  1.00  0.00     0.029 A 
ATOM     34  C   UNL A   1      44.922  31.838  28.670  1.00  0.00     0.049 A 
ATOM     35  H   UNL A   1      43.894  30.000  28.556  1.00  0.00     0.167 HD
ATOM     36  C   UNL A   1      42.723  32.310  29.715  1.00  0.00     0.074 A 
ATOM     37  C   UNL A   1      41.786  33.171  30.408  1.00  0.00     0.031 C 
ATOM     38  C   UNL A   1      43.961  32.695  29.315  1.00  0.00     0.034 A 
BRANCH  25  39
ATOM     39  C   UNL A   1      47.314  28.178  26.758  1.00  0.00     0.023 A 
ATOM     40  C   UNL A   1      48.396  27.898  27.616  1.00  0.00     0.012 A 
ATOM     41  C   UNL A   1      47.469  27.997  25.370  1.00  0.00     0.148 A 
ATOM     42  C   UNL A   1      49.619  27.468  27.103  1.00  0.00     0.002 A 
ATOM     43  C   UNL A   1      48.681  27.535  24.867  1.00  0.00     0.091 A 
ATOM     44  F   UNL A   1      46.439  28.294  24.565  1.00  0.00    -0.205 F 
ATOM     45  C   UNL A   1      49.758  27.278  25.730  1.00  0.00     0.022 A 
BRANCH  43  46
ATOM     46  S   UNL A   1      48.928  27.199  23.119  1.00  0.00     0.127 S 
ATOM     47  O   UNL A   1      48.240  25.918  22.966  1.00  0.00    -0.237 OA
ATOM     48  O   UNL A   1      48.255  28.331  22.483  1.00  0.00    -0.237 OA
ATOM     49  O   UNL A   1      50.371  27.171  22.925  1.00  0.00    -0.744 OA
ENDBRANCH  43  46
ENDBRANCH  25  39
BRANCH  26  50
ATOM     50  C   UNL A   1      38.517  30.533  30.875  1.00  0.00     0.023 A 
ATOM     51  C   UNL A   1      38.275  30.266  32.236  1.00  0.00     0.012 A 
ATOM     52  C   UNL A   1      37.529  31.188  30.117  1.00  0.00     0.148 A 
ATOM     53  C   UNL A   1      37.065  30.630  32.828  1.00  0.00     0.002 A 
ATOM     54  C   UNL A   1      36.348  31.599  30.727  1.00  0.00     0.091 A 
ATOM     55  F   UNL A   1      37.767  31.414  28.817  1.00  0.00    -0.205 F 
ATOM     56  C   UNL A   1      36.108  31.309  32.078  1.00  0.00     0.022 A 
BRANCH  54  57
ATOM     57  S   UNL A   1      35.135  32.605  29.864  1.00  0.00     0.127 S 
ATOM     58  O   UNL A   1      34.186  32.911  30.929  1.00  0.00    -0.237 OA
ATOM     59  O   UNL A   1      35.941  33.740  29.411  1.00  0.00    -0.237 OA
ATOM     60  O   UNL A   1      34.638  31.763  28.784  1.00  0.00    -0.744 OA
ENDBRANCH  54  57
ENDBRANCH  26  50
BRANCH  38  61
ATOM     61  C   UNL A   1      44.372  34.112  29.611  1.00  0.00     0.023 A 
ATOM     62  C   UNL A   1      44.955  34.419  30.855  1.00  0.00     0.012 A 
ATOM     63  C   UNL A   1      44.240  35.122  28.639  1.00  0.00     0.148 A 
ATOM     64  C   UNL A   1      45.375  35.717  31.141  1.00  0.00     0.002 A 
ATOM     65  C   UNL A   1      44.698  36.406  28.915  1.00  0.00     0.091 A 
ATOM     66  F   UNL A   1      43.659  34.818  27.469  1.00  0.00    -0.205 F 
ATOM     67  C   UNL A   1      45.256  36.707  30.168  1.00  0.00     0.022 A 
BRANCH  65  68
ATOM     68  S   UNL A   1      44.660  37.711  27.682  1.00  0.00     0.127 S 
ATOM     69  O   UNL A   1      45.085  38.872  28.460  1.00  0.00    -0.237 OA
ATOM     70  O   UNL A   1      45.637  37.246  26.697  1.00  0.00    -0.237 OA
ATOM     71  O   UNL A   1      43.288  37.744  27.191  1.00  0.00    -0.744 OA
ENDBRANCH  65  68
ENDBRANCH  38  61
ENDBRANCH  12  13
ENDBRANCH   5   7
ENDBRANCH   2   3
ENDBRANCH   1   2
BRANCH   1  72
ATOM     72  C   UNL A   1      35.696  20.068  24.957  1.00  0.00     0.117 C 
BRANCH  72  73
ATOM     73  N   UNL A   1      34.337  19.618  25.161  1.00  0.00    -0.356 N 
ATOM     74  C   UNL A   1      33.142  20.131  24.779  1.00  0.00     0.226 C 
ATOM     75  H   UNL A   1      34.266  18.781  25.674  1.00  0.00     0.163 HD
ATOM     76  O   UNL A   1      32.157  19.411  24.980  1.00  0.00    -0.274 OA
BRANCH  74  77
ATOM     77  C   UNL A   1      32.960  21.580  24.295  1.00  0.00     0.103 C 
ATOM     78  C   UNL A   1      32.153  21.962  23.095  1.00  0.00    -0.016 C 
ATOM     79  C   UNL A   1      32.219  22.376  25.395  1.00  0.00     0.042 C 
ATOM     80  C   UNL A   1      31.373  23.027  23.329  1.00  0.00    -0.011 C 
ATOM     81  C   UNL A   1      31.519  23.552  24.724  1.00  0.00     0.093 C 
BRANCH  81  82
ATOM     82  N   UNL A   1      32.254  24.806  24.589  1.00  0.00    -0.204 NA
ATOM     83  H   UNL A   1      31.915  25.231  23.726  1.00  0.00     0.142 HD
BRANCH  82  84
ATOM     84  S   UNL A   1      32.252  26.034  25.725  1.00  0.00     0.244 S 
ATOM     85  O   UNL A   1      31.363  25.590  26.777  1.00  0.00    -0.207 OA
ATOM     86  O   UNL A   1      33.623  26.389  25.995  1.00  0.00    -0.207 OA
BRANCH  84  87
ATOM     87  C   UNL A   1      31.401  27.311  24.860  1.00  0.00     0.121 A 
ATOM     88  C   UNL A   1      30.838  27.011  23.607  1.00  0.00     0.028 A 
ATOM     89  C   UNL A   1      31.369  28.609  25.354  1.00  0.00     0.181 A 
ATOM     90  C   UNL A   1      30.287  28.033  22.832  1.00  0.00     0.044 A 
ATOM     91  C   UNL A   1      30.820  29.623  24.576  1.00  0.00     0.195 A 
ATOM     92  F   UNL A   1      31.882  28.917  26.551  1.00  0.00    -0.202 F 
ATOM     93  C   UNL A   1      30.295  29.337  23.319  1.00  0.00     0.161 A 
ATOM     94  F   UNL A   1      30.822  30.885  25.025  1.00  0.00    -0.200 F 
ATOM     95  F   UNL A   1      29.811  30.322  22.552  1.00  0.00    -0.204 F 
ENDBRANCH  84  87
ENDBRANCH  82  84
ENDBRANCH  81  82
ENDBRANCH  74  77
ENDBRANCH  72  73
ENDBRANCH   1  72
TORSDOF 16
ENDMDL
