MODEL 1
REMARK VINA RESULT:     -11.6      0.000      0.000
REMARK SMILES CSc1ncccc1C(=O)N1CSC[C@H]1C(=O)NCCCNC(=O)c1ccc(-c2c3nc(c(-c4cccc(S(=O)(=O)[O-])c4F)c4ccc([nH]4)c(-c4cccc(S(=O)(=O)[O-])c4F)c4nc(c(-c5cccc(S(=O)(=O)[O-])c5F)c5ccc2[nH]5)C=C4)C=C3)cc1
REMARK SMILES IDX 20 1 19 2 18 3 16 4 17 5 15 7 11 8 12 9 13 10 14 11 9 12
REMARK SMILES IDX 10 13 8 14 3 15 4 16 5 17 7 18 6 19 2 20 1 21 21 22 22 23
REMARK SMILES IDX 23 24 24 26 25 27 26 28 87 29 27 30 86 31 28 32 29 33 30 34
REMARK SMILES IDX 80 35 31 36 85 37 79 38 81 39 32 40 84 41 78 42 77 43 33 45
REMARK SMILES IDX 65 46 45 47 64 48 46 49 49 50 63 51 82 52 47 53 48 54 62 56
REMARK SMILES IDX 83 57 50 58 34 59 35 60 43 61 36 62 38 63 44 64 37 65 39 66
REMARK SMILES IDX 40 67 41 68 42 69 66 70 67 71 75 72 68 73 70 74 76 75 69 76
REMARK SMILES IDX 71 77 72 78 73 79 74 80 51 81 52 82 60 83 53 84 55 85 61 86
REMARK SMILES IDX 54 87 56 88 57 89 58 90 59 91
REMARK H PARENT 18 6 22 25 81 44 49 55
REMARK Flexibility Score: inf
ROOT
ATOM      1  C   UNL A   1      36.216  21.681  25.731  1.00  0.00     0.042 C 
ENDROOT
BRANCH   1   2
ATOM      2  C   UNL A   1      35.632  23.016  26.160  1.00  0.00     0.117 C 
BRANCH   2   3
ATOM      3  N   UNL A   1      34.677  22.888  27.237  1.00  0.00    -0.354 N 
ATOM      4  C   UNL A   1      33.316  22.893  27.222  1.00  0.00     0.243 C 
ATOM      5  O   UNL A   1      32.759  22.441  28.228  1.00  0.00    -0.273 OA
ATOM      6  H   UNL A   1      35.078  22.777  28.130  1.00  0.00     0.163 HD
BRANCH   4   7
ATOM      7  C   UNL A   1      32.489  23.268  25.974  1.00  0.00     0.185 C 
ATOM      8  N   UNL A   1      32.598  24.644  25.464  1.00  0.00    -0.316 N 
ATOM      9  C   UNL A   1      33.285  24.775  24.196  1.00  0.00     0.190 C 
ATOM     10  S   UNL A   1      32.971  23.228  23.317  1.00  0.00    -0.138 SA
ATOM     11  C   UNL A   1      32.688  22.266  24.837  1.00  0.00     0.106 C 
BRANCH   8  12
ATOM     12  C   UNL A   1      31.846  25.615  26.128  1.00  0.00     0.257 C 
ATOM     13  O   UNL A   1      30.820  25.300  26.728  1.00  0.00    -0.269 OA
BRANCH  12  14
ATOM     14  C   UNL A   1      32.137  27.064  25.940  1.00  0.00     0.072 A 
ATOM     15  C   UNL A   1      31.539  27.847  24.947  1.00  0.00     0.108 A 
ATOM     16  N   UNL A   1      31.933  29.131  24.707  1.00  0.00    -0.249 NA
ATOM     17  C   UNL A   1      32.939  29.648  25.440  1.00  0.00     0.112 A 
ATOM     18  C   UNL A   1      33.223  27.623  26.636  1.00  0.00     0.018 A 
ATOM     19  C   UNL A   1      33.612  28.938  26.408  1.00  0.00     0.021 A 
BRANCH  15  20
ATOM     20  S   UNL A   1      30.195  27.303  23.903  1.00  0.00    -0.109 SA
ATOM     21  C   UNL A   1      31.101  27.091  22.345  1.00  0.00     0.092 C 
ENDBRANCH  15  20
ENDBRANCH  12  14
ENDBRANCH   8  12
ENDBRANCH   4   7
ENDBRANCH   2   3
ENDBRANCH   1   2
BRANCH   1  22
ATOM     22  C   UNL A   1      37.631  21.797  25.183  1.00  0.00     0.118 C 
BRANCH  22  23
ATOM     23  N   UNL A   1      38.534  20.822  25.787  1.00  0.00    -0.352 N 
ATOM     24  C   UNL A   1      39.750  21.003  26.394  1.00  0.00     0.251 C 
ATOM     25  H   UNL A   1      38.222  19.888  25.754  1.00  0.00     0.163 HD
ATOM     26  O   UNL A   1      40.462  20.023  26.624  1.00  0.00    -0.269 OA
BRANCH  24  27
ATOM     27  C   UNL A   1      40.204  22.356  26.769  1.00  0.00     0.039 A 
ATOM     28  C   UNL A   1      41.149  22.502  27.787  1.00  0.00     0.014 A 
ATOM     29  C   UNL A   1      39.675  23.484  26.137  1.00  0.00     0.014 A 
ATOM     30  C   UNL A   1      41.596  23.778  28.137  1.00  0.00     0.010 A 
ATOM     31  C   UNL A   1      40.194  24.741  26.414  1.00  0.00     0.010 A 
ATOM     32  C   UNL A   1      41.141  24.905  27.433  1.00  0.00    -0.014 A 
BRANCH  32  33
ATOM     33  C   UNL A   1      41.618  26.270  27.763  1.00  0.00     0.031 A 
ATOM     34  C   UNL A   1      43.033  26.669  27.436  1.00  0.00     0.074 A 
ATOM     35  C   UNL A   1      40.808  27.117  28.427  1.00  0.00     0.049 A 
ATOM     36  N   UNL A   1      43.656  27.787  27.698  1.00  0.00    -0.248 NA
ATOM     37  C   UNL A   1      43.868  25.665  26.753  1.00  0.00     0.031 C 
ATOM     38  C   UNL A   1      39.442  26.817  28.861  1.00  0.00     0.029 A 
ATOM     39  N   UNL A   1      41.025  28.395  28.875  1.00  0.00    -0.354 N 
ATOM     40  C   UNL A   1      44.959  27.610  27.248  1.00  0.00     0.074 A 
ATOM     41  C   UNL A   1      45.052  26.260  26.740  1.00  0.00     0.031 C 
ATOM     42  C   UNL A   1      38.938  27.886  29.497  1.00  0.00     0.029 A 
ATOM     43  C   UNL A   1      39.954  28.931  29.550  1.00  0.00     0.049 A 
ATOM     44  H   UNL A   1      41.868  28.882  28.727  1.00  0.00     0.167 HD
ATOM     45  C   UNL A   1      45.980  28.501  27.227  1.00  0.00     0.034 A 
ATOM     46  C   UNL A   1      39.810  30.130  30.145  1.00  0.00     0.034 A 
ATOM     47  C   UNL A   1      45.870  29.852  27.704  1.00  0.00     0.049 A 
ATOM     48  C   UNL A   1      40.950  31.111  30.087  1.00  0.00     0.074 A 
ATOM     49  C   UNL A   1      46.817  30.859  27.665  1.00  0.00     0.029 A 
ATOM     50  N   UNL A   1      44.745  30.384  28.314  1.00  0.00    -0.354 N 
ATOM     51  N   UNL A   1      42.130  30.975  29.530  1.00  0.00    -0.248 NA
ATOM     52  C   UNL A   1      40.725  32.425  30.706  1.00  0.00     0.031 C 
ATOM     53  C   UNL A   1      46.273  31.993  28.277  1.00  0.00     0.029 A 
ATOM     54  C   UNL A   1      44.972  31.704  28.662  1.00  0.00     0.049 A 
ATOM     55  H   UNL A   1      43.905  29.895  28.476  1.00  0.00     0.167 HD
ATOM     56  C   UNL A   1      42.770  32.199  29.689  1.00  0.00     0.074 A 
ATOM     57  C   UNL A   1      41.839  33.068  30.383  1.00  0.00     0.031 C 
ATOM     58  C   UNL A   1      44.016  32.569  29.303  1.00  0.00     0.034 A 
BRANCH  45  59
ATOM     59  C   UNL A   1      47.288  28.047  26.626  1.00  0.00     0.023 A 
ATOM     60  C   UNL A   1      48.363  27.707  27.473  1.00  0.00     0.012 A 
ATOM     61  C   UNL A   1      47.446  27.927  25.232  1.00  0.00     0.148 A 
ATOM     62  C   UNL A   1      49.588  27.302  26.943  1.00  0.00     0.002 A 
ATOM     63  C   UNL A   1      48.652  27.474  24.712  1.00  0.00     0.091 A 
ATOM     64  F   UNL A   1      46.422  28.274  24.439  1.00  0.00    -0.205 F 
ATOM     65  C   UNL A   1      49.729  27.178  25.565  1.00  0.00     0.022 A 
BRANCH  63  66
ATOM     66  S   UNL A   1      48.909  27.197  22.956  1.00  0.00     0.127 S 
ATOM     67  O   UNL A   1      48.239  25.913  22.759  1.00  0.00    -0.237 OA
ATOM     68  O   UNL A   1      48.221  28.342  22.361  1.00  0.00    -0.237 OA
ATOM     69  O   UNL A   1      50.352  27.185  22.759  1.00  0.00    -0.744 OA
ENDBRANCH  63  66
ENDBRANCH  45  59
BRANCH  46  70
ATOM     70  C   UNL A   1      38.510  30.501  30.774  1.00  0.00     0.023 A 
ATOM     71  C   UNL A   1      38.262  30.131  32.110  1.00  0.00     0.012 A 
ATOM     72  C   UNL A   1      37.536  31.237  30.072  1.00  0.00     0.148 A 
ATOM     73  C   UNL A   1      37.053  30.456  32.726  1.00  0.00     0.002 A 
ATOM     74  C   UNL A   1      36.357  31.605  30.710  1.00  0.00     0.091 A 
ATOM     75  F   UNL A   1      37.790  31.576  28.801  1.00  0.00    -0.205 F 
ATOM     76  C   UNL A   1      36.105  31.200  32.030  1.00  0.00     0.022 A 
BRANCH  74  77
ATOM     77  S   UNL A   1      35.132  32.671  29.940  1.00  0.00     0.127 S 
ATOM     78  O   UNL A   1      35.950  33.798  29.500  1.00  0.00    -0.237 OA
ATOM     79  O   UNL A   1      34.626  31.819  28.864  1.00  0.00    -0.237 OA
ATOM     80  O   UNL A   1      34.157  32.968  30.982  1.00  0.00    -0.744 OA
ENDBRANCH  74  77
ENDBRANCH  46  70
BRANCH  58  81
ATOM     81  C   UNL A   1      44.433  33.993  29.565  1.00  0.00     0.023 A 
ATOM     82  C   UNL A   1      45.025  34.344  30.794  1.00  0.00     0.012 A 
ATOM     83  C   UNL A   1      44.300  34.969  28.558  1.00  0.00     0.148 A 
ATOM     84  C   UNL A   1      45.443  35.653  31.030  1.00  0.00     0.002 A 
ATOM     85  C   UNL A   1      44.769  36.258  28.780  1.00  0.00     0.091 A 
ATOM     86  F   UNL A   1      43.718  34.620  27.401  1.00  0.00    -0.205 F 
ATOM     87  C   UNL A   1      45.328  36.605  30.019  1.00  0.00     0.022 A 
BRANCH  85  88
ATOM     88  S   UNL A   1      44.756  37.521  27.502  1.00  0.00     0.127 S 
ATOM     89  O   UNL A   1      45.199  38.699  28.245  1.00  0.00    -0.237 OA
ATOM     90  O   UNL A   1      45.730  37.002  26.543  1.00  0.00    -0.237 OA
ATOM     91  O   UNL A   1      43.387  37.575  27.004  1.00  0.00    -0.744 OA
ENDBRANCH  85  88
ENDBRANCH  58  81
ENDBRANCH  32  33
ENDBRANCH  24  27
ENDBRANCH  22  23
ENDBRANCH   1  22
TORSDOF 16
ENDMDL
MODEL 2
REMARK VINA RESULT:     -11.6      5.034     10.235
REMARK SMILES CSc1ncccc1C(=O)N1CSC[C@H]1C(=O)NCCCNC(=O)c1ccc(-c2c3nc(c(-c4cccc(S(=O)(=O)[O-])c4F)c4ccc([nH]4)c(-c4cccc(S(=O)(=O)[O-])c4F)c4nc(c(-c5cccc(S(=O)(=O)[O-])c5F)c5ccc2[nH]5)C=C4)C=C3)cc1
REMARK SMILES IDX 20 1 19 2 18 3 16 4 17 5 15 7 11 8 12 9 13 10 14 11 9 12
REMARK SMILES IDX 10 13 8 14 3 15 4 16 5 17 7 18 6 19 2 20 1 21 21 22 22 23
REMARK SMILES IDX 23 24 24 26 25 27 26 28 87 29 27 30 86 31 28 32 29 33 30 34
REMARK SMILES IDX 80 35 31 36 85 37 79 38 81 39 32 40 84 41 78 42 77 43 33 45
REMARK SMILES IDX 65 46 45 47 64 48 46 49 49 50 63 51 82 52 47 53 48 54 62 56
REMARK SMILES IDX 83 57 50 58 34 59 35 60 43 61 36 62 38 63 44 64 37 65 39 66
REMARK SMILES IDX 40 67 41 68 42 69 66 70 67 71 75 72 68 73 70 74 76 75 69 76
REMARK SMILES IDX 71 77 72 78 73 79 74 80 51 81 52 82 60 83 53 84 55 85 61 86
REMARK SMILES IDX 54 87 56 88 57 89 58 90 59 91
REMARK H PARENT 18 6 22 25 81 44 49 55
REMARK Flexibility Score: inf
ROOT
ATOM      1  C   UNL A   1      33.066  29.229  24.355  1.00  0.00     0.042 C 
ENDROOT
BRANCH   1   2
ATOM      2  C   UNL A   1      33.696  27.868  24.113  1.00  0.00     0.117 C 
BRANCH   2   3
ATOM      3  N   UNL A   1      33.358  27.318  22.820  1.00  0.00    -0.354 N 
ATOM      4  C   UNL A   1      32.464  26.352  22.473  1.00  0.00     0.243 C 
ATOM      5  O   UNL A   1      32.145  26.310  21.279  1.00  0.00    -0.273 OA
ATOM      6  H   UNL A   1      33.857  27.707  22.065  1.00  0.00     0.163 HD
BRANCH   4   7
ATOM      7  C   UNL A   1      31.739  25.464  23.506  1.00  0.00     0.185 C 
ATOM      8  N   UNL A   1      32.551  24.522  24.294  1.00  0.00    -0.316 N 
ATOM      9  C   UNL A   1      32.681  24.851  25.698  1.00  0.00     0.190 C 
ATOM     10  S   UNL A   1      31.159  25.723  26.131  1.00  0.00    -0.138 SA
ATOM     11  C   UNL A   1      30.837  26.283  24.429  1.00  0.00     0.106 C 
BRANCH   8  12
ATOM     12  C   UNL A   1      32.902  23.326  23.665  1.00  0.00     0.257 C 
ATOM     13  O   UNL A   1      32.042  22.639  23.117  1.00  0.00    -0.269 OA
BRANCH  12  14
ATOM     14  C   UNL A   1      34.264  22.748  23.834  1.00  0.00     0.072 A 
ATOM     15  C   UNL A   1      34.583  21.801  24.812  1.00  0.00     0.108 A 
ATOM     16  N   UNL A   1      35.868  21.401  25.036  1.00  0.00    -0.249 NA
ATOM     17  C   UNL A   1      36.856  21.950  24.302  1.00  0.00     0.112 A 
ATOM     18  C   UNL A   1      35.332  23.340  23.137  1.00  0.00     0.018 A 
ATOM     19  C   UNL A   1      36.640  22.919  23.348  1.00  0.00     0.021 A 
BRANCH  15  20
ATOM     20  S   UNL A   1      33.386  20.983  25.856  1.00  0.00    -0.109 SA
ATOM     21  C   UNL A   1      32.952  19.594  24.772  1.00  0.00     0.092 C 
ENDBRANCH  15  20
ENDBRANCH  12  14
ENDBRANCH   8  12
ENDBRANCH   4   7
ENDBRANCH   2   3
ENDBRANCH   1   2
BRANCH   1  22
ATOM     22  C   UNL A   1      32.702  29.468  25.813  1.00  0.00     0.118 C 
BRANCH  22  23
ATOM     23  N   UNL A   1      32.520  30.886  26.107  1.00  0.00    -0.352 N 
ATOM     24  C   UNL A   1      33.149  31.684  27.027  1.00  0.00     0.251 C 
ATOM     25  H   UNL A   1      31.839  31.342  25.560  1.00  0.00     0.163 HD
ATOM     26  O   UNL A   1      32.683  32.796  27.282  1.00  0.00    -0.269 OA
BRANCH  24  27
ATOM     27  C   UNL A   1      34.374  31.218  27.708  1.00  0.00     0.039 A 
ATOM     28  C   UNL A   1      35.427  32.113  27.908  1.00  0.00     0.014 A 
ATOM     29  C   UNL A   1      34.495  29.889  28.120  1.00  0.00     0.014 A 
ATOM     30  C   UNL A   1      36.582  31.685  28.566  1.00  0.00     0.010 A 
ATOM     31  C   UNL A   1      35.600  29.493  28.862  1.00  0.00     0.010 A 
ATOM     32  C   UNL A   1      36.665  30.377  29.071  1.00  0.00    -0.014 A 
BRANCH  32  33
ATOM     33  C   UNL A   1      37.867  29.901  29.799  1.00  0.00     0.031 A 
ATOM     34  C   UNL A   1      38.151  30.405  31.188  1.00  0.00     0.074 A 
ATOM     35  C   UNL A   1      38.740  29.085  29.178  1.00  0.00     0.049 A 
ATOM     36  N   UNL A   1      39.175  30.160  31.962  1.00  0.00    -0.248 NA
ATOM     37  C   UNL A   1      37.169  31.334  31.775  1.00  0.00     0.031 C 
ATOM     38  C   UNL A   1      38.609  28.589  27.806  1.00  0.00     0.029 A 
ATOM     39  N   UNL A   1      39.925  28.549  29.612  1.00  0.00    -0.354 N 
ATOM     40  C   UNL A   1      38.981  30.927  33.104  1.00  0.00     0.074 A 
ATOM     41  C   UNL A   1      37.766  31.685  32.904  1.00  0.00     0.031 C 
ATOM     42  C   UNL A   1      39.662  27.808  27.518  1.00  0.00     0.029 A 
ATOM     43  C   UNL A   1      40.561  27.777  28.668  1.00  0.00     0.049 A 
ATOM     44  H   UNL A   1      40.287  28.701  30.515  1.00  0.00     0.167 HD
ATOM     45  C   UNL A   1      39.727  30.974  34.234  1.00  0.00     0.034 A 
ATOM     46  C   UNL A   1      41.736  27.123  28.723  1.00  0.00     0.034 A 
ATOM     47  C   UNL A   1      40.916  30.193  34.438  1.00  0.00     0.049 A 
ATOM     48  C   UNL A   1      42.535  27.171  29.997  1.00  0.00     0.074 A 
ATOM     49  C   UNL A   1      41.708  30.109  35.569  1.00  0.00     0.029 A 
ATOM     50  N   UNL A   1      41.489  29.364  33.485  1.00  0.00    -0.354 N 
ATOM     51  N   UNL A   1      42.262  27.791  31.120  1.00  0.00    -0.248 NA
ATOM     52  C   UNL A   1      43.784  26.397  30.025  1.00  0.00     0.031 C 
ATOM     53  C   UNL A   1      42.776  29.249  35.289  1.00  0.00     0.029 A 
ATOM     54  C   UNL A   1      42.628  28.767  33.998  1.00  0.00     0.049 A 
ATOM     55  H   UNL A   1      41.138  29.221  32.576  1.00  0.00     0.167 HD
ATOM     56  C   UNL A   1      43.279  27.445  32.003  1.00  0.00     0.074 A 
ATOM     57  C   UNL A   1      44.165  26.549  31.286  1.00  0.00     0.031 C 
ATOM     58  C   UNL A   1      43.467  27.837  33.287  1.00  0.00     0.034 A 
BRANCH  45  59
ATOM     59  C   UNL A   1      39.247  31.869  35.350  1.00  0.00     0.023 A 
ATOM     60  C   UNL A   1      38.293  31.385  36.270  1.00  0.00     0.012 A 
ATOM     61  C   UNL A   1      39.757  33.172  35.508  1.00  0.00     0.148 A 
ATOM     62  C   UNL A   1      37.819  32.198  37.299  1.00  0.00     0.002 A 
ATOM     63  C   UNL A   1      39.318  33.959  36.567  1.00  0.00     0.091 A 
ATOM     64  F   UNL A   1      40.647  33.625  34.614  1.00  0.00    -0.205 F 
ATOM     65  C   UNL A   1      38.337  33.480  37.452  1.00  0.00     0.022 A 
BRANCH  63  66
ATOM     66  S   UNL A   1      39.986  35.592  36.904  1.00  0.00     0.127 S 
ATOM     67  O   UNL A   1      39.296  35.943  38.144  1.00  0.00    -0.237 OA
ATOM     68  O   UNL A   1      41.413  35.314  37.058  1.00  0.00    -0.237 OA
ATOM     69  O   UNL A   1      39.647  36.409  35.747  1.00  0.00    -0.744 OA
ENDBRANCH  63  66
ENDBRANCH  45  59
BRANCH  46  70
ATOM     70  C   UNL A   1      42.186  26.299  27.565  1.00  0.00     0.023 A 
ATOM     71  C   UNL A   1      42.985  26.892  26.568  1.00  0.00     0.012 A 
ATOM     72  C   UNL A   1      41.856  24.934  27.459  1.00  0.00     0.148 A 
ATOM     73  C   UNL A   1      43.418  26.150  25.468  1.00  0.00     0.002 A 
ATOM     74  C   UNL A   1      42.337  24.188  26.390  1.00  0.00     0.091 A 
ATOM     75  F   UNL A   1      41.093  24.389  28.417  1.00  0.00    -0.205 F 
ATOM     76  C   UNL A   1      43.102  24.798  25.383  1.00  0.00     0.022 A 
BRANCH  74  77
ATOM     77  S   UNL A   1      42.091  22.413  26.259  1.00  0.00     0.127 S 
ATOM     78  O   UNL A   1      42.676  21.937  27.510  1.00  0.00    -0.237 OA
ATOM     79  O   UNL A   1      40.633  22.316  26.184  1.00  0.00    -0.237 OA
ATOM     80  O   UNL A   1      42.785  22.006  25.044  1.00  0.00    -0.744 OA
ENDBRANCH  74  77
ENDBRANCH  46  70
BRANCH  58  81
ATOM     81  C   UNL A   1      44.644  27.257  34.029  1.00  0.00     0.023 A 
ATOM     82  C   UNL A   1      45.896  27.901  33.985  1.00  0.00     0.012 A 
ATOM     83  C   UNL A   1      44.484  26.108  34.828  1.00  0.00     0.148 A 
ATOM     84  C   UNL A   1      46.981  27.388  34.695  1.00  0.00     0.002 A 
ATOM     85  C   UNL A   1      45.554  25.635  35.576  1.00  0.00     0.091 A 
ATOM     86  F   UNL A   1      43.288  25.500  34.843  1.00  0.00    -0.205 F 
ATOM     87  C   UNL A   1      46.806  26.264  35.501  1.00  0.00     0.022 A 
BRANCH  85  88
ATOM     88  S   UNL A   1      45.395  24.257  36.719  1.00  0.00     0.127 S 
ATOM     89  O   UNL A   1      44.351  24.739  37.621  1.00  0.00    -0.237 OA
ATOM     90  O   UNL A   1      44.982  23.167  35.835  1.00  0.00    -0.237 OA
ATOM     91  O   UNL A   1      46.710  24.081  37.322  1.00  0.00    -0.744 OA
ENDBRANCH  85  88
ENDBRANCH  58  81
ENDBRANCH  32  33
ENDBRANCH  24  27
ENDBRANCH  22  23
ENDBRANCH   1  22
TORSDOF 16
ENDMDL
MODEL 3
REMARK VINA RESULT:     -11.5      5.124      7.761
REMARK SMILES CSc1ncccc1C(=O)N1CSC[C@H]1C(=O)NCCCNC(=O)c1ccc(-c2c3nc(c(-c4cccc(S(=O)(=O)[O-])c4F)c4ccc([nH]4)c(-c4cccc(S(=O)(=O)[O-])c4F)c4nc(c(-c5cccc(S(=O)(=O)[O-])c5F)c5ccc2[nH]5)C=C4)C=C3)cc1
REMARK SMILES IDX 20 1 19 2 18 3 16 4 17 5 15 7 11 8 12 9 13 10 14 11 9 12
REMARK SMILES IDX 10 13 8 14 3 15 4 16 5 17 7 18 6 19 2 20 1 21 21 22 22 23
REMARK SMILES IDX 23 24 24 26 25 27 26 28 87 29 27 30 86 31 28 32 29 33 30 34
REMARK SMILES IDX 80 35 31 36 85 37 79 38 81 39 32 40 84 41 78 42 77 43 33 45
REMARK SMILES IDX 65 46 45 47 64 48 46 49 49 50 63 51 82 52 47 53 48 54 62 56
REMARK SMILES IDX 83 57 50 58 34 59 35 60 43 61 36 62 38 63 44 64 37 65 39 66
REMARK SMILES IDX 40 67 41 68 42 69 66 70 67 71 75 72 68 73 70 74 76 75 69 76
REMARK SMILES IDX 71 77 72 78 73 79 74 80 51 81 52 82 60 83 53 84 55 85 61 86
REMARK SMILES IDX 54 87 56 88 57 89 58 90 59 91
REMARK H PARENT 18 6 22 25 81 44 49 55
REMARK Flexibility Score: inf
ROOT
ATOM      1  C   UNL A   1      33.775  28.841  23.544  1.00  0.00     0.042 C 
ENDROOT
BRANCH   1   2
ATOM      2  C   UNL A   1      32.667  28.192  22.733  1.00  0.00     0.117 C 
BRANCH   2   3
ATOM      3  N   UNL A   1      33.168  27.281  21.730  1.00  0.00    -0.354 N 
ATOM      4  C   UNL A   1      32.904  25.963  21.516  1.00  0.00     0.243 C 
ATOM      5  O   UNL A   1      33.211  25.521  20.403  1.00  0.00    -0.273 OA
ATOM      6  H   UNL A   1      33.807  27.681  21.095  1.00  0.00     0.163 HD
BRANCH   4   7
ATOM      7  C   UNL A   1      32.110  25.091  22.511  1.00  0.00     0.185 C 
ATOM      8  N   UNL A   1      32.868  24.329  23.515  1.00  0.00    -0.316 N 
ATOM      9  C   UNL A   1      32.724  24.796  24.878  1.00  0.00     0.190 C 
ATOM     10  S   UNL A   1      31.068  25.514  24.967  1.00  0.00    -0.138 SA
ATOM     11  C   UNL A   1      30.984  25.877  23.185  1.00  0.00     0.106 C 
BRANCH   8  12
ATOM     12  C   UNL A   1      33.443  23.131  23.083  1.00  0.00     0.257 C 
ATOM     13  O   UNL A   1      32.864  22.430  22.255  1.00  0.00    -0.269 OA
BRANCH  12  14
ATOM     14  C   UNL A   1      34.640  22.570  23.769  1.00  0.00     0.072 A 
ATOM     15  C   UNL A   1      34.565  21.658  24.827  1.00  0.00     0.108 A 
ATOM     16  N   UNL A   1      35.671  21.276  25.528  1.00  0.00    -0.249 NA
ATOM     17  C   UNL A   1      36.864  21.809  25.199  1.00  0.00     0.112 A 
ATOM     18  C   UNL A   1      35.894  23.148  23.502  1.00  0.00     0.018 A 
ATOM     19  C   UNL A   1      37.026  22.744  24.201  1.00  0.00     0.021 A 
BRANCH  15  20
ATOM     20  S   UNL A   1      33.061  20.866  25.373  1.00  0.00    -0.109 SA
ATOM     21  C   UNL A   1      33.081  19.414  24.284  1.00  0.00     0.092 C 
ENDBRANCH  15  20
ENDBRANCH  12  14
ENDBRANCH   8  12
ENDBRANCH   4   7
ENDBRANCH   2   3
ENDBRANCH   1   2
BRANCH   1  22
ATOM     22  C   UNL A   1      33.503  28.834  25.041  1.00  0.00     0.118 C 
BRANCH  22  23
ATOM     23  N   UNL A   1      32.892  30.080  25.493  1.00  0.00    -0.352 N 
ATOM     24  C   UNL A   1      33.148  30.835  26.609  1.00  0.00     0.251 C 
ATOM     25  H   UNL A   1      32.184  30.434  24.906  1.00  0.00     0.163 HD
ATOM     26  O   UNL A   1      32.358  31.723  26.931  1.00  0.00    -0.269 OA
BRANCH  24  27
ATOM     27  C   UNL A   1      34.359  30.587  27.417  1.00  0.00     0.039 A 
ATOM     28  C   UNL A   1      34.547  29.332  27.998  1.00  0.00     0.014 A 
ATOM     29  C   UNL A   1      35.293  31.604  27.626  1.00  0.00     0.014 A 
ATOM     30  C   UNL A   1      35.697  29.084  28.750  1.00  0.00     0.010 A 
ATOM     31  C   UNL A   1      36.482  31.327  28.287  1.00  0.00     0.010 A 
ATOM     32  C   UNL A   1      36.686  30.073  28.877  1.00  0.00    -0.014 A 
BRANCH  32  33
ATOM     33  C   UNL A   1      37.932  29.831  29.645  1.00  0.00     0.031 A 
ATOM     34  C   UNL A   1      38.983  28.903  29.097  1.00  0.00     0.074 A 
ATOM     35  C   UNL A   1      38.077  30.379  30.867  1.00  0.00     0.049 A 
ATOM     36  N   UNL A   1      40.105  28.514  29.642  1.00  0.00    -0.248 NA
ATOM     37  C   UNL A   1      38.722  28.307  27.775  1.00  0.00     0.031 C 
ATOM     38  C   UNL A   1      37.095  31.237  31.534  1.00  0.00     0.029 A 
ATOM     39  N   UNL A   1      39.098  30.276  31.777  1.00  0.00    -0.354 N 
ATOM     40  C   UNL A   1      40.664  27.606  28.752  1.00  0.00     0.074 A 
ATOM     41  C   UNL A   1      39.735  27.463  27.653  1.00  0.00     0.031 C 
ATOM     42  C   UNL A   1      37.568  31.595  32.737  1.00  0.00     0.029 A 
ATOM     43  C   UNL A   1      38.867  30.964  32.945  1.00  0.00     0.049 A 
ATOM     44  H   UNL A   1      39.918  29.759  31.610  1.00  0.00     0.167 HD
ATOM     45  C   UNL A   1      41.859  26.971  28.823  1.00  0.00     0.034 A 
ATOM     46  C   UNL A   1      39.618  31.071  34.057  1.00  0.00     0.034 A 
ATOM     47  C   UNL A   1      42.792  27.144  29.902  1.00  0.00     0.049 A 
ATOM     48  C   UNL A   1      40.952  30.377  34.103  1.00  0.00     0.074 A 
ATOM     49  C   UNL A   1      44.059  26.607  30.041  1.00  0.00     0.029 A 
ATOM     50  N   UNL A   1      42.555  27.909  31.034  1.00  0.00    -0.354 N 
ATOM     51  N   UNL A   1      41.528  29.633  33.188  1.00  0.00    -0.248 NA
ATOM     52  C   UNL A   1      41.758  30.567  35.317  1.00  0.00     0.031 C 
ATOM     53  C   UNL A   1      44.577  27.026  31.271  1.00  0.00     0.029 A 
ATOM     54  C   UNL A   1      43.649  27.856  31.881  1.00  0.00     0.049 A 
ATOM     55  H   UNL A   1      41.730  28.416  31.211  1.00  0.00     0.167 HD
ATOM     56  C   UNL A   1      42.780  29.307  33.696  1.00  0.00     0.074 A 
ATOM     57  C   UNL A   1      42.883  29.946  34.992  1.00  0.00     0.031 C 
ATOM     58  C   UNL A   1      43.755  28.542  33.143  1.00  0.00     0.034 A 
BRANCH  45  59
ATOM     59  C   UNL A   1      42.238  26.068  27.675  1.00  0.00     0.023 A 
ATOM     60  C   UNL A   1      43.019  26.577  26.616  1.00  0.00     0.012 A 
ATOM     61  C   UNL A   1      41.851  24.714  27.656  1.00  0.00     0.148 A 
ATOM     62  C   UNL A   1      43.367  25.768  25.534  1.00  0.00     0.002 A 
ATOM     63  C   UNL A   1      42.246  23.900  26.600  1.00  0.00     0.091 A 
ATOM     64  F   UNL A   1      41.092  24.250  28.659  1.00  0.00    -0.205 F 
ATOM     65  C   UNL A   1      42.988  24.430  25.531  1.00  0.00     0.022 A 
BRANCH  63  66
ATOM     66  S   UNL A   1      41.883  22.142  26.542  1.00  0.00     0.127 S 
ATOM     67  O   UNL A   1      40.433  22.146  26.356  1.00  0.00    -0.237 OA
ATOM     68  O   UNL A   1      42.646  21.709  25.372  1.00  0.00    -0.237 OA
ATOM     69  O   UNL A   1      42.349  21.595  27.808  1.00  0.00    -0.744 OA
ENDBRANCH  63  66
ENDBRANCH  45  59
BRANCH  46  70
ATOM     70  C   UNL A   1      39.164  31.935  35.185  1.00  0.00     0.023 A 
ATOM     71  C   UNL A   1      38.228  31.426  36.107  1.00  0.00     0.012 A 
ATOM     72  C   UNL A   1      39.670  33.236  35.366  1.00  0.00     0.148 A 
ATOM     73  C   UNL A   1      37.778  32.211  37.169  1.00  0.00     0.002 A 
ATOM     74  C   UNL A   1      39.259  33.992  36.457  1.00  0.00     0.091 A 
ATOM     75  F   UNL A   1      40.557  33.702  34.476  1.00  0.00    -0.205 F 
ATOM     76  C   UNL A   1      38.298  33.489  37.350  1.00  0.00     0.022 A 
BRANCH  74  77
ATOM     77  S   UNL A   1      39.967  35.596  36.847  1.00  0.00     0.127 S 
ATOM     78  O   UNL A   1      39.287  35.929  38.096  1.00  0.00    -0.237 OA
ATOM     79  O   UNL A   1      41.387  35.272  36.985  1.00  0.00    -0.237 OA
ATOM     80  O   UNL A   1      39.653  36.453  35.710  1.00  0.00    -0.744 OA
ENDBRANCH  74  77
ENDBRANCH  46  70
BRANCH  58  81
ATOM     81  C   UNL A   1      45.046  28.397  33.906  1.00  0.00     0.023 A 
ATOM     82  C   UNL A   1      46.096  29.313  33.703  1.00  0.00     0.012 A 
ATOM     83  C   UNL A   1      45.186  27.389  34.880  1.00  0.00     0.148 A 
ATOM     84  C   UNL A   1      47.281  29.205  34.429  1.00  0.00     0.002 A 
ATOM     85  C   UNL A   1      46.347  27.321  35.639  1.00  0.00     0.091 A 
ATOM     86  F   UNL A   1      44.181  26.516  35.047  1.00  0.00    -0.205 F 
ATOM     87  C   UNL A   1      47.401  28.218  35.406  1.00  0.00     0.022 A 
BRANCH  85  88
ATOM     88  S   UNL A   1      46.549  26.150  36.986  1.00  0.00     0.127 S 
ATOM     89  O   UNL A   1      46.484  24.871  36.281  1.00  0.00    -0.237 OA
ATOM     90  O   UNL A   1      47.873  26.495  37.502  1.00  0.00    -0.237 OA
ATOM     91  O   UNL A   1      45.454  26.409  37.912  1.00  0.00    -0.744 OA
ENDBRANCH  85  88
ENDBRANCH  58  81
ENDBRANCH  32  33
ENDBRANCH  24  27
ENDBRANCH  22  23
ENDBRANCH   1  22
TORSDOF 16
ENDMDL
