MODEL 1
REMARK VINA RESULT:     -13.9      0.000      0.000
REMARK SMILES O=C(N[C@]1(C(=O)NCCCNC(=O)c2ccc(-c3c4nc(c(-c5cccc(S(=O)(=O)[O-])c5F)c5ccc([nH]5)c(-c5cccc(S(=O)(=O)[O-])c5F)c5nc(c(-c6cccc(S(=O)(=O)[O-])c6F)c6ccc3[nH]6)C=C5)C=C4)cc2)CC[C@H](c2ccccc2)CC1)OCC1c2ccccc2-c2ccccc21
REMARK SMILES IDX 8 1 7 2 5 3 6 4 4 6 77 7 87 8 78 9 86 10 79 11 3 12 1 13
REMARK SMILES IDX 2 14 88 16 89 17 90 18 91 19 102 20 92 21 96 22 97 23 101 24
REMARK SMILES IDX 93 25 95 26 98 27 100 28 94 29 99 30 80 31 81 32 85 33 82 34
REMARK SMILES IDX 84 35 83 36 9 37 10 38 11 39 12 40 13 42 14 43 15 44 76 45
REMARK SMILES IDX 16 46 75 47 17 48 18 49 19 50 69 51 20 52 74 53 68 54 70 55
REMARK SMILES IDX 21 56 73 57 67 58 66 59 22 61 54 62 34 63 53 64 35 65 38 66
REMARK SMILES IDX 52 67 71 68 36 69 37 70 51 72 72 73 39 74 23 75 24 76 32 77
REMARK SMILES IDX 25 78 27 79 33 80 26 81 28 82 29 83 30 84 31 85 55 86 56 87
REMARK SMILES IDX 64 88 57 89 59 90 65 91 58 92 60 93 61 94 62 95 63 96 40 97
REMARK SMILES IDX 41 98 49 99 42 100 44 101 50 102 43 103 45 104 46 105 47 106
REMARK SMILES IDX 48 107
REMARK H PARENT 7 5 3 15 11 41 70 60 38 71
REMARK Flexibility Score: inf
ROOT
ATOM      1  C   UNL A   1      35.788  21.273  24.819  1.00  0.00     0.117 C 
ENDROOT
BRANCH   1   2
ATOM      2  N   UNL A   1      35.124  21.065  26.070  1.00  0.00    -0.354 N 
ATOM      3  C   UNL A   1      33.954  21.552  26.543  1.00  0.00     0.245 C 
ATOM      4  O   UNL A   1      33.649  21.069  27.648  1.00  0.00    -0.272 OA
ATOM      5  H   UNL A   1      35.600  20.466  26.690  1.00  0.00     0.163 HD
BRANCH   3   6
ATOM      6  C   UNL A   1      33.052  22.690  25.880  1.00  0.00     0.122 C 
ATOM      7  C   UNL A   1      32.579  22.714  24.431  1.00  0.00     0.039 C 
ATOM      8  C   UNL A   1      33.693  24.074  26.140  1.00  0.00     0.039 C 
ATOM      9  C   UNL A   1      33.571  22.979  23.334  1.00  0.00     0.011 C 
ATOM     10  C   UNL A   1      34.661  24.588  25.053  1.00  0.00     0.011 C 
ATOM     11  C   UNL A   1      34.324  24.287  23.561  1.00  0.00     0.019 C 
BRANCH   6  12
ATOM     12  N   UNL A   1      31.815  22.549  26.728  1.00  0.00    -0.307 N 
ATOM     13  O   UNL A   1      29.793  23.031  27.595  1.00  0.00    -0.225 OA
ATOM     14  C   UNL A   1      30.802  23.433  27.024  1.00  0.00     0.408 C 
ATOM     15  H   UNL A   1      31.712  21.664  27.147  1.00  0.00     0.168 HD
BRANCH  14  16
ATOM     16  O   UNL A   1      31.021  24.769  26.853  1.00  0.00    -0.449 OA
BRANCH  16  17
ATOM     17  C   UNL A   1      30.048  25.559  26.140  1.00  0.00     0.248 C 
BRANCH  17  18
ATOM     18  C   UNL A   1      30.677  26.505  25.070  1.00  0.00     0.088 C 
ATOM     19  C   UNL A   1      31.682  27.496  25.690  1.00  0.00    -0.029 A 
ATOM     20  C   UNL A   1      29.802  27.466  24.246  1.00  0.00    -0.029 A 
ATOM     21  C   UNL A   1      32.652  27.271  26.657  1.00  0.00     0.005 A 
ATOM     22  C   UNL A   1      31.476  28.793  25.172  1.00  0.00    -0.014 A 
ATOM     23  C   UNL A   1      30.369  28.764  24.246  1.00  0.00    -0.014 A 
ATOM     24  C   UNL A   1      28.626  27.227  23.550  1.00  0.00     0.005 A 
ATOM     25  C   UNL A   1      33.394  28.363  27.122  1.00  0.00     0.000 A 
ATOM     26  C   UNL A   1      32.204  29.879  25.642  1.00  0.00     0.009 A 
ATOM     27  C   UNL A   1      29.823  29.792  23.490  1.00  0.00     0.009 A 
ATOM     28  C   UNL A   1      28.047  28.277  22.825  1.00  0.00     0.000 A 
ATOM     29  C   UNL A   1      33.164  29.658  26.631  1.00  0.00     0.001 A 
ATOM     30  C   UNL A   1      28.655  29.540  22.770  1.00  0.00     0.001 A 
ENDBRANCH  17  18
ENDBRANCH  16  17
ENDBRANCH  14  16
ENDBRANCH   6  12
BRANCH  11  31
ATOM     31  C   UNL A   1      33.676  25.463  22.838  1.00  0.00    -0.045 A 
ATOM     32  C   UNL A   1      34.066  26.802  23.020  1.00  0.00     0.004 A 
ATOM     33  C   UNL A   1      32.560  25.206  22.030  1.00  0.00     0.004 A 
ATOM     34  C   UNL A   1      33.355  27.847  22.432  1.00  0.00     0.000 A 
ATOM     35  C   UNL A   1      31.860  26.250  21.426  1.00  0.00     0.000 A 
ATOM     36  C   UNL A   1      32.254  27.569  21.632  1.00  0.00     0.000 A 
ENDBRANCH  11  31
ENDBRANCH   3   6
ENDBRANCH   1   2
BRANCH   1  37
ATOM     37  C   UNL A   1      37.137  20.614  24.691  1.00  0.00     0.042 C 
BRANCH  37  38
ATOM     38  C   UNL A   1      38.237  21.358  25.407  1.00  0.00     0.118 C 
BRANCH  38  39
ATOM     39  N   UNL A   1      39.286  20.480  25.920  1.00  0.00    -0.352 N 
ATOM     40  C   UNL A   1      40.410  20.755  26.664  1.00  0.00     0.251 C 
ATOM     41  H   UNL A   1      39.169  19.528  25.695  1.00  0.00     0.163 HD
ATOM     42  O   UNL A   1      41.221  19.858  26.885  1.00  0.00    -0.269 OA
BRANCH  40  43
ATOM     43  C   UNL A   1      40.659  22.129  27.147  1.00  0.00     0.039 A 
ATOM     44  C   UNL A   1      41.513  22.329  28.233  1.00  0.00     0.014 A 
ATOM     45  C   UNL A   1      40.103  23.224  26.489  1.00  0.00     0.014 A 
ATOM     46  C   UNL A   1      41.881  23.629  28.585  1.00  0.00     0.010 A 
ATOM     47  C   UNL A   1      40.602  24.494  26.727  1.00  0.00     0.010 A 
ATOM     48  C   UNL A   1      41.474  24.719  27.797  1.00  0.00    -0.014 A 
BRANCH  48  49
ATOM     49  C   UNL A   1      41.930  26.101  28.088  1.00  0.00     0.031 A 
ATOM     50  C   UNL A   1      43.318  26.538  27.693  1.00  0.00     0.074 A 
ATOM     51  C   UNL A   1      41.122  26.935  28.774  1.00  0.00     0.049 A 
ATOM     52  N   UNL A   1      43.894  27.698  27.863  1.00  0.00    -0.248 NA
ATOM     53  C   UNL A   1      44.192  25.530  27.064  1.00  0.00     0.031 C 
ATOM     54  C   UNL A   1      39.807  26.584  29.321  1.00  0.00     0.029 A 
ATOM     55  N   UNL A   1      41.288  28.246  29.137  1.00  0.00    -0.354 N 
ATOM     56  C   UNL A   1      45.196  27.546  27.399  1.00  0.00     0.074 A 
ATOM     57  C   UNL A   1      45.351  26.165  27.007  1.00  0.00     0.031 C 
ATOM     58  C   UNL A   1      39.273  27.663  29.914  1.00  0.00     0.029 A 
ATOM     59  C   UNL A   1      40.214  28.773  29.816  1.00  0.00     0.049 A 
ATOM     60  H   UNL A   1      42.101  28.763  28.932  1.00  0.00     0.167 HD
ATOM     61  C   UNL A   1      46.164  28.482  27.261  1.00  0.00     0.034 A 
ATOM     62  C   UNL A   1      40.008  30.016  30.292  1.00  0.00     0.034 A 
ATOM     63  C   UNL A   1      45.981  29.865  27.599  1.00  0.00     0.049 A 
ATOM     64  C   UNL A   1      41.061  31.061  30.047  1.00  0.00     0.074 A 
ATOM     65  C   UNL A   1      46.855  30.920  27.418  1.00  0.00     0.029 A 
ATOM     66  N   UNL A   1      44.839  30.385  28.189  1.00  0.00    -0.354 N 
ATOM     67  N   UNL A   1      42.222  30.936  29.449  1.00  0.00    -0.248 NA
ATOM     68  C   UNL A   1      40.761  32.425  30.500  1.00  0.00     0.031 C 
ATOM     69  C   UNL A   1      46.247  32.077  27.917  1.00  0.00     0.029 A 
ATOM     70  C   UNL A   1      44.984  31.746  28.382  1.00  0.00     0.049 A 
ATOM     71  H   UNL A   1      44.041  29.862  28.433  1.00  0.00     0.167 HD
ATOM     72  C   UNL A   1      42.779  32.209  29.428  1.00  0.00     0.074 A 
ATOM     73  C   UNL A   1      41.811  33.094  30.045  1.00  0.00     0.031 C 
ATOM     74  C   UNL A   1      43.988  32.610  28.961  1.00  0.00     0.034 A 
BRANCH  61  75
ATOM     75  C   UNL A   1      47.475  28.044  26.659  1.00  0.00     0.023 A 
ATOM     76  C   UNL A   1      48.562  27.732  27.504  1.00  0.00     0.012 A 
ATOM     77  C   UNL A   1      47.628  27.913  25.265  1.00  0.00     0.148 A 
ATOM     78  C   UNL A   1      49.789  27.341  26.974  1.00  0.00     0.002 A 
ATOM     79  C   UNL A   1      48.841  27.473  24.746  1.00  0.00     0.091 A 
ATOM     80  F   UNL A   1      46.595  28.235  24.474  1.00  0.00    -0.205 F 
ATOM     81  C   UNL A   1      49.926  27.202  25.596  1.00  0.00     0.022 A 
BRANCH  79  82
ATOM     82  S   UNL A   1      49.098  27.184  22.993  1.00  0.00     0.127 S 
ATOM     83  O   UNL A   1      50.550  27.024  22.929  1.00  0.00    -0.237 OA
ATOM     84  O   UNL A   1      48.339  25.952  22.772  1.00  0.00    -0.237 OA
ATOM     85  O   UNL A   1      48.569  28.356  22.309  1.00  0.00    -0.744 OA
ENDBRANCH  79  82
ENDBRANCH  61  75
BRANCH  62  86
ATOM     86  C   UNL A   1      38.719  30.355  30.961  1.00  0.00     0.023 A 
ATOM     87  C   UNL A   1      38.520  29.999  32.310  1.00  0.00     0.012 A 
ATOM     88  C   UNL A   1      37.705  31.060  30.283  1.00  0.00     0.148 A 
ATOM     89  C   UNL A   1      37.325  30.306  32.961  1.00  0.00     0.002 A 
ATOM     90  C   UNL A   1      36.540  31.414  30.954  1.00  0.00     0.091 A 
ATOM     91  F   UNL A   1      37.907  31.382  28.998  1.00  0.00    -0.205 F 
ATOM     92  C   UNL A   1      36.339  31.023  32.287  1.00  0.00     0.022 A 
BRANCH  90  93
ATOM     93  S   UNL A   1      35.282  32.457  30.207  1.00  0.00     0.127 S 
ATOM     94  O   UNL A   1      34.828  31.629  29.095  1.00  0.00    -0.237 OA
ATOM     95  O   UNL A   1      34.321  32.604  31.302  1.00  0.00    -0.237 OA
ATOM     96  O   UNL A   1      35.963  33.692  29.843  1.00  0.00    -0.744 OA
ENDBRANCH  90  93
ENDBRANCH  62  86
BRANCH  74  97
ATOM     97  C   UNL A   1      44.319  34.074  29.077  1.00  0.00     0.023 A 
ATOM     98  C   UNL A   1      43.996  34.950  28.022  1.00  0.00     0.012 A 
ATOM     99  C   UNL A   1      44.898  34.586  30.253  1.00  0.00     0.148 A 
ATOM    100  C   UNL A   1      44.283  36.311  28.120  1.00  0.00     0.002 A 
ATOM    101  C   UNL A   1      45.131  35.951  30.365  1.00  0.00     0.091 A 
ATOM    102  F   UNL A   1      45.214  33.732  31.237  1.00  0.00    -0.205 F 
ATOM    103  C   UNL A   1      44.839  36.812  29.294  1.00  0.00     0.022 A 
BRANCH 101 104
ATOM    104  S   UNL A   1      45.751  36.695  31.877  1.00  0.00     0.127 S 
ATOM    105  O   UNL A   1      45.782  38.112  31.522  1.00  0.00    -0.237 OA
ATOM    106  O   UNL A   1      44.719  36.331  32.849  1.00  0.00    -0.237 OA
ATOM    107  O   UNL A   1      47.049  36.079  32.121  1.00  0.00    -0.744 OA
ENDBRANCH 101 104
ENDBRANCH  74  97
ENDBRANCH  48  49
ENDBRANCH  40  43
ENDBRANCH  38  39
ENDBRANCH  37  38
ENDBRANCH   1  37
TORSDOF 18
ENDMDL
MODEL 2
REMARK VINA RESULT:     -13.5      1.799      2.104
REMARK SMILES O=C(N[C@]1(C(=O)NCCCNC(=O)c2ccc(-c3c4nc(c(-c5cccc(S(=O)(=O)[O-])c5F)c5ccc([nH]5)c(-c5cccc(S(=O)(=O)[O-])c5F)c5nc(c(-c6cccc(S(=O)(=O)[O-])c6F)c6ccc3[nH]6)C=C5)C=C4)cc2)CC[C@H](c2ccccc2)CC1)OCC1c2ccccc2-c2ccccc21
REMARK SMILES IDX 8 1 7 2 5 3 6 4 4 6 77 7 87 8 78 9 86 10 79 11 3 12 1 13
REMARK SMILES IDX 2 14 88 16 89 17 90 18 91 19 102 20 92 21 96 22 97 23 101 24
REMARK SMILES IDX 93 25 95 26 98 27 100 28 94 29 99 30 80 31 81 32 85 33 82 34
REMARK SMILES IDX 84 35 83 36 9 37 10 38 11 39 12 40 13 42 14 43 15 44 76 45
REMARK SMILES IDX 16 46 75 47 17 48 18 49 19 50 69 51 20 52 74 53 68 54 70 55
REMARK SMILES IDX 21 56 73 57 67 58 66 59 22 61 54 62 34 63 53 64 35 65 38 66
REMARK SMILES IDX 52 67 71 68 36 69 37 70 51 72 72 73 39 74 23 75 24 76 32 77
REMARK SMILES IDX 25 78 27 79 33 80 26 81 28 82 29 83 30 84 31 85 55 86 56 87
REMARK SMILES IDX 64 88 57 89 59 90 65 91 58 92 60 93 61 94 62 95 63 96 40 97
REMARK SMILES IDX 41 98 49 99 42 100 44 101 50 102 43 103 45 104 46 105 47 106
REMARK SMILES IDX 48 107
REMARK H PARENT 7 5 3 15 11 41 70 60 38 71
REMARK Flexibility Score: inf
ROOT
ATOM      1  C   UNL A   1      35.962  21.308  24.894  1.00  0.00     0.117 C 
ENDROOT
BRANCH   1   2
ATOM      2  N   UNL A   1      35.252  21.053  26.111  1.00  0.00    -0.354 N 
ATOM      3  C   UNL A   1      34.051  21.498  26.545  1.00  0.00     0.245 C 
ATOM      4  O   UNL A   1      33.713  20.982  27.625  1.00  0.00    -0.272 OA
ATOM      5  H   UNL A   1      35.717  20.452  26.737  1.00  0.00     0.163 HD
BRANCH   3   6
ATOM      6  C   UNL A   1      33.147  22.628  25.870  1.00  0.00     0.122 C 
ATOM      7  C   UNL A   1      32.665  22.631  24.424  1.00  0.00     0.039 C 
ATOM      8  C   UNL A   1      33.794  24.015  26.103  1.00  0.00     0.039 C 
ATOM      9  C   UNL A   1      33.649  22.875  23.315  1.00  0.00     0.011 C 
ATOM     10  C   UNL A   1      34.755  24.508  25.001  1.00  0.00     0.011 C 
ATOM     11  C   UNL A   1      34.407  24.185  23.516  1.00  0.00     0.019 C 
BRANCH   6  12
ATOM     12  N   UNL A   1      31.915  22.504  26.728  1.00  0.00    -0.307 N 
ATOM     13  O   UNL A   1      29.897  23.002  27.596  1.00  0.00    -0.225 OA
ATOM     14  C   UNL A   1      30.902  23.393  27.009  1.00  0.00     0.408 C 
ATOM     15  H   UNL A   1      31.817  21.629  27.169  1.00  0.00     0.168 HD
BRANCH  14  16
ATOM     16  O   UNL A   1      31.116  24.725  26.806  1.00  0.00    -0.449 OA
BRANCH  16  17
ATOM     17  C   UNL A   1      30.122  25.502  26.109  1.00  0.00     0.248 C 
BRANCH  17  18
ATOM     18  C   UNL A   1      30.719  26.432  25.007  1.00  0.00     0.088 C 
ATOM     19  C   UNL A   1      31.758  27.418  25.578  1.00  0.00    -0.029 A 
ATOM     20  C   UNL A   1      29.822  27.395  24.209  1.00  0.00    -0.029 A 
ATOM     21  C   UNL A   1      32.762  27.192  26.508  1.00  0.00     0.005 A 
ATOM     22  C   UNL A   1      31.545  28.713  25.056  1.00  0.00    -0.014 A 
ATOM     23  C   UNL A   1      30.402  28.687  24.175  1.00  0.00    -0.014 A 
ATOM     24  C   UNL A   1      28.618  27.162  23.562  1.00  0.00     0.005 A 
ATOM     25  C   UNL A   1      33.533  28.279  26.934  1.00  0.00     0.000 A 
ATOM     26  C   UNL A   1      32.302  29.794  25.487  1.00  0.00     0.009 A 
ATOM     27  C   UNL A   1      29.837  29.714  23.431  1.00  0.00     0.009 A 
ATOM     28  C   UNL A   1      28.022  28.212  22.850  1.00  0.00     0.000 A 
ATOM     29  C   UNL A   1      33.297  29.572  26.440  1.00  0.00     0.001 A 
ATOM     30  C   UNL A   1      28.640  29.468  22.760  1.00  0.00     0.001 A 
ENDBRANCH  17  18
ENDBRANCH  16  17
ENDBRANCH  14  16
ENDBRANCH   6  12
BRANCH  11  31
ATOM     31  C   UNL A   1      33.757  25.350  22.780  1.00  0.00    -0.045 A 
ATOM     32  C   UNL A   1      34.189  26.684  22.894  1.00  0.00     0.004 A 
ATOM     33  C   UNL A   1      32.600  25.094  22.031  1.00  0.00     0.004 A 
ATOM     34  C   UNL A   1      33.478  27.726  22.299  1.00  0.00     0.000 A 
ATOM     35  C   UNL A   1      31.900  26.134  21.419  1.00  0.00     0.000 A 
ATOM     36  C   UNL A   1      32.336  27.449  21.559  1.00  0.00     0.000 A 
ENDBRANCH  11  31
ENDBRANCH   3   6
ENDBRANCH   1   2
BRANCH   1  37
ATOM     37  C   UNL A   1      37.342  20.707  24.819  1.00  0.00     0.042 C 
BRANCH  37  38
ATOM     38  C   UNL A   1      38.361  21.445  25.653  1.00  0.00     0.118 C 
BRANCH  38  39
ATOM     39  N   UNL A   1      39.554  20.650  25.939  1.00  0.00    -0.352 N 
ATOM     40  C   UNL A   1      40.749  20.996  26.523  1.00  0.00     0.251 C 
ATOM     41  H   UNL A   1      39.490  19.706  25.667  1.00  0.00     0.163 HD
ATOM     42  O   UNL A   1      41.664  20.175  26.556  1.00  0.00    -0.269 OA
BRANCH  40  43
ATOM     43  C   UNL A   1      40.944  22.359  27.060  1.00  0.00     0.039 A 
ATOM     44  C   UNL A   1      41.656  22.532  28.247  1.00  0.00     0.014 A 
ATOM     45  C   UNL A   1      40.482  23.470  26.358  1.00  0.00     0.014 A 
ATOM     46  C   UNL A   1      41.985  23.823  28.667  1.00  0.00     0.010 A 
ATOM     47  C   UNL A   1      40.954  24.731  26.680  1.00  0.00     0.010 A 
ATOM     48  C   UNL A   1      41.686  24.930  27.855  1.00  0.00    -0.014 A 
BRANCH  48  49
ATOM     49  C   UNL A   1      42.110  26.303  28.227  1.00  0.00     0.031 A 
ATOM     50  C   UNL A   1      43.535  26.741  28.002  1.00  0.00     0.074 A 
ATOM     51  C   UNL A   1      41.232  27.126  28.835  1.00  0.00     0.049 A 
ATOM     52  N   UNL A   1      44.092  27.894  28.262  1.00  0.00    -0.248 NA
ATOM     53  C   UNL A   1      44.472  25.742  27.453  1.00  0.00     0.031 C 
ATOM     54  C   UNL A   1      39.863  26.770  29.222  1.00  0.00     0.029 A 
ATOM     55  N   UNL A   1      41.360  28.428  29.244  1.00  0.00    -0.354 N 
ATOM     56  C   UNL A   1      45.437  27.745  27.946  1.00  0.00     0.074 A 
ATOM     57  C   UNL A   1      45.632  26.373  27.542  1.00  0.00     0.031 C 
ATOM     58  C   UNL A   1      39.268  27.838  29.775  1.00  0.00     0.029 A 
ATOM     59  C   UNL A   1      40.217  28.945  29.809  1.00  0.00     0.049 A 
ATOM     60  H   UNL A   1      42.192  28.945  29.144  1.00  0.00     0.167 HD
ATOM     61  C   UNL A   1      46.417  28.679  27.939  1.00  0.00     0.034 A 
ATOM     62  C   UNL A   1      39.961  30.178  30.286  1.00  0.00     0.034 A 
ATOM     63  C   UNL A   1      46.201  30.055  28.285  1.00  0.00     0.049 A 
ATOM     64  C   UNL A   1      41.039  31.223  30.186  1.00  0.00     0.074 A 
ATOM     65  C   UNL A   1      47.093  31.109  28.227  1.00  0.00     0.029 A 
ATOM     66  N   UNL A   1      45.001  30.568  28.753  1.00  0.00    -0.354 N 
ATOM     67  N   UNL A   1      42.260  31.105  29.721  1.00  0.00    -0.248 NA
ATOM     68  C   UNL A   1      40.693  32.578  30.633  1.00  0.00     0.031 C 
ATOM     69  C   UNL A   1      46.436  32.258  28.681  1.00  0.00     0.029 A 
ATOM     70  C   UNL A   1      45.126  31.924  28.992  1.00  0.00     0.049 A 
ATOM     71  H   UNL A   1      44.179  30.044  28.893  1.00  0.00     0.167 HD
ATOM     72  C   UNL A   1      42.819  32.375  29.792  1.00  0.00     0.074 A 
ATOM     73  C   UNL A   1      41.790  33.252  30.315  1.00  0.00     0.031 C 
ATOM     74  C   UNL A   1      44.074  32.780  29.474  1.00  0.00     0.034 A 
BRANCH  61  75
ATOM     75  C   UNL A   1      47.787  28.248  27.479  1.00  0.00     0.023 A 
ATOM     76  C   UNL A   1      48.122  28.330  26.111  1.00  0.00     0.012 A 
ATOM     77  C   UNL A   1      48.752  27.790  28.397  1.00  0.00     0.148 A 
ATOM     78  C   UNL A   1      49.374  27.924  25.656  1.00  0.00     0.002 A 
ATOM     79  C   UNL A   1      50.018  27.433  27.942  1.00  0.00     0.091 A 
ATOM     80  F   UNL A   1      48.412  27.694  29.690  1.00  0.00    -0.205 F 
ATOM     81  C   UNL A   1      50.325  27.485  26.573  1.00  0.00     0.022 A 
BRANCH  79  82
ATOM     82  S   UNL A   1      51.340  26.931  29.048  1.00  0.00     0.127 S 
ATOM     83  O   UNL A   1      52.399  26.583  28.103  1.00  0.00    -0.237 OA
ATOM     84  O   UNL A   1      51.581  28.156  29.812  1.00  0.00    -0.237 OA
ATOM     85  O   UNL A   1      50.812  25.820  29.829  1.00  0.00    -0.744 OA
ENDBRANCH  79  82
ENDBRANCH  61  75
BRANCH  62  86
ATOM     86  C   UNL A   1      38.606  30.510  30.813  1.00  0.00     0.023 A 
ATOM     87  C   UNL A   1      38.271  30.165  32.137  1.00  0.00     0.012 A 
ATOM     88  C   UNL A   1      37.662  31.196  30.025  1.00  0.00     0.148 A 
ATOM     89  C   UNL A   1      37.010  30.465  32.656  1.00  0.00     0.002 A 
ATOM     90  C   UNL A   1      36.429  31.544  30.566  1.00  0.00     0.091 A 
ATOM     91  F   UNL A   1      37.995  31.507  28.765  1.00  0.00    -0.205 F 
ATOM     92  C   UNL A   1      36.093  31.164  31.874  1.00  0.00     0.022 A 
BRANCH  90  93
ATOM     93  S   UNL A   1      35.246  32.564  29.679  1.00  0.00     0.127 S 
ATOM     94  O   UNL A   1      36.070  33.700  29.278  1.00  0.00    -0.237 OA
ATOM     95  O   UNL A   1      34.839  31.679  28.587  1.00  0.00    -0.237 OA
ATOM     96  O   UNL A   1      34.186  32.856  30.637  1.00  0.00    -0.744 OA
ENDBRANCH  90  93
ENDBRANCH  62  86
BRANCH  74  97
ATOM     97  C   UNL A   1      44.394  34.239  29.659  1.00  0.00     0.023 A 
ATOM     98  C   UNL A   1      44.880  34.697  30.900  1.00  0.00     0.012 A 
ATOM     99  C   UNL A   1      44.268  35.141  28.587  1.00  0.00     0.148 A 
ATOM    100  C   UNL A   1      45.194  36.043  31.083  1.00  0.00     0.002 A 
ATOM    101  C   UNL A   1      44.635  36.470  28.760  1.00  0.00     0.091 A 
ATOM    102  F   UNL A   1      43.787  34.688  27.420  1.00  0.00    -0.205 F 
ATOM    103  C   UNL A   1      45.083  36.926  30.012  1.00  0.00     0.022 A 
BRANCH 101 104
ATOM    104  S   UNL A   1      44.619  37.652  27.409  1.00  0.00     0.127 S 
ATOM    105  O   UNL A   1      43.297  37.423  26.828  1.00  0.00    -0.237 OA
ATOM    106  O   UNL A   1      44.765  38.928  28.110  1.00  0.00    -0.237 OA
ATOM    107  O   UNL A   1      45.749  37.301  26.559  1.00  0.00    -0.744 OA
ENDBRANCH 101 104
ENDBRANCH  74  97
ENDBRANCH  48  49
ENDBRANCH  40  43
ENDBRANCH  38  39
ENDBRANCH  37  38
ENDBRANCH   1  37
TORSDOF 18
ENDMDL
MODEL 3
REMARK VINA RESULT:     -13.4      0.988      7.160
REMARK SMILES O=C(N[C@]1(C(=O)NCCCNC(=O)c2ccc(-c3c4nc(c(-c5cccc(S(=O)(=O)[O-])c5F)c5ccc([nH]5)c(-c5cccc(S(=O)(=O)[O-])c5F)c5nc(c(-c6cccc(S(=O)(=O)[O-])c6F)c6ccc3[nH]6)C=C5)C=C4)cc2)CC[C@H](c2ccccc2)CC1)OCC1c2ccccc2-c2ccccc21
REMARK SMILES IDX 8 1 7 2 5 3 6 4 4 6 77 7 87 8 78 9 86 10 79 11 3 12 1 13
REMARK SMILES IDX 2 14 88 16 89 17 90 18 91 19 102 20 92 21 96 22 97 23 101 24
REMARK SMILES IDX 93 25 95 26 98 27 100 28 94 29 99 30 80 31 81 32 85 33 82 34
REMARK SMILES IDX 84 35 83 36 9 37 10 38 11 39 12 40 13 42 14 43 15 44 76 45
REMARK SMILES IDX 16 46 75 47 17 48 18 49 19 50 69 51 20 52 74 53 68 54 70 55
REMARK SMILES IDX 21 56 73 57 67 58 66 59 22 61 54 62 34 63 53 64 35 65 38 66
REMARK SMILES IDX 52 67 71 68 36 69 37 70 51 72 72 73 39 74 23 75 24 76 32 77
REMARK SMILES IDX 25 78 27 79 33 80 26 81 28 82 29 83 30 84 31 85 55 86 56 87
REMARK SMILES IDX 64 88 57 89 59 90 65 91 58 92 60 93 61 94 62 95 63 96 40 97
REMARK SMILES IDX 41 98 49 99 42 100 44 101 50 102 43 103 45 104 46 105 47 106
REMARK SMILES IDX 48 107
REMARK H PARENT 7 5 3 15 11 41 70 60 38 71
REMARK Flexibility Score: inf
ROOT
ATOM      1  C   UNL A   1      35.726  21.248  24.802  1.00  0.00     0.117 C 
ENDROOT
BRANCH   1   2
ATOM      2  N   UNL A   1      34.913  20.800  25.893  1.00  0.00    -0.354 N 
ATOM      3  C   UNL A   1      33.691  21.202  26.309  1.00  0.00     0.245 C 
ATOM      4  O   UNL A   1      33.255  20.510  27.246  1.00  0.00    -0.272 OA
ATOM      5  H   UNL A   1      35.312  20.078  26.430  1.00  0.00     0.163 HD
BRANCH   3   6
ATOM      6  C   UNL A   1      32.870  22.469  25.789  1.00  0.00     0.122 C 
ATOM      7  C   UNL A   1      32.324  22.653  24.377  1.00  0.00     0.039 C 
ATOM      8  C   UNL A   1      33.657  23.762  26.110  1.00  0.00     0.039 C 
ATOM      9  C   UNL A   1      33.276  22.909  23.243  1.00  0.00     0.011 C 
ATOM     10  C   UNL A   1      34.610  24.267  25.006  1.00  0.00     0.011 C 
ATOM     11  C   UNL A   1      34.165  24.119  23.519  1.00  0.00     0.019 C 
BRANCH   6  12
ATOM     12  N   UNL A   1      31.672  22.378  26.699  1.00  0.00    -0.307 N 
ATOM     13  O   UNL A   1      29.720  22.943  27.668  1.00  0.00    -0.225 OA
ATOM     14  C   UNL A   1      30.716  23.304  27.048  1.00  0.00     0.408 C 
ATOM     15  H   UNL A   1      31.553  21.496  27.120  1.00  0.00     0.168 HD
BRANCH  14  16
ATOM     16  O   UNL A   1      30.983  24.629  26.869  1.00  0.00    -0.449 OA
BRANCH  16  17
ATOM     17  C   UNL A   1      30.013  25.462  26.202  1.00  0.00     0.248 C 
BRANCH  17  18
ATOM     18  C   UNL A   1      30.626  26.352  25.075  1.00  0.00     0.088 C 
ATOM     19  C   UNL A   1      31.696  27.320  25.617  1.00  0.00    -0.029 A 
ATOM     20  C   UNL A   1      29.750  27.322  24.263  1.00  0.00    -0.029 A 
ATOM     21  C   UNL A   1      32.702  27.086  26.544  1.00  0.00     0.005 A 
ATOM     22  C   UNL A   1      31.515  28.609  25.069  1.00  0.00    -0.014 A 
ATOM     23  C   UNL A   1      30.364  28.596  24.197  1.00  0.00    -0.014 A 
ATOM     24  C   UNL A   1      28.534  27.108  23.631  1.00  0.00     0.005 A 
ATOM     25  C   UNL A   1      33.506  28.161  26.940  1.00  0.00     0.000 A 
ATOM     26  C   UNL A   1      32.305  29.678  25.471  1.00  0.00     0.009 A 
ATOM     27  C   UNL A   1      29.822  29.622  23.436  1.00  0.00     0.009 A 
ATOM     28  C   UNL A   1      27.961  28.159  22.901  1.00  0.00     0.000 A 
ATOM     29  C   UNL A   1      33.301  29.449  26.421  1.00  0.00     0.001 A 
ATOM     30  C   UNL A   1      28.613  29.395  22.779  1.00  0.00     0.001 A 
ENDBRANCH  17  18
ENDBRANCH  16  17
ENDBRANCH  14  16
ENDBRANCH   6  12
BRANCH  11  31
ATOM     31  C   UNL A   1      33.597  25.404  22.927  1.00  0.00    -0.045 A 
ATOM     32  C   UNL A   1      32.516  25.437  22.028  1.00  0.00     0.004 A 
ATOM     33  C   UNL A   1      34.255  26.608  23.211  1.00  0.00     0.004 A 
ATOM     34  C   UNL A   1      32.120  26.627  21.420  1.00  0.00     0.000 A 
ATOM     35  C   UNL A   1      33.847  27.803  22.617  1.00  0.00     0.000 A 
ATOM     36  C   UNL A   1      32.784  27.810  21.718  1.00  0.00     0.000 A 
ENDBRANCH  11  31
ENDBRANCH   3   6
ENDBRANCH   1   2
BRANCH   1  37
ATOM     37  C   UNL A   1      37.062  20.562  24.673  1.00  0.00     0.042 C 
BRANCH  37  38
ATOM     38  C   UNL A   1      38.171  21.274  25.408  1.00  0.00     0.118 C 
BRANCH  38  39
ATOM     39  N   UNL A   1      39.167  20.362  25.968  1.00  0.00    -0.352 N 
ATOM     40  C   UNL A   1      40.295  20.607  26.714  1.00  0.00     0.251 C 
ATOM     41  H   UNL A   1      39.001  19.410  25.779  1.00  0.00     0.163 HD
ATOM     42  O   UNL A   1      41.055  19.678  26.981  1.00  0.00    -0.269 OA
BRANCH  40  43
ATOM     43  C   UNL A   1      40.612  21.984  27.146  1.00  0.00     0.039 A 
ATOM     44  C   UNL A   1      41.491  22.183  28.212  1.00  0.00     0.014 A 
ATOM     45  C   UNL A   1      40.095  23.080  26.458  1.00  0.00     0.014 A 
ATOM     46  C   UNL A   1      41.922  23.477  28.513  1.00  0.00     0.010 A 
ATOM     47  C   UNL A   1      40.653  24.333  26.645  1.00  0.00     0.010 A 
ATOM     48  C   UNL A   1      41.551  24.556  27.694  1.00  0.00    -0.014 A 
BRANCH  48  49
ATOM     49  C   UNL A   1      42.073  25.925  27.931  1.00  0.00     0.031 A 
ATOM     50  C   UNL A   1      41.206  26.958  28.603  1.00  0.00     0.074 A 
ATOM     51  C   UNL A   1      43.298  26.255  27.473  1.00  0.00     0.049 A 
ATOM     52  N   UNL A   1      41.483  28.201  28.894  1.00  0.00    -0.248 NA
ATOM     53  C   UNL A   1      39.830  26.561  28.958  1.00  0.00     0.031 C 
ATOM     54  C   UNL A   1      44.178  25.379  26.695  1.00  0.00     0.029 A 
ATOM     55  N   UNL A   1      44.012  27.420  27.586  1.00  0.00    -0.354 N 
ATOM     56  C   UNL A   1      40.315  28.736  29.426  1.00  0.00     0.074 A 
ATOM     57  C   UNL A   1      39.304  27.709  29.354  1.00  0.00     0.031 C 
ATOM     58  C   UNL A   1      45.327  26.023  26.436  1.00  0.00     0.029 A 
ATOM     59  C   UNL A   1      45.256  27.365  27.003  1.00  0.00     0.049 A 
ATOM     60  H   UNL A   1      43.666  28.222  28.042  1.00  0.00     0.167 HD
ATOM     61  C   UNL A   1      40.112  29.956  29.975  1.00  0.00     0.034 A 
ATOM     62  C   UNL A   1      46.234  28.289  26.945  1.00  0.00     0.034 A 
ATOM     63  C   UNL A   1      41.141  30.951  30.096  1.00  0.00     0.049 A 
ATOM     64  C   UNL A   1      46.018  29.605  27.640  1.00  0.00     0.074 A 
ATOM     65  C   UNL A   1      41.079  32.185  30.715  1.00  0.00     0.029 A 
ATOM     66  N   UNL A   1      42.423  30.820  29.586  1.00  0.00    -0.354 N 
ATOM     67  N   UNL A   1      44.960  30.030  28.291  1.00  0.00    -0.248 NA
ATOM     68  C   UNL A   1      47.140  30.552  27.633  1.00  0.00     0.031 C 
ATOM     69  C   UNL A   1      42.321  32.810  30.561  1.00  0.00     0.029 A 
ATOM     70  C   UNL A   1      43.165  31.951  29.872  1.00  0.00     0.049 A 
ATOM     71  H   UNL A   1      42.758  30.035  29.094  1.00  0.00     0.167 HD
ATOM     72  C   UNL A   1      45.299  31.279  28.795  1.00  0.00     0.074 A 
ATOM     73  C   UNL A   1      46.672  31.526  28.401  1.00  0.00     0.031 C 
ATOM     74  C   UNL A   1      44.541  32.154  29.503  1.00  0.00     0.034 A 
BRANCH  61  75
ATOM     75  C   UNL A   1      38.746  30.246  30.543  1.00  0.00     0.023 A 
ATOM     76  C   UNL A   1      38.391  29.725  31.807  1.00  0.00     0.012 A 
ATOM     77  C   UNL A   1      37.825  31.053  29.848  1.00  0.00     0.148 A 
ATOM     78  C   UNL A   1      37.130  29.964  32.348  1.00  0.00     0.002 A 
ATOM     79  C   UNL A   1      36.586  31.328  30.419  1.00  0.00     0.091 A 
ATOM     80  F   UNL A   1      38.167  31.520  28.640  1.00  0.00    -0.205 F 
ATOM     81  C   UNL A   1      36.232  30.773  31.659  1.00  0.00     0.022 A 
BRANCH  79  82
ATOM     82  S   UNL A   1      35.387  32.423  29.652  1.00  0.00     0.127 S 
ATOM     83  O   UNL A   1      36.197  33.612  29.391  1.00  0.00    -0.237 OA
ATOM     84  O   UNL A   1      35.007  31.670  28.456  1.00  0.00    -0.237 OA
ATOM     85  O   UNL A   1      34.319  32.597  30.626  1.00  0.00    -0.744 OA
ENDBRANCH  79  82
ENDBRANCH  61  75
BRANCH  62  86
ATOM     86  C   UNL A   1      47.531  27.965  26.284  1.00  0.00     0.023 A 
ATOM     87  C   UNL A   1      48.660  27.671  27.073  1.00  0.00     0.012 A 
ATOM     88  C   UNL A   1      47.643  27.910  24.881  1.00  0.00     0.148 A 
ATOM     89  C   UNL A   1      49.885  27.363  26.479  1.00  0.00     0.002 A 
ATOM     90  C   UNL A   1      48.851  27.545  24.296  1.00  0.00     0.091 A 
ATOM     91  F   UNL A   1      46.561  28.202  24.146  1.00  0.00    -0.205 F 
ATOM     92  C   UNL A   1      49.978  27.289  25.091  1.00  0.00     0.022 A 
BRANCH  90  93
ATOM     93  S   UNL A   1      49.021  27.288  22.526  1.00  0.00     0.127 S 
ATOM     94  O   UNL A   1      48.325  28.451  21.986  1.00  0.00    -0.237 OA
ATOM     95  O   UNL A   1      50.475  27.303  22.356  1.00  0.00    -0.237 OA
ATOM     96  O   UNL A   1      48.403  25.996  22.257  1.00  0.00    -0.744 OA
ENDBRANCH  90  93
ENDBRANCH  62  86
BRANCH  74  97
ATOM     97  C   UNL A   1      45.189  33.448  29.918  1.00  0.00     0.023 A 
ATOM     98  C   UNL A   1      45.823  33.543  31.173  1.00  0.00     0.012 A 
ATOM     99  C   UNL A   1      45.219  34.547  29.039  1.00  0.00     0.148 A 
ATOM    100  C   UNL A   1      46.440  34.730  31.564  1.00  0.00     0.002 A 
ATOM    101  C   UNL A   1      45.883  35.708  29.414  1.00  0.00     0.091 A 
ATOM    102  F   UNL A   1      44.595  34.441  27.857  1.00  0.00    -0.205 F 
ATOM    103  C   UNL A   1      46.480  35.807  30.683  1.00  0.00     0.022 A 
BRANCH 101 104
ATOM    104  S   UNL A   1      46.070  37.106  28.303  1.00  0.00     0.127 S 
ATOM    105  O   UNL A   1      47.186  37.826  28.914  1.00  0.00    -0.237 OA
ATOM    106  O   UNL A   1      46.387  36.452  27.032  1.00  0.00    -0.237 OA
ATOM    107  O   UNL A   1      44.789  37.801  28.318  1.00  0.00    -0.744 OA
ENDBRANCH 101 104
ENDBRANCH  74  97
ENDBRANCH  48  49
ENDBRANCH  40  43
ENDBRANCH  38  39
ENDBRANCH  37  38
ENDBRANCH   1  37
TORSDOF 18
ENDMDL
