MODEL 1
REMARK VINA RESULT:     -13.9      0.000      0.000
REMARK SMILES Cc1cc(C[N@H+]2CC[C@@H](C(=O)NCCCNC(=O)c3ccc(-c4c5nc(c(-c6cccc(S(=O)(=O)[O-])c6F)c6ccc([nH]6)c(-c6cccc(S(=O)(=O)[O-])c6F)c6nc(c(-c7cccc(S(=O)(=O)[O-])c7F)c7ccc4[nH]7)C=C6)C=C5)cc3)[C@@H]2C)ccc1Br
REMARK SMILES IDX 14 1 13 2 12 3 10 4 11 5 9 7 6 8 7 9 82 10 8 12 83 13 5 14
REMARK SMILES IDX 4 15 1 16 2 17 3 18 86 19 85 20 87 21 84 22 15 23 16 24
REMARK SMILES IDX 17 25 18 27 19 28 20 29 81 30 21 31 80 32 22 33 23 34 24 35
REMARK SMILES IDX 74 36 25 37 79 38 73 39 75 40 26 41 78 42 72 43 71 44 27 46
REMARK SMILES IDX 59 47 39 48 58 49 40 50 43 51 57 52 76 53 41 54 42 55 56 57
REMARK SMILES IDX 77 58 44 59 28 60 29 61 37 62 30 63 32 64 38 65 31 66 33 67
REMARK SMILES IDX 34 68 35 69 36 70 60 71 61 72 69 73 62 74 64 75 70 76 63 77
REMARK SMILES IDX 65 78 66 79 67 80 68 81 45 82 46 83 54 84 47 85 49 86 55 87
REMARK SMILES IDX 48 88 50 89 51 90 52 91 53 92
REMARK H PARENT 12 6 6 11 16 26 75 45 43 56
REMARK Flexibility Score: inf
ROOT
ATOM      1  C   UNL A   1      33.619  28.973  25.226  1.00  0.00     0.042 C 
ENDROOT
BRANCH   1   2
ATOM      2  C   UNL A   1      33.325  28.827  23.060  1.00  0.00     0.117 C 
BRANCH   2   3
ATOM      3  N   UNL A   1      33.487  27.606  22.034  1.00  0.00    -0.356 N 
ATOM      4  C   UNL A   1      32.753  26.513  21.708  1.00  0.00     0.229 C 
ATOM      5  O   UNL A   1      33.245  25.766  20.851  1.00  0.00    -0.275 OA
ATOM      6  H   UNL A   1      34.321  27.663  21.515  1.00  0.00     0.163 HD
BRANCH   4   7
ATOM      7  C   UNL A   1      31.401  26.158  22.311  1.00  0.00     0.142 C 
ATOM      8  N   UNL A   1      30.964  25.825  24.658  1.00  0.00    -0.328 N 
ATOM      9  C   UNL A   1      30.293  27.065  24.272  1.00  0.00     0.263 C 
ATOM     10  C   UNL A   1      31.439  25.142  23.450  1.00  0.00     0.193 C 
ATOM     11  H   UNL A   1      30.270  25.233  25.117  1.00  0.00     0.348 HD
ATOM     12  C   UNL A   1      30.595  27.344  22.806  1.00  0.00     0.081 C 
ATOM     13  C   UNL A   1      30.517  23.950  23.181  1.00  0.00     0.076 C 
BRANCH   8  14
ATOM     14  C   UNL A   1      31.967  25.950  25.724  1.00  0.00     0.299 C 
BRANCH  14  15
ATOM     15  C   UNL A   1      32.909  24.778  25.824  1.00  0.00     0.007 A 
ATOM     16  C   UNL A   1      37.111  23.661  24.748  1.00  0.00     0.045 C 
ATOM     17  C   UNL A   1      35.656  23.489  25.053  1.00  0.00    -0.036 A 
ATOM     18  C   UNL A   1      34.606  24.950  25.222  1.00  0.00     0.014 A 
ATOM     19  C   UNL A   1      35.000  21.859  25.465  1.00  0.00     0.020 A 
ATOM     20  C   UNL A   1      33.332  21.684  26.118  1.00  0.00     0.016 A 
ATOM     21  Br  UNL A   1      36.008  20.297  25.099  1.00  0.00    -0.051 Br
ATOM     22  C   UNL A   1      32.289  23.146  26.315  1.00  0.00     0.011 A 
ENDBRANCH  14  15
ENDBRANCH   8  14
ENDBRANCH   4   7
ENDBRANCH   2   3
ENDBRANCH   1   2
BRANCH   1  23
ATOM     23  C   UNL A   1      32.732  29.564  26.548  1.00  0.00     0.118 C 
BRANCH  23  24
ATOM     24  N   UNL A   1      32.621  31.018  26.643  1.00  0.00    -0.352 N 
ATOM     25  C   UNL A   1      33.363  31.897  27.374  1.00  0.00     0.251 C 
ATOM     26  H   UNL A   1      31.906  31.421  26.100  1.00  0.00     0.163 HD
ATOM     27  O   UNL A   1      32.976  33.049  27.534  1.00  0.00    -0.269 OA
BRANCH  25  28
ATOM     28  C   UNL A   1      34.638  31.444  27.941  1.00  0.00     0.039 A 
ATOM     29  C   UNL A   1      34.736  30.137  28.414  1.00  0.00     0.014 A 
ATOM     30  C   UNL A   1      35.718  32.330  28.035  1.00  0.00     0.014 A 
ATOM     31  C   UNL A   1      35.922  29.725  29.001  1.00  0.00     0.010 A 
ATOM     32  C   UNL A   1      36.933  31.885  28.518  1.00  0.00     0.010 A 
ATOM     33  C   UNL A   1      37.020  30.600  29.059  1.00  0.00    -0.014 A 
BRANCH  33  34
ATOM     34  C   UNL A   1      38.247  30.200  29.768  1.00  0.00     0.031 A 
ATOM     35  C   UNL A   1      38.478  30.686  31.171  1.00  0.00     0.074 A 
ATOM     36  C   UNL A   1      39.134  29.421  29.127  1.00  0.00     0.049 A 
ATOM     37  N   UNL A   1      39.452  30.391  31.990  1.00  0.00    -0.248 NA
ATOM     38  C   UNL A   1      37.509  31.651  31.723  1.00  0.00     0.031 C 
ATOM     39  C   UNL A   1      39.023  28.990  27.730  1.00  0.00     0.029 A 
ATOM     40  N   UNL A   1      40.298  28.853  29.562  1.00  0.00    -0.354 N 
ATOM     41  C   UNL A   1      39.229  31.153  33.130  1.00  0.00     0.074 A 
ATOM     42  C   UNL A   1      38.062  31.964  32.884  1.00  0.00     0.031 C 
ATOM     43  C   UNL A   1      40.062  28.194  27.434  1.00  0.00     0.029 A 
ATOM     44  C   UNL A   1      40.918  28.081  28.609  1.00  0.00     0.049 A 
ATOM     45  H   UNL A   1      40.657  28.983  30.469  1.00  0.00     0.167 HD
ATOM     46  C   UNL A   1      39.919  31.145  34.292  1.00  0.00     0.034 A 
ATOM     47  C   UNL A   1      42.046  27.355  28.692  1.00  0.00     0.034 A 
ATOM     48  C   UNL A   1      41.054  30.295  34.518  1.00  0.00     0.049 A 
ATOM     49  C   UNL A   1      42.753  27.306  30.018  1.00  0.00     0.074 A 
ATOM     50  C   UNL A   1      41.793  30.129  35.674  1.00  0.00     0.029 A 
ATOM     51  N   UNL A   1      41.616  29.467  33.556  1.00  0.00    -0.354 N 
ATOM     52  N   UNL A   1      42.442  27.911  31.140  1.00  0.00    -0.248 NA
ATOM     53  C   UNL A   1      43.936  26.442  30.104  1.00  0.00     0.031 C 
ATOM     54  C   UNL A   1      42.823  29.223  35.400  1.00  0.00     0.029 A 
ATOM     55  C   UNL A   1      42.701  28.794  34.085  1.00  0.00     0.049 A 
ATOM     56  H   UNL A   1      41.289  29.372  32.633  1.00  0.00     0.167 HD
ATOM     57  C   UNL A   1      43.373  27.483  32.076  1.00  0.00     0.074 A 
ATOM     58  C   UNL A   1      44.239  26.541  31.392  1.00  0.00     0.031 C 
ATOM     59  C   UNL A   1      43.516  27.841  33.377  1.00  0.00     0.034 A 
BRANCH  46  60
ATOM     60  C   UNL A   1      39.442  32.048  35.401  1.00  0.00     0.023 A 
ATOM     61  C   UNL A   1      38.503  31.571  36.342  1.00  0.00     0.012 A 
ATOM     62  C   UNL A   1      39.940  33.359  35.533  1.00  0.00     0.148 A 
ATOM     63  C   UNL A   1      38.040  32.394  37.368  1.00  0.00     0.002 A 
ATOM     64  C   UNL A   1      39.511  34.157  36.586  1.00  0.00     0.091 A 
ATOM     65  F   UNL A   1      40.810  33.805  34.616  1.00  0.00    -0.205 F 
ATOM     66  C   UNL A   1      38.551  33.682  37.496  1.00  0.00     0.022 A 
BRANCH  64  67
ATOM     67  S   UNL A   1      40.165  35.802  36.887  1.00  0.00     0.127 S 
ATOM     68  O   UNL A   1      39.682  36.530  35.714  1.00  0.00    -0.237 OA
ATOM     69  O   UNL A   1      39.508  36.166  38.142  1.00  0.00    -0.237 OA
ATOM     70  O   UNL A   1      41.610  35.652  36.975  1.00  0.00    -0.744 OA
ENDBRANCH  64  67
ENDBRANCH  46  60
BRANCH  47  71
ATOM     71  C   UNL A   1      42.512  26.569  27.517  1.00  0.00     0.023 A 
ATOM     72  C   UNL A   1      43.382  27.161  26.580  1.00  0.00     0.012 A 
ATOM     73  C   UNL A   1      42.142  25.221  27.352  1.00  0.00     0.148 A 
ATOM     74  C   UNL A   1      43.846  26.434  25.483  1.00  0.00     0.002 A 
ATOM     75  C   UNL A   1      42.654  24.486  26.290  1.00  0.00     0.091 A 
ATOM     76  F   UNL A   1      41.310  24.678  28.252  1.00  0.00    -0.205 F 
ATOM     77  C   UNL A   1      43.492  25.095  25.343  1.00  0.00     0.022 A 
BRANCH  75  78
ATOM     78  S   UNL A   1      42.362  22.722  26.115  1.00  0.00     0.127 S 
ATOM     79  O   UNL A   1      43.056  22.188  27.285  1.00  0.00    -0.237 OA
ATOM     80  O   UNL A   1      40.902  22.649  26.177  1.00  0.00    -0.237 OA
ATOM     81  O   UNL A   1      42.925  22.357  24.822  1.00  0.00    -0.744 OA
ENDBRANCH  75  78
ENDBRANCH  47  71
BRANCH  59  82
ATOM     82  C   UNL A   1      44.636  27.192  34.141  1.00  0.00     0.023 A 
ATOM     83  C   UNL A   1      45.931  27.744  34.095  1.00  0.00     0.012 A 
ATOM     84  C   UNL A   1      44.387  26.068  34.952  1.00  0.00     0.148 A 
ATOM     85  C   UNL A   1      46.973  27.160  34.810  1.00  0.00     0.002 A 
ATOM     86  C   UNL A   1      45.418  25.526  35.707  1.00  0.00     0.091 A 
ATOM     87  F   UNL A   1      43.150  25.549  34.967  1.00  0.00    -0.205 F 
ATOM     88  C   UNL A   1      46.714  26.059  35.624  1.00  0.00     0.022 A 
BRANCH  86  89
ATOM     89  S   UNL A   1      45.152  24.178  36.862  1.00  0.00     0.127 S 
ATOM     90  O   UNL A   1      44.220  24.782  37.813  1.00  0.00    -0.237 OA
ATOM     91  O   UNL A   1      44.568  23.146  36.005  1.00  0.00    -0.237 OA
ATOM     92  O   UNL A   1      46.465  23.845  37.399  1.00  0.00    -0.744 OA
ENDBRANCH  86  89
ENDBRANCH  59  82
ENDBRANCH  33  34
ENDBRANCH  25  28
ENDBRANCH  23  24
ENDBRANCH   1  23
TORSDOF 15
ENDMDL
MODEL 2
REMARK VINA RESULT:     -13.9      1.695      2.934
REMARK SMILES Cc1cc(C[N@H+]2CC[C@@H](C(=O)NCCCNC(=O)c3ccc(-c4c5nc(c(-c6cccc(S(=O)(=O)[O-])c6F)c6ccc([nH]6)c(-c6cccc(S(=O)(=O)[O-])c6F)c6nc(c(-c7cccc(S(=O)(=O)[O-])c7F)c7ccc4[nH]7)C=C6)C=C5)cc3)[C@@H]2C)ccc1Br
REMARK SMILES IDX 14 1 13 2 12 3 10 4 11 5 9 7 6 8 7 9 82 10 8 12 83 13 5 14
REMARK SMILES IDX 4 15 1 16 2 17 3 18 86 19 85 20 87 21 84 22 15 23 16 24
REMARK SMILES IDX 17 25 18 27 19 28 20 29 81 30 21 31 80 32 22 33 23 34 24 35
REMARK SMILES IDX 74 36 25 37 79 38 73 39 75 40 26 41 78 42 72 43 71 44 27 46
REMARK SMILES IDX 59 47 39 48 58 49 40 50 43 51 57 52 76 53 41 54 42 55 56 57
REMARK SMILES IDX 77 58 44 59 28 60 29 61 37 62 30 63 32 64 38 65 31 66 33 67
REMARK SMILES IDX 34 68 35 69 36 70 60 71 61 72 69 73 62 74 64 75 70 76 63 77
REMARK SMILES IDX 65 78 66 79 67 80 68 81 45 82 46 83 54 84 47 85 49 86 55 87
REMARK SMILES IDX 48 88 50 89 51 90 52 91 53 92
REMARK H PARENT 12 6 6 11 16 26 75 45 43 56
REMARK Flexibility Score: inf
ROOT
ATOM      1  C   UNL A   1      32.251  28.232  26.152  1.00  0.00     0.042 C 
ENDROOT
BRANCH   1   2
ATOM      2  C   UNL A   1      32.356  26.044  26.124  1.00  0.00     0.117 C 
BRANCH   2   3
ATOM      3  N   UNL A   1      31.392  24.914  26.729  1.00  0.00    -0.356 N 
ATOM      4  C   UNL A   1      31.444  23.564  26.853  1.00  0.00     0.229 C 
ATOM      5  O   UNL A   1      30.456  23.031  27.376  1.00  0.00    -0.275 OA
ATOM      6  H   UNL A   1      30.562  25.290  27.100  1.00  0.00     0.163 HD
BRANCH   4   7
ATOM      7  C   UNL A   1      32.607  22.690  26.404  1.00  0.00     0.142 C 
ATOM      8  N   UNL A   1      33.192  22.214  24.114  1.00  0.00    -0.328 N 
ATOM      9  C   UNL A   1      34.246  23.072  24.653  1.00  0.00     0.263 C 
ATOM     10  C   UNL A   1      32.320  21.781  25.212  1.00  0.00     0.193 C 
ATOM     11  H   UNL A   1      33.644  21.392  23.712  1.00  0.00     0.348 HD
ATOM     12  C   UNL A   1      33.883  23.445  26.084  1.00  0.00     0.081 C 
ATOM     13  C   UNL A   1      32.636  20.316  25.524  1.00  0.00     0.076 C 
BRANCH   8  14
ATOM     14  C   UNL A   1      32.482  22.740  22.941  1.00  0.00     0.299 C 
BRANCH  14  15
ATOM     15  C   UNL A   1      32.082  24.188  23.060  1.00  0.00     0.007 A 
ATOM     16  C   UNL A   1      28.456  26.682  23.890  1.00  0.00     0.045 C 
ATOM     17  C   UNL A   1      29.800  26.311  23.345  1.00  0.00    -0.036 A 
ATOM     18  C   UNL A   1      30.376  24.605  23.490  1.00  0.00     0.014 A 
ATOM     19  C   UNL A   1      30.924  27.592  22.751  1.00  0.00     0.020 A 
ATOM     20  C   UNL A   1      32.640  27.198  22.374  1.00  0.00     0.016 A 
ATOM     21  Br  UNL A   1      30.287  29.340  22.394  1.00  0.00    -0.051 Br
ATOM     22  C   UNL A   1      33.227  25.498  22.545  1.00  0.00     0.011 A 
ENDBRANCH  14  15
ENDBRANCH   8  14
ENDBRANCH   4   7
ENDBRANCH   2   3
ENDBRANCH   1   2
BRANCH   1  23
ATOM     23  C   UNL A   1      33.257  29.515  25.679  1.00  0.00     0.118 C 
BRANCH  23  24
ATOM     24  N   UNL A   1      32.878  30.838  26.169  1.00  0.00    -0.352 N 
ATOM     25  C   UNL A   1      33.380  31.549  27.219  1.00  0.00     0.251 C 
ATOM     26  H   UNL A   1      32.155  31.281  25.670  1.00  0.00     0.163 HD
ATOM     27  O   UNL A   1      32.779  32.528  27.645  1.00  0.00    -0.269 OA
BRANCH  25  28
ATOM     28  C   UNL A   1      34.658  31.132  27.807  1.00  0.00     0.039 A 
ATOM     29  C   UNL A   1      34.804  29.813  28.231  1.00  0.00     0.014 A 
ATOM     30  C   UNL A   1      35.692  32.063  27.967  1.00  0.00     0.014 A 
ATOM     31  C   UNL A   1      35.991  29.433  28.838  1.00  0.00     0.010 A 
ATOM     32  C   UNL A   1      36.912  31.655  28.468  1.00  0.00     0.010 A 
ATOM     33  C   UNL A   1      37.044  30.355  28.963  1.00  0.00    -0.014 A 
BRANCH  33  34
ATOM     34  C   UNL A   1      38.269  29.984  29.693  1.00  0.00     0.031 A 
ATOM     35  C   UNL A   1      38.468  30.481  31.097  1.00  0.00     0.074 A 
ATOM     36  C   UNL A   1      39.181  29.220  29.070  1.00  0.00     0.049 A 
ATOM     37  N   UNL A   1      39.434  30.211  31.932  1.00  0.00    -0.248 NA
ATOM     38  C   UNL A   1      37.470  31.429  31.628  1.00  0.00     0.031 C 
ATOM     39  C   UNL A   1      39.100  28.780  27.674  1.00  0.00     0.029 A 
ATOM     40  N   UNL A   1      40.350  28.678  29.526  1.00  0.00    -0.354 N 
ATOM     41  C   UNL A   1      39.178  30.974  33.065  1.00  0.00     0.074 A 
ATOM     42  C   UNL A   1      37.998  31.759  32.796  1.00  0.00     0.031 C 
ATOM     43  C   UNL A   1      40.160  28.004  27.398  1.00  0.00     0.029 A 
ATOM     44  C   UNL A   1      41.000  27.915  28.587  1.00  0.00     0.049 A 
ATOM     45  H   UNL A   1      40.692  28.821  30.438  1.00  0.00     0.167 HD
ATOM     46  C   UNL A   1      39.850  30.986  34.237  1.00  0.00     0.034 A 
ATOM     47  C   UNL A   1      42.141  27.212  28.691  1.00  0.00     0.034 A 
ATOM     48  C   UNL A   1      40.999  30.161  34.485  1.00  0.00     0.049 A 
ATOM     49  C   UNL A   1      42.828  27.185  30.028  1.00  0.00     0.074 A 
ATOM     50  C   UNL A   1      41.723  30.016  35.653  1.00  0.00     0.029 A 
ATOM     51  N   UNL A   1      41.592  29.339  33.537  1.00  0.00    -0.354 N 
ATOM     52  N   UNL A   1      42.487  27.789  31.142  1.00  0.00    -0.248 NA
ATOM     53  C   UNL A   1      44.027  26.346  30.137  1.00  0.00     0.031 C 
ATOM     54  C   UNL A   1      42.775  29.130  35.400  1.00  0.00     0.029 A 
ATOM     55  C   UNL A   1      42.682  28.692  34.086  1.00  0.00     0.049 A 
ATOM     56  H   UNL A   1      41.281  29.233  32.609  1.00  0.00     0.167 HD
ATOM     57  C   UNL A   1      43.412  27.384  32.094  1.00  0.00     0.074 A 
ATOM     58  C   UNL A   1      44.308  26.457  31.428  1.00  0.00     0.031 C 
ATOM     59  C   UNL A   1      43.528  27.752  33.395  1.00  0.00     0.034 A 
BRANCH  46  60
ATOM     60  C   UNL A   1      39.337  31.884  35.334  1.00  0.00     0.023 A 
ATOM     61  C   UNL A   1      38.378  31.399  36.250  1.00  0.00     0.012 A 
ATOM     62  C   UNL A   1      39.821  33.199  35.478  1.00  0.00     0.148 A 
ATOM     63  C   UNL A   1      37.882  32.218  37.264  1.00  0.00     0.002 A 
ATOM     64  C   UNL A   1      39.358  33.993  36.521  1.00  0.00     0.091 A 
ATOM     65  F   UNL A   1      40.711  33.653  34.585  1.00  0.00    -0.205 F 
ATOM     66  C   UNL A   1      38.380  33.510  37.406  1.00  0.00     0.022 A 
BRANCH  64  67
ATOM     67  S   UNL A   1      39.991  35.643  36.839  1.00  0.00     0.127 S 
ATOM     68  O   UNL A   1      39.276  36.003  38.063  1.00  0.00    -0.237 OA
ATOM     69  O   UNL A   1      41.421  35.391  37.021  1.00  0.00    -0.237 OA
ATOM     70  O   UNL A   1      39.656  36.437  35.666  1.00  0.00    -0.744 OA
ENDBRANCH  64  67
ENDBRANCH  46  60
BRANCH  47  71
ATOM     71  C   UNL A   1      42.641  26.430  27.527  1.00  0.00     0.023 A 
ATOM     72  C   UNL A   1      43.561  27.016  26.634  1.00  0.00     0.012 A 
ATOM     73  C   UNL A   1      42.253  25.091  27.331  1.00  0.00     0.148 A 
ATOM     74  C   UNL A   1      44.057  26.291  25.549  1.00  0.00     0.002 A 
ATOM     75  C   UNL A   1      42.796  24.358  26.283  1.00  0.00     0.091 A 
ATOM     76  F   UNL A   1      41.375  24.555  28.190  1.00  0.00    -0.205 F 
ATOM     77  C   UNL A   1      43.684  24.961  25.380  1.00  0.00     0.022 A 
BRANCH  75  78
ATOM     78  S   UNL A   1      42.479  22.602  26.077  1.00  0.00     0.127 S 
ATOM     79  O   UNL A   1      43.111  22.043  27.269  1.00  0.00    -0.237 OA
ATOM     80  O   UNL A   1      41.017  22.556  26.075  1.00  0.00    -0.237 OA
ATOM     81  O   UNL A   1      43.091  22.239  24.805  1.00  0.00    -0.744 OA
ENDBRANCH  75  78
ENDBRANCH  47  71
BRANCH  59  82
ATOM     82  C   UNL A   1      44.649  27.130  34.180  1.00  0.00     0.023 A 
ATOM     83  C   UNL A   1      45.927  27.721  34.169  1.00  0.00     0.012 A 
ATOM     84  C   UNL A   1      44.415  25.992  34.976  1.00  0.00     0.148 A 
ATOM     85  C   UNL A   1      46.970  27.161  34.903  1.00  0.00     0.002 A 
ATOM     86  C   UNL A   1      45.444  25.474  35.750  1.00  0.00     0.091 A 
ATOM     87  F   UNL A   1      43.194  25.437  34.958  1.00  0.00    -0.205 F 
ATOM     88  C   UNL A   1      46.726  26.047  35.702  1.00  0.00     0.022 A 
BRANCH  86  89
ATOM     89  S   UNL A   1      45.192  24.109  36.888  1.00  0.00     0.127 S 
ATOM     90  O   UNL A   1      44.174  24.655  37.785  1.00  0.00    -0.237 OA
ATOM     91  O   UNL A   1      44.719  23.048  35.999  1.00  0.00    -0.237 OA
ATOM     92  O   UNL A   1      46.490  23.851  37.499  1.00  0.00    -0.744 OA
ENDBRANCH  86  89
ENDBRANCH  59  82
ENDBRANCH  33  34
ENDBRANCH  25  28
ENDBRANCH  23  24
ENDBRANCH   1  23
TORSDOF 15
ENDMDL
MODEL 3
REMARK VINA RESULT:     -13.4      2.483      8.127
REMARK SMILES Cc1cc(C[N@H+]2CC[C@@H](C(=O)NCCCNC(=O)c3ccc(-c4c5nc(c(-c6cccc(S(=O)(=O)[O-])c6F)c6ccc([nH]6)c(-c6cccc(S(=O)(=O)[O-])c6F)c6nc(c(-c7cccc(S(=O)(=O)[O-])c7F)c7ccc4[nH]7)C=C6)C=C5)cc3)[C@@H]2C)ccc1Br
REMARK SMILES IDX 14 1 13 2 12 3 10 4 11 5 9 7 6 8 7 9 82 10 8 12 83 13 5 14
REMARK SMILES IDX 4 15 1 16 2 17 3 18 86 19 85 20 87 21 84 22 15 23 16 24
REMARK SMILES IDX 17 25 18 27 19 28 20 29 81 30 21 31 80 32 22 33 23 34 24 35
REMARK SMILES IDX 74 36 25 37 79 38 73 39 75 40 26 41 78 42 72 43 71 44 27 46
REMARK SMILES IDX 59 47 39 48 58 49 40 50 43 51 57 52 76 53 41 54 42 55 56 57
REMARK SMILES IDX 77 58 44 59 28 60 29 61 37 62 30 63 32 64 38 65 31 66 33 67
REMARK SMILES IDX 34 68 35 69 36 70 60 71 61 72 69 73 62 74 64 75 70 76 63 77
REMARK SMILES IDX 65 78 66 79 67 80 68 81 45 82 46 83 54 84 47 85 49 86 55 87
REMARK SMILES IDX 48 88 50 89 51 90 52 91 53 92
REMARK H PARENT 12 6 6 11 16 26 75 45 43 56
REMARK Flexibility Score: inf
ROOT
ATOM      1  C   UNL A   1      31.465  32.036  26.718  1.00  0.00     0.042 C 
ENDROOT
BRANCH   1   2
ATOM      2  C   UNL A   1      31.104  30.463  25.237  1.00  0.00     0.117 C 
BRANCH   2   3
ATOM      3  N   UNL A   1      32.055  29.327  24.621  1.00  0.00    -0.356 N 
ATOM      4  C   UNL A   1      32.001  27.977  24.510  1.00  0.00     0.229 C 
ATOM      5  O   UNL A   1      32.978  27.439  23.972  1.00  0.00    -0.275 OA
ATOM      6  H   UNL A   1      32.877  29.701  24.231  1.00  0.00     0.163 HD
BRANCH   4   7
ATOM      7  C   UNL A   1      30.848  27.107  24.991  1.00  0.00     0.142 C 
ATOM      8  N   UNL A   1      30.392  24.858  24.251  1.00  0.00    -0.328 N 
ATOM      9  C   UNL A   1      30.837  24.767  25.640  1.00  0.00     0.263 C 
ATOM     10  C   UNL A   1      30.167  26.268  23.912  1.00  0.00     0.193 C 
ATOM     11  H   UNL A   1      29.504  24.359  24.181  1.00  0.00     0.348 HD
ATOM     12  C   UNL A   1      31.193  26.165  26.128  1.00  0.00     0.081 C 
ATOM     13  C   UNL A   1      28.657  26.513  23.868  1.00  0.00     0.076 C 
BRANCH   8  14
ATOM     14  C   UNL A   1      31.202  24.117  23.274  1.00  0.00     0.299 C 
BRANCH  14  15
ATOM     15  C   UNL A   1      32.324  23.316  23.884  1.00  0.00     0.007 A 
ATOM     16  C   UNL A   1      36.586  23.819  25.166  1.00  0.00     0.045 C 
ATOM     17  C   UNL A   1      35.345  23.135  24.682  1.00  0.00    -0.036 A 
ATOM     18  C   UNL A   1      33.901  24.126  24.237  1.00  0.00     0.014 A 
ATOM     19  C   UNL A   1      35.214  21.337  24.750  1.00  0.00     0.020 A 
ATOM     20  C   UNL A   1      33.635  20.524  24.455  1.00  0.00     0.016 A 
ATOM     21  Br  UNL A   1      36.758  20.269  25.007  1.00  0.00    -0.051 Br
ATOM     22  C   UNL A   1      32.182  21.514  24.038  1.00  0.00     0.011 A 
ENDBRANCH  14  15
ENDBRANCH   8  14
ENDBRANCH   4   7
ENDBRANCH   2   3
ENDBRANCH   1   2
BRANCH   1  23
ATOM     23  C   UNL A   1      32.822  32.731  27.463  1.00  0.00     0.118 C 
BRANCH  23  24
ATOM     24  N   UNL A   1      32.762  34.175  27.682  1.00  0.00    -0.352 N 
ATOM     25  C   UNL A   1      33.344  34.928  28.658  1.00  0.00     0.251 C 
ATOM     26  H   UNL A   1      32.223  34.677  27.029  1.00  0.00     0.163 HD
ATOM     27  O   UNL A   1      32.986  36.086  28.841  1.00  0.00    -0.269 OA
BRANCH  25  28
ATOM     28  C   UNL A   1      34.417  34.333  29.463  1.00  0.00     0.039 A 
ATOM     29  C   UNL A   1      35.737  34.500  29.050  1.00  0.00     0.014 A 
ATOM     30  C   UNL A   1      34.104  33.582  30.602  1.00  0.00     0.014 A 
ATOM     31  C   UNL A   1      36.747  33.891  29.779  1.00  0.00     0.010 A 
ATOM     32  C   UNL A   1      35.117  33.071  31.388  1.00  0.00     0.010 A 
ATOM     33  C   UNL A   1      36.438  33.171  30.945  1.00  0.00    -0.014 A 
BRANCH  33  34
ATOM     34  C   UNL A   1      37.496  32.443  31.666  1.00  0.00     0.031 A 
ATOM     35  C   UNL A   1      38.210  31.312  30.980  1.00  0.00     0.074 A 
ATOM     36  C   UNL A   1      37.780  32.805  32.928  1.00  0.00     0.049 A 
ATOM     37  N   UNL A   1      39.214  30.597  31.410  1.00  0.00    -0.248 NA
ATOM     38  C   UNL A   1      37.719  30.909  29.649  1.00  0.00     0.031 C 
ATOM     39  C   UNL A   1      37.061  33.829  33.693  1.00  0.00     0.029 A 
ATOM     40  N   UNL A   1      38.743  32.358  33.788  1.00  0.00    -0.354 N 
ATOM     41  C   UNL A   1      39.451  29.648  30.423  1.00  0.00     0.074 A 
ATOM     42  C   UNL A   1      38.456  29.839  29.396  1.00  0.00     0.031 C 
ATOM     43  C   UNL A   1      37.634  33.955  34.900  1.00  0.00     0.029 A 
ATOM     44  C   UNL A   1      38.738  33.008  34.998  1.00  0.00     0.049 A 
ATOM     45  H   UNL A   1      39.377  31.640  33.562  1.00  0.00     0.167 HD
ATOM     46  C   UNL A   1      40.436  28.724  30.366  1.00  0.00     0.034 A 
ATOM     47  C   UNL A   1      39.552  32.858  36.058  1.00  0.00     0.034 A 
ATOM     48  C   UNL A   1      41.435  28.587  31.389  1.00  0.00     0.049 A 
ATOM     49  C   UNL A   1      40.684  31.875  35.938  1.00  0.00     0.074 A 
ATOM     50  C   UNL A   1      42.533  27.750  31.418  1.00  0.00     0.029 A 
ATOM     51  N   UNL A   1      41.449  29.313  32.572  1.00  0.00    -0.354 N 
ATOM     52  N   UNL A   1      40.992  31.091  34.932  1.00  0.00    -0.248 NA
ATOM     53  C   UNL A   1      41.605  31.789  37.077  1.00  0.00     0.031 C 
ATOM     54  C   UNL A   1      43.193  27.947  32.635  1.00  0.00     0.029 A 
ATOM     55  C   UNL A   1      42.529  28.937  33.346  1.00  0.00     0.049 A 
ATOM     56  H   UNL A   1      40.786  29.996  32.822  1.00  0.00     0.167 HD
ATOM     57  C   UNL A   1      42.158  30.436  35.302  1.00  0.00     0.074 A 
ATOM     58  C   UNL A   1      42.515  30.942  36.614  1.00  0.00     0.031 C 
ATOM     59  C   UNL A   1      42.865  29.490  34.634  1.00  0.00     0.034 A 
BRANCH  46  60
ATOM     60  C   UNL A   1      40.496  27.831  29.154  1.00  0.00     0.023 A 
ATOM     61  C   UNL A   1      39.603  26.743  29.036  1.00  0.00     0.012 A 
ATOM     62  C   UNL A   1      41.415  28.080  28.116  1.00  0.00     0.148 A 
ATOM     63  C   UNL A   1      39.651  25.898  27.928  1.00  0.00     0.002 A 
ATOM     64  C   UNL A   1      41.423  27.263  26.992  1.00  0.00     0.091 A 
ATOM     65  F   UNL A   1      42.273  29.100  28.256  1.00  0.00    -0.205 F 
ATOM     66  C   UNL A   1      40.553  26.164  26.902  1.00  0.00     0.022 A 
BRANCH  64  67
ATOM     67  S   UNL A   1      42.492  27.565  25.580  1.00  0.00     0.127 S 
ATOM     68  O   UNL A   1      41.937  28.810  25.051  1.00  0.00    -0.237 OA
ATOM     69  O   UNL A   1      43.803  27.704  26.215  1.00  0.00    -0.237 OA
ATOM     70  O   UNL A   1      42.354  26.404  24.714  1.00  0.00    -0.744 OA
ENDBRANCH  64  67
ENDBRANCH  46  60
BRANCH  47  71
ATOM     71  C   UNL A   1      39.365  33.708  37.265  1.00  0.00     0.023 A 
ATOM     72  C   UNL A   1      39.829  35.038  37.263  1.00  0.00     0.012 A 
ATOM     73  C   UNL A   1      38.680  33.222  38.395  1.00  0.00     0.148 A 
ATOM     74  C   UNL A   1      39.643  35.857  38.378  1.00  0.00     0.002 A 
ATOM     75  C   UNL A   1      38.448  34.060  39.479  1.00  0.00     0.091 A 
ATOM     76  F   UNL A   1      38.251  31.953  38.379  1.00  0.00    -0.205 F 
ATOM     77  C   UNL A   1      38.945  35.372  39.480  1.00  0.00     0.022 A 
BRANCH  75  78
ATOM     78  S   UNL A   1      37.436  33.563  40.877  1.00  0.00     0.127 S 
ATOM     79  O   UNL A   1      38.276  32.547  41.507  1.00  0.00    -0.237 OA
ATOM     80  O   UNL A   1      37.317  34.815  41.625  1.00  0.00    -0.237 OA
ATOM     81  O   UNL A   1      36.184  33.085  40.306  1.00  0.00    -0.744 OA
ENDBRANCH  75  78
ENDBRANCH  47  71
BRANCH  59  82
ATOM     82  C   UNL A   1      44.104  28.966  35.306  1.00  0.00     0.023 A 
ATOM     83  C   UNL A   1      45.353  29.556  35.034  1.00  0.00     0.012 A 
ATOM     84  C   UNL A   1      44.015  27.925  36.250  1.00  0.00     0.148 A 
ATOM     85  C   UNL A   1      46.505  29.087  35.661  1.00  0.00     0.002 A 
ATOM     86  C   UNL A   1      45.159  27.502  36.913  1.00  0.00     0.091 A 
ATOM     87  F   UNL A   1      42.817  27.367  36.480  1.00  0.00    -0.205 F 
ATOM     88  C   UNL A   1      46.406  28.070  36.607  1.00  0.00     0.022 A 
BRANCH  86  89
ATOM     89  S   UNL A   1      45.109  26.275  38.222  1.00  0.00     0.127 S 
ATOM     90  O   UNL A   1      44.628  25.096  37.504  1.00  0.00    -0.237 OA
ATOM     91  O   UNL A   1      46.509  26.209  38.638  1.00  0.00    -0.237 OA
ATOM     92  O   UNL A   1      44.203  26.805  39.233  1.00  0.00    -0.744 OA
ENDBRANCH  86  89
ENDBRANCH  59  82
ENDBRANCH  33  34
ENDBRANCH  25  28
ENDBRANCH  23  24
ENDBRANCH   1  23
TORSDOF 15
ENDMDL
