MODEL 1
REMARK VINA RESULT:     -11.1      0.000      0.000
REMARK SMILES C[C@H]([NH2+]CC1CCCC1)[C@H](C)C(=O)NCCCNC(=O)c1ccc(-c2c3nc(c(-c4cccc(S(=O)(=O)[O-])c4F)c4ccc([nH]4)c(-c4cccc(S(=O)(=O)[O-])c4F)c4nc(c(-c5cccc(S(=O)(=O)[O-])c5F)c5ccc2[nH]5)C=C4)C=C3)cc1
REMARK SMILES IDX 15 1 14 2 12 3 13 4 10 6 11 7 2 8 1 9 3 10 4 13 5 14 6 15
REMARK SMILES IDX 9 16 7 17 8 18 16 19 17 20 18 21 19 22 20 24 21 25 22 26
REMARK SMILES IDX 83 27 23 28 82 29 24 30 25 31 26 32 76 33 27 34 81 35 75 36
REMARK SMILES IDX 77 37 28 38 80 39 74 40 73 41 29 43 61 44 41 45 60 46 42 47
REMARK SMILES IDX 45 48 59 49 78 50 43 51 44 52 58 54 79 55 46 56 30 57 31 58
REMARK SMILES IDX 39 59 32 60 34 61 40 62 33 63 35 64 36 65 37 66 38 67 62 68
REMARK SMILES IDX 63 69 71 70 64 71 66 72 72 73 65 74 67 75 68 76 69 77 70 78
REMARK SMILES IDX 47 79 48 80 56 81 49 82 51 83 57 84 50 85 52 86 53 87 54 88
REMARK SMILES IDX 55 89
REMARK H PARENT 14 5 3 11 3 12 18 23 77 42 45 53
REMARK Flexibility Score: inf
ROOT
ATOM      1  C   UNL A   1      34.597  22.446  23.886  1.00  0.00     0.117 C 
ENDROOT
BRANCH   1   2
ATOM      2  N   UNL A   1      34.338  23.433  22.855  1.00  0.00    -0.356 N 
ATOM      3  C   UNL A   1      33.712  24.639  22.923  1.00  0.00     0.228 C 
ATOM      4  O   UNL A   1      33.635  25.310  21.889  1.00  0.00    -0.275 OA
ATOM      5  H   UNL A   1      34.669  23.191  21.960  1.00  0.00     0.163 HD
BRANCH   3   6
ATOM      6  C   UNL A   1      33.110  25.156  24.226  1.00  0.00     0.133 C 
ATOM      7  C   UNL A   1      33.766  26.487  24.613  1.00  0.00     0.024 C 
BRANCH   6   8
ATOM      8  C   UNL A   1      31.553  25.127  24.195  1.00  0.00     0.191 C 
ATOM      9  C   UNL A   1      30.989  23.735  23.876  1.00  0.00     0.076 C 
BRANCH   8  10
ATOM     10  N   UNL A   1      31.072  26.198  23.301  1.00  0.00    -0.343 N 
ATOM     11  H   UNL A   1      30.803  25.762  22.420  1.00  0.00     0.346 HD
ATOM     12  H   UNL A   1      31.850  26.856  23.246  1.00  0.00     0.346 HD
BRANCH  10  13
ATOM     13  C   UNL A   1      29.945  26.997  23.754  1.00  0.00     0.264 C 
BRANCH  13  14
ATOM     14  C   UNL A   1      29.506  28.051  22.728  1.00  0.00     0.044 C 
ATOM     15  C   UNL A   1      28.143  28.693  22.984  1.00  0.00     0.009 C 
ATOM     16  C   UNL A   1      30.422  29.271  22.616  1.00  0.00     0.009 C 
ATOM     17  C   UNL A   1      28.128  29.877  22.022  1.00  0.00     0.001 C 
ATOM     18  C   UNL A   1      29.587  30.302  21.859  1.00  0.00     0.001 C 
ENDBRANCH  13  14
ENDBRANCH  10  13
ENDBRANCH   8  10
ENDBRANCH   6   8
ENDBRANCH   3   6
ENDBRANCH   1   2
BRANCH   1  19
ATOM     19  C   UNL A   1      36.080  22.198  24.100  1.00  0.00     0.042 C 
BRANCH  19  20
ATOM     20  C   UNL A   1      36.455  21.915  25.546  1.00  0.00     0.118 C 
BRANCH  20  21
ATOM     21  N   UNL A   1      37.503  20.908  25.670  1.00  0.00    -0.352 N 
ATOM     22  C   UNL A   1      38.833  21.050  25.975  1.00  0.00     0.251 C 
ATOM     23  H   UNL A   1      37.210  19.982  25.509  1.00  0.00     0.163 HD
ATOM     24  O   UNL A   1      39.592  20.090  25.845  1.00  0.00    -0.269 OA
BRANCH  22  25
ATOM     25  C   UNL A   1      39.358  22.352  26.439  1.00  0.00     0.039 A 
ATOM     26  C   UNL A   1      40.370  22.374  27.402  1.00  0.00     0.014 A 
ATOM     27  C   UNL A   1      38.855  23.550  25.928  1.00  0.00     0.014 A 
ATOM     28  C   UNL A   1      40.923  23.594  27.798  1.00  0.00     0.010 A 
ATOM     29  C   UNL A   1      39.479  24.752  26.241  1.00  0.00     0.010 A 
ATOM     30  C   UNL A   1      40.508  24.792  27.191  1.00  0.00    -0.014 A 
BRANCH  30  31
ATOM     31  C   UNL A   1      41.129  26.097  27.538  1.00  0.00     0.031 A 
ATOM     32  C   UNL A   1      42.549  26.390  27.133  1.00  0.00     0.074 A 
ATOM     33  C   UNL A   1      40.444  26.983  28.288  1.00  0.00     0.049 A 
ATOM     34  N   UNL A   1      43.280  27.443  27.391  1.00  0.00    -0.248 NA
ATOM     35  C   UNL A   1      43.251  25.349  26.364  1.00  0.00     0.031 C 
ATOM     36  C   UNL A   1      39.086  26.790  28.803  1.00  0.00     0.029 A 
ATOM     37  N   UNL A   1      40.805  28.218  28.766  1.00  0.00    -0.354 N 
ATOM     38  C   UNL A   1      44.532  27.178  26.848  1.00  0.00     0.074 A 
ATOM     39  C   UNL A   1      44.477  25.844  26.294  1.00  0.00     0.031 C 
ATOM     40  C   UNL A   1      38.722  27.875  29.502  1.00  0.00     0.029 A 
ATOM     41  C   UNL A   1      39.829  28.825  29.521  1.00  0.00     0.049 A 
ATOM     42  H   UNL A   1      41.680  28.632  28.584  1.00  0.00     0.167 HD
ATOM     43  C   UNL A   1      45.620  27.982  26.782  1.00  0.00     0.034 A 
ATOM     44  C   UNL A   1      39.829  30.012  30.160  1.00  0.00     0.034 A 
ATOM     45  C   UNL A   1      45.662  29.319  27.310  1.00  0.00     0.049 A 
ATOM     46  C   UNL A   1      41.046  30.890  30.070  1.00  0.00     0.074 A 
ATOM     47  C   UNL A   1      46.688  30.243  27.235  1.00  0.00     0.029 A 
ATOM     48  N   UNL A   1      44.635  29.920  28.021  1.00  0.00    -0.354 N 
ATOM     49  N   UNL A   1      42.172  30.680  29.430  1.00  0.00    -0.248 NA
ATOM     50  C   UNL A   1      40.982  32.185  30.762  1.00  0.00     0.031 C 
ATOM     51  C   UNL A   1      46.293  31.391  27.931  1.00  0.00     0.029 A 
ATOM     52  C   UNL A   1      45.005  31.198  28.404  1.00  0.00     0.049 A 
ATOM     53  H   UNL A   1      43.768  29.499  28.225  1.00  0.00     0.167 HD
ATOM     54  C   UNL A   1      42.930  31.832  29.605  1.00  0.00     0.074 A 
ATOM     55  C   UNL A   1      42.129  32.741  30.400  1.00  0.00     0.031 C 
ATOM     56  C   UNL A   1      44.180  32.110  29.153  1.00  0.00     0.034 A 
BRANCH  43  57
ATOM     57  C   UNL A   1      46.840  27.441  26.076  1.00  0.00     0.023 A 
ATOM     58  C   UNL A   1      47.710  26.565  26.760  1.00  0.00     0.012 A 
ATOM     59  C   UNL A   1      47.117  27.778  24.738  1.00  0.00     0.148 A 
ATOM     60  C   UNL A   1      48.864  26.081  26.145  1.00  0.00     0.002 A 
ATOM     61  C   UNL A   1      48.241  27.249  24.113  1.00  0.00     0.091 A 
ATOM     62  F   UNL A   1      46.292  28.625  24.106  1.00  0.00    -0.205 F 
ATOM     63  C   UNL A   1      49.124  26.415  24.820  1.00  0.00     0.022 A 
BRANCH  61  64
ATOM     64  S   UNL A   1      48.619  27.551  22.384  1.00  0.00     0.127 S 
ATOM     65  O   UNL A   1      48.693  26.189  21.856  1.00  0.00    -0.237 OA
ATOM     66  O   UNL A   1      47.450  28.312  21.942  1.00  0.00    -0.237 OA
ATOM     67  O   UNL A   1      49.869  28.298  22.371  1.00  0.00    -0.744 OA
ENDBRANCH  61  64
ENDBRANCH  43  57
BRANCH  44  68
ATOM     68  C   UNL A   1      38.603  30.474  30.871  1.00  0.00     0.023 A 
ATOM     69  C   UNL A   1      38.470  30.212  32.250  1.00  0.00     0.012 A 
ATOM     70  C   UNL A   1      37.587  31.188  30.207  1.00  0.00     0.148 A 
ATOM     71  C   UNL A   1      37.334  30.625  32.946  1.00  0.00     0.002 A 
ATOM     72  C   UNL A   1      36.484  31.643  30.918  1.00  0.00     0.091 A 
ATOM     73  F   UNL A   1      37.732  31.422  28.895  1.00  0.00    -0.205 F 
ATOM     74  C   UNL A   1      36.346  31.348  32.283  1.00  0.00     0.022 A 
BRANCH  72  75
ATOM     75  S   UNL A   1      35.220  32.686  30.182  1.00  0.00     0.127 S 
ATOM     76  O   UNL A   1      34.722  31.837  29.104  1.00  0.00    -0.237 OA
ATOM     77  O   UNL A   1      34.295  32.870  31.300  1.00  0.00    -0.237 OA
ATOM     78  O   UNL A   1      35.904  33.901  29.761  1.00  0.00    -0.744 OA
ENDBRANCH  72  75
ENDBRANCH  44  68
BRANCH  56  79
ATOM     79  C   UNL A   1      44.747  33.471  29.463  1.00  0.00     0.023 A 
ATOM     80  C   UNL A   1      45.443  33.693  30.667  1.00  0.00     0.012 A 
ATOM     81  C   UNL A   1      44.648  34.516  28.521  1.00  0.00     0.148 A 
ATOM     82  C   UNL A   1      46.000  34.941  30.946  1.00  0.00     0.002 A 
ATOM     83  C   UNL A   1      45.252  35.739  28.780  1.00  0.00     0.091 A 
ATOM     84  F   UNL A   1      43.967  34.292  27.388  1.00  0.00    -0.205 F 
ATOM     85  C   UNL A   1      45.915  35.959  29.999  1.00  0.00     0.022 A 
BRANCH  83  86
ATOM     86  S   UNL A   1      45.281  37.075  27.579  1.00  0.00     0.127 S 
ATOM     87  O   UNL A   1      43.857  37.359  27.414  1.00  0.00    -0.237 OA
ATOM     88  O   UNL A   1      46.031  38.111  28.290  1.00  0.00    -0.237 OA
ATOM     89  O   UNL A   1      45.953  36.543  26.401  1.00  0.00    -0.744 OA
ENDBRANCH  83  86
ENDBRANCH  56  79
ENDBRANCH  30  31
ENDBRANCH  22  25
ENDBRANCH  20  21
ENDBRANCH  19  20
ENDBRANCH   1  19
TORSDOF 17
ENDMDL
MODEL 2
REMARK VINA RESULT:     -11.0      5.185      9.609
REMARK SMILES C[C@H]([NH2+]CC1CCCC1)[C@H](C)C(=O)NCCCNC(=O)c1ccc(-c2c3nc(c(-c4cccc(S(=O)(=O)[O-])c4F)c4ccc([nH]4)c(-c4cccc(S(=O)(=O)[O-])c4F)c4nc(c(-c5cccc(S(=O)(=O)[O-])c5F)c5ccc2[nH]5)C=C4)C=C3)cc1
REMARK SMILES IDX 15 1 14 2 12 3 13 4 10 6 11 7 2 8 1 9 3 10 4 13 5 14 6 15
REMARK SMILES IDX 9 16 7 17 8 18 16 19 17 20 18 21 19 22 20 24 21 25 22 26
REMARK SMILES IDX 83 27 23 28 82 29 24 30 25 31 26 32 76 33 27 34 81 35 75 36
REMARK SMILES IDX 77 37 28 38 80 39 74 40 73 41 29 43 61 44 41 45 60 46 42 47
REMARK SMILES IDX 45 48 59 49 78 50 43 51 44 52 58 54 79 55 46 56 30 57 31 58
REMARK SMILES IDX 39 59 32 60 34 61 40 62 33 63 35 64 36 65 37 66 38 67 62 68
REMARK SMILES IDX 63 69 71 70 64 71 66 72 72 73 65 74 67 75 68 76 69 77 70 78
REMARK SMILES IDX 47 79 48 80 56 81 49 82 51 83 57 84 50 85 52 86 53 87 54 88
REMARK SMILES IDX 55 89
REMARK H PARENT 14 5 3 11 3 12 18 23 77 42 45 53
REMARK Flexibility Score: inf
ROOT
ATOM      1  C   UNL A   1      33.498  26.619  25.889  1.00  0.00     0.117 C 
ENDROOT
BRANCH   1   2
ATOM      2  N   UNL A   1      32.057  26.467  25.957  1.00  0.00    -0.356 N 
ATOM      3  C   UNL A   1      31.171  26.011  25.030  1.00  0.00     0.228 C 
ATOM      4  O   UNL A   1      29.978  25.962  25.345  1.00  0.00    -0.275 OA
ATOM      5  H   UNL A   1      31.653  26.739  26.813  1.00  0.00     0.163 HD
BRANCH   3   6
ATOM      6  C   UNL A   1      31.621  25.578  23.638  1.00  0.00     0.133 C 
ATOM      7  C   UNL A   1      30.737  24.429  23.136  1.00  0.00     0.024 C 
BRANCH   6   8
ATOM      8  C   UNL A   1      31.795  26.795  22.683  1.00  0.00     0.191 C 
ATOM      9  C   UNL A   1      33.242  26.971  22.200  1.00  0.00     0.076 C 
BRANCH   8  10
ATOM     10  N   UNL A   1      31.217  27.992  23.324  1.00  0.00    -0.343 N 
ATOM     11  H   UNL A   1      31.855  28.279  24.066  1.00  0.00     0.346 HD
ATOM     12  H   UNL A   1      30.290  27.698  23.631  1.00  0.00     0.346 HD
BRANCH  10  13
ATOM     13  C   UNL A   1      30.976  29.155  22.485  1.00  0.00     0.264 C 
BRANCH  13  14
ATOM     14  C   UNL A   1      29.505  29.590  22.471  1.00  0.00     0.044 C 
ATOM     15  C   UNL A   1      28.502  28.546  22.962  1.00  0.00     0.009 C 
ATOM     16  C   UNL A   1      29.174  30.795  23.353  1.00  0.00     0.009 C 
ATOM     17  C   UNL A   1      27.215  29.348  23.128  1.00  0.00     0.001 C 
ATOM     18  C   UNL A   1      27.651  30.773  23.468  1.00  0.00     0.001 C 
ENDBRANCH  13  14
ENDBRANCH  10  13
ENDBRANCH   8  10
ENDBRANCH   6   8
ENDBRANCH   3   6
ENDBRANCH   1   2
BRANCH   1  19
ATOM     19  C   UNL A   1      33.949  28.044  26.160  1.00  0.00     0.042 C 
BRANCH  19  20
ATOM     20  C   UNL A   1      33.412  28.623  27.461  1.00  0.00     0.118 C 
BRANCH  20  21
ATOM     21  N   UNL A   1      33.549  30.073  27.531  1.00  0.00    -0.352 N 
ATOM     22  C   UNL A   1      34.586  30.840  28.001  1.00  0.00     0.251 C 
ATOM     23  H   UNL A   1      32.779  30.580  27.188  1.00  0.00     0.163 HD
ATOM     24  O   UNL A   1      34.427  32.052  28.146  1.00  0.00    -0.269 OA
BRANCH  22  25
ATOM     25  C   UNL A   1      35.879  30.215  28.352  1.00  0.00     0.039 A 
ATOM     26  C   UNL A   1      36.922  30.241  27.422  1.00  0.00     0.014 A 
ATOM     27  C   UNL A   1      36.065  29.603  29.592  1.00  0.00     0.014 A 
ATOM     28  C   UNL A   1      38.170  29.715  27.767  1.00  0.00     0.010 A 
ATOM     29  C   UNL A   1      37.334  29.179  29.972  1.00  0.00     0.010 A 
ATOM     30  C   UNL A   1      38.397  29.216  29.060  1.00  0.00    -0.014 A 
BRANCH  30  31
ATOM     31  C   UNL A   1      39.732  28.717  29.479  1.00  0.00     0.031 A 
ATOM     32  C   UNL A   1      40.493  29.421  30.572  1.00  0.00     0.074 A 
ATOM     33  C   UNL A   1      40.297  27.685  28.821  1.00  0.00     0.049 A 
ATOM     34  N   UNL A   1      41.690  29.172  31.037  1.00  0.00    -0.248 NA
ATOM     35  C   UNL A   1      39.834  30.576  31.204  1.00  0.00     0.031 C 
ATOM     36  C   UNL A   1      39.694  26.962  27.699  1.00  0.00     0.029 A 
ATOM     37  N   UNL A   1      41.516  27.076  28.990  1.00  0.00    -0.354 N 
ATOM     38  C   UNL A   1      41.939  30.155  31.988  1.00  0.00     0.074 A 
ATOM     39  C   UNL A   1      40.792  31.036  31.995  1.00  0.00     0.031 C 
ATOM     40  C   UNL A   1      40.533  25.996  27.297  1.00  0.00     0.029 A 
ATOM     41  C   UNL A   1      41.748  26.052  28.102  1.00  0.00     0.049 A 
ATOM     42  H   UNL A   1      42.163  27.347  29.681  1.00  0.00     0.167 HD
ATOM     43  C   UNL A   1      43.008  30.296  32.808  1.00  0.00     0.034 A 
ATOM     44  C   UNL A   1      42.822  25.251  27.952  1.00  0.00     0.034 A 
ATOM     45  C   UNL A   1      44.135  29.403  32.817  1.00  0.00     0.049 A 
ATOM     46  C   UNL A   1      43.996  25.423  28.876  1.00  0.00     0.074 A 
ATOM     47  C   UNL A   1      45.236  29.414  33.653  1.00  0.00     0.029 A 
ATOM     48  N   UNL A   1      44.310  28.343  31.939  1.00  0.00    -0.354 N 
ATOM     49  N   UNL A   1      44.153  26.270  29.865  1.00  0.00    -0.248 NA
ATOM     50  C   UNL A   1      45.128  24.506  28.687  1.00  0.00     0.031 C 
ATOM     51  C   UNL A   1      46.094  28.380  33.259  1.00  0.00     0.029 A 
ATOM     52  C   UNL A   1      45.507  27.700  32.204  1.00  0.00     0.049 A 
ATOM     53  H   UNL A   1      43.676  28.086  31.231  1.00  0.00     0.167 HD
ATOM     54  C   UNL A   1      45.379  25.959  30.442  1.00  0.00     0.074 A 
ATOM     55  C   UNL A   1      45.916  24.836  29.700  1.00  0.00     0.031 C 
ATOM     56  C   UNL A   1      46.007  26.553  31.489  1.00  0.00     0.034 A 
BRANCH  43  57
ATOM     57  C   UNL A   1      42.982  31.443  33.790  1.00  0.00     0.023 A 
ATOM     58  C   UNL A   1      43.546  32.685  33.427  1.00  0.00     0.012 A 
ATOM     59  C   UNL A   1      42.386  31.303  35.057  1.00  0.00     0.148 A 
ATOM     60  C   UNL A   1      43.568  33.749  34.328  1.00  0.00     0.002 A 
ATOM     61  C   UNL A   1      42.365  32.385  35.931  1.00  0.00     0.091 A 
ATOM     62  F   UNL A   1      41.871  30.113  35.396  1.00  0.00    -0.205 F 
ATOM     63  C   UNL A   1      42.971  33.602  35.575  1.00  0.00     0.022 A 
BRANCH  61  64
ATOM     64  S   UNL A   1      41.546  32.322  37.528  1.00  0.00     0.127 S 
ATOM     65  O   UNL A   1      42.323  31.295  38.219  1.00  0.00    -0.237 OA
ATOM     66  O   UNL A   1      41.749  33.681  38.032  1.00  0.00    -0.237 OA
ATOM     67  O   UNL A   1      40.158  31.980  37.253  1.00  0.00    -0.744 OA
ENDBRANCH  61  64
ENDBRANCH  43  57
BRANCH  44  68
ATOM     68  C   UNL A   1      42.800  24.159  26.937  1.00  0.00     0.023 A 
ATOM     69  C   UNL A   1      43.502  24.332  25.728  1.00  0.00     0.012 A 
ATOM     70  C   UNL A   1      42.118  22.949  27.168  1.00  0.00     0.148 A 
ATOM     71  C   UNL A   1      43.499  23.333  24.754  1.00  0.00     0.002 A 
ATOM     72  C   UNL A   1      42.164  21.937  26.217  1.00  0.00     0.091 A 
ATOM     73  F   UNL A   1      41.453  22.806  28.324  1.00  0.00    -0.205 F 
ATOM     74  C   UNL A   1      42.838  22.133  25.002  1.00  0.00     0.022 A 
BRANCH  72  75
ATOM     75  S   UNL A   1      41.449  20.313  26.495  1.00  0.00     0.127 S 
ATOM     76  O   UNL A   1      42.009  19.545  25.387  1.00  0.00    -0.237 OA
ATOM     77  O   UNL A   1      41.983  19.973  27.815  1.00  0.00    -0.237 OA
ATOM     78  O   UNL A   1      40.005  20.504  26.463  1.00  0.00    -0.744 OA
ENDBRANCH  72  75
ENDBRANCH  44  68
BRANCH  56  79
ATOM     79  C   UNL A   1      47.325  25.975  31.932  1.00  0.00     0.023 A 
ATOM     80  C   UNL A   1      48.517  26.342  31.278  1.00  0.00     0.012 A 
ATOM     81  C   UNL A   1      47.387  25.116  33.048  1.00  0.00     0.148 A 
ATOM     82  C   UNL A   1      49.745  25.837  31.703  1.00  0.00     0.002 A 
ATOM     83  C   UNL A   1      48.618  24.660  33.501  1.00  0.00     0.091 A 
ATOM     84  F   UNL A   1      46.241  24.763  33.647  1.00  0.00    -0.205 F 
ATOM     85  C   UNL A   1      49.797  25.007  32.821  1.00  0.00     0.022 A 
BRANCH  83  86
ATOM     86  S   UNL A   1      48.793  23.669  34.990  1.00  0.00     0.127 S 
ATOM     87  O   UNL A   1      50.239  23.468  35.046  1.00  0.00    -0.237 OA
ATOM     88  O   UNL A   1      48.260  24.563  36.018  1.00  0.00    -0.237 OA
ATOM     89  O   UNL A   1      48.003  22.465  34.767  1.00  0.00    -0.744 OA
ENDBRANCH  83  86
ENDBRANCH  56  79
ENDBRANCH  30  31
ENDBRANCH  22  25
ENDBRANCH  20  21
ENDBRANCH  19  20
ENDBRANCH   1  19
TORSDOF 17
ENDMDL
MODEL 3
REMARK VINA RESULT:     -11.0      5.981      8.720
REMARK SMILES C[C@H]([NH2+]CC1CCCC1)[C@H](C)C(=O)NCCCNC(=O)c1ccc(-c2c3nc(c(-c4cccc(S(=O)(=O)[O-])c4F)c4ccc([nH]4)c(-c4cccc(S(=O)(=O)[O-])c4F)c4nc(c(-c5cccc(S(=O)(=O)[O-])c5F)c5ccc2[nH]5)C=C4)C=C3)cc1
REMARK SMILES IDX 15 1 14 2 12 3 13 4 10 6 11 7 2 8 1 9 3 10 4 13 5 14 6 15
REMARK SMILES IDX 9 16 7 17 8 18 16 19 17 20 18 21 19 22 20 24 21 25 22 26
REMARK SMILES IDX 83 27 23 28 82 29 24 30 25 31 26 32 76 33 27 34 81 35 75 36
REMARK SMILES IDX 77 37 28 38 80 39 74 40 73 41 29 43 61 44 41 45 60 46 42 47
REMARK SMILES IDX 45 48 59 49 78 50 43 51 44 52 58 54 79 55 46 56 30 57 31 58
REMARK SMILES IDX 39 59 32 60 34 61 40 62 33 63 35 64 36 65 37 66 38 67 62 68
REMARK SMILES IDX 63 69 71 70 64 71 66 72 72 73 65 74 67 75 68 76 69 77 70 78
REMARK SMILES IDX 47 79 48 80 56 81 49 82 51 83 57 84 50 85 52 86 53 87 54 88
REMARK SMILES IDX 55 89
REMARK H PARENT 14 5 3 11 3 12 18 23 77 42 45 53
REMARK Flexibility Score: inf
ROOT
ATOM      1  C   UNL A   1      33.967  30.182  26.999  1.00  0.00     0.117 C 
ENDROOT
BRANCH   1   2
ATOM      2  N   UNL A   1      32.924  29.445  27.689  1.00  0.00    -0.356 N 
ATOM      3  C   UNL A   1      32.191  28.371  27.291  1.00  0.00     0.228 C 
ATOM      4  O   UNL A   1      31.363  27.910  28.083  1.00  0.00    -0.275 OA
ATOM      5  H   UNL A   1      32.713  29.776  28.592  1.00  0.00     0.163 HD
BRANCH   3   6
ATOM      6  C   UNL A   1      32.366  27.749  25.909  1.00  0.00     0.133 C 
ATOM      7  C   UNL A   1      33.505  26.722  25.938  1.00  0.00     0.024 C 
BRANCH   6   8
ATOM      8  C   UNL A   1      31.008  27.270  25.314  1.00  0.00     0.191 C 
ATOM      9  C   UNL A   1      30.666  25.824  25.699  1.00  0.00     0.076 C 
BRANCH   8  10
ATOM     10  N   UNL A   1      31.004  27.531  23.862  1.00  0.00    -0.343 N 
ATOM     11  H   UNL A   1      30.119  27.184  23.492  1.00  0.00     0.346 HD
ATOM     12  H   UNL A   1      31.840  27.062  23.513  1.00  0.00     0.346 HD
BRANCH  10  13
ATOM     13  C   UNL A   1      31.146  28.911  23.426  1.00  0.00     0.264 C 
BRANCH  13  14
ATOM     14  C   UNL A   1      29.820  29.538  22.976  1.00  0.00     0.044 C 
ATOM     15  C   UNL A   1      28.592  28.636  23.085  1.00  0.00     0.009 C 
ATOM     16  C   UNL A   1      29.384  30.774  23.764  1.00  0.00     0.009 C 
ATOM     17  C   UNL A   1      27.428  29.601  22.880  1.00  0.00     0.001 C 
ATOM     18  C   UNL A   1      27.911  30.954  23.402  1.00  0.00     0.001 C 
ENDBRANCH  13  14
ENDBRANCH  10  13
ENDBRANCH   8  10
ENDBRANCH   6   8
ENDBRANCH   3   6
ENDBRANCH   1   2
BRANCH   1  19
ATOM     19  C   UNL A   1      33.930  31.670  27.304  1.00  0.00     0.042 C 
BRANCH  19  20
ATOM     20  C   UNL A   1      32.538  32.202  27.605  1.00  0.00     0.118 C 
BRANCH  20  21
ATOM     21  N   UNL A   1      32.494  33.658  27.673  1.00  0.00    -0.352 N 
ATOM     22  C   UNL A   1      33.213  34.527  28.456  1.00  0.00     0.251 C 
ATOM     23  H   UNL A   1      31.849  34.084  27.064  1.00  0.00     0.163 HD
ATOM     24  O   UNL A   1      32.892  35.715  28.497  1.00  0.00    -0.269 OA
BRANCH  22  25
ATOM     25  C   UNL A   1      34.353  34.039  29.261  1.00  0.00     0.039 A 
ATOM     26  C   UNL A   1      34.102  33.257  30.392  1.00  0.00     0.014 A 
ATOM     27  C   UNL A   1      35.666  34.351  28.906  1.00  0.00     0.014 A 
ATOM     28  C   UNL A   1      35.171  32.732  31.122  1.00  0.00     0.010 A 
ATOM     29  C   UNL A   1      36.726  33.741  29.568  1.00  0.00     0.010 A 
ATOM     30  C   UNL A   1      36.493  32.937  30.691  1.00  0.00    -0.014 A 
BRANCH  30  31
ATOM     31  C   UNL A   1      37.648  32.332  31.404  1.00  0.00     0.031 A 
ATOM     32  C   UNL A   1      38.399  31.183  30.787  1.00  0.00     0.074 A 
ATOM     33  C   UNL A   1      37.967  32.759  32.642  1.00  0.00     0.049 A 
ATOM     34  N   UNL A   1      39.393  30.487  31.276  1.00  0.00    -0.248 NA
ATOM     35  C   UNL A   1      37.954  30.734  29.456  1.00  0.00     0.031 C 
ATOM     36  C   UNL A   1      37.274  33.817  33.380  1.00  0.00     0.029 A 
ATOM     37  N   UNL A   1      38.947  32.340  33.508  1.00  0.00    -0.354 N 
ATOM     38  C   UNL A   1      39.668  29.504  30.333  1.00  0.00     0.074 A 
ATOM     39  C   UNL A   1      38.702  29.658  29.268  1.00  0.00     0.031 C 
ATOM     40  C   UNL A   1      37.864  33.980  34.574  1.00  0.00     0.029 A 
ATOM     41  C   UNL A   1      38.950  33.016  34.706  1.00  0.00     0.049 A 
ATOM     42  H   UNL A   1      39.588  31.625  33.291  1.00  0.00     0.167 HD
ATOM     43  C   UNL A   1      40.656  28.577  30.332  1.00  0.00     0.034 A 
ATOM     44  C   UNL A   1      39.738  32.870  35.790  1.00  0.00     0.034 A 
ATOM     45  C   UNL A   1      41.632  28.444  31.379  1.00  0.00     0.049 A 
ATOM     46  C   UNL A   1      40.831  31.838  35.765  1.00  0.00     0.074 A 
ATOM     47  C   UNL A   1      42.715  27.586  31.445  1.00  0.00     0.029 A 
ATOM     48  N   UNL A   1      41.636  29.183  32.553  1.00  0.00    -0.354 N 
ATOM     49  N   UNL A   1      41.166  31.011  34.804  1.00  0.00    -0.248 NA
ATOM     50  C   UNL A   1      41.678  31.740  36.962  1.00  0.00     0.031 C 
ATOM     51  C   UNL A   1      43.355  27.784  32.674  1.00  0.00     0.029 A 
ATOM     52  C   UNL A   1      42.694  28.793  33.356  1.00  0.00     0.049 A 
ATOM     53  H   UNL A   1      40.982  29.881  32.783  1.00  0.00     0.167 HD
ATOM     54  C   UNL A   1      42.287  30.328  35.261  1.00  0.00     0.074 A 
ATOM     55  C   UNL A   1      42.582  30.849  36.581  1.00  0.00     0.031 C 
ATOM     56  C   UNL A   1      43.005  29.354  34.647  1.00  0.00     0.034 A 
BRANCH  43  57
ATOM     57  C   UNL A   1      40.747  27.662  29.135  1.00  0.00     0.023 A 
ATOM     58  C   UNL A   1      39.942  26.503  29.080  1.00  0.00     0.012 A 
ATOM     59  C   UNL A   1      41.607  27.953  28.059  1.00  0.00     0.148 A 
ATOM     60  C   UNL A   1      40.033  25.622  28.003  1.00  0.00     0.002 A 
ATOM     61  C   UNL A   1      41.653  27.096  26.964  1.00  0.00     0.091 A 
ATOM     62  F   UNL A   1      42.379  29.045  28.133  1.00  0.00    -0.205 F 
ATOM     63  C   UNL A   1      40.881  25.922  26.942  1.00  0.00     0.022 A 
BRANCH  61  64
ATOM     64  S   UNL A   1      42.651  27.438  25.510  1.00  0.00     0.127 S 
ATOM     65  O   UNL A   1      43.974  27.635  26.100  1.00  0.00    -0.237 OA
ATOM     66  O   UNL A   1      42.505  26.202  24.739  1.00  0.00    -0.237 OA
ATOM     67  O   UNL A   1      42.060  28.614  24.887  1.00  0.00    -0.744 OA
ENDBRANCH  61  64
ENDBRANCH  43  57
BRANCH  44  68
ATOM     68  C   UNL A   1      39.574  33.784  36.957  1.00  0.00     0.023 A 
ATOM     69  C   UNL A   1      39.994  35.124  36.843  1.00  0.00     0.012 A 
ATOM     70  C   UNL A   1      38.986  33.348  38.160  1.00  0.00     0.148 A 
ATOM     71  C   UNL A   1      39.861  36.005  37.916  1.00  0.00     0.002 A 
ATOM     72  C   UNL A   1      38.807  34.245  39.206  1.00  0.00     0.091 A 
ATOM     73  F   UNL A   1      38.597  32.068  38.249  1.00  0.00    -0.205 F 
ATOM     74  C   UNL A   1      39.260  35.569  39.094  1.00  0.00     0.022 A 
BRANCH  72  75
ATOM     75  S   UNL A   1      37.934  33.811  40.715  1.00  0.00     0.127 S 
ATOM     76  O   UNL A   1      36.699  33.234  40.191  1.00  0.00    -0.237 OA
ATOM     77  O   UNL A   1      38.853  32.851  41.327  1.00  0.00    -0.237 OA
ATOM     78  O   UNL A   1      37.782  35.055  41.457  1.00  0.00    -0.744 OA
ENDBRANCH  72  75
ENDBRANCH  44  68
BRANCH  56  79
ATOM     79  C   UNL A   1      44.212  28.815  35.370  1.00  0.00     0.023 A 
ATOM     80  C   UNL A   1      45.482  29.384  35.152  1.00  0.00     0.012 A 
ATOM     81  C   UNL A   1      44.072  27.785  36.322  1.00  0.00     0.148 A 
ATOM     82  C   UNL A   1      46.598  28.914  35.842  1.00  0.00     0.002 A 
ATOM     83  C   UNL A   1      45.178  27.358  37.046  1.00  0.00     0.091 A 
ATOM     84  F   UNL A   1      42.859  27.243  36.503  1.00  0.00    -0.205 F 
ATOM     85  C   UNL A   1      46.445  27.911  36.796  1.00  0.00     0.022 A 
BRANCH  83  86
ATOM     86  S   UNL A   1      45.059  26.143  38.364  1.00  0.00     0.127 S 
ATOM     87  O   UNL A   1      46.446  26.055  38.815  1.00  0.00    -0.237 OA
ATOM     88  O   UNL A   1      44.151  26.799  39.305  1.00  0.00    -0.237 OA
ATOM     89  O   UNL A   1      44.524  24.935  37.751  1.00  0.00    -0.744 OA
ENDBRANCH  83  86
ENDBRANCH  56  79
ENDBRANCH  30  31
ENDBRANCH  22  25
ENDBRANCH  20  21
ENDBRANCH  19  20
ENDBRANCH   1  19
TORSDOF 17
ENDMDL
