MODEL 1
REMARK VINA RESULT:     -12.1      0.000      0.000
REMARK SMILES COc1ccc(OCCNc2c(Cl)cccc2C(=O)NCCCNC(=O)c2ccc(-c3c4nc(c(-c5cccc(S(=O)(=O)[O-])c5F)c5ccc([nH]5)c(-c5cccc(S(=O)(=O)[O-])c5F)c5nc(c(-c6cccc(S(=O)(=O)[O-])c6F)c6ccc3[nH]6)C=C5)C=C4)cc2)cc1
REMARK SMILES IDX 18 1 19 2 20 3 17 5 11 6 12 7 13 8 14 9 16 10 15 11 10 12
REMARK SMILES IDX 9 14 8 15 7 16 6 17 3 18 4 19 91 20 5 21 90 22 2 23 1 24
REMARK SMILES IDX 21 25 22 26 23 27 24 28 25 29 26 31 27 32 28 33 89 34 29 35
REMARK SMILES IDX 88 36 30 37 31 38 32 39 82 40 33 41 87 42 81 43 83 44 34 45
REMARK SMILES IDX 86 46 80 47 79 48 35 50 67 51 47 52 66 53 48 54 51 55 65 56
REMARK SMILES IDX 84 57 49 58 50 59 64 61 85 62 52 63 36 64 37 65 45 66 38 67
REMARK SMILES IDX 40 68 46 69 39 70 41 71 42 72 43 73 44 74 68 75 69 76 77 77
REMARK SMILES IDX 70 78 72 79 78 80 71 81 73 82 74 83 75 84 76 85 53 86 54 87
REMARK SMILES IDX 62 88 55 89 57 90 63 91 56 92 58 93 59 94 60 95 61 96
REMARK H PARENT 20 4 10 13 24 30 83 49 51 60
REMARK Flexibility Score: inf
ROOT
ATOM      1  C   UNL A   1      34.275  24.251  23.820  1.00  0.00     0.253 C 
ATOM      2  O   UNL A   1      34.421  24.599  22.648  1.00  0.00    -0.269 OA
ATOM      3  N   UNL A   1      34.845  23.077  24.236  1.00  0.00    -0.352 N 
ATOM      4  H   UNL A   1      35.277  22.545  23.529  1.00  0.00     0.163 HD
ENDROOT
BRANCH   1   5
ATOM      5  C   UNL A   1      33.397  25.066  24.691  1.00  0.00     0.064 A 
ATOM      6  C   UNL A   1      32.077  24.751  25.064  1.00  0.00     0.066 A 
ATOM      7  C   UNL A   1      31.419  25.684  25.909  1.00  0.00     0.065 A 
ATOM      8  Cl  UNL A   1      29.772  25.433  26.407  1.00  0.00    -0.082 Cl
ATOM      9  C   UNL A   1      32.046  26.838  26.393  1.00  0.00     0.023 A 
ATOM     10  C   UNL A   1      34.027  26.226  25.194  1.00  0.00     0.016 A 
ATOM     11  C   UNL A   1      33.356  27.111  26.033  1.00  0.00     0.003 A 
BRANCH   6  12
ATOM     12  N   UNL A   1      31.308  23.738  24.516  1.00  0.00    -0.380 N 
ATOM     13  H   UNL A   1      30.848  23.151  25.159  1.00  0.00     0.160 HD
BRANCH  12  14
ATOM     14  C   UNL A   1      31.096  23.434  23.111  1.00  0.00     0.154 C 
BRANCH  14  15
ATOM     15  C   UNL A   1      31.630  22.016  22.779  1.00  0.00     0.250 C 
BRANCH  15  16
ATOM     16  O   UNL A   1      32.146  21.309  23.919  1.00  0.00    -0.492 OA
BRANCH  16  17
ATOM     17  C   UNL A   1      32.409  19.967  23.837  1.00  0.00     0.119 A 
ATOM     18  C   UNL A   1      33.355  17.333  23.826  1.00  0.00     0.119 A 
ATOM     19  C   UNL A   1      33.382  18.068  25.005  1.00  0.00     0.050 A 
ATOM     20  C   UNL A   1      32.779  17.868  22.678  1.00  0.00     0.050 A 
ATOM     21  C   UNL A   1      32.921  19.389  25.005  1.00  0.00     0.050 A 
ATOM     22  C   UNL A   1      32.284  19.175  22.693  1.00  0.00     0.050 A 
BRANCH  18  23
ATOM     23  O   UNL A   1      33.836  16.054  23.825  1.00  0.00    -0.497 OA
ATOM     24  C   UNL A   1      34.384  15.718  25.101  1.00  0.00     0.278 C 
ENDBRANCH  18  23
ENDBRANCH  16  17
ENDBRANCH  15  16
ENDBRANCH  14  15
ENDBRANCH  12  14
ENDBRANCH   6  12
ENDBRANCH   1   5
BRANCH   3  25
ATOM     25  C   UNL A   1      34.903  22.503  25.565  1.00  0.00     0.118 C 
BRANCH  25  26
ATOM     26  C   UNL A   1      35.942  21.413  25.735  1.00  0.00     0.042 C 
BRANCH  26  27
ATOM     27  C   UNL A   1      37.261  21.644  25.005  1.00  0.00     0.118 C 
BRANCH  27  28
ATOM     28  N   UNL A   1      38.354  20.749  25.375  1.00  0.00    -0.352 N 
ATOM     29  C   UNL A   1      39.469  20.950  26.162  1.00  0.00     0.251 C 
ATOM     30  H   UNL A   1      38.283  19.843  24.996  1.00  0.00     0.163 HD
ATOM     31  O   UNL A   1      40.257  20.029  26.346  1.00  0.00    -0.269 OA
BRANCH  29  32
ATOM     32  C   UNL A   1      39.754  22.287  26.734  1.00  0.00     0.039 A 
ATOM     33  C   UNL A   1      40.755  22.410  27.704  1.00  0.00     0.014 A 
ATOM     34  C   UNL A   1      39.091  23.423  26.280  1.00  0.00     0.014 A 
ATOM     35  C   UNL A   1      41.179  23.681  28.106  1.00  0.00     0.010 A 
ATOM     36  C   UNL A   1      39.606  24.680  26.575  1.00  0.00     0.010 A 
ATOM     37  C   UNL A   1      40.664  24.829  27.484  1.00  0.00    -0.014 A 
BRANCH  37  38
ATOM     38  C   UNL A   1      41.226  26.188  27.726  1.00  0.00     0.031 A 
ATOM     39  C   UNL A   1      42.629  26.520  27.282  1.00  0.00     0.074 A 
ATOM     40  C   UNL A   1      40.538  27.077  28.473  1.00  0.00     0.049 A 
ATOM     41  N   UNL A   1      43.357  27.573  27.556  1.00  0.00    -0.248 NA
ATOM     42  C   UNL A   1      43.327  25.509  26.470  1.00  0.00     0.031 C 
ATOM     43  C   UNL A   1      39.215  26.850  29.064  1.00  0.00     0.029 A 
ATOM     44  N   UNL A   1      40.872  28.341  28.897  1.00  0.00    -0.354 N 
ATOM     45  C   UNL A   1      44.609  27.321  27.009  1.00  0.00     0.074 A 
ATOM     46  C   UNL A   1      44.557  25.998  26.426  1.00  0.00     0.031 C 
ATOM     47  C   UNL A   1      38.850  27.937  29.762  1.00  0.00     0.029 A 
ATOM     48  C   UNL A   1      39.919  28.925  29.702  1.00  0.00     0.049 A 
ATOM     49  H   UNL A   1      41.713  28.787  28.648  1.00  0.00     0.167 HD
ATOM     50  C   UNL A   1      45.696  28.129  26.957  1.00  0.00     0.034 A 
ATOM     51  C   UNL A   1      39.908  30.118  30.329  1.00  0.00     0.034 A 
ATOM     52  C   UNL A   1      45.718  29.478  27.451  1.00  0.00     0.049 A 
ATOM     53  C   UNL A   1      41.080  31.046  30.156  1.00  0.00     0.074 A 
ATOM     54  C   UNL A   1      46.730  30.416  27.349  1.00  0.00     0.029 A 
ATOM     55  N   UNL A   1      44.672  30.088  28.126  1.00  0.00    -0.354 N 
ATOM     56  N   UNL A   1      42.199  30.846  29.504  1.00  0.00    -0.248 NA
ATOM     57  C   UNL A   1      40.974  32.377  30.772  1.00  0.00     0.031 C 
ATOM     58  C   UNL A   1      46.293  31.597  27.961  1.00  0.00     0.029 A 
ATOM     59  C   UNL A   1      45.007  31.395  28.436  1.00  0.00     0.049 A 
ATOM     60  H   UNL A   1      43.817  29.657  28.351  1.00  0.00     0.167 HD
ATOM     61  C   UNL A   1      42.917  32.031  29.604  1.00  0.00     0.074 A 
ATOM     62  C   UNL A   1      42.094  32.954  30.360  1.00  0.00     0.031 C 
ATOM     63  C   UNL A   1      44.154  32.323  29.132  1.00  0.00     0.034 A 
BRANCH  50  64
ATOM     64  C   UNL A   1      46.923  27.599  26.259  1.00  0.00     0.023 A 
ATOM     65  C   UNL A   1      47.841  26.809  26.984  1.00  0.00     0.012 A 
ATOM     66  C   UNL A   1      47.156  27.849  24.893  1.00  0.00     0.148 A 
ATOM     67  C   UNL A   1      48.992  26.316  26.374  1.00  0.00     0.002 A 
ATOM     68  C   UNL A   1      48.285  27.315  24.280  1.00  0.00     0.091 A 
ATOM     69  F   UNL A   1      46.288  28.619  24.224  1.00  0.00    -0.205 F 
ATOM     70  C   UNL A   1      49.210  26.561  25.022  1.00  0.00     0.022 A 
BRANCH  68  71
ATOM     71  S   UNL A   1      48.611  27.506  22.524  1.00  0.00     0.127 S 
ATOM     72  O   UNL A   1      48.618  26.115  22.072  1.00  0.00    -0.237 OA
ATOM     73  O   UNL A   1      47.456  28.286  22.076  1.00  0.00    -0.237 OA
ATOM     74  O   UNL A   1      49.885  28.205  22.431  1.00  0.00    -0.744 OA
ENDBRANCH  68  71
ENDBRANCH  50  64
BRANCH  51  75
ATOM     75  C   UNL A   1      38.706  30.536  31.104  1.00  0.00     0.023 A 
ATOM     76  C   UNL A   1      38.663  30.287  32.490  1.00  0.00     0.012 A 
ATOM     77  C   UNL A   1      37.633  31.214  30.494  1.00  0.00     0.148 A 
ATOM     78  C   UNL A   1      37.563  30.682  33.251  1.00  0.00     0.002 A 
ATOM     79  C   UNL A   1      36.561  31.650  31.268  1.00  0.00     0.091 A 
ATOM     80  F   UNL A   1      37.686  31.432  29.173  1.00  0.00    -0.205 F 
ATOM     81  C   UNL A   1      36.518  31.372  32.643  1.00  0.00     0.022 A 
BRANCH  79  82
ATOM     82  S   UNL A   1      35.239  32.660  30.590  1.00  0.00     0.127 S 
ATOM     83  O   UNL A   1      34.253  32.623  31.667  1.00  0.00    -0.237 OA
ATOM     84  O   UNL A   1      35.902  33.952  30.408  1.00  0.00    -0.237 OA
ATOM     85  O   UNL A   1      34.849  32.009  29.347  1.00  0.00    -0.744 OA
ENDBRANCH  79  82
ENDBRANCH  51  75
BRANCH  63  86
ATOM     86  C   UNL A   1      44.693  33.705  29.388  1.00  0.00     0.023 A 
ATOM     87  C   UNL A   1      45.390  33.969  30.582  1.00  0.00     0.012 A 
ATOM     88  C   UNL A   1      44.584  34.713  28.410  1.00  0.00     0.148 A 
ATOM     89  C   UNL A   1      45.949  35.225  30.812  1.00  0.00     0.002 A 
ATOM     90  C   UNL A   1      45.181  35.949  28.627  1.00  0.00     0.091 A 
ATOM     91  F   UNL A   1      43.898  34.447  27.289  1.00  0.00    -0.205 F 
ATOM     92  C   UNL A   1      45.856  36.210  29.831  1.00  0.00     0.022 A 
BRANCH  90  93
ATOM     93  S   UNL A   1      45.188  37.242  27.380  1.00  0.00     0.127 S 
ATOM     94  O   UNL A   1      45.915  38.310  28.060  1.00  0.00    -0.237 OA
ATOM     95  O   UNL A   1      45.919  36.611  26.279  1.00  0.00    -0.237 OA
ATOM     96  O   UNL A   1      43.788  37.520  27.088  1.00  0.00    -0.744 OA
ENDBRANCH  90  93
ENDBRANCH  63  86
ENDBRANCH  37  38
ENDBRANCH  29  32
ENDBRANCH  27  28
ENDBRANCH  26  27
ENDBRANCH  25  26
ENDBRANCH   3  25
TORSDOF 19
ENDMDL
MODEL 2
REMARK VINA RESULT:     -12.1      5.422      8.410
REMARK SMILES COc1ccc(OCCNc2c(Cl)cccc2C(=O)NCCCNC(=O)c2ccc(-c3c4nc(c(-c5cccc(S(=O)(=O)[O-])c5F)c5ccc([nH]5)c(-c5cccc(S(=O)(=O)[O-])c5F)c5nc(c(-c6cccc(S(=O)(=O)[O-])c6F)c6ccc3[nH]6)C=C5)C=C4)cc2)cc1
REMARK SMILES IDX 18 1 19 2 20 3 17 5 11 6 12 7 13 8 14 9 16 10 15 11 10 12
REMARK SMILES IDX 9 14 8 15 7 16 6 17 3 18 4 19 91 20 5 21 90 22 2 23 1 24
REMARK SMILES IDX 21 25 22 26 23 27 24 28 25 29 26 31 27 32 28 33 89 34 29 35
REMARK SMILES IDX 88 36 30 37 31 38 32 39 82 40 33 41 87 42 81 43 83 44 34 45
REMARK SMILES IDX 86 46 80 47 79 48 35 50 67 51 47 52 66 53 48 54 51 55 65 56
REMARK SMILES IDX 84 57 49 58 50 59 64 61 85 62 52 63 36 64 37 65 45 66 38 67
REMARK SMILES IDX 40 68 46 69 39 70 41 71 42 72 43 73 44 74 68 75 69 76 77 77
REMARK SMILES IDX 70 78 72 79 78 80 71 81 73 82 74 83 75 84 76 85 53 86 54 87
REMARK SMILES IDX 62 88 55 89 57 90 63 91 56 92 58 93 59 94 60 95 61 96
REMARK H PARENT 20 4 10 13 24 30 83 49 51 60
REMARK Flexibility Score: inf
ROOT
ATOM      1  C   UNL A   1      33.135  26.305  23.344  1.00  0.00     0.253 C 
ATOM      2  O   UNL A   1      32.871  25.898  22.212  1.00  0.00    -0.269 OA
ATOM      3  N   UNL A   1      33.307  27.650  23.538  1.00  0.00    -0.352 N 
ATOM      4  H   UNL A   1      33.280  28.200  22.721  1.00  0.00     0.163 HD
ENDROOT
BRANCH   1   5
ATOM      5  C   UNL A   1      33.364  25.308  24.415  1.00  0.00     0.064 A 
ATOM      6  C   UNL A   1      32.369  24.601  25.116  1.00  0.00     0.066 A 
ATOM      7  C   UNL A   1      32.821  23.692  26.110  1.00  0.00     0.065 A 
ATOM      8  Cl  UNL A   1      31.691  22.790  27.075  1.00  0.00    -0.082 Cl
ATOM      9  C   UNL A   1      34.178  23.464  26.365  1.00  0.00     0.023 A 
ATOM     10  C   UNL A   1      34.732  25.063  24.669  1.00  0.00     0.016 A 
ATOM     11  C   UNL A   1      35.138  24.153  25.641  1.00  0.00     0.003 A 
BRANCH   6  12
ATOM     12  N   UNL A   1      31.011  24.868  25.068  1.00  0.00    -0.380 N 
ATOM     13  H   UNL A   1      30.434  24.116  24.800  1.00  0.00     0.160 HD
BRANCH  12  14
ATOM     14  C   UNL A   1      30.332  26.118  25.365  1.00  0.00     0.154 C 
BRANCH  14  15
ATOM     15  C   UNL A   1      29.403  26.520  24.190  1.00  0.00     0.250 C 
BRANCH  15  16
ATOM     16  O   UNL A   1      30.005  27.439  23.262  1.00  0.00    -0.492 OA
BRANCH  16  17
ATOM     17  C   UNL A   1      29.324  28.556  22.859  1.00  0.00     0.119 A 
ATOM     18  C   UNL A   1      28.252  31.070  22.254  1.00  0.00     0.119 A 
ATOM     19  C   UNL A   1      29.563  30.777  21.896  1.00  0.00     0.050 A 
ATOM     20  C   UNL A   1      27.446  30.092  22.826  1.00  0.00     0.050 A 
ATOM     21  C   UNL A   1      30.101  29.524  22.212  1.00  0.00     0.050 A 
ATOM     22  C   UNL A   1      27.976  28.830  23.105  1.00  0.00     0.050 A 
BRANCH  18  23
ATOM     23  O   UNL A   1      27.743  32.306  21.970  1.00  0.00    -0.497 OA
ATOM     24  C   UNL A   1      27.787  32.562  20.565  1.00  0.00     0.278 C 
ENDBRANCH  18  23
ENDBRANCH  16  17
ENDBRANCH  15  16
ENDBRANCH  14  15
ENDBRANCH  12  14
ENDBRANCH   6  12
ENDBRANCH   1   5
BRANCH   3  25
ATOM     25  C   UNL A   1      33.524  28.381  24.770  1.00  0.00     0.118 C 
BRANCH  25  26
ATOM     26  C   UNL A   1      32.508  29.474  25.040  1.00  0.00     0.042 C 
BRANCH  26  27
ATOM     27  C   UNL A   1      32.248  29.780  26.511  1.00  0.00     0.118 C 
BRANCH  27  28
ATOM     28  N   UNL A   1      32.112  31.194  26.848  1.00  0.00    -0.352 N 
ATOM     29  C   UNL A   1      33.020  32.103  27.351  1.00  0.00     0.251 C 
ATOM     30  H   UNL A   1      31.213  31.565  26.689  1.00  0.00     0.163 HD
ATOM     31  O   UNL A   1      32.676  33.263  27.545  1.00  0.00    -0.269 OA
BRANCH  29  32
ATOM     32  C   UNL A   1      34.390  31.671  27.717  1.00  0.00     0.039 A 
ATOM     33  C   UNL A   1      35.398  32.636  27.827  1.00  0.00     0.014 A 
ATOM     34  C   UNL A   1      34.674  30.342  28.013  1.00  0.00     0.014 A 
ATOM     35  C   UNL A   1      36.639  32.284  28.366  1.00  0.00     0.010 A 
ATOM     36  C   UNL A   1      35.855  30.025  28.675  1.00  0.00     0.010 A 
ATOM     37  C   UNL A   1      36.852  30.992  28.872  1.00  0.00    -0.014 A 
BRANCH  37  38
ATOM     38  C   UNL A   1      38.075  30.625  29.639  1.00  0.00     0.031 A 
ATOM     39  C   UNL A   1      39.064  29.640  29.066  1.00  0.00     0.074 A 
ATOM     40  C   UNL A   1      38.227  31.056  30.909  1.00  0.00     0.049 A 
ATOM     41  N   UNL A   1      40.084  29.059  29.645  1.00  0.00    -0.248 NA
ATOM     42  C   UNL A   1      38.843  29.207  27.676  1.00  0.00     0.031 C 
ATOM     43  C   UNL A   1      37.291  31.923  31.632  1.00  0.00     0.029 A 
ATOM     44  N   UNL A   1      39.209  30.793  31.834  1.00  0.00    -0.354 N 
ATOM     45  C   UNL A   1      40.581  28.152  28.717  1.00  0.00     0.074 A 
ATOM     46  C   UNL A   1      39.724  28.226  27.553  1.00  0.00     0.031 C 
ATOM     47  C   UNL A   1      37.748  32.126  32.877  1.00  0.00     0.029 A 
ATOM     48  C   UNL A   1      38.986  31.380  33.060  1.00  0.00     0.049 A 
ATOM     49  H   UNL A   1      39.997  30.237  31.638  1.00  0.00     0.167 HD
ATOM     50  C   UNL A   1      41.674  27.356  28.802  1.00  0.00     0.034 A 
ATOM     51  C   UNL A   1      39.694  31.320  34.205  1.00  0.00     0.034 A 
ATOM     52  C   UNL A   1      42.579  27.352  29.919  1.00  0.00     0.049 A 
ATOM     53  C   UNL A   1      40.970  30.522  34.237  1.00  0.00     0.074 A 
ATOM     54  C   UNL A   1      43.772  26.666  30.057  1.00  0.00     0.029 A 
ATOM     55  N   UNL A   1      42.399  28.083  31.083  1.00  0.00    -0.354 N 
ATOM     56  N   UNL A   1      41.504  29.788  33.292  1.00  0.00    -0.248 NA
ATOM     57  C   UNL A   1      41.759  30.575  35.475  1.00  0.00     0.031 C 
ATOM     58  C   UNL A   1      44.317  26.986  31.306  1.00  0.00     0.029 A 
ATOM     59  C   UNL A   1      43.465  27.876  31.941  1.00  0.00     0.049 A 
ATOM     60  H   UNL A   1      41.627  28.663  31.272  1.00  0.00     0.167 HD
ATOM     61  C   UNL A   1      42.704  29.315  33.809  1.00  0.00     0.074 A 
ATOM     62  C   UNL A   1      42.830  29.867  35.142  1.00  0.00     0.031 C 
ATOM     63  C   UNL A   1      43.610  28.482  33.239  1.00  0.00     0.034 A 
BRANCH  50  64
ATOM     64  C   UNL A   1      41.998  26.489  27.612  1.00  0.00     0.023 A 
ATOM     65  C   UNL A   1      42.671  27.056  26.509  1.00  0.00     0.012 A 
ATOM     66  C   UNL A   1      41.672  25.119  27.592  1.00  0.00     0.148 A 
ATOM     67  C   UNL A   1      42.972  26.287  25.387  1.00  0.00     0.002 A 
ATOM     68  C   UNL A   1      42.018  24.347  26.487  1.00  0.00     0.091 A 
ATOM     69  F   UNL A   1      41.013  24.600  28.637  1.00  0.00    -0.205 F 
ATOM     70  C   UNL A   1      42.655  24.933  25.379  1.00  0.00     0.022 A 
BRANCH  68  71
ATOM     71  S   UNL A   1      41.724  22.577  26.417  1.00  0.00     0.127 S 
ATOM     72  O   UNL A   1      40.272  22.524  26.259  1.00  0.00    -0.237 OA
ATOM     73  O   UNL A   1      42.480  22.183  25.226  1.00  0.00    -0.237 OA
ATOM     74  O   UNL A   1      42.243  22.039  27.666  1.00  0.00    -0.744 OA
ENDBRANCH  68  71
ENDBRANCH  50  64
BRANCH  51  75
ATOM     75  C   UNL A   1      39.254  32.111  35.389  1.00  0.00     0.023 A 
ATOM     76  C   UNL A   1      38.403  31.510  36.338  1.00  0.00     0.012 A 
ATOM     77  C   UNL A   1      39.705  33.427  35.607  1.00  0.00     0.148 A 
ATOM     78  C   UNL A   1      37.988  32.214  37.469  1.00  0.00     0.002 A 
ATOM     79  C   UNL A   1      39.327  34.106  36.762  1.00  0.00     0.091 A 
ATOM     80  F   UNL A   1      40.505  33.986  34.688  1.00  0.00    -0.205 F 
ATOM     81  C   UNL A   1      38.458  33.506  37.686  1.00  0.00     0.022 A 
BRANCH  79  82
ATOM     82  S   UNL A   1      39.992  35.721  37.185  1.00  0.00     0.127 S 
ATOM     83  O   UNL A   1      39.303  36.007  38.441  1.00  0.00    -0.237 OA
ATOM     84  O   UNL A   1      41.422  35.439  37.317  1.00  0.00    -0.237 OA
ATOM     85  O   UNL A   1      39.655  36.586  36.063  1.00  0.00    -0.744 OA
ENDBRANCH  79  82
ENDBRANCH  51  75
BRANCH  63  86
ATOM     86  C   UNL A   1      44.838  28.132  34.037  1.00  0.00     0.023 A 
ATOM     87  C   UNL A   1      45.979  28.953  33.952  1.00  0.00     0.012 A 
ATOM     88  C   UNL A   1      44.830  27.044  34.931  1.00  0.00     0.148 A 
ATOM     89  C   UNL A   1      47.105  28.681  34.728  1.00  0.00     0.002 A 
ATOM     90  C   UNL A   1      45.940  26.805  35.733  1.00  0.00     0.091 A 
ATOM     91  F   UNL A   1      43.741  26.263  34.980  1.00  0.00    -0.205 F 
ATOM     92  C   UNL A   1      47.081  27.617  35.626  1.00  0.00     0.022 A 
BRANCH  90  93
ATOM     93  S   UNL A   1      45.959  25.513  36.980  1.00  0.00     0.127 S 
ATOM     94  O   UNL A   1      47.290  25.678  37.561  1.00  0.00    -0.237 OA
ATOM     95  O   UNL A   1      44.856  25.908  37.859  1.00  0.00    -0.237 OA
ATOM     96  O   UNL A   1      45.736  24.265  36.263  1.00  0.00    -0.744 OA
ENDBRANCH  90  93
ENDBRANCH  63  86
ENDBRANCH  37  38
ENDBRANCH  29  32
ENDBRANCH  27  28
ENDBRANCH  26  27
ENDBRANCH  25  26
ENDBRANCH   3  25
TORSDOF 19
ENDMDL
MODEL 3
REMARK VINA RESULT:     -11.3      1.747      2.127
REMARK SMILES COc1ccc(OCCNc2c(Cl)cccc2C(=O)NCCCNC(=O)c2ccc(-c3c4nc(c(-c5cccc(S(=O)(=O)[O-])c5F)c5ccc([nH]5)c(-c5cccc(S(=O)(=O)[O-])c5F)c5nc(c(-c6cccc(S(=O)(=O)[O-])c6F)c6ccc3[nH]6)C=C5)C=C4)cc2)cc1
REMARK SMILES IDX 18 1 19 2 20 3 17 5 11 6 12 7 13 8 14 9 16 10 15 11 10 12
REMARK SMILES IDX 9 14 8 15 7 16 6 17 3 18 4 19 91 20 5 21 90 22 2 23 1 24
REMARK SMILES IDX 21 25 22 26 23 27 24 28 25 29 26 31 27 32 28 33 89 34 29 35
REMARK SMILES IDX 88 36 30 37 31 38 32 39 82 40 33 41 87 42 81 43 83 44 34 45
REMARK SMILES IDX 86 46 80 47 79 48 35 50 67 51 47 52 66 53 48 54 51 55 65 56
REMARK SMILES IDX 84 57 49 58 50 59 64 61 85 62 52 63 36 64 37 65 45 66 38 67
REMARK SMILES IDX 40 68 46 69 39 70 41 71 42 72 43 73 44 74 68 75 69 76 77 77
REMARK SMILES IDX 70 78 72 79 78 80 71 81 73 82 74 83 75 84 76 85 53 86 54 87
REMARK SMILES IDX 62 88 55 89 57 90 63 91 56 92 58 93 59 94 60 95 61 96
REMARK H PARENT 20 4 10 13 24 30 83 49 51 60
REMARK Flexibility Score: inf
ROOT
ATOM      1  C   UNL A   1      34.414  24.291  23.897  1.00  0.00     0.253 C 
ATOM      2  O   UNL A   1      34.661  24.620  22.737  1.00  0.00    -0.269 OA
ATOM      3  N   UNL A   1      34.963  23.135  24.387  1.00  0.00    -0.352 N 
ATOM      4  H   UNL A   1      35.469  22.600  23.733  1.00  0.00     0.163 HD
ENDROOT
BRANCH   1   5
ATOM      5  C   UNL A   1      33.444  25.103  24.668  1.00  0.00     0.064 A 
ATOM      6  C   UNL A   1      32.091  24.785  24.893  1.00  0.00     0.066 A 
ATOM      7  C   UNL A   1      31.344  25.717  25.662  1.00  0.00     0.065 A 
ATOM      8  Cl  UNL A   1      29.652  25.463  25.976  1.00  0.00    -0.082 Cl
ATOM      9  C   UNL A   1      31.911  26.871  26.212  1.00  0.00     0.023 A 
ATOM     10  C   UNL A   1      34.013  26.264  25.237  1.00  0.00     0.016 A 
ATOM     11  C   UNL A   1      33.252  27.146  25.999  1.00  0.00     0.003 A 
BRANCH   6  12
ATOM     12  N   UNL A   1      31.389  23.772  24.263  1.00  0.00    -0.380 N 
ATOM     13  H   UNL A   1      30.778  23.252  24.834  1.00  0.00     0.160 HD
BRANCH  12  14
ATOM     14  C   UNL A   1      31.441  23.381  22.864  1.00  0.00     0.154 C 
BRANCH  14  15
ATOM     15  C   UNL A   1      31.718  21.860  22.739  1.00  0.00     0.250 C 
BRANCH  15  16
ATOM     16  O   UNL A   1      32.328  21.283  23.907  1.00  0.00    -0.492 OA
BRANCH  16  17
ATOM     17  C   UNL A   1      32.843  20.016  23.860  1.00  0.00     0.119 A 
ATOM     18  C   UNL A   1      33.477  17.290  23.853  1.00  0.00     0.119 A 
ATOM     19  C   UNL A   1      32.488  17.767  23.001  1.00  0.00     0.050 A 
ATOM     20  C   UNL A   1      34.213  18.171  24.638  1.00  0.00     0.050 A 
ATOM     21  C   UNL A   1      32.163  19.129  23.016  1.00  0.00     0.050 A 
ATOM     22  C   UNL A   1      33.911  19.535  24.622  1.00  0.00     0.050 A 
BRANCH  18  23
ATOM     23  O   UNL A   1      33.767  15.954  23.856  1.00  0.00    -0.497 OA
ATOM     24  C   UNL A   1      33.348  15.347  25.079  1.00  0.00     0.278 C 
ENDBRANCH  18  23
ENDBRANCH  16  17
ENDBRANCH  15  16
ENDBRANCH  14  15
ENDBRANCH  12  14
ENDBRANCH   6  12
ENDBRANCH   1   5
BRANCH   3  25
ATOM     25  C   UNL A   1      34.908  22.587  25.726  1.00  0.00     0.118 C 
BRANCH  25  26
ATOM     26  C   UNL A   1      36.133  21.790  26.131  1.00  0.00     0.042 C 
BRANCH  26  27
ATOM     27  C   UNL A   1      37.198  21.629  25.051  1.00  0.00     0.118 C 
BRANCH  27  28
ATOM     28  N   UNL A   1      38.287  20.711  25.369  1.00  0.00    -0.352 N 
ATOM     29  C   UNL A   1      39.433  20.882  26.118  1.00  0.00     0.251 C 
ATOM     30  H   UNL A   1      38.187  19.811  24.981  1.00  0.00     0.163 HD
ATOM     31  O   UNL A   1      40.212  19.945  26.262  1.00  0.00    -0.269 OA
BRANCH  29  32
ATOM     32  C   UNL A   1      39.761  22.206  26.699  1.00  0.00     0.039 A 
ATOM     33  C   UNL A   1      40.872  22.320  27.541  1.00  0.00     0.014 A 
ATOM     34  C   UNL A   1      39.025  23.340  26.370  1.00  0.00     0.014 A 
ATOM     35  C   UNL A   1      41.318  23.586  27.933  1.00  0.00     0.010 A 
ATOM     36  C   UNL A   1      39.549  24.599  26.644  1.00  0.00     0.010 A 
ATOM     37  C   UNL A   1      40.709  24.742  27.420  1.00  0.00    -0.014 A 
BRANCH  37  38
ATOM     38  C   UNL A   1      41.270  26.106  27.639  1.00  0.00     0.031 A 
ATOM     39  C   UNL A   1      42.670  26.433  27.181  1.00  0.00     0.074 A 
ATOM     40  C   UNL A   1      40.585  27.004  28.378  1.00  0.00     0.049 A 
ATOM     41  N   UNL A   1      43.397  27.490  27.435  1.00  0.00    -0.248 NA
ATOM     42  C   UNL A   1      43.364  25.411  26.379  1.00  0.00     0.031 C 
ATOM     43  C   UNL A   1      39.267  26.783  28.981  1.00  0.00     0.029 A 
ATOM     44  N   UNL A   1      40.920  28.274  28.781  1.00  0.00    -0.354 N 
ATOM     45  C   UNL A   1      44.647  27.233  26.883  1.00  0.00     0.074 A 
ATOM     46  C   UNL A   1      44.593  25.902  26.320  1.00  0.00     0.031 C 
ATOM     47  C   UNL A   1      38.904  27.879  29.665  1.00  0.00     0.029 A 
ATOM     48  C   UNL A   1      39.972  28.868  29.585  1.00  0.00     0.049 A 
ATOM     49  H   UNL A   1      41.759  28.718  28.521  1.00  0.00     0.167 HD
ATOM     50  C   UNL A   1      45.732  28.041  26.813  1.00  0.00     0.034 A 
ATOM     51  C   UNL A   1      39.964  30.070  30.194  1.00  0.00     0.034 A 
ATOM     52  C   UNL A   1      45.755  29.398  27.288  1.00  0.00     0.049 A 
ATOM     53  C   UNL A   1      41.133  30.997  30.001  1.00  0.00     0.074 A 
ATOM     54  C   UNL A   1      46.765  30.335  27.166  1.00  0.00     0.029 A 
ATOM     55  N   UNL A   1      44.713  30.016  27.961  1.00  0.00    -0.354 N 
ATOM     56  N   UNL A   1      42.248  30.789  29.344  1.00  0.00    -0.248 NA
ATOM     57  C   UNL A   1      41.028  32.336  30.598  1.00  0.00     0.031 C 
ATOM     58  C   UNL A   1      46.330  31.524  27.764  1.00  0.00     0.029 A 
ATOM     59  C   UNL A   1      45.048  31.327  28.250  1.00  0.00     0.049 A 
ATOM     60  H   UNL A   1      43.859  29.586  28.198  1.00  0.00     0.167 HD
ATOM     61  C   UNL A   1      42.964  31.977  29.423  1.00  0.00     0.074 A 
ATOM     62  C   UNL A   1      42.146  32.909  30.171  1.00  0.00     0.031 C 
ATOM     63  C   UNL A   1      44.198  32.263  28.939  1.00  0.00     0.034 A 
BRANCH  50  64
ATOM     64  C   UNL A   1      46.955  27.504  26.115  1.00  0.00     0.023 A 
ATOM     65  C   UNL A   1      47.097  27.697  24.725  1.00  0.00     0.012 A 
ATOM     66  C   UNL A   1      47.974  26.842  26.826  1.00  0.00     0.148 A 
ATOM     67  C   UNL A   1      48.208  27.201  24.046  1.00  0.00     0.002 A 
ATOM     68  C   UNL A   1      49.102  26.389  26.149  1.00  0.00     0.091 A 
ATOM     69  F   UNL A   1      47.816  26.645  28.143  1.00  0.00    -0.205 F 
ATOM     70  C   UNL A   1      49.214  26.556  24.758  1.00  0.00     0.022 A 
BRANCH  68  71
ATOM     71  S   UNL A   1      50.489  25.619  26.991  1.00  0.00     0.127 S 
ATOM     72  O   UNL A   1      49.854  24.450  27.599  1.00  0.00    -0.237 OA
ATOM     73  O   UNL A   1      51.395  25.311  25.883  1.00  0.00    -0.237 OA
ATOM     74  O   UNL A   1      50.993  26.618  27.923  1.00  0.00    -0.744 OA
ENDBRANCH  68  71
ENDBRANCH  50  64
BRANCH  51  75
ATOM     75  C   UNL A   1      38.765  30.496  30.972  1.00  0.00     0.023 A 
ATOM     76  C   UNL A   1      38.712  30.226  32.354  1.00  0.00     0.012 A 
ATOM     77  C   UNL A   1      37.708  31.204  30.369  1.00  0.00     0.148 A 
ATOM     78  C   UNL A   1      37.616  30.629  33.117  1.00  0.00     0.002 A 
ATOM     79  C   UNL A   1      36.641  31.647  31.145  1.00  0.00     0.091 A 
ATOM     80  F   UNL A   1      37.770  31.442  29.052  1.00  0.00    -0.205 F 
ATOM     81  C   UNL A   1      36.586  31.348  32.516  1.00  0.00     0.022 A 
BRANCH  79  82
ATOM     82  S   UNL A   1      35.340  32.692  30.479  1.00  0.00     0.127 S 
ATOM     83  O   UNL A   1      36.085  33.887  30.093  1.00  0.00    -0.237 OA
ATOM     84  O   UNL A   1      34.843  31.888  29.361  1.00  0.00    -0.237 OA
ATOM     85  O   UNL A   1      34.383  32.861  31.563  1.00  0.00    -0.744 OA
ENDBRANCH  79  82
ENDBRANCH  51  75
BRANCH  63  86
ATOM     86  C   UNL A   1      44.736  33.650  29.171  1.00  0.00     0.023 A 
ATOM     87  C   UNL A   1      44.481  34.662  28.227  1.00  0.00     0.012 A 
ATOM     88  C   UNL A   1      45.418  33.967  30.362  1.00  0.00     0.148 A 
ATOM     89  C   UNL A   1      44.919  35.967  28.452  1.00  0.00     0.002 A 
ATOM     90  C   UNL A   1      45.814  35.278  30.600  1.00  0.00     0.091 A 
ATOM     91  F   UNL A   1      45.670  32.983  31.239  1.00  0.00    -0.205 F 
ATOM     92  C   UNL A   1      45.573  36.277  29.642  1.00  0.00     0.022 A 
BRANCH  90  93
ATOM     93  S   UNL A   1      46.580  35.782  32.145  1.00  0.00     0.127 S 
ATOM     94  O   UNL A   1      46.712  37.225  31.956  1.00  0.00    -0.237 OA
ATOM     95  O   UNL A   1      45.578  35.385  33.136  1.00  0.00    -0.237 OA
ATOM     96  O   UNL A   1      47.831  35.041  32.228  1.00  0.00    -0.744 OA
ENDBRANCH  90  93
ENDBRANCH  63  86
ENDBRANCH  37  38
ENDBRANCH  29  32
ENDBRANCH  27  28
ENDBRANCH  26  27
ENDBRANCH  25  26
ENDBRANCH   3  25
TORSDOF 19
ENDMDL
