MODEL 1
REMARK VINA RESULT:     -11.2      0.000      0.000
REMARK SMILES CCC[NH2+]CC1CC[NH+](CC(C)(C)C(=O)NCCCNC(=O)c2ccc(-c3c4nc(c(-c5cccc(S(=O)(=O)[O-])c5F)c5ccc([nH]5)c(-c5cccc(S(=O)(=O)[O-])c5F)c5nc(c(-c6cccc(S(=O)(=O)[O-])c6F)c6ccc3[nH]6)C=C5)C=C4)cc2)CC1
REMARK SMILES IDX 14 1 15 2 16 3 11 5 12 6 13 7 10 8 9 9 6 10 7 11 87 12 8 13
REMARK SMILES IDX 86 14 5 16 4 17 3 20 2 21 1 22 17 23 18 24 19 25 20 26 21 27
REMARK SMILES IDX 22 29 23 30 24 31 85 32 25 33 84 34 26 35 27 36 28 37 78 38
REMARK SMILES IDX 29 39 83 40 77 41 79 42 30 43 82 44 76 45 75 46 31 48 63 49
REMARK SMILES IDX 43 50 62 51 44 52 47 53 61 54 80 55 45 56 46 57 60 59 81 60
REMARK SMILES IDX 48 61 32 62 33 63 41 64 34 65 36 66 42 67 35 68 37 69 38 70
REMARK SMILES IDX 39 71 40 72 64 73 65 74 73 75 66 76 68 77 74 78 67 79 69 80
REMARK SMILES IDX 70 81 71 82 72 83 49 84 50 85 58 86 51 87 53 88 59 89 52 90
REMARK SMILES IDX 54 91 55 92 56 93 57 94
REMARK H PARENT 16 4 9 15 4 18 4 19 20 28 79 47 47 58
REMARK Flexibility Score: inf
ROOT
ATOM      1  C   UNL A   1      33.084  22.117  25.030  1.00  0.00     0.231 C 
ATOM      2  O   UNL A   1      31.963  22.036  25.548  1.00  0.00    -0.274 OA
ATOM      3  N   UNL A   1      33.851  21.025  25.256  1.00  0.00    -0.355 N 
ATOM      4  H   UNL A   1      33.369  20.324  25.750  1.00  0.00     0.163 HD
ENDROOT
BRANCH   1   5
ATOM      5  C   UNL A   1      33.560  23.424  24.364  1.00  0.00     0.092 C 
ATOM      6  C   UNL A   1      34.464  23.321  23.130  1.00  0.00     0.027 C 
ATOM      7  C   UNL A   1      34.415  24.103  25.471  1.00  0.00     0.027 C 
BRANCH   5   8
ATOM      8  C   UNL A   1      32.332  24.392  24.073  1.00  0.00     0.278 C 
BRANCH   8   9
ATOM      9  N   UNL A   1      32.309  25.872  24.217  1.00  0.00    -0.334 N 
ATOM     10  C   UNL A   1      31.644  28.781  24.303  1.00  0.00     0.055 C 
ATOM     11  C   UNL A   1      32.624  28.160  23.289  1.00  0.00     0.071 C 
ATOM     12  C   UNL A   1      31.393  27.825  25.473  1.00  0.00     0.071 C 
ATOM     13  C   UNL A   1      32.421  26.662  23.000  1.00  0.00     0.262 C 
ATOM     14  C   UNL A   1      31.239  26.353  25.086  1.00  0.00     0.262 C 
ATOM     15  H   UNL A   1      33.200  26.042  24.686  1.00  0.00     0.348 HD
BRANCH  10  16
ATOM     16  C   UNL A   1      30.373  29.442  23.702  1.00  0.00     0.264 C 
BRANCH  16  17
ATOM     17  N   UNL A   1      30.146  29.350  22.268  1.00  0.00    -0.346 N 
ATOM     18  H   UNL A   1      31.037  29.496  21.794  1.00  0.00     0.346 HD
ATOM     19  H   UNL A   1      29.749  28.427  22.095  1.00  0.00     0.346 HD
BRANCH  17  20
ATOM     20  C   UNL A   1      29.187  30.318  21.743  1.00  0.00     0.260 C 
BRANCH  20  21
ATOM     21  C   UNL A   1      27.819  30.276  22.445  1.00  0.00     0.058 C 
ATOM     22  C   UNL A   1      27.597  31.361  23.481  1.00  0.00     0.010 C 
ENDBRANCH  20  21
ENDBRANCH  17  20
ENDBRANCH  16  17
ENDBRANCH  10  16
ENDBRANCH   8   9
ENDBRANCH   5   8
ENDBRANCH   1   5
BRANCH   3  23
ATOM     23  C   UNL A   1      35.219  20.644  24.944  1.00  0.00     0.117 C 
BRANCH  23  24
ATOM     24  C   UNL A   1      36.248  21.350  25.826  1.00  0.00     0.042 C 
BRANCH  24  25
ATOM     25  C   UNL A   1      37.606  21.638  25.186  1.00  0.00     0.118 C 
BRANCH  25  26
ATOM     26  N   UNL A   1      38.673  20.726  25.577  1.00  0.00    -0.352 N 
ATOM     27  C   UNL A   1      39.816  20.964  26.311  1.00  0.00     0.251 C 
ATOM     28  H   UNL A   1      38.562  19.797  25.269  1.00  0.00     0.163 HD
ATOM     29  O   UNL A   1      40.631  20.060  26.485  1.00  0.00    -0.269 OA
BRANCH  27  30
ATOM     30  C   UNL A   1      40.093  22.317  26.847  1.00  0.00     0.039 A 
ATOM     31  C   UNL A   1      41.052  22.466  27.851  1.00  0.00     0.014 A 
ATOM     32  C   UNL A   1      39.450  23.442  26.331  1.00  0.00     0.014 A 
ATOM     33  C   UNL A   1      41.451  23.747  28.248  1.00  0.00     0.010 A 
ATOM     34  C   UNL A   1      39.924  24.713  26.645  1.00  0.00     0.010 A 
ATOM     35  C   UNL A   1      40.939  24.883  27.600  1.00  0.00    -0.014 A 
BRANCH  35  36
ATOM     36  C   UNL A   1      41.465  26.249  27.877  1.00  0.00     0.031 A 
ATOM     37  C   UNL A   1      42.884  26.607  27.517  1.00  0.00     0.074 A 
ATOM     38  C   UNL A   1      40.704  27.135  28.555  1.00  0.00     0.049 A 
ATOM     39  N   UNL A   1      43.546  27.708  27.765  1.00  0.00    -0.248 NA
ATOM     40  C   UNL A   1      43.675  25.579  26.818  1.00  0.00     0.031 C 
ATOM     41  C   UNL A   1      39.345  26.888  29.045  1.00  0.00     0.029 A 
ATOM     42  N   UNL A   1      40.975  28.416  28.975  1.00  0.00    -0.354 N 
ATOM     43  C   UNL A   1      44.837  27.489  27.298  1.00  0.00     0.074 A 
ATOM     44  C   UNL A   1      44.877  26.137  26.787  1.00  0.00     0.031 C 
ATOM     45  C   UNL A   1      38.898  27.982  29.683  1.00  0.00     0.029 A 
ATOM     46  C   UNL A   1      39.945  28.998  29.681  1.00  0.00     0.049 A 
ATOM     47  H   UNL A   1      41.826  28.874  28.788  1.00  0.00     0.167 HD
ATOM     48  C   UNL A   1      45.886  28.344  27.259  1.00  0.00     0.034 A 
ATOM     49  C   UNL A   1      39.855  30.208  30.265  1.00  0.00     0.034 A 
ATOM     50  C   UNL A   1      45.829  29.708  27.711  1.00  0.00     0.049 A 
ATOM     51  C   UNL A   1      41.016  31.161  30.160  1.00  0.00     0.074 A 
ATOM     52  C   UNL A   1      46.807  30.684  27.627  1.00  0.00     0.029 A 
ATOM     53  N   UNL A   1      44.735  30.292  28.330  1.00  0.00    -0.354 N 
ATOM     54  N   UNL A   1      42.175  30.987  29.571  1.00  0.00    -0.248 NA
ATOM     55  C   UNL A   1      40.846  32.489  30.768  1.00  0.00     0.031 C 
ATOM     56  C   UNL A   1      46.310  31.852  28.213  1.00  0.00     0.029 A 
ATOM     57  C   UNL A   1      45.014  31.612  28.638  1.00  0.00     0.049 A 
ATOM     58  H   UNL A   1      43.885  29.834  28.522  1.00  0.00     0.167 HD
ATOM     59  C   UNL A   1      42.854  32.192  29.703  1.00  0.00     0.074 A 
ATOM     60  C   UNL A   1      41.969  33.095  30.411  1.00  0.00     0.031 C 
ATOM     61  C   UNL A   1      44.103  32.518  29.290  1.00  0.00     0.034 A 
BRANCH  48  62
ATOM     62  C   UNL A   1      47.171  27.849  26.649  1.00  0.00     0.023 A 
ATOM     63  C   UNL A   1      48.171  27.305  27.482  1.00  0.00     0.012 A 
ATOM     64  C   UNL A   1      47.373  27.871  25.255  1.00  0.00     0.148 A 
ATOM     65  C   UNL A   1      49.364  26.825  26.945  1.00  0.00     0.002 A 
ATOM     66  C   UNL A   1      48.546  27.347  24.722  1.00  0.00     0.091 A 
ATOM     67  F   UNL A   1      46.422  28.409  24.478  1.00  0.00    -0.205 F 
ATOM     68  C   UNL A   1      49.547  26.838  25.566  1.00  0.00     0.022 A 
BRANCH  66  69
ATOM     69  S   UNL A   1      48.846  27.241  22.953  1.00  0.00     0.127 S 
ATOM     70  O   UNL A   1      50.305  27.321  22.896  1.00  0.00    -0.237 OA
ATOM     71  O   UNL A   1      48.294  25.925  22.627  1.00  0.00    -0.237 OA
ATOM     72  O   UNL A   1      48.135  28.363  22.357  1.00  0.00    -0.744 OA
ENDBRANCH  66  69
ENDBRANCH  48  62
BRANCH  49  73
ATOM     73  C   UNL A   1      38.589  30.624  30.935  1.00  0.00     0.023 A 
ATOM     74  C   UNL A   1      38.413  30.349  32.306  1.00  0.00     0.012 A 
ATOM     75  C   UNL A   1      37.572  31.305  30.238  1.00  0.00     0.148 A 
ATOM     76  C   UNL A   1      37.236  30.711  32.962  1.00  0.00     0.002 A 
ATOM     77  C   UNL A   1      36.425  31.713  30.911  1.00  0.00     0.091 A 
ATOM     78  F   UNL A   1      37.751  31.549  28.933  1.00  0.00    -0.205 F 
ATOM     79  C   UNL A   1      36.247  31.402  32.267  1.00  0.00     0.022 A 
BRANCH  77  80
ATOM     80  S   UNL A   1      35.158  32.721  30.131  1.00  0.00     0.127 S 
ATOM     81  O   UNL A   1      34.232  32.948  31.237  1.00  0.00    -0.237 OA
ATOM     82  O   UNL A   1      35.922  33.897  29.715  1.00  0.00    -0.237 OA
ATOM     83  O   UNL A   1      34.644  31.921  29.028  1.00  0.00    -0.744 OA
ENDBRANCH  77  80
ENDBRANCH  49  73
BRANCH  61  84
ATOM     84  C   UNL A   1      44.585  33.921  29.548  1.00  0.00     0.023 A 
ATOM     85  C   UNL A   1      45.136  34.253  30.801  1.00  0.00     0.012 A 
ATOM     86  C   UNL A   1      44.564  34.887  28.523  1.00  0.00     0.148 A 
ATOM     87  C   UNL A   1      45.633  35.535  31.039  1.00  0.00     0.002 A 
ATOM     88  C   UNL A   1      45.105  36.146  28.751  1.00  0.00     0.091 A 
ATOM     89  F   UNL A   1      44.018  34.556  27.343  1.00  0.00    -0.205 F 
ATOM     90  C   UNL A   1      45.628  36.476  30.012  1.00  0.00     0.022 A 
BRANCH  88  91
ATOM     91  S   UNL A   1      45.232  37.388  27.459  1.00  0.00     0.127 S 
ATOM     92  O   UNL A   1      43.826  37.686  27.194  1.00  0.00    -0.237 OA
ATOM     93  O   UNL A   1      45.967  38.460  28.130  1.00  0.00    -0.237 OA
ATOM     94  O   UNL A   1      45.954  36.754  26.363  1.00  0.00    -0.744 OA
ENDBRANCH  88  91
ENDBRANCH  61  84
ENDBRANCH  35  36
ENDBRANCH  27  30
ENDBRANCH  25  26
ENDBRANCH  24  25
ENDBRANCH  23  24
ENDBRANCH   3  23
TORSDOF 19
ENDMDL
MODEL 2
REMARK VINA RESULT:     -10.9      1.319      7.794
REMARK SMILES CCC[NH2+]CC1CC[NH+](CC(C)(C)C(=O)NCCCNC(=O)c2ccc(-c3c4nc(c(-c5cccc(S(=O)(=O)[O-])c5F)c5ccc([nH]5)c(-c5cccc(S(=O)(=O)[O-])c5F)c5nc(c(-c6cccc(S(=O)(=O)[O-])c6F)c6ccc3[nH]6)C=C5)C=C4)cc2)CC1
REMARK SMILES IDX 14 1 15 2 16 3 11 5 12 6 13 7 10 8 9 9 6 10 7 11 87 12 8 13
REMARK SMILES IDX 86 14 5 16 4 17 3 20 2 21 1 22 17 23 18 24 19 25 20 26 21 27
REMARK SMILES IDX 22 29 23 30 24 31 85 32 25 33 84 34 26 35 27 36 28 37 78 38
REMARK SMILES IDX 29 39 83 40 77 41 79 42 30 43 82 44 76 45 75 46 31 48 63 49
REMARK SMILES IDX 43 50 62 51 44 52 47 53 61 54 80 55 45 56 46 57 60 59 81 60
REMARK SMILES IDX 48 61 32 62 33 63 41 64 34 65 36 66 42 67 35 68 37 69 38 70
REMARK SMILES IDX 39 71 40 72 64 73 65 74 73 75 66 76 68 77 74 78 67 79 69 80
REMARK SMILES IDX 70 81 71 82 72 83 49 84 50 85 58 86 51 87 53 88 59 89 52 90
REMARK SMILES IDX 54 91 55 92 56 93 57 94
REMARK H PARENT 16 4 9 15 4 18 4 19 20 28 79 47 47 58
REMARK Flexibility Score: inf
ROOT
ATOM      1  C   UNL A   1      33.019  23.682  25.410  1.00  0.00     0.231 C 
ATOM      2  O   UNL A   1      32.293  24.503  25.985  1.00  0.00    -0.274 OA
ATOM      3  N   UNL A   1      33.443  22.689  26.225  1.00  0.00    -0.355 N 
ATOM      4  H   UNL A   1      33.058  22.754  27.128  1.00  0.00     0.163 HD
ENDROOT
BRANCH   1   5
ATOM      5  C   UNL A   1      33.501  23.923  23.964  1.00  0.00     0.092 C 
ATOM      6  C   UNL A   1      34.049  22.728  23.176  1.00  0.00     0.027 C 
ATOM      7  C   UNL A   1      34.689  24.909  24.138  1.00  0.00     0.027 C 
BRANCH   5   8
ATOM      8  C   UNL A   1      32.391  24.684  23.117  1.00  0.00     0.278 C 
BRANCH   8   9
ATOM      9  N   UNL A   1      31.710  25.956  23.479  1.00  0.00    -0.334 N 
ATOM     10  C   UNL A   1      30.079  28.454  23.608  1.00  0.00     0.055 C 
ATOM     11  C   UNL A   1      31.619  28.442  23.541  1.00  0.00     0.071 C 
ATOM     12  C   UNL A   1      29.542  27.077  24.006  1.00  0.00     0.071 C 
ATOM     13  C   UNL A   1      32.248  27.185  22.916  1.00  0.00     0.262 C 
ATOM     14  C   UNL A   1      30.256  25.889  23.357  1.00  0.00     0.262 C 
ATOM     15  H   UNL A   1      31.942  26.034  24.470  1.00  0.00     0.348 HD
BRANCH  10  16
ATOM     16  C   UNL A   1      29.353  29.129  22.412  1.00  0.00     0.264 C 
BRANCH  16  17
ATOM     17  N   UNL A   1      27.947  29.477  22.551  1.00  0.00    -0.346 N 
ATOM     18  H   UNL A   1      27.412  28.912  21.892  1.00  0.00     0.346 HD
ATOM     19  H   UNL A   1      27.698  29.297  23.524  1.00  0.00     0.346 HD
BRANCH  17  20
ATOM     20  C   UNL A   1      27.642  30.883  22.298  1.00  0.00     0.260 C 
BRANCH  20  21
ATOM     21  C   UNL A   1      28.120  31.828  23.414  1.00  0.00     0.058 C 
ATOM     22  C   UNL A   1      28.777  33.108  22.932  1.00  0.00     0.010 C 
ENDBRANCH  20  21
ENDBRANCH  17  20
ENDBRANCH  16  17
ENDBRANCH  10  16
ENDBRANCH   8   9
ENDBRANCH   5   8
ENDBRANCH   1   5
BRANCH   3  23
ATOM     23  C   UNL A   1      34.334  21.548  26.082  1.00  0.00     0.117 C 
BRANCH  23  24
ATOM     24  C   UNL A   1      35.786  21.884  26.421  1.00  0.00     0.042 C 
BRANCH  24  25
ATOM     25  C   UNL A   1      36.790  21.782  25.273  1.00  0.00     0.118 C 
BRANCH  25  26
ATOM     26  N   UNL A   1      37.828  20.775  25.456  1.00  0.00    -0.352 N 
ATOM     27  C   UNL A   1      39.076  20.885  26.033  1.00  0.00     0.251 C 
ATOM     28  H   UNL A   1      37.605  19.878  25.115  1.00  0.00     0.163 HD
ATOM     29  O   UNL A   1      39.836  19.918  26.038  1.00  0.00    -0.269 OA
BRANCH  27  30
ATOM     30  C   UNL A   1      39.527  22.178  26.600  1.00  0.00     0.039 A 
ATOM     31  C   UNL A   1      40.558  22.183  27.542  1.00  0.00     0.014 A 
ATOM     32  C   UNL A   1      38.974  23.385  26.170  1.00  0.00     0.014 A 
ATOM     33  C   UNL A   1      41.113  23.397  27.958  1.00  0.00     0.010 A 
ATOM     34  C   UNL A   1      39.599  24.585  26.499  1.00  0.00     0.010 A 
ATOM     35  C   UNL A   1      40.683  24.608  27.389  1.00  0.00    -0.014 A 
BRANCH  35  36
ATOM     36  C   UNL A   1      41.367  25.899  27.682  1.00  0.00     0.031 A 
ATOM     37  C   UNL A   1      40.654  26.981  28.452  1.00  0.00     0.074 A 
ATOM     38  C   UNL A   1      42.587  26.144  27.160  1.00  0.00     0.049 A 
ATOM     39  N   UNL A   1      41.048  28.200  28.720  1.00  0.00    -0.248 NA
ATOM     40  C   UNL A   1      39.307  26.665  28.957  1.00  0.00     0.031 C 
ATOM     41  C   UNL A   1      43.352  25.221  26.318  1.00  0.00     0.029 A 
ATOM     42  N   UNL A   1      43.390  27.258  27.236  1.00  0.00    -0.354 N 
ATOM     43  C   UNL A   1      39.986  28.807  29.380  1.00  0.00     0.074 A 
ATOM     44  C   UNL A   1      38.915  27.836  29.436  1.00  0.00     0.031 C 
ATOM     45  C   UNL A   1      44.514  25.797  25.970  1.00  0.00     0.029 A 
ATOM     46  C   UNL A   1      44.567  27.142  26.530  1.00  0.00     0.049 A 
ATOM     47  H   UNL A   1      43.145  28.063  27.746  1.00  0.00     0.167 HD
ATOM     48  C   UNL A   1      39.915  30.044  29.924  1.00  0.00     0.034 A 
ATOM     49  C   UNL A   1      45.573  28.021  26.350  1.00  0.00     0.034 A 
ATOM     50  C   UNL A   1      41.000  30.987  29.921  1.00  0.00     0.049 A 
ATOM     51  C   UNL A   1      45.494  29.371  27.011  1.00  0.00     0.074 A 
ATOM     52  C   UNL A   1      41.063  32.229  30.529  1.00  0.00     0.029 A 
ATOM     53  N   UNL A   1      42.215  30.795  29.282  1.00  0.00    -0.354 N 
ATOM     54  N   UNL A   1      44.543  29.864  27.767  1.00  0.00    -0.248 NA
ATOM     55  C   UNL A   1      46.642  30.271  26.828  1.00  0.00     0.031 C 
ATOM     56  C   UNL A   1      42.309  32.795  30.241  1.00  0.00     0.029 A 
ATOM     57  C   UNL A   1      43.031  31.895  29.475  1.00  0.00     0.049 A 
ATOM     58  H   UNL A   1      42.459  29.993  28.766  1.00  0.00     0.167 HD
ATOM     59  C   UNL A   1      44.992  31.113  28.178  1.00  0.00     0.074 A 
ATOM     60  C   UNL A   1      46.311  31.293  27.605  1.00  0.00     0.031 C 
ATOM     61  C   UNL A   1      44.365  32.036  28.948  1.00  0.00     0.034 A 
BRANCH  48  62
ATOM     62  C   UNL A   1      38.639  30.429  30.628  1.00  0.00     0.023 A 
ATOM     63  C   UNL A   1      38.467  30.088  31.986  1.00  0.00     0.012 A 
ATOM     64  C   UNL A   1      37.637  31.168  29.970  1.00  0.00     0.148 A 
ATOM     65  C   UNL A   1      37.303  30.443  32.667  1.00  0.00     0.002 A 
ATOM     66  C   UNL A   1      36.501  31.560  30.669  1.00  0.00     0.091 A 
ATOM     67  F   UNL A   1      37.808  31.467  28.674  1.00  0.00    -0.205 F 
ATOM     68  C   UNL A   1      36.326  31.186  32.011  1.00  0.00     0.022 A 
BRANCH  66  69
ATOM     69  S   UNL A   1      35.220  32.589  29.941  1.00  0.00     0.127 S 
ATOM     70  O   UNL A   1      35.992  33.748  29.494  1.00  0.00    -0.237 OA
ATOM     71  O   UNL A   1      34.719  31.737  28.861  1.00  0.00    -0.237 OA
ATOM     72  O   UNL A   1      34.261  32.850  31.005  1.00  0.00    -0.744 OA
ENDBRANCH  66  69
ENDBRANCH  48  62
BRANCH  49  73
ATOM     73  C   UNL A   1      46.782  27.625  25.570  1.00  0.00     0.023 A 
ATOM     74  C   UNL A   1      46.796  27.820  24.175  1.00  0.00     0.012 A 
ATOM     75  C   UNL A   1      47.920  27.082  26.197  1.00  0.00     0.148 A 
ATOM     76  C   UNL A   1      47.905  27.449  23.414  1.00  0.00     0.002 A 
ATOM     77  C   UNL A   1      49.043  26.765  25.439  1.00  0.00     0.091 A 
ATOM     78  F   UNL A   1      47.885  26.892  27.523  1.00  0.00    -0.205 F 
ATOM     79  C   UNL A   1      49.031  26.932  24.046  1.00  0.00     0.022 A 
BRANCH  77  80
ATOM     80  S   UNL A   1      50.584  26.218  26.183  1.00  0.00     0.127 S 
ATOM     81  O   UNL A   1      50.900  27.331  27.073  1.00  0.00    -0.237 OA
ATOM     82  O   UNL A   1      50.173  24.986  26.858  1.00  0.00    -0.237 OA
ATOM     83  O   UNL A   1      51.505  26.012  25.073  1.00  0.00    -0.744 OA
ENDBRANCH  77  80
ENDBRANCH  49  73
BRANCH  61  84
ATOM     84  C   UNL A   1      45.105  33.310  29.260  1.00  0.00     0.023 A 
ATOM     85  C   UNL A   1      45.938  33.378  30.393  1.00  0.00     0.012 A 
ATOM     86  C   UNL A   1      45.036  34.411  28.384  1.00  0.00     0.148 A 
ATOM     87  C   UNL A   1      46.669  34.535  30.667  1.00  0.00     0.002 A 
ATOM     88  C   UNL A   1      45.804  35.541  28.636  1.00  0.00     0.091 A 
ATOM     89  F   UNL A   1      44.222  34.333  27.320  1.00  0.00    -0.205 F 
ATOM     90  C   UNL A   1      46.611  35.609  29.783  1.00  0.00     0.022 A 
BRANCH  88  91
ATOM     91  S   UNL A   1      45.869  36.933  27.502  1.00  0.00     0.127 S 
ATOM     92  O   UNL A   1      46.828  37.813  28.166  1.00  0.00    -0.237 OA
ATOM     93  O   UNL A   1      46.361  36.310  26.273  1.00  0.00    -0.237 OA
ATOM     94  O   UNL A   1      44.507  37.444  27.416  1.00  0.00    -0.744 OA
ENDBRANCH  88  91
ENDBRANCH  61  84
ENDBRANCH  35  36
ENDBRANCH  27  30
ENDBRANCH  25  26
ENDBRANCH  24  25
ENDBRANCH  23  24
ENDBRANCH   3  23
TORSDOF 19
ENDMDL
MODEL 3
REMARK VINA RESULT:     -10.5      5.306     10.832
REMARK SMILES CCC[NH2+]CC1CC[NH+](CC(C)(C)C(=O)NCCCNC(=O)c2ccc(-c3c4nc(c(-c5cccc(S(=O)(=O)[O-])c5F)c5ccc([nH]5)c(-c5cccc(S(=O)(=O)[O-])c5F)c5nc(c(-c6cccc(S(=O)(=O)[O-])c6F)c6ccc3[nH]6)C=C5)C=C4)cc2)CC1
REMARK SMILES IDX 14 1 15 2 16 3 11 5 12 6 13 7 10 8 9 9 6 10 7 11 87 12 8 13
REMARK SMILES IDX 86 14 5 16 4 17 3 20 2 21 1 22 17 23 18 24 19 25 20 26 21 27
REMARK SMILES IDX 22 29 23 30 24 31 85 32 25 33 84 34 26 35 27 36 28 37 78 38
REMARK SMILES IDX 29 39 83 40 77 41 79 42 30 43 82 44 76 45 75 46 31 48 63 49
REMARK SMILES IDX 43 50 62 51 44 52 47 53 61 54 80 55 45 56 46 57 60 59 81 60
REMARK SMILES IDX 48 61 32 62 33 63 41 64 34 65 36 66 42 67 35 68 37 69 38 70
REMARK SMILES IDX 39 71 40 72 64 73 65 74 73 75 66 76 68 77 74 78 67 79 69 80
REMARK SMILES IDX 70 81 71 82 72 83 49 84 50 85 58 86 51 87 53 88 59 89 52 90
REMARK SMILES IDX 54 91 55 92 56 93 57 94
REMARK H PARENT 16 4 9 15 4 18 4 19 20 28 79 47 47 58
REMARK Flexibility Score: inf
ROOT
ATOM      1  C   UNL A   1      32.017  27.485  26.571  1.00  0.00     0.231 C 
ATOM      2  O   UNL A   1      31.026  27.178  27.245  1.00  0.00    -0.274 OA
ATOM      3  N   UNL A   1      32.943  28.178  27.275  1.00  0.00    -0.355 N 
ATOM      4  H   UNL A   1      32.697  28.274  28.223  1.00  0.00     0.163 HD
ENDROOT
BRANCH   1   5
ATOM      5  C   UNL A   1      32.051  27.236  25.049  1.00  0.00     0.092 C 
ATOM      6  C   UNL A   1      32.589  28.351  24.145  1.00  0.00     0.027 C 
ATOM      7  C   UNL A   1      30.552  27.062  24.677  1.00  0.00     0.027 C 
BRANCH   5   8
ATOM      8  C   UNL A   1      32.771  25.857  24.717  1.00  0.00     0.278 C 
BRANCH   8   9
ATOM      9  N   UNL A   1      33.064  24.752  25.669  1.00  0.00    -0.334 N 
ATOM     10  C   UNL A   1      33.693  22.173  27.036  1.00  0.00     0.055 C 
ATOM     11  C   UNL A   1      32.325  22.878  27.131  1.00  0.00     0.071 C 
ATOM     12  C   UNL A   1      34.766  23.136  26.519  1.00  0.00     0.071 C 
ATOM     13  C   UNL A   1      31.983  23.825  25.967  1.00  0.00     0.262 C 
ATOM     14  C   UNL A   1      34.317  24.060  25.385  1.00  0.00     0.262 C 
ATOM     15  H   UNL A   1      33.175  25.266  26.544  1.00  0.00     0.348 HD
BRANCH  10  16
ATOM     16  C   UNL A   1      33.688  20.768  26.374  1.00  0.00     0.264 C 
BRANCH  16  17
ATOM     17  N   UNL A   1      34.861  20.341  25.625  1.00  0.00    -0.346 N 
ATOM     18  H   UNL A   1      35.211  21.141  25.099  1.00  0.00     0.346 HD
ATOM     19  H   UNL A   1      35.531  19.990  26.310  1.00  0.00     0.346 HD
BRANCH  17  20
ATOM     20  C   UNL A   1      34.617  19.250  24.686  1.00  0.00     0.260 C 
BRANCH  20  21
ATOM     21  C   UNL A   1      33.183  18.696  24.743  1.00  0.00     0.058 C 
ATOM     22  C   UNL A   1      32.440  18.705  23.421  1.00  0.00     0.010 C 
ENDBRANCH  20  21
ENDBRANCH  17  20
ENDBRANCH  16  17
ENDBRANCH  10  16
ENDBRANCH   8   9
ENDBRANCH   5   8
ENDBRANCH   1   5
BRANCH   3  23
ATOM     23  C   UNL A   1      34.212  28.814  26.962  1.00  0.00     0.117 C 
BRANCH  23  24
ATOM     24  C   UNL A   1      34.119  30.339  26.931  1.00  0.00     0.042 C 
BRANCH  24  25
ATOM     25  C   UNL A   1      32.803  30.948  27.413  1.00  0.00     0.118 C 
BRANCH  25  26
ATOM     26  N   UNL A   1      32.735  32.401  27.334  1.00  0.00    -0.352 N 
ATOM     27  C   UNL A   1      33.570  33.356  27.876  1.00  0.00     0.251 C 
ATOM     28  H   UNL A   1      31.978  32.757  26.815  1.00  0.00     0.163 HD
ATOM     29  O   UNL A   1      33.304  34.549  27.741  1.00  0.00    -0.269 OA
BRANCH  27  30
ATOM     30  C   UNL A   1      34.757  32.952  28.666  1.00  0.00     0.039 A 
ATOM     31  C   UNL A   1      34.569  32.359  29.916  1.00  0.00     0.014 A 
ATOM     32  C   UNL A   1      36.047  33.109  28.159  1.00  0.00     0.014 A 
ATOM     33  C   UNL A   1      35.663  31.815  30.599  1.00  0.00     0.010 A 
ATOM     34  C   UNL A   1      37.115  32.473  28.784  1.00  0.00     0.010 A 
ATOM     35  C   UNL A   1      36.938  31.808  30.007  1.00  0.00    -0.014 A 
BRANCH  35  36
ATOM     36  C   UNL A   1      38.087  31.089  30.627  1.00  0.00     0.031 A 
ATOM     37  C   UNL A   1      38.553  31.450  32.013  1.00  0.00     0.074 A 
ATOM     38  C   UNL A   1      38.783  30.189  29.901  1.00  0.00     0.049 A 
ATOM     39  N   UNL A   1      39.588  31.005  32.679  1.00  0.00    -0.248 NA
ATOM     40  C   UNL A   1      37.774  32.472  32.735  1.00  0.00     0.031 C 
ATOM     41  C   UNL A   1      38.498  29.812  28.514  1.00  0.00     0.029 A 
ATOM     42  N   UNL A   1      39.895  29.445  30.219  1.00  0.00    -0.354 N 
ATOM     43  C   UNL A   1      39.612  31.722  33.870  1.00  0.00     0.074 A 
ATOM     44  C   UNL A   1      38.512  32.660  33.820  1.00  0.00     0.031 C 
ATOM     45  C   UNL A   1      39.398  28.901  28.108  1.00  0.00     0.029 A 
ATOM     46  C   UNL A   1      40.346  28.652  29.188  1.00  0.00     0.049 A 
ATOM     47  H   UNL A   1      40.329  29.478  31.102  1.00  0.00     0.167 HD
ATOM     48  C   UNL A   1      40.447  31.590  34.927  1.00  0.00     0.034 A 
ATOM     49  C   UNL A   1      41.406  27.823  29.117  1.00  0.00     0.034 A 
ATOM     50  C   UNL A   1      41.502  30.617  35.002  1.00  0.00     0.049 A 
ATOM     51  C   UNL A   1      42.286  27.653  30.325  1.00  0.00     0.074 A 
ATOM     52  C   UNL A   1      42.342  30.338  36.067  1.00  0.00     0.029 A 
ATOM     53  N   UNL A   1      41.865  29.761  33.974  1.00  0.00    -0.354 N 
ATOM     54  N   UNL A   1      42.193  28.227  31.501  1.00  0.00    -0.248 NA
ATOM     55  C   UNL A   1      43.395  26.695  30.213  1.00  0.00     0.031 C 
ATOM     56  C   UNL A   1      43.223  29.326  35.675  1.00  0.00     0.029 A 
ATOM     57  C   UNL A   1      42.917  28.957  34.376  1.00  0.00     0.049 A 
ATOM     58  H   UNL A   1      41.436  29.731  33.088  1.00  0.00     0.167 HD
ATOM     59  C   UNL A   1      43.204  27.674  32.276  1.00  0.00     0.074 A 
ATOM     60  C   UNL A   1      43.886  26.703  31.444  1.00  0.00     0.031 C 
ATOM     61  C   UNL A   1      43.548  27.954  33.558  1.00  0.00     0.034 A 
BRANCH  48  62
ATOM     62  C   UNL A   1      40.212  32.480  36.121  1.00  0.00     0.023 A 
ATOM     63  C   UNL A   1      40.954  33.672  36.253  1.00  0.00     0.012 A 
ATOM     64  C   UNL A   1      39.228  32.170  37.080  1.00  0.00     0.148 A 
ATOM     65  C   UNL A   1      40.748  34.522  37.339  1.00  0.00     0.002 A 
ATOM     66  C   UNL A   1      38.995  33.047  38.133  1.00  0.00     0.091 A 
ATOM     67  F   UNL A   1      38.545  31.024  36.949  1.00  0.00    -0.205 F 
ATOM     68  C   UNL A   1      39.764  34.214  38.272  1.00  0.00     0.022 A 
BRANCH  66  69
ATOM     69  S   UNL A   1      37.694  32.784  39.345  1.00  0.00     0.127 S 
ATOM     70  O   UNL A   1      37.867  33.943  40.220  1.00  0.00    -0.237 OA
ATOM     71  O   UNL A   1      36.490  32.822  38.515  1.00  0.00    -0.237 OA
ATOM     72  O   UNL A   1      37.970  31.493  39.958  1.00  0.00    -0.744 OA
ENDBRANCH  66  69
ENDBRANCH  48  62
BRANCH  49  73
ATOM     73  C   UNL A   1      41.649  27.024  27.880  1.00  0.00     0.023 A 
ATOM     74  C   UNL A   1      42.201  27.658  26.748  1.00  0.00     0.012 A 
ATOM     75  C   UNL A   1      41.363  25.646  27.821  1.00  0.00     0.148 A 
ATOM     76  C   UNL A   1      42.429  26.945  25.571  1.00  0.00     0.002 A 
ATOM     77  C   UNL A   1      41.645  24.930  26.662  1.00  0.00     0.091 A 
ATOM     78  F   UNL A   1      40.828  25.062  28.902  1.00  0.00    -0.205 F 
ATOM     79  C   UNL A   1      42.161  25.580  25.531  1.00  0.00     0.022 A 
BRANCH  77  80
ATOM     80  S   UNL A   1      41.456  23.145  26.564  1.00  0.00     0.127 S 
ATOM     81  O   UNL A   1      41.766  22.735  27.930  1.00  0.00    -0.237 OA
ATOM     82  O   UNL A   1      40.049  23.012  26.184  1.00  0.00    -0.237 OA
ATOM     83  O   UNL A   1      42.395  22.707  25.540  1.00  0.00    -0.744 OA
ENDBRANCH  77  80
ENDBRANCH  49  73
BRANCH  61  84
ATOM     84  C   UNL A   1      44.686  27.176  34.165  1.00  0.00     0.023 A 
ATOM     85  C   UNL A   1      46.009  27.633  34.010  1.00  0.00     0.012 A 
ATOM     86  C   UNL A   1      44.435  26.038  34.957  1.00  0.00     0.148 A 
ATOM     87  C   UNL A   1      47.069  26.952  34.610  1.00  0.00     0.002 A 
ATOM     88  C   UNL A   1      45.490  25.394  35.590  1.00  0.00     0.091 A 
ATOM     89  F   UNL A   1      43.170  25.608  35.076  1.00  0.00    -0.205 F 
ATOM     90  C   UNL A   1      46.808  25.842  35.408  1.00  0.00     0.022 A 
BRANCH  88  91
ATOM     91  S   UNL A   1      45.239  24.016  36.717  1.00  0.00     0.127 S 
ATOM     92  O   UNL A   1      44.362  24.611  37.724  1.00  0.00    -0.237 OA
ATOM     93  O   UNL A   1      44.594  23.024  35.855  1.00  0.00    -0.237 OA
ATOM     94  O   UNL A   1      46.564  23.636  37.187  1.00  0.00    -0.744 OA
ENDBRANCH  88  91
ENDBRANCH  61  84
ENDBRANCH  35  36
ENDBRANCH  27  30
ENDBRANCH  25  26
ENDBRANCH  24  25
ENDBRANCH  23  24
ENDBRANCH   3  23
TORSDOF 19
ENDMDL
