MODEL 1
REMARK VINA RESULT:     -11.5      0.000      0.000
REMARK SMILES CC[C@@](C)(Nc1ccccc1Br)C(=O)NCCCNC(=O)c1ccc(-c2c3nc(c(-c4cccc(S(=O)(=O)[O-])c4F)c4ccc([nH]4)c(-c4cccc(S(=O)(=O)[O-])c4F)c4nc(c(-c5cccc(S(=O)(=O)[O-])c5F)c5ccc2[nH]5)C=C4)C=C3)cc1
REMARK SMILES IDX 17 1 16 2 15 3 13 4 14 5 3 7 4 8 2 9 1 10 5 11 6 13 7 14
REMARK SMILES IDX 11 15 8 16 10 17 12 18 9 19 18 20 19 21 20 22 21 24 22 25
REMARK SMILES IDX 23 26 84 27 24 28 83 29 25 30 26 31 27 32 77 33 28 34 82 35
REMARK SMILES IDX 76 36 78 37 29 38 81 39 75 40 74 41 30 43 62 44 42 45 61 46
REMARK SMILES IDX 43 47 46 48 60 49 79 50 44 51 45 52 59 54 80 55 47 56 31 57
REMARK SMILES IDX 32 58 40 59 33 60 35 61 41 62 34 63 36 64 37 65 38 66 39 67
REMARK SMILES IDX 63 68 64 69 72 70 65 71 67 72 73 73 66 74 68 75 69 76 70 77
REMARK SMILES IDX 71 78 48 79 49 80 57 81 50 82 52 83 58 84 51 85 53 86 54 87
REMARK SMILES IDX 55 88 56 89
REMARK H PARENT 15 6 5 12 19 23 78 42 46 53
REMARK Flexibility Score: inf
ROOT
ATOM      1  C   UNL A   1      34.265  21.682  26.853  1.00  0.00     0.042 C 
ENDROOT
BRANCH   1   2
ATOM      2  C   UNL A   1      32.918  21.583  26.114  1.00  0.00     0.117 C 
BRANCH   2   3
ATOM      3  N   UNL A   1      31.803  22.198  26.822  1.00  0.00    -0.354 N 
ATOM      4  C   UNL A   1      31.071  23.339  26.723  1.00  0.00     0.245 C 
ATOM      5  O   UNL A   1      30.082  23.331  27.478  1.00  0.00    -0.272 OA
ATOM      6  H   UNL A   1      31.497  21.635  27.571  1.00  0.00     0.163 HD
BRANCH   4   7
ATOM      7  C   UNL A   1      31.347  24.598  25.801  1.00  0.00     0.113 C 
ATOM      8  C   UNL A   1      32.800  25.081  25.788  1.00  0.00     0.045 C 
BRANCH   7   9
ATOM      9  C   UNL A   1      30.963  24.165  24.331  1.00  0.00     0.035 C 
ATOM     10  C   UNL A   1      32.131  23.971  23.365  1.00  0.00     0.007 C 
ENDBRANCH   7   9
BRANCH   7  11
ATOM     11  N   UNL A   1      30.483  25.792  26.082  1.00  0.00    -0.371 N 
ATOM     12  H   UNL A   1      29.528  25.652  26.276  1.00  0.00     0.161 HD
BRANCH  11  13
ATOM     13  C   UNL A   1      30.984  27.088  26.079  1.00  0.00     0.049 A 
ATOM     14  C   UNL A   1      31.469  27.652  27.264  1.00  0.00     0.027 A 
ATOM     15  C   UNL A   1      31.084  27.857  24.913  1.00  0.00     0.041 A 
ATOM     16  C   UNL A   1      32.183  28.853  27.246  1.00  0.00     0.002 A 
ATOM     17  C   UNL A   1      31.903  28.988  24.861  1.00  0.00     0.018 A 
ATOM     18  Br  UNL A   1      29.837  27.569  23.496  1.00  0.00    -0.049 Br
ATOM     19  C   UNL A   1      32.474  29.472  26.034  1.00  0.00     0.001 A 
ENDBRANCH  11  13
ENDBRANCH   7  11
ENDBRANCH   4   7
ENDBRANCH   2   3
ENDBRANCH   1   2
BRANCH   1  20
ATOM     20  C   UNL A   1      35.457  22.220  26.059  1.00  0.00     0.118 C 
BRANCH  20  21
ATOM     21  N   UNL A   1      36.431  21.177  25.778  1.00  0.00    -0.352 N 
ATOM     22  C   UNL A   1      37.798  21.250  25.654  1.00  0.00     0.251 C 
ATOM     23  H   UNL A   1      36.050  20.277  25.657  1.00  0.00     0.163 HD
ATOM     24  O   UNL A   1      38.395  20.311  25.128  1.00  0.00    -0.269 OA
BRANCH  22  25
ATOM     25  C   UNL A   1      38.571  22.421  26.141  1.00  0.00     0.039 A 
ATOM     26  C   UNL A   1      38.168  23.704  25.752  1.00  0.00     0.014 A 
ATOM     27  C   UNL A   1      39.747  22.268  26.878  1.00  0.00     0.014 A 
ATOM     28  C   UNL A   1      38.922  24.827  26.125  1.00  0.00     0.010 A 
ATOM     29  C   UNL A   1      40.467  23.392  27.298  1.00  0.00     0.010 A 
ATOM     30  C   UNL A   1      40.074  24.685  26.914  1.00  0.00    -0.014 A 
BRANCH  30  31
ATOM     31  C   UNL A   1      40.883  25.868  27.331  1.00  0.00     0.031 A 
ATOM     32  C   UNL A   1      40.258  26.979  28.139  1.00  0.00     0.074 A 
ATOM     33  C   UNL A   1      42.162  25.988  26.920  1.00  0.00     0.049 A 
ATOM     34  N   UNL A   1      40.781  28.114  28.532  1.00  0.00    -0.248 NA
ATOM     35  C   UNL A   1      38.851  26.805  28.536  1.00  0.00     0.031 C 
ATOM     36  C   UNL A   1      42.872  25.024  26.078  1.00  0.00     0.029 A 
ATOM     37  N   UNL A   1      43.084  26.986  27.130  1.00  0.00    -0.354 N 
ATOM     38  C   UNL A   1      39.762  28.805  29.179  1.00  0.00     0.074 A 
ATOM     39  C   UNL A   1      38.581  27.972  29.104  1.00  0.00     0.031 C 
ATOM     40  C   UNL A   1      44.114  25.476  25.842  1.00  0.00     0.029 A 
ATOM     41  C   UNL A   1      44.284  26.773  26.490  1.00  0.00     0.049 A 
ATOM     42  H   UNL A   1      42.904  27.778  27.686  1.00  0.00     0.167 HD
ATOM     43  C   UNL A   1      39.807  30.006  29.805  1.00  0.00     0.034 A 
ATOM     44  C   UNL A   1      45.393  27.537  26.423  1.00  0.00     0.034 A 
ATOM     45  C   UNL A   1      40.995  30.810  29.930  1.00  0.00     0.049 A 
ATOM     46  C   UNL A   1      45.432  28.848  27.163  1.00  0.00     0.074 A 
ATOM     47  C   UNL A   1      41.163  31.992  30.629  1.00  0.00     0.029 A 
ATOM     48  N   UNL A   1      42.214  30.518  29.341  1.00  0.00    -0.354 N 
ATOM     49  N   UNL A   1      44.505  29.406  27.903  1.00  0.00    -0.248 NA
ATOM     50  C   UNL A   1      46.683  29.619  27.088  1.00  0.00     0.031 C 
ATOM     51  C   UNL A   1      42.480  32.427  30.444  1.00  0.00     0.029 A 
ATOM     52  C   UNL A   1      43.138  31.503  29.649  1.00  0.00     0.049 A 
ATOM     53  H   UNL A   1      42.397  29.726  28.785  1.00  0.00     0.167 HD
ATOM     54  C   UNL A   1      45.068  30.575  28.403  1.00  0.00     0.074 A 
ATOM     55  C   UNL A   1      46.425  30.632  27.904  1.00  0.00     0.031 C 
ATOM     56  C   UNL A   1      44.503  31.525  29.190  1.00  0.00     0.034 A 
BRANCH  43  57
ATOM     57  C   UNL A   1      38.541  30.508  30.454  1.00  0.00     0.023 A 
ATOM     58  C   UNL A   1      38.338  30.297  31.835  1.00  0.00     0.012 A 
ATOM     59  C   UNL A   1      37.583  31.236  29.721  1.00  0.00     0.148 A 
ATOM     60  C   UNL A   1      37.184  30.763  32.465  1.00  0.00     0.002 A 
ATOM     61  C   UNL A   1      36.457  31.738  30.366  1.00  0.00     0.091 A 
ATOM     62  F   UNL A   1      37.783  31.417  28.409  1.00  0.00    -0.205 F 
ATOM     63  C   UNL A   1      36.250  31.490  31.733  1.00  0.00     0.022 A 
BRANCH  61  64
ATOM     64  S   UNL A   1      35.230  32.753  29.533  1.00  0.00     0.127 S 
ATOM     65  O   UNL A   1      34.290  33.030  30.618  1.00  0.00    -0.237 OA
ATOM     66  O   UNL A   1      36.024  33.905  29.106  1.00  0.00    -0.237 OA
ATOM     67  O   UNL A   1      34.708  31.940  28.444  1.00  0.00    -0.744 OA
ENDBRANCH  61  64
ENDBRANCH  43  57
BRANCH  44  68
ATOM     68  C   UNL A   1      46.588  27.053  25.670  1.00  0.00     0.023 A 
ATOM     69  C   UNL A   1      47.391  26.040  26.230  1.00  0.00     0.012 A 
ATOM     70  C   UNL A   1      46.918  27.568  24.402  1.00  0.00     0.148 A 
ATOM     71  C   UNL A   1      48.518  25.571  25.554  1.00  0.00     0.002 A 
ATOM     72  C   UNL A   1      48.010  27.058  23.710  1.00  0.00     0.091 A 
ATOM     73  F   UNL A   1      46.150  28.542  23.893  1.00  0.00    -0.205 F 
ATOM     74  C   UNL A   1      48.822  26.070  24.292  1.00  0.00     0.022 A 
BRANCH  72  75
ATOM     75  S   UNL A   1      48.398  27.552  22.027  1.00  0.00     0.127 S 
ATOM     76  O   UNL A   1      48.653  26.258  21.390  1.00  0.00    -0.237 OA
ATOM     77  O   UNL A   1      47.153  28.203  21.610  1.00  0.00    -0.237 OA
ATOM     78  O   UNL A   1      49.538  28.442  22.130  1.00  0.00    -0.744 OA
ENDBRANCH  72  75
ENDBRANCH  44  68
BRANCH  56  79
ATOM     79  C   UNL A   1      45.354  32.704  29.586  1.00  0.00     0.023 A 
ATOM     80  C   UNL A   1      46.151  32.634  30.745  1.00  0.00     0.012 A 
ATOM     81  C   UNL A   1      45.424  33.849  28.767  1.00  0.00     0.148 A 
ATOM     82  C   UNL A   1      46.982  33.696  31.100  1.00  0.00     0.002 A 
ATOM     83  C   UNL A   1      46.292  34.884  29.100  1.00  0.00     0.091 A 
ATOM     84  F   UNL A   1      44.645  33.905  27.677  1.00  0.00    -0.205 F 
ATOM     85  C   UNL A   1      47.062  34.814  30.272  1.00  0.00     0.022 A 
BRANCH  83  86
ATOM     86  S   UNL A   1      46.533  36.318  28.046  1.00  0.00     0.127 S 
ATOM     87  O   UNL A   1      45.392  37.155  28.416  1.00  0.00    -0.237 OA
ATOM     88  O   UNL A   1      47.830  36.822  28.499  1.00  0.00    -0.237 OA
ATOM     89  O   UNL A   1      46.523  35.818  26.678  1.00  0.00    -0.744 OA
ENDBRANCH  83  86
ENDBRANCH  56  79
ENDBRANCH  30  31
ENDBRANCH  22  25
ENDBRANCH  20  21
ENDBRANCH   1  20
TORSDOF 16
ENDMDL
MODEL 2
REMARK VINA RESULT:     -11.5      4.867      7.400
REMARK SMILES CC[C@@](C)(Nc1ccccc1Br)C(=O)NCCCNC(=O)c1ccc(-c2c3nc(c(-c4cccc(S(=O)(=O)[O-])c4F)c4ccc([nH]4)c(-c4cccc(S(=O)(=O)[O-])c4F)c4nc(c(-c5cccc(S(=O)(=O)[O-])c5F)c5ccc2[nH]5)C=C4)C=C3)cc1
REMARK SMILES IDX 17 1 16 2 15 3 13 4 14 5 3 7 4 8 2 9 1 10 5 11 6 13 7 14
REMARK SMILES IDX 11 15 8 16 10 17 12 18 9 19 18 20 19 21 20 22 21 24 22 25
REMARK SMILES IDX 23 26 84 27 24 28 83 29 25 30 26 31 27 32 77 33 28 34 82 35
REMARK SMILES IDX 76 36 78 37 29 38 81 39 75 40 74 41 30 43 62 44 42 45 61 46
REMARK SMILES IDX 43 47 46 48 60 49 79 50 44 51 45 52 59 54 80 55 47 56 31 57
REMARK SMILES IDX 32 58 40 59 33 60 35 61 41 62 34 63 36 64 37 65 38 66 39 67
REMARK SMILES IDX 63 68 64 69 72 70 65 71 67 72 73 73 66 74 68 75 69 76 70 77
REMARK SMILES IDX 71 78 48 79 49 80 57 81 50 82 52 83 58 84 51 85 53 86 54 87
REMARK SMILES IDX 55 88 56 89
REMARK H PARENT 15 6 5 12 19 23 78 42 46 53
REMARK Flexibility Score: inf
ROOT
ATOM      1  C   UNL A   1      33.295  27.822  26.698  1.00  0.00     0.042 C 
ENDROOT
BRANCH   1   2
ATOM      2  C   UNL A   1      31.912  27.332  26.231  1.00  0.00     0.117 C 
BRANCH   2   3
ATOM      3  N   UNL A   1      31.920  26.675  24.931  1.00  0.00    -0.354 N 
ATOM      4  C   UNL A   1      32.210  25.439  24.445  1.00  0.00     0.245 C 
ATOM      5  O   UNL A   1      31.889  25.318  23.249  1.00  0.00    -0.272 OA
ATOM      6  H   UNL A   1      31.640  27.289  24.214  1.00  0.00     0.163 HD
BRANCH   4   7
ATOM      7  C   UNL A   1      32.880  24.222  25.208  1.00  0.00     0.113 C 
ATOM      8  C   UNL A   1      34.188  24.557  25.929  1.00  0.00     0.045 C 
BRANCH   7   9
ATOM      9  C   UNL A   1      31.832  23.745  26.290  1.00  0.00     0.035 C 
ATOM     10  C   UNL A   1      30.838  22.678  25.832  1.00  0.00     0.007 C 
ENDBRANCH   7   9
BRANCH   7  11
ATOM     11  N   UNL A   1      33.133  23.007  24.365  1.00  0.00    -0.371 N 
ATOM     12  H   UNL A   1      32.373  22.577  23.911  1.00  0.00     0.161 HD
BRANCH  11  13
ATOM     13  C   UNL A   1      34.404  22.468  24.202  1.00  0.00     0.049 A 
ATOM     14  C   UNL A   1      35.341  23.121  23.393  1.00  0.00     0.027 A 
ATOM     15  C   UNL A   1      34.824  21.311  24.868  1.00  0.00     0.041 A 
ATOM     16  C   UNL A   1      36.683  22.732  23.395  1.00  0.00     0.002 A 
ATOM     17  C   UNL A   1      36.181  20.993  24.979  1.00  0.00     0.018 A 
ATOM     18  Br  UNL A   1      33.536  19.978  25.326  1.00  0.00    -0.049 Br
ATOM     19  C   UNL A   1      37.116  21.726  24.255  1.00  0.00     0.001 A 
ENDBRANCH  11  13
ENDBRANCH   7  11
ENDBRANCH   4   7
ENDBRANCH   2   3
ENDBRANCH   1   2
BRANCH   1  20
ATOM     20  C   UNL A   1      33.942  28.951  25.894  1.00  0.00     0.118 C 
BRANCH  20  21
ATOM     21  N   UNL A   1      33.808  30.235  26.565  1.00  0.00    -0.352 N 
ATOM     22  C   UNL A   1      34.510  30.759  27.626  1.00  0.00     0.251 C 
ATOM     23  H   UNL A   1      33.104  30.820  26.203  1.00  0.00     0.163 HD
ATOM     24  O   UNL A   1      34.045  31.731  28.219  1.00  0.00    -0.269 OA
BRANCH  22  25
ATOM     25  C   UNL A   1      35.809  30.191  28.067  1.00  0.00     0.039 A 
ATOM     26  C   UNL A   1      35.901  29.628  29.345  1.00  0.00     0.014 A 
ATOM     27  C   UNL A   1      36.962  30.308  27.287  1.00  0.00     0.014 A 
ATOM     28  C   UNL A   1      37.131  29.157  29.825  1.00  0.00     0.010 A 
ATOM     29  C   UNL A   1      38.178  29.786  27.744  1.00  0.00     0.010 A 
ATOM     30  C   UNL A   1      38.283  29.219  29.025  1.00  0.00    -0.014 A 
BRANCH  30  31
ATOM     31  C   UNL A   1      39.599  28.713  29.514  1.00  0.00     0.031 A 
ATOM     32  C   UNL A   1      40.327  29.422  30.629  1.00  0.00     0.074 A 
ATOM     33  C   UNL A   1      40.183  27.659  28.908  1.00  0.00     0.049 A 
ATOM     34  N   UNL A   1      41.508  29.173  31.138  1.00  0.00    -0.248 NA
ATOM     35  C   UNL A   1      39.652  30.581  31.235  1.00  0.00     0.031 C 
ATOM     36  C   UNL A   1      39.625  26.921  27.774  1.00  0.00     0.029 A 
ATOM     37  N   UNL A   1      41.391  27.044  29.140  1.00  0.00    -0.354 N 
ATOM     38  C   UNL A   1      41.736  30.165  32.087  1.00  0.00     0.074 A 
ATOM     39  C   UNL A   1      40.580  31.036  32.065  1.00  0.00     0.031 C 
ATOM     40  C   UNL A   1      40.485  25.957  27.409  1.00  0.00     0.029 A 
ATOM     41  C   UNL A   1      41.669  26.022  28.261  1.00  0.00     0.049 A 
ATOM     42  H   UNL A   1      41.999  27.309  29.867  1.00  0.00     0.167 HD
ATOM     43  C   UNL A   1      42.792  30.323  32.922  1.00  0.00     0.034 A 
ATOM     44  C   UNL A   1      42.755  25.231  28.146  1.00  0.00     0.034 A 
ATOM     45  C   UNL A   1      43.915  29.425  32.986  1.00  0.00     0.049 A 
ATOM     46  C   UNL A   1      43.896  25.399  29.114  1.00  0.00     0.074 A 
ATOM     47  C   UNL A   1      44.984  29.446  33.865  1.00  0.00     0.029 A 
ATOM     48  N   UNL A   1      44.118  28.350  32.136  1.00  0.00    -0.354 N 
ATOM     49  N   UNL A   1      44.017  26.245  30.108  1.00  0.00    -0.248 NA
ATOM     50  C   UNL A   1      45.036  24.482  28.967  1.00  0.00     0.031 C 
ATOM     51  C   UNL A   1      45.846  28.395  33.532  1.00  0.00     0.029 A 
ATOM     52  C   UNL A   1      45.301  27.706  32.460  1.00  0.00     0.049 A 
ATOM     53  H   UNL A   1      43.511  28.083  31.408  1.00  0.00     0.167 HD
ATOM     54  C   UNL A   1      45.229  25.944  30.721  1.00  0.00     0.074 A 
ATOM     55  C   UNL A   1      45.792  24.820  30.003  1.00  0.00     0.031 C 
ATOM     56  C   UNL A   1      45.829  26.556  31.773  1.00  0.00     0.034 A 
BRANCH  43  57
ATOM     57  C   UNL A   1      42.761  31.488  33.880  1.00  0.00     0.023 A 
ATOM     58  C   UNL A   1      43.274  32.738  33.471  1.00  0.00     0.012 A 
ATOM     59  C   UNL A   1      42.176  31.369  35.157  1.00  0.00     0.148 A 
ATOM     60  C   UNL A   1      43.244  33.835  34.330  1.00  0.00     0.002 A 
ATOM     61  C   UNL A   1      42.109  32.480  35.991  1.00  0.00     0.091 A 
ATOM     62  F   UNL A   1      41.705  30.173  35.536  1.00  0.00    -0.205 F 
ATOM     63  C   UNL A   1      42.655  33.709  35.585  1.00  0.00     0.022 A 
BRANCH  61  64
ATOM     64  S   UNL A   1      41.302  32.444  37.596  1.00  0.00     0.127 S 
ATOM     65  O   UNL A   1      42.146  31.504  38.330  1.00  0.00    -0.237 OA
ATOM     66  O   UNL A   1      41.420  33.836  38.031  1.00  0.00    -0.237 OA
ATOM     67  O   UNL A   1      39.938  32.000  37.349  1.00  0.00    -0.744 OA
ENDBRANCH  61  64
ENDBRANCH  43  57
BRANCH  44  68
ATOM     68  C   UNL A   1      42.792  24.162  27.106  1.00  0.00     0.023 A 
ATOM     69  C   UNL A   1      43.510  24.385  25.914  1.00  0.00     0.012 A 
ATOM     70  C   UNL A   1      42.146  22.925  27.296  1.00  0.00     0.148 A 
ATOM     71  C   UNL A   1      43.559  23.407  24.919  1.00  0.00     0.002 A 
ATOM     72  C   UNL A   1      42.244  21.936  26.325  1.00  0.00     0.091 A 
ATOM     73  F   UNL A   1      41.455  22.738  28.430  1.00  0.00    -0.205 F 
ATOM     74  C   UNL A   1      42.937  22.181  25.128  1.00  0.00     0.022 A 
BRANCH  72  75
ATOM     75  S   UNL A   1      41.583  20.283  26.566  1.00  0.00     0.127 S 
ATOM     76  O   UNL A   1      40.141  20.542  26.602  1.00  0.00    -0.237 OA
ATOM     77  O   UNL A   1      42.050  19.593  25.360  1.00  0.00    -0.237 OA
ATOM     78  O   UNL A   1      42.169  19.800  27.801  1.00  0.00    -0.744 OA
ENDBRANCH  72  75
ENDBRANCH  44  68
BRANCH  56  79
ATOM     79  C   UNL A   1      47.158  26.015  32.233  1.00  0.00     0.023 A 
ATOM     80  C   UNL A   1      47.211  25.122  33.321  1.00  0.00     0.012 A 
ATOM     81  C   UNL A   1      48.343  26.330  31.539  1.00  0.00     0.148 A 
ATOM     82  C   UNL A   1      48.425  24.572  33.729  1.00  0.00     0.002 A 
ATOM     83  C   UNL A   1      49.544  25.741  31.922  1.00  0.00     0.091 A 
ATOM     84  F   UNL A   1      48.277  27.196  30.518  1.00  0.00    -0.205 F 
ATOM     85  C   UNL A   1      49.589  24.871  33.024  1.00  0.00     0.022 A 
BRANCH  83  86
ATOM     86  S   UNL A   1      51.074  25.992  31.014  1.00  0.00     0.127 S 
ATOM     87  O   UNL A   1      51.293  27.427  31.190  1.00  0.00    -0.237 OA
ATOM     88  O   UNL A   1      52.012  25.138  31.745  1.00  0.00    -0.237 OA
ATOM     89  O   UNL A   1      50.806  25.564  29.648  1.00  0.00    -0.744 OA
ENDBRANCH  83  86
ENDBRANCH  56  79
ENDBRANCH  30  31
ENDBRANCH  22  25
ENDBRANCH  20  21
ENDBRANCH   1  20
TORSDOF 16
ENDMDL
MODEL 3
REMARK VINA RESULT:     -11.5      5.344     10.167
REMARK SMILES CC[C@@](C)(Nc1ccccc1Br)C(=O)NCCCNC(=O)c1ccc(-c2c3nc(c(-c4cccc(S(=O)(=O)[O-])c4F)c4ccc([nH]4)c(-c4cccc(S(=O)(=O)[O-])c4F)c4nc(c(-c5cccc(S(=O)(=O)[O-])c5F)c5ccc2[nH]5)C=C4)C=C3)cc1
REMARK SMILES IDX 17 1 16 2 15 3 13 4 14 5 3 7 4 8 2 9 1 10 5 11 6 13 7 14
REMARK SMILES IDX 11 15 8 16 10 17 12 18 9 19 18 20 19 21 20 22 21 24 22 25
REMARK SMILES IDX 23 26 84 27 24 28 83 29 25 30 26 31 27 32 77 33 28 34 82 35
REMARK SMILES IDX 76 36 78 37 29 38 81 39 75 40 74 41 30 43 62 44 42 45 61 46
REMARK SMILES IDX 43 47 46 48 60 49 79 50 44 51 45 52 59 54 80 55 47 56 31 57
REMARK SMILES IDX 32 58 40 59 33 60 35 61 41 62 34 63 36 64 37 65 38 66 39 67
REMARK SMILES IDX 63 68 64 69 72 70 65 71 67 72 73 73 66 74 68 75 69 76 70 77
REMARK SMILES IDX 71 78 48 79 49 80 57 81 50 82 52 83 58 84 51 85 53 86 54 87
REMARK SMILES IDX 55 88 56 89
REMARK H PARENT 15 6 5 12 19 23 78 42 46 53
REMARK Flexibility Score: inf
ROOT
ATOM      1  C   UNL A   1      33.265  28.895  23.966  1.00  0.00     0.042 C 
ENDROOT
BRANCH   1   2
ATOM      2  C   UNL A   1      32.192  28.349  23.006  1.00  0.00     0.117 C 
BRANCH   2   3
ATOM      3  N   UNL A   1      32.698  27.399  22.024  1.00  0.00    -0.354 N 
ATOM      4  C   UNL A   1      33.068  26.092  22.005  1.00  0.00     0.245 C 
ATOM      5  O   UNL A   1      33.275  25.678  20.850  1.00  0.00    -0.272 OA
ATOM      6  H   UNL A   1      32.798  27.816  21.137  1.00  0.00     0.163 HD
BRANCH   4   7
ATOM      7  C   UNL A   1      33.251  25.111  23.238  1.00  0.00     0.113 C 
ATOM      8  C   UNL A   1      34.310  25.548  24.254  1.00  0.00     0.045 C 
BRANCH   7   9
ATOM      9  C   UNL A   1      31.856  25.060  23.977  1.00  0.00     0.035 C 
ATOM     10  C   UNL A   1      30.668  24.610  23.128  1.00  0.00     0.007 C 
ENDBRANCH   7   9
BRANCH   7  11
ATOM     11  N   UNL A   1      33.541  23.685  22.876  1.00  0.00    -0.371 N 
ATOM     12  H   UNL A   1      33.068  23.282  22.112  1.00  0.00     0.161 HD
BRANCH  11  13
ATOM     13  C   UNL A   1      34.457  22.912  23.580  1.00  0.00     0.049 A 
ATOM     14  C   UNL A   1      35.813  22.949  23.237  1.00  0.00     0.027 A 
ATOM     15  C   UNL A   1      34.093  22.124  24.678  1.00  0.00     0.041 A 
ATOM     16  C   UNL A   1      36.778  22.368  24.064  1.00  0.00     0.002 A 
ATOM     17  C   UNL A   1      35.052  21.652  25.579  1.00  0.00     0.018 A 
ATOM     18  Br  UNL A   1      32.329  21.397  24.762  1.00  0.00    -0.049 Br
ATOM     19  C   UNL A   1      36.402  21.798  25.277  1.00  0.00     0.001 A 
ENDBRANCH  11  13
ENDBRANCH   7  11
ENDBRANCH   4   7
ENDBRANCH   2   3
ENDBRANCH   1   2
BRANCH   1  20
ATOM     20  C   UNL A   1      32.894  28.984  25.447  1.00  0.00     0.118 C 
BRANCH  20  21
ATOM     21  N   UNL A   1      32.511  30.336  25.825  1.00  0.00    -0.352 N 
ATOM     22  C   UNL A   1      32.996  31.149  26.822  1.00  0.00     0.251 C 
ATOM     23  H   UNL A   1      31.790  30.729  25.282  1.00  0.00     0.163 HD
ATOM     24  O   UNL A   1      32.338  32.134  27.155  1.00  0.00    -0.269 OA
BRANCH  22  25
ATOM     25  C   UNL A   1      34.290  30.878  27.498  1.00  0.00     0.039 A 
ATOM     26  C   UNL A   1      34.530  29.595  28.006  1.00  0.00     0.014 A 
ATOM     27  C   UNL A   1      35.218  31.893  27.740  1.00  0.00     0.014 A 
ATOM     28  C   UNL A   1      35.705  29.325  28.722  1.00  0.00     0.010 A 
ATOM     29  C   UNL A   1      36.416  31.609  28.405  1.00  0.00     0.010 A 
ATOM     30  C   UNL A   1      36.669  30.327  28.919  1.00  0.00    -0.014 A 
BRANCH  30  31
ATOM     31  C   UNL A   1      37.931  30.056  29.669  1.00  0.00     0.031 A 
ATOM     32  C   UNL A   1      38.974  29.122  29.106  1.00  0.00     0.074 A 
ATOM     33  C   UNL A   1      38.113  30.589  30.895  1.00  0.00     0.049 A 
ATOM     34  N   UNL A   1      40.096  28.712  29.643  1.00  0.00    -0.248 NA
ATOM     35  C   UNL A   1      38.708  28.551  27.775  1.00  0.00     0.031 C 
ATOM     36  C   UNL A   1      37.159  31.453  31.590  1.00  0.00     0.029 A 
ATOM     37  N   UNL A   1      39.150  30.457  31.788  1.00  0.00    -0.354 N 
ATOM     38  C   UNL A   1      40.645  27.806  28.742  1.00  0.00     0.074 A 
ATOM     39  C   UNL A   1      39.720  27.706  27.633  1.00  0.00     0.031 C 
ATOM     40  C   UNL A   1      37.651  31.772  32.798  1.00  0.00     0.029 A 
ATOM     41  C   UNL A   1      38.942  31.116  32.979  1.00  0.00     0.049 A 
ATOM     42  H   UNL A   1      39.965  29.939  31.594  1.00  0.00     0.167 HD
ATOM     43  C   UNL A   1      41.824  27.140  28.810  1.00  0.00     0.034 A 
ATOM     44  C   UNL A   1      39.699  31.179  34.093  1.00  0.00     0.034 A 
ATOM     45  C   UNL A   1      42.772  27.281  29.884  1.00  0.00     0.049 A 
ATOM     46  C   UNL A   1      41.023  30.464  34.127  1.00  0.00     0.074 A 
ATOM     47  C   UNL A   1      44.035  26.725  29.995  1.00  0.00     0.029 A 
ATOM     48  N   UNL A   1      42.563  28.027  31.032  1.00  0.00    -0.354 N 
ATOM     49  N   UNL A   1      41.595  29.740  33.196  1.00  0.00    -0.248 NA
ATOM     50  C   UNL A   1      41.825  30.602  35.353  1.00  0.00     0.031 C 
ATOM     51  C   UNL A   1      44.580  27.117  31.222  1.00  0.00     0.029 A 
ATOM     52  C   UNL A   1      43.667  27.937  31.865  1.00  0.00     0.049 A 
ATOM     53  H   UNL A   1      41.749  28.545  31.228  1.00  0.00     0.167 HD
ATOM     54  C   UNL A   1      42.831  29.362  33.710  1.00  0.00     0.074 A 
ATOM     55  C   UNL A   1      42.937  29.959  35.024  1.00  0.00     0.031 C 
ATOM     56  C   UNL A   1      43.784  28.576  33.150  1.00  0.00     0.034 A 
BRANCH  43  57
ATOM     57  C   UNL A   1      42.185  26.230  27.662  1.00  0.00     0.023 A 
ATOM     58  C   UNL A   1      42.956  26.734  26.593  1.00  0.00     0.012 A 
ATOM     59  C   UNL A   1      41.817  24.870  27.664  1.00  0.00     0.148 A 
ATOM     60  C   UNL A   1      43.318  25.911  25.526  1.00  0.00     0.002 A 
ATOM     61  C   UNL A   1      42.220  24.045  26.619  1.00  0.00     0.091 A 
ATOM     62  F   UNL A   1      41.073  24.409  28.680  1.00  0.00    -0.205 F 
ATOM     63  C   UNL A   1      42.958  24.567  25.544  1.00  0.00     0.022 A 
BRANCH  61  64
ATOM     64  S   UNL A   1      41.875  22.282  26.583  1.00  0.00     0.127 S 
ATOM     65  O   UNL A   1      42.576  21.868  25.368  1.00  0.00    -0.237 OA
ATOM     66  O   UNL A   1      42.492  21.822  27.828  1.00  0.00    -0.237 OA
ATOM     67  O   UNL A   1      40.426  22.157  26.543  1.00  0.00    -0.744 OA
ENDBRANCH  61  64
ENDBRANCH  43  57
BRANCH  44  68
ATOM     68  C   UNL A   1      39.248  32.000  35.255  1.00  0.00     0.023 A 
ATOM     69  C   UNL A   1      39.459  33.393  35.237  1.00  0.00     0.012 A 
ATOM     70  C   UNL A   1      38.595  31.419  36.358  1.00  0.00     0.148 A 
ATOM     71  C   UNL A   1      39.054  34.188  36.310  1.00  0.00     0.002 A 
ATOM     72  C   UNL A   1      38.146  32.224  37.400  1.00  0.00     0.091 A 
ATOM     73  F   UNL A   1      38.416  30.090  36.364  1.00  0.00    -0.205 F 
ATOM     74  C   UNL A   1      38.389  33.607  37.385  1.00  0.00     0.022 A 
BRANCH  72  75
ATOM     75  S   UNL A   1      37.168  31.577  38.761  1.00  0.00     0.127 S 
ATOM     76  O   UNL A   1      38.037  31.851  39.908  1.00  0.00    -0.237 OA
ATOM     77  O   UNL A   1      35.966  32.414  38.692  1.00  0.00    -0.237 OA
ATOM     78  O   UNL A   1      36.945  30.177  38.456  1.00  0.00    -0.744 OA
ENDBRANCH  72  75
ENDBRANCH  44  68
BRANCH  56  79
ATOM     79  C   UNL A   1      45.042  28.327  33.942  1.00  0.00     0.023 A 
ATOM     80  C   UNL A   1      46.123  29.224  33.839  1.00  0.00     0.012 A 
ATOM     81  C   UNL A   1      45.121  27.249  34.847  1.00  0.00     0.148 A 
ATOM     82  C   UNL A   1      47.275  29.037  34.602  1.00  0.00     0.002 A 
ATOM     83  C   UNL A   1      46.254  27.097  35.640  1.00  0.00     0.091 A 
ATOM     84  F   UNL A   1      44.090  26.395  34.918  1.00  0.00    -0.205 F 
ATOM     85  C   UNL A   1      47.336  27.982  35.510  1.00  0.00     0.022 A 
BRANCH  83  86
ATOM     86  S   UNL A   1      46.382  25.826  36.904  1.00  0.00     0.127 S 
ATOM     87  O   UNL A   1      46.682  24.639  36.104  1.00  0.00    -0.237 OA
ATOM     88  O   UNL A   1      47.499  26.310  37.717  1.00  0.00    -0.237 OA
ATOM     89  O   UNL A   1      45.097  25.810  37.589  1.00  0.00    -0.744 OA
ENDBRANCH  83  86
ENDBRANCH  56  79
ENDBRANCH  30  31
ENDBRANCH  22  25
ENDBRANCH  20  21
ENDBRANCH   1  20
TORSDOF 16
ENDMDL
