MODEL 1
REMARK VINA RESULT:     -12.9      0.000      0.000
REMARK SMILES COc1cccc(C(=O)/C=C(/Nc2cc(C)c(C)cc2[N+](=O)[O-])C(=O)NCCCNC(=O)c2ccc(-c3c4nc(c(-c5cccc(S(=O)(=O)[O-])c5F)c5ccc([nH]5)c(-c5cccc(S(=O)(=O)[O-])c5F)c5nc(c(-c6cccc(S(=O)(=O)[O-])c6F)c6ccc3[nH]6)C=C5)C=C4)cc2)c1
REMARK SMILES IDX 28 1 27 2 26 3 24 4 25 5 11 7 10 8 8 9 9 10 7 11 3 12 4 13
REMARK SMILES IDX 96 14 5 15 6 16 2 17 1 18 12 19 13 21 14 22 20 23 15 24
REMARK SMILES IDX 19 25 16 26 17 27 18 28 21 29 22 30 23 31 29 32 30 33 31 34
REMARK SMILES IDX 32 36 33 37 34 38 95 39 35 40 94 41 36 42 37 43 38 44 88 45
REMARK SMILES IDX 39 46 93 47 87 48 89 49 40 50 92 51 86 52 85 53 41 55 73 56
REMARK SMILES IDX 53 57 72 58 54 59 57 60 71 61 90 62 55 63 56 64 70 66 91 67
REMARK SMILES IDX 58 68 42 69 43 70 51 71 44 72 46 73 52 74 45 75 47 76 48 77
REMARK SMILES IDX 49 78 50 79 74 80 75 81 83 82 76 83 78 84 84 85 77 86 79 87
REMARK SMILES IDX 80 88 81 89 82 90 59 91 60 92 68 93 61 94 63 95 69 96 62 97
REMARK SMILES IDX 64 98 65 99 66 100 67 101
REMARK H PARENT 26 6 12 20 30 35 89 54 57 65
REMARK Flexibility Score: inf
ROOT
ATOM      1  C   UNL A   1      35.841  22.837  23.401  1.00  0.00     0.042 C 
ENDROOT
BRANCH   1   2
ATOM      2  C   UNL A   1      34.577  23.657  23.388  1.00  0.00     0.118 C 
BRANCH   2   3
ATOM      3  N   UNL A   1      34.449  24.715  24.364  1.00  0.00    -0.351 N 
ATOM      4  C   UNL A   1      33.331  25.031  25.095  1.00  0.00     0.267 C 
ATOM      5  O   UNL A   1      33.403  25.837  26.018  1.00  0.00    -0.268 OA
ATOM      6  H   UNL A   1      35.249  25.268  24.520  1.00  0.00     0.163 HD
BRANCH   4   7
ATOM      7  C   UNL A   1      32.018  24.409  24.724  1.00  0.00     0.108 C 
ATOM      8  C   UNL A   1      31.319  24.998  23.733  1.00  0.00     0.084 C 
BRANCH   8   9
ATOM      9  C   UNL A   1      31.453  26.196  22.851  1.00  0.00     0.188 C 
ATOM     10  O   UNL A   1      31.996  26.021  21.756  1.00  0.00    -0.289 OA
BRANCH   9  11
ATOM     11  C   UNL A   1      30.946  27.553  23.137  1.00  0.00     0.026 A 
ATOM     12  C   UNL A   1      29.308  29.331  22.983  1.00  0.00     0.119 A 
ATOM     13  C   UNL A   1      30.013  30.055  23.948  1.00  0.00     0.046 A 
ATOM     14  C   UNL A   1      29.759  28.062  22.596  1.00  0.00     0.058 A 
ATOM     15  C   UNL A   1      31.160  29.528  24.533  1.00  0.00     0.005 A 
ATOM     16  C   UNL A   1      31.622  28.278  24.133  1.00  0.00     0.012 A 
BRANCH  12  17
ATOM     17  O   UNL A   1      28.171  29.959  22.557  1.00  0.00    -0.497 OA
ATOM     18  C   UNL A   1      28.190  30.507  21.253  1.00  0.00     0.278 C 
ENDBRANCH  12  17
ENDBRANCH   9  11
ENDBRANCH   8   9
BRANCH   7  19
ATOM     19  N   UNL A   1      31.538  23.255  25.375  1.00  0.00    -0.345 N 
ATOM     20  H   UNL A   1      30.672  23.350  25.834  1.00  0.00     0.167 HD
BRANCH  19  21
ATOM     21  C   UNL A   1      32.137  21.974  25.452  1.00  0.00     0.118 A 
ATOM     22  C   UNL A   1      31.836  21.081  24.402  1.00  0.00     0.037 A 
ATOM     23  C   UNL A   1      33.181  21.610  26.312  1.00  0.00     0.292 A 
ATOM     24  C   UNL A   1      32.655  19.972  24.097  1.00  0.00    -0.046 A 
ATOM     25  C   UNL A   1      33.998  20.496  26.044  1.00  0.00     0.091 A 
ATOM     26  C   UNL A   1      32.352  19.207  22.833  1.00  0.00     0.045 C 
ATOM     27  C   UNL A   1      33.784  19.715  24.896  1.00  0.00    -0.041 A 
ATOM     28  C   UNL A   1      34.814  18.686  24.510  1.00  0.00     0.045 C 
BRANCH  23  29
ATOM     29  N   UNL A   1      33.448  22.368  27.528  1.00  0.00     0.064 N 
ATOM     30  O   UNL A   1      32.505  22.519  28.318  1.00  0.00    -0.258 OA
ATOM     31  O   UNL A   1      34.573  22.873  27.654  1.00  0.00    -0.258 OA
ENDBRANCH  23  29
ENDBRANCH  19  21
ENDBRANCH   7  19
ENDBRANCH   4   7
ENDBRANCH   2   3
ENDBRANCH   1   2
BRANCH   1  32
ATOM     32  C   UNL A   1      36.480  22.544  24.750  1.00  0.00     0.118 C 
BRANCH  32  33
ATOM     33  N   UNL A   1      37.395  21.413  24.831  1.00  0.00    -0.352 N 
ATOM     34  C   UNL A   1      38.554  21.259  25.564  1.00  0.00     0.251 C 
ATOM     35  H   UNL A   1      37.147  20.637  24.277  1.00  0.00     0.163 HD
ATOM     36  O   UNL A   1      39.172  20.204  25.514  1.00  0.00    -0.269 OA
BRANCH  34  37
ATOM     37  C   UNL A   1      39.095  22.399  26.341  1.00  0.00     0.039 A 
ATOM     38  C   UNL A   1      40.158  22.170  27.220  1.00  0.00     0.014 A 
ATOM     39  C   UNL A   1      38.630  23.696  26.138  1.00  0.00     0.014 A 
ATOM     40  C   UNL A   1      40.844  23.253  27.777  1.00  0.00     0.010 A 
ATOM     41  C   UNL A   1      39.388  24.770  26.586  1.00  0.00     0.010 A 
ATOM     42  C   UNL A   1      40.511  24.563  27.403  1.00  0.00    -0.014 A 
BRANCH  42  43
ATOM     43  C   UNL A   1      41.306  25.748  27.825  1.00  0.00     0.031 A 
ATOM     44  C   UNL A   1      40.638  26.837  28.622  1.00  0.00     0.074 A 
ATOM     45  C   UNL A   1      42.562  25.924  27.363  1.00  0.00     0.049 A 
ATOM     46  N   UNL A   1      41.058  28.046  28.882  1.00  0.00    -0.248 NA
ATOM     47  C   UNL A   1      39.293  26.542  29.145  1.00  0.00     0.031 C 
ATOM     48  C   UNL A   1      43.300  24.985  26.516  1.00  0.00     0.029 A 
ATOM     49  N   UNL A   1      43.427  26.982  27.508  1.00  0.00    -0.354 N 
ATOM     50  C   UNL A   1      40.001  28.679  29.528  1.00  0.00     0.074 A 
ATOM     51  C   UNL A   1      38.913  27.729  29.594  1.00  0.00     0.031 C 
ATOM     52  C   UNL A   1      44.502  25.504  26.220  1.00  0.00     0.029 A 
ATOM     53  C   UNL A   1      44.608  26.831  26.816  1.00  0.00     0.049 A 
ATOM     54  H   UNL A   1      43.222  27.775  28.055  1.00  0.00     0.167 HD
ATOM     55  C   UNL A   1      39.951  29.927  30.049  1.00  0.00     0.034 A 
ATOM     56  C   UNL A   1      45.651  27.673  26.666  1.00  0.00     0.034 A 
ATOM     57  C   UNL A   1      41.068  30.828  30.076  1.00  0.00     0.049 A 
ATOM     58  C   UNL A   1      45.608  29.018  27.341  1.00  0.00     0.074 A 
ATOM     59  C   UNL A   1      41.158  32.068  30.682  1.00  0.00     0.029 A 
ATOM     60  N   UNL A   1      42.297  30.577  29.488  1.00  0.00    -0.354 N 
ATOM     61  N   UNL A   1      44.650  29.546  28.064  1.00  0.00    -0.248 NA
ATOM     62  C   UNL A   1      46.797  29.873  27.204  1.00  0.00     0.031 C 
ATOM     63  C   UNL A   1      42.446  32.566  30.462  1.00  0.00     0.029 A 
ATOM     64  C   UNL A   1      43.158  31.634  29.725  1.00  0.00     0.049 A 
ATOM     65  H   UNL A   1      42.525  29.766  28.977  1.00  0.00     0.167 HD
ATOM     66  C   UNL A   1      45.134  30.773  28.502  1.00  0.00     0.074 A 
ATOM     67  C   UNL A   1      46.476  30.906  27.973  1.00  0.00     0.031 C 
ATOM     68  C   UNL A   1      44.516  31.712  29.257  1.00  0.00     0.034 A 
BRANCH  55  69
ATOM     69  C   UNL A   1      38.665  30.359  30.701  1.00  0.00     0.023 A 
ATOM     70  C   UNL A   1      38.451  30.076  32.066  1.00  0.00     0.012 A 
ATOM     71  C   UNL A   1      37.691  31.079  29.982  1.00  0.00     0.148 A 
ATOM     72  C   UNL A   1      37.271  30.466  32.695  1.00  0.00     0.002 A 
ATOM     73  C   UNL A   1      36.537  31.505  30.629  1.00  0.00     0.091 A 
ATOM     74  F   UNL A   1      37.901  31.317  28.679  1.00  0.00    -0.205 F 
ATOM     75  C   UNL A   1      36.320  31.189  31.981  1.00  0.00     0.022 A 
BRANCH  73  76
ATOM     76  S   UNL A   1      35.290  32.507  29.812  1.00  0.00     0.127 S 
ATOM     77  O   UNL A   1      34.792  31.586  28.792  1.00  0.00    -0.237 OA
ATOM     78  O   UNL A   1      34.348  32.779  30.900  1.00  0.00    -0.237 OA
ATOM     79  O   UNL A   1      35.990  33.682  29.313  1.00  0.00    -0.744 OA
ENDBRANCH  73  76
ENDBRANCH  55  69
BRANCH  56  80
ATOM     80  C   UNL A   1      46.859  27.235  25.908  1.00  0.00     0.023 A 
ATOM     81  C   UNL A   1      47.766  26.348  26.521  1.00  0.00     0.012 A 
ATOM     82  C   UNL A   1      47.098  27.652  24.585  1.00  0.00     0.148 A 
ATOM     83  C   UNL A   1      48.903  25.909  25.843  1.00  0.00     0.002 A 
ATOM     84  C   UNL A   1      48.205  27.167  23.895  1.00  0.00     0.091 A 
ATOM     85  F   UNL A   1      46.233  28.506  24.020  1.00  0.00    -0.205 F 
ATOM     86  C   UNL A   1      49.118  26.309  24.527  1.00  0.00     0.022 A 
BRANCH  84  87
ATOM     87  S   UNL A   1      48.476  27.518  22.153  1.00  0.00     0.127 S 
ATOM     88  O   UNL A   1      47.210  28.138  21.771  1.00  0.00    -0.237 OA
ATOM     89  O   UNL A   1      49.620  28.429  22.197  1.00  0.00    -0.237 OA
ATOM     90  O   UNL A   1      48.768  26.229  21.540  1.00  0.00    -0.744 OA
ENDBRANCH  84  87
ENDBRANCH  56  80
BRANCH  68  91
ATOM     91  C   UNL A   1      45.288  32.955  29.610  1.00  0.00     0.023 A 
ATOM     92  C   UNL A   1      46.117  32.960  30.748  1.00  0.00     0.012 A 
ATOM     93  C   UNL A   1      45.282  34.070  28.748  1.00  0.00     0.148 A 
ATOM     94  C   UNL A   1      46.920  34.064  31.031  1.00  0.00     0.002 A 
ATOM     95  C   UNL A   1      46.116  35.148  29.014  1.00  0.00     0.091 A 
ATOM     96  F   UNL A   1      44.470  34.048  27.681  1.00  0.00    -0.205 F 
ATOM     97  C   UNL A   1      46.930  35.150  30.158  1.00  0.00     0.022 A 
BRANCH  95  98
ATOM     98  S   UNL A   1      46.267  36.546  27.896  1.00  0.00     0.127 S 
ATOM     99  O   UNL A   1      47.255  37.374  28.587  1.00  0.00    -0.237 OA
ATOM    100  O   UNL A   1      46.752  35.913  26.669  1.00  0.00    -0.237 OA
ATOM    101  O   UNL A   1      44.933  37.122  27.792  1.00  0.00    -0.744 OA
ENDBRANCH  95  98
ENDBRANCH  68  91
ENDBRANCH  42  43
ENDBRANCH  34  37
ENDBRANCH  32  33
ENDBRANCH   1  32
TORSDOF 19
ENDMDL
MODEL 2
REMARK VINA RESULT:     -12.8      1.959      4.838
REMARK SMILES COc1cccc(C(=O)/C=C(/Nc2cc(C)c(C)cc2[N+](=O)[O-])C(=O)NCCCNC(=O)c2ccc(-c3c4nc(c(-c5cccc(S(=O)(=O)[O-])c5F)c5ccc([nH]5)c(-c5cccc(S(=O)(=O)[O-])c5F)c5nc(c(-c6cccc(S(=O)(=O)[O-])c6F)c6ccc3[nH]6)C=C5)C=C4)cc2)c1
REMARK SMILES IDX 28 1 27 2 26 3 24 4 25 5 11 7 10 8 8 9 9 10 7 11 3 12 4 13
REMARK SMILES IDX 96 14 5 15 6 16 2 17 1 18 12 19 13 21 14 22 20 23 15 24
REMARK SMILES IDX 19 25 16 26 17 27 18 28 21 29 22 30 23 31 29 32 30 33 31 34
REMARK SMILES IDX 32 36 33 37 34 38 95 39 35 40 94 41 36 42 37 43 38 44 88 45
REMARK SMILES IDX 39 46 93 47 87 48 89 49 40 50 92 51 86 52 85 53 41 55 73 56
REMARK SMILES IDX 53 57 72 58 54 59 57 60 71 61 90 62 55 63 56 64 70 66 91 67
REMARK SMILES IDX 58 68 42 69 43 70 51 71 44 72 46 73 52 74 45 75 47 76 48 77
REMARK SMILES IDX 49 78 50 79 74 80 75 81 83 82 76 83 78 84 84 85 77 86 79 87
REMARK SMILES IDX 80 88 81 89 82 90 59 91 60 92 68 93 61 94 63 95 69 96 62 97
REMARK SMILES IDX 64 98 65 99 66 100 67 101
REMARK H PARENT 26 6 12 20 30 35 89 54 57 65
REMARK Flexibility Score: inf
ROOT
ATOM      1  C   UNL A   1      35.756  22.352  26.047  1.00  0.00     0.042 C 
ENDROOT
BRANCH   1   2
ATOM      2  C   UNL A   1      34.841  23.549  26.004  1.00  0.00     0.118 C 
BRANCH   2   3
ATOM      3  N   UNL A   1      33.748  23.599  26.948  1.00  0.00    -0.351 N 
ATOM      4  C   UNL A   1      32.439  23.258  26.712  1.00  0.00     0.267 C 
ATOM      5  O   UNL A   1      31.644  23.175  27.643  1.00  0.00    -0.268 OA
ATOM      6  H   UNL A   1      33.965  23.908  27.856  1.00  0.00     0.163 HD
BRANCH   4   7
ATOM      7  C   UNL A   1      31.989  23.030  25.299  1.00  0.00     0.108 C 
ATOM      8  C   UNL A   1      32.138  21.785  24.802  1.00  0.00     0.084 C 
BRANCH   8   9
ATOM      9  C   UNL A   1      32.691  20.475  25.257  1.00  0.00     0.188 C 
ATOM     10  O   UNL A   1      32.917  20.356  26.465  1.00  0.00    -0.289 OA
BRANCH   9  11
ATOM     11  C   UNL A   1      32.939  19.290  24.411  1.00  0.00     0.026 A 
ATOM     12  C   UNL A   1      33.678  17.014  24.034  1.00  0.00     0.119 A 
ATOM     13  C   UNL A   1      33.137  17.059  22.747  1.00  0.00     0.046 A 
ATOM     14  C   UNL A   1      33.555  18.123  24.881  1.00  0.00     0.058 A 
ATOM     15  C   UNL A   1      32.470  18.194  22.296  1.00  0.00     0.005 A 
ATOM     16  C   UNL A   1      32.367  19.305  23.128  1.00  0.00     0.012 A 
BRANCH  12  17
ATOM     17  O   UNL A   1      34.241  15.807  24.344  1.00  0.00    -0.497 OA
ATOM     18  C   UNL A   1      35.342  15.821  25.233  1.00  0.00     0.278 C 
ENDBRANCH  12  17
ENDBRANCH   9  11
ENDBRANCH   8   9
BRANCH   7  19
ATOM     19  N   UNL A   1      31.427  24.066  24.527  1.00  0.00    -0.345 N 
ATOM     20  H   UNL A   1      30.721  23.796  23.896  1.00  0.00     0.167 HD
BRANCH  19  21
ATOM     21  C   UNL A   1      31.745  25.446  24.541  1.00  0.00     0.118 A 
ATOM     22  C   UNL A   1      31.304  26.175  25.666  1.00  0.00     0.037 A 
ATOM     23  C   UNL A   1      32.659  26.083  23.691  1.00  0.00     0.292 A 
ATOM     24  C   UNL A   1      31.887  27.405  26.042  1.00  0.00    -0.046 A 
ATOM     25  C   UNL A   1      33.236  27.321  24.032  1.00  0.00     0.091 A 
ATOM     26  C   UNL A   1      31.479  27.993  27.369  1.00  0.00     0.045 C 
ATOM     27  C   UNL A   1      32.908  27.952  25.243  1.00  0.00    -0.041 A 
ATOM     28  C   UNL A   1      33.716  29.142  25.689  1.00  0.00     0.045 C 
BRANCH  23  29
ATOM     29  N   UNL A   1      33.031  25.491  22.413  1.00  0.00     0.064 N 
ATOM     30  O   UNL A   1      33.817  26.132  21.700  1.00  0.00    -0.258 OA
ATOM     31  O   UNL A   1      32.480  24.428  22.091  1.00  0.00    -0.258 OA
ENDBRANCH  23  29
ENDBRANCH  19  21
ENDBRANCH   7  19
ENDBRANCH   4   7
ENDBRANCH   2   3
ENDBRANCH   1   2
BRANCH   1  32
ATOM     32  C   UNL A   1      36.762  22.190  24.918  1.00  0.00     0.118 C 
BRANCH  32  33
ATOM     33  N   UNL A   1      37.746  21.123  25.040  1.00  0.00    -0.352 N 
ATOM     34  C   UNL A   1      38.911  21.069  25.778  1.00  0.00     0.251 C 
ATOM     35  H   UNL A   1      37.549  20.313  24.515  1.00  0.00     0.163 HD
ATOM     36  O   UNL A   1      39.594  20.054  25.766  1.00  0.00    -0.269 OA
BRANCH  34  37
ATOM     37  C   UNL A   1      39.377  22.269  26.514  1.00  0.00     0.039 A 
ATOM     38  C   UNL A   1      40.370  22.117  27.486  1.00  0.00     0.014 A 
ATOM     39  C   UNL A   1      38.916  23.541  26.185  1.00  0.00     0.014 A 
ATOM     40  C   UNL A   1      40.999  23.246  28.017  1.00  0.00     0.010 A 
ATOM     41  C   UNL A   1      39.625  24.654  26.614  1.00  0.00     0.010 A 
ATOM     42  C   UNL A   1      40.683  24.523  27.528  1.00  0.00    -0.014 A 
BRANCH  42  43
ATOM     43  C   UNL A   1      41.430  25.746  27.926  1.00  0.00     0.031 A 
ATOM     44  C   UNL A   1      40.708  26.840  28.669  1.00  0.00     0.074 A 
ATOM     45  C   UNL A   1      42.690  25.947  27.488  1.00  0.00     0.049 A 
ATOM     46  N   UNL A   1      41.083  28.070  28.897  1.00  0.00    -0.248 NA
ATOM     47  C   UNL A   1      39.361  26.520  29.171  1.00  0.00     0.031 C 
ATOM     48  C   UNL A   1      43.477  25.003  26.692  1.00  0.00     0.029 A 
ATOM     49  N   UNL A   1      43.518  27.036  27.616  1.00  0.00    -0.354 N 
ATOM     50  C   UNL A   1      39.992  28.690  29.495  1.00  0.00     0.074 A 
ATOM     51  C   UNL A   1      38.933  27.709  29.569  1.00  0.00     0.031 C 
ATOM     52  C   UNL A   1      44.670  25.551  26.406  1.00  0.00     0.029 A 
ATOM     53  C   UNL A   1      44.719  26.900  26.958  1.00  0.00     0.049 A 
ATOM     54  H   UNL A   1      43.274  27.840  28.130  1.00  0.00     0.167 HD
ATOM     55  C   UNL A   1      39.890  29.953  29.971  1.00  0.00     0.034 A 
ATOM     56  C   UNL A   1      45.739  27.769  26.803  1.00  0.00     0.034 A 
ATOM     57  C   UNL A   1      40.978  30.890  29.992  1.00  0.00     0.049 A 
ATOM     58  C   UNL A   1      45.637  29.135  27.429  1.00  0.00     0.074 A 
ATOM     59  C   UNL A   1      41.013  32.152  30.556  1.00  0.00     0.029 A 
ATOM     60  N   UNL A   1      42.228  30.659  29.442  1.00  0.00    -0.354 N 
ATOM     61  N   UNL A   1      44.646  29.656  28.111  1.00  0.00    -0.248 NA
ATOM     62  C   UNL A   1      46.802  30.023  27.290  1.00  0.00     0.031 C 
ATOM     63  C   UNL A   1      42.290  32.684  30.349  1.00  0.00     0.029 A 
ATOM     64  C   UNL A   1      43.048  31.750  29.662  1.00  0.00     0.049 A 
ATOM     65  H   UNL A   1      42.494  29.839  28.966  1.00  0.00     0.167 HD
ATOM     66  C   UNL A   1      45.080  30.912  28.516  1.00  0.00     0.074 A 
ATOM     67  C   UNL A   1      46.430  31.070  28.014  1.00  0.00     0.031 C 
ATOM     68  C   UNL A   1      44.415  31.857  29.223  1.00  0.00     0.034 A 
BRANCH  55  69
ATOM     69  C   UNL A   1      38.576  30.366  30.578  1.00  0.00     0.023 A 
ATOM     70  C   UNL A   1      38.309  30.060  31.927  1.00  0.00     0.012 A 
ATOM     71  C   UNL A   1      37.626  31.090  29.831  1.00  0.00     0.148 A 
ATOM     72  C   UNL A   1      37.102  30.432  32.515  1.00  0.00     0.002 A 
ATOM     73  C   UNL A   1      36.443  31.497  30.437  1.00  0.00     0.091 A 
ATOM     74  F   UNL A   1      37.886  31.350  28.542  1.00  0.00    -0.205 F 
ATOM     75  C   UNL A   1      36.175  31.159  31.774  1.00  0.00     0.022 A 
BRANCH  73  76
ATOM     76  S   UNL A   1      35.223  32.504  29.587  1.00  0.00     0.127 S 
ATOM     77  O   UNL A   1      34.714  31.568  28.586  1.00  0.00    -0.237 OA
ATOM     78  O   UNL A   1      34.279  32.821  30.660  1.00  0.00    -0.237 OA
ATOM     79  O   UNL A   1      35.950  33.652  29.064  1.00  0.00    -0.744 OA
ENDBRANCH  73  76
ENDBRANCH  55  69
BRANCH  56  80
ATOM     80  C   UNL A   1      46.978  27.345  26.089  1.00  0.00     0.023 A 
ATOM     81  C   UNL A   1      47.137  27.690  24.732  1.00  0.00     0.012 A 
ATOM     82  C   UNL A   1      48.009  26.643  26.743  1.00  0.00     0.148 A 
ATOM     83  C   UNL A   1      48.285  27.319  24.032  1.00  0.00     0.002 A 
ATOM     84  C   UNL A   1      49.175  26.324  26.053  1.00  0.00     0.091 A 
ATOM     85  F   UNL A   1      47.837  26.310  28.030  1.00  0.00    -0.205 F 
ATOM     86  C   UNL A   1      49.309  26.645  24.694  1.00  0.00     0.022 A 
BRANCH  84  87
ATOM     87  S   UNL A   1      50.597  25.587  26.868  1.00  0.00     0.127 S 
ATOM     88  O   UNL A   1      51.511  25.379  25.749  1.00  0.00    -0.237 OA
ATOM     89  O   UNL A   1      50.995  26.640  27.803  1.00  0.00    -0.237 OA
ATOM     90  O   UNL A   1      50.091  24.382  27.513  1.00  0.00    -0.744 OA
ENDBRANCH  84  87
ENDBRANCH  56  80
BRANCH  68  91
ATOM     91  C   UNL A   1      45.138  33.135  29.550  1.00  0.00     0.023 A 
ATOM     92  C   UNL A   1      45.942  33.204  30.705  1.00  0.00     0.012 A 
ATOM     93  C   UNL A   1      45.115  34.220  28.652  1.00  0.00     0.148 A 
ATOM     94  C   UNL A   1      46.703  34.342  30.967  1.00  0.00     0.002 A 
ATOM     95  C   UNL A   1      45.909  35.333  28.899  1.00  0.00     0.091 A 
ATOM     96  F   UNL A   1      44.328  34.136  27.570  1.00  0.00    -0.205 F 
ATOM     97  C   UNL A   1      46.697  35.399  30.058  1.00  0.00     0.022 A 
BRANCH  95  98
ATOM     98  S   UNL A   1      46.038  36.698  27.738  1.00  0.00     0.127 S 
ATOM     99  O   UNL A   1      44.669  37.215  27.734  1.00  0.00    -0.237 OA
ATOM    100  O   UNL A   1      47.017  37.569  28.389  1.00  0.00    -0.237 OA
ATOM    101  O   UNL A   1      46.489  36.116  26.481  1.00  0.00    -0.744 OA
ENDBRANCH  95  98
ENDBRANCH  68  91
ENDBRANCH  42  43
ENDBRANCH  34  37
ENDBRANCH  32  33
ENDBRANCH   1  32
TORSDOF 19
ENDMDL
MODEL 3
REMARK VINA RESULT:     -12.4      2.607      8.812
REMARK SMILES COc1cccc(C(=O)/C=C(/Nc2cc(C)c(C)cc2[N+](=O)[O-])C(=O)NCCCNC(=O)c2ccc(-c3c4nc(c(-c5cccc(S(=O)(=O)[O-])c5F)c5ccc([nH]5)c(-c5cccc(S(=O)(=O)[O-])c5F)c5nc(c(-c6cccc(S(=O)(=O)[O-])c6F)c6ccc3[nH]6)C=C5)C=C4)cc2)c1
REMARK SMILES IDX 28 1 27 2 26 3 24 4 25 5 11 7 10 8 8 9 9 10 7 11 3 12 4 13
REMARK SMILES IDX 96 14 5 15 6 16 2 17 1 18 12 19 13 21 14 22 20 23 15 24
REMARK SMILES IDX 19 25 16 26 17 27 18 28 21 29 22 30 23 31 29 32 30 33 31 34
REMARK SMILES IDX 32 36 33 37 34 38 95 39 35 40 94 41 36 42 37 43 38 44 88 45
REMARK SMILES IDX 39 46 93 47 87 48 89 49 40 50 92 51 86 52 85 53 41 55 73 56
REMARK SMILES IDX 53 57 72 58 54 59 57 60 71 61 90 62 55 63 56 64 70 66 91 67
REMARK SMILES IDX 58 68 42 69 43 70 51 71 44 72 46 73 52 74 45 75 47 76 48 77
REMARK SMILES IDX 49 78 50 79 74 80 75 81 83 82 76 83 78 84 84 85 77 86 79 87
REMARK SMILES IDX 80 88 81 89 82 90 59 91 60 92 68 93 61 94 63 95 69 96 62 97
REMARK SMILES IDX 64 98 65 99 66 100 67 101
REMARK H PARENT 26 6 12 20 30 35 89 54 57 65
REMARK Flexibility Score: inf
ROOT
ATOM      1  C   UNL A   1      36.690  23.431  26.209  1.00  0.00     0.042 C 
ENDROOT
BRANCH   1   2
ATOM      2  C   UNL A   1      35.272  23.699  25.774  1.00  0.00     0.118 C 
BRANCH   2   3
ATOM      3  N   UNL A   1      34.241  23.684  26.787  1.00  0.00    -0.351 N 
ATOM      4  C   UNL A   1      32.933  23.299  26.625  1.00  0.00     0.267 C 
ATOM      5  O   UNL A   1      32.203  23.164  27.602  1.00  0.00    -0.268 OA
ATOM      6  H   UNL A   1      34.504  23.980  27.688  1.00  0.00     0.163 HD
BRANCH   4   7
ATOM      7  C   UNL A   1      32.401  23.089  25.239  1.00  0.00     0.108 C 
ATOM      8  C   UNL A   1      32.473  21.838  24.739  1.00  0.00     0.084 C 
BRANCH   8   9
ATOM      9  C   UNL A   1      32.994  20.506  25.170  1.00  0.00     0.188 C 
ATOM     10  O   UNL A   1      33.258  20.374  26.368  1.00  0.00    -0.289 OA
BRANCH   9  11
ATOM     11  C   UNL A   1      33.167  19.317  24.311  1.00  0.00     0.026 A 
ATOM     12  C   UNL A   1      33.953  17.072  23.855  1.00  0.00     0.119 A 
ATOM     13  C   UNL A   1      33.218  17.063  22.666  1.00  0.00     0.046 A 
ATOM     14  C   UNL A   1      33.906  18.191  24.696  1.00  0.00     0.058 A 
ATOM     15  C   UNL A   1      32.433  18.156  22.309  1.00  0.00     0.005 A 
ATOM     16  C   UNL A   1      32.404  19.278  23.133  1.00  0.00     0.012 A 
BRANCH  12  17
ATOM     17  O   UNL A   1      34.617  15.900  24.090  1.00  0.00    -0.497 OA
ATOM     18  C   UNL A   1      35.356  15.810  25.293  1.00  0.00     0.278 C 
ENDBRANCH  12  17
ENDBRANCH   9  11
ENDBRANCH   8   9
BRANCH   7  19
ATOM     19  N   UNL A   1      31.844  24.146  24.493  1.00  0.00    -0.345 N 
ATOM     20  H   UNL A   1      31.132  23.896  23.861  1.00  0.00     0.167 HD
BRANCH  19  21
ATOM     21  C   UNL A   1      32.173  25.522  24.536  1.00  0.00     0.118 A 
ATOM     22  C   UNL A   1      31.611  26.264  25.597  1.00  0.00     0.037 A 
ATOM     23  C   UNL A   1      33.186  26.145  23.795  1.00  0.00     0.292 A 
ATOM     24  C   UNL A   1      32.159  27.491  26.031  1.00  0.00    -0.046 A 
ATOM     25  C   UNL A   1      33.734  27.379  24.194  1.00  0.00     0.091 A 
ATOM     26  C   UNL A   1      31.606  28.093  27.299  1.00  0.00     0.045 C 
ATOM     27  C   UNL A   1      33.273  28.022  25.355  1.00  0.00    -0.041 A 
ATOM     28  C   UNL A   1      34.036  29.207  25.885  1.00  0.00     0.045 C 
BRANCH  23  29
ATOM     29  N   UNL A   1      33.699  25.540  22.573  1.00  0.00     0.064 N 
ATOM     30  O   UNL A   1      33.532  26.169  21.518  1.00  0.00    -0.258 OA
ATOM     31  O   UNL A   1      34.197  24.408  22.658  1.00  0.00    -0.258 OA
ENDBRANCH  23  29
ENDBRANCH  19  21
ENDBRANCH   7  19
ENDBRANCH   4   7
ENDBRANCH   2   3
ENDBRANCH   1   2
BRANCH   1  32
ATOM     32  C   UNL A   1      37.641  22.830  25.185  1.00  0.00     0.118 C 
BRANCH  32  33
ATOM     33  N   UNL A   1      38.857  22.202  25.683  1.00  0.00    -0.352 N 
ATOM     34  C   UNL A   1      39.852  22.711  26.494  1.00  0.00     0.251 C 
ATOM     35  H   UNL A   1      38.991  21.269  25.398  1.00  0.00     0.163 HD
ATOM     36  O   UNL A   1      40.792  22.001  26.825  1.00  0.00    -0.269 OA
BRANCH  34  37
ATOM     37  C   UNL A   1      39.826  24.140  26.888  1.00  0.00     0.039 A 
ATOM     38  C   UNL A   1      39.483  24.467  28.204  1.00  0.00     0.014 A 
ATOM     39  C   UNL A   1      40.228  25.140  26.006  1.00  0.00     0.014 A 
ATOM     40  C   UNL A   1      39.685  25.769  28.669  1.00  0.00     0.010 A 
ATOM     41  C   UNL A   1      40.549  26.397  26.502  1.00  0.00     0.010 A 
ATOM     42  C   UNL A   1      40.291  26.726  27.842  1.00  0.00    -0.014 A 
BRANCH  42  43
ATOM     43  C   UNL A   1      40.687  28.076  28.327  1.00  0.00     0.031 A 
ATOM     44  C   UNL A   1      42.148  28.390  28.519  1.00  0.00     0.074 A 
ATOM     45  C   UNL A   1      39.750  28.951  28.744  1.00  0.00     0.049 A 
ATOM     46  N   UNL A   1      42.702  29.391  29.148  1.00  0.00    -0.248 NA
ATOM     47  C   UNL A   1      43.110  27.414  27.978  1.00  0.00     0.031 C 
ATOM     48  C   UNL A   1      38.301  28.741  28.689  1.00  0.00     0.029 A 
ATOM     49  N   UNL A   1      39.878  30.183  29.340  1.00  0.00    -0.354 N 
ATOM     50  C   UNL A   1      44.067  29.125  29.148  1.00  0.00     0.074 A 
ATOM     51  C   UNL A   1      44.253  27.856  28.481  1.00  0.00     0.031 C 
ATOM     52  C   UNL A   1      37.678  29.804  29.224  1.00  0.00     0.029 A 
ATOM     53  C   UNL A   1      38.678  30.753  29.701  1.00  0.00     0.049 A 
ATOM     54  H   UNL A   1      40.748  30.618  29.495  1.00  0.00     0.167 HD
ATOM     55  C   UNL A   1      45.079  29.884  29.631  1.00  0.00     0.034 A 
ATOM     56  C   UNL A   1      38.414  31.901  30.356  1.00  0.00     0.034 A 
ATOM     57  C   UNL A   1      44.898  31.191  30.197  1.00  0.00     0.049 A 
ATOM     58  C   UNL A   1      39.560  32.774  30.794  1.00  0.00     0.074 A 
ATOM     59  C   UNL A   1      45.866  32.090  30.607  1.00  0.00     0.029 A 
ATOM     60  N   UNL A   1      43.670  31.794  30.412  1.00  0.00    -0.354 N 
ATOM     61  N   UNL A   1      40.848  32.569  30.662  1.00  0.00    -0.248 NA
ATOM     62  C   UNL A   1      39.219  34.049  31.444  1.00  0.00     0.031 C 
ATOM     63  C   UNL A   1      45.220  33.241  31.069  1.00  0.00     0.029 A 
ATOM     64  C   UNL A   1      43.852  33.059  30.941  1.00  0.00     0.049 A 
ATOM     65  H   UNL A   1      42.796  31.383  30.217  1.00  0.00     0.167 HD
ATOM     66  C   UNL A   1      41.470  33.701  31.174  1.00  0.00     0.074 A 
ATOM     67  C   UNL A   1      40.417  34.597  31.608  1.00  0.00     0.031 C 
ATOM     68  C   UNL A   1      42.793  33.967  31.292  1.00  0.00     0.034 A 
BRANCH  55  69
ATOM     69  C   UNL A   1      46.478  29.348  29.495  1.00  0.00     0.023 A 
ATOM     70  C   UNL A   1      46.999  28.506  30.498  1.00  0.00     0.012 A 
ATOM     71  C   UNL A   1      47.260  29.639  28.360  1.00  0.00     0.148 A 
ATOM     72  C   UNL A   1      48.291  27.994  30.396  1.00  0.00     0.002 A 
ATOM     73  C   UNL A   1      48.531  29.088  28.243  1.00  0.00     0.091 A 
ATOM     74  F   UNL A   1      46.759  30.461  27.428  1.00  0.00    -0.205 F 
ATOM     75  C   UNL A   1      49.052  28.275  29.265  1.00  0.00     0.022 A 
BRANCH  73  76
ATOM     76  S   UNL A   1      49.556  29.330  26.788  1.00  0.00     0.127 S 
ATOM     77  O   UNL A   1      48.862  28.508  25.799  1.00  0.00    -0.237 OA
ATOM     78  O   UNL A   1      49.445  30.774  26.567  1.00  0.00    -0.237 OA
ATOM     79  O   UNL A   1      50.889  28.878  27.161  1.00  0.00    -0.744 OA
ENDBRANCH  73  76
ENDBRANCH  55  69
BRANCH  56  80
ATOM     80  C   UNL A   1      37.001  32.331  30.567  1.00  0.00     0.023 A 
ATOM     81  C   UNL A   1      36.421  32.170  31.841  1.00  0.00     0.012 A 
ATOM     82  C   UNL A   1      36.244  32.927  29.541  1.00  0.00     0.148 A 
ATOM     83  C   UNL A   1      35.105  32.567  32.081  1.00  0.00     0.002 A 
ATOM     84  C   UNL A   1      34.950  33.370  29.801  1.00  0.00     0.091 A 
ATOM     85  F   UNL A   1      36.805  33.060  28.331  1.00  0.00    -0.205 F 
ATOM     86  C   UNL A   1      34.373  33.176  31.066  1.00  0.00     0.022 A 
BRANCH  84  87
ATOM     87  S   UNL A   1      33.994  34.293  28.592  1.00  0.00     0.127 S 
ATOM     88  O   UNL A   1      33.894  33.336  27.494  1.00  0.00    -0.237 OA
ATOM     89  O   UNL A   1      32.744  34.539  29.312  1.00  0.00    -0.237 OA
ATOM     90  O   UNL A   1      34.770  35.497  28.323  1.00  0.00    -0.744 OA
ENDBRANCH  84  87
ENDBRANCH  56  80
BRANCH  68  91
ATOM     91  C   UNL A   1      43.198  35.297  31.867  1.00  0.00     0.023 A 
ATOM     92  C   UNL A   1      43.339  35.438  33.262  1.00  0.00     0.012 A 
ATOM     93  C   UNL A   1      43.552  36.365  31.021  1.00  0.00     0.148 A 
ATOM     94  C   UNL A   1      43.816  36.629  33.806  1.00  0.00     0.002 A 
ATOM     95  C   UNL A   1      44.067  37.534  31.568  1.00  0.00     0.091 A 
ATOM     96  F   UNL A   1      43.391  36.213  29.699  1.00  0.00    -0.205 F 
ATOM     97  C   UNL A   1      44.192  37.670  32.960  1.00  0.00     0.022 A 
BRANCH  95  98
ATOM     98  S   UNL A   1      44.666  38.889  30.552  1.00  0.00     0.127 S 
ATOM     99  O   UNL A   1      43.418  39.552  30.175  1.00  0.00    -0.237 OA
ATOM    100  O   UNL A   1      45.497  39.641  31.493  1.00  0.00    -0.237 OA
ATOM    101  O   UNL A   1      45.402  38.274  29.455  1.00  0.00    -0.744 OA
ENDBRANCH  95  98
ENDBRANCH  68  91
ENDBRANCH  42  43
ENDBRANCH  34  37
ENDBRANCH  32  33
ENDBRANCH   1  32
TORSDOF 19
ENDMDL
