MODEL 1
REMARK VINA RESULT:     -12.4      0.000      0.000
REMARK SMILES CC(C)[N@H+](C)Cc1cc2c(cc1Cl)C=C(C(=O)NCCCNC(=O)c1ccc(-c3c4nc(c(-c5cccc(S(=O)(=O)[O-])c5F)c5ccc([nH]5)c(-c5cccc(S(=O)(=O)[O-])c5F)c5nc(c(-c6cccc(S(=O)(=O)[O-])c6F)c6ccc3[nH]6)C=C5)C=C4)cc1)[C@@H](C(F)(F)F)O2
REMARK SMILES IDX 20 1 19 2 18 3 16 4 17 5 15 7 7 8 8 9 12 10 9 11 11 12 13 13
REMARK SMILES IDX 10 14 93 15 14 16 88 17 6 18 4 19 5 20 2 22 1 23 3 24 89 25
REMARK SMILES IDX 90 26 91 27 92 28 21 29 22 30 23 31 24 33 25 34 26 35 87 36
REMARK SMILES IDX 27 37 86 38 28 39 29 40 30 41 80 42 31 43 85 44 79 45 81 46
REMARK SMILES IDX 32 47 84 48 78 49 77 50 33 52 65 53 45 54 64 55 46 56 49 57
REMARK SMILES IDX 63 58 82 59 47 60 48 61 62 63 83 64 50 65 34 66 35 67 43 68
REMARK SMILES IDX 36 69 38 70 44 71 37 72 39 73 40 74 41 75 42 76 66 77 67 78
REMARK SMILES IDX 75 79 68 80 70 81 76 82 69 83 71 84 72 85 73 86 74 87 51 88
REMARK SMILES IDX 52 89 60 90 53 91 55 92 61 93 54 94 56 95 57 96 58 97 59 98
REMARK H PARENT 18 6 4 21 22 32 81 51 49 62
REMARK Flexibility Score: inf
ROOT
ATOM      1  C   UNL A   1      31.401  31.678  26.501  1.00  0.00     0.042 C 
ENDROOT
BRANCH   1   2
ATOM      2  C   UNL A   1      31.699  30.455  25.652  1.00  0.00     0.118 C 
BRANCH   2   3
ATOM      3  N   UNL A   1      30.767  30.323  24.546  1.00  0.00    -0.352 N 
ATOM      4  C   UNL A   1      30.385  29.342  23.698  1.00  0.00     0.251 C 
ATOM      5  O   UNL A   1      29.563  29.675  22.839  1.00  0.00    -0.270 OA
ATOM      6  H   UNL A   1      30.291  31.165  24.367  1.00  0.00     0.163 HD
BRANCH   4   7
ATOM      7  C   UNL A   1      30.877  27.937  23.751  1.00  0.00     0.067 C 
ATOM      8  C   UNL A   1      31.698  23.171  25.219  1.00  0.00     0.029 A 
ATOM      9  C   UNL A   1      32.155  23.972  24.156  1.00  0.00     0.058 A 
ATOM     10  C   UNL A   1      30.680  23.688  26.040  1.00  0.00     0.050 A 
ATOM     11  C   UNL A   1      31.680  25.271  23.981  1.00  0.00     0.128 A 
ATOM     12  C   UNL A   1      30.240  25.007  25.884  1.00  0.00     0.033 A 
ATOM     13  Cl  UNL A   1      29.855  22.767  27.251  1.00  0.00    -0.084 Cl
ATOM     14  C   UNL A   1      30.749  25.805  24.862  1.00  0.00     0.019 A 
ATOM     15  O   UNL A   1      32.140  25.944  22.890  1.00  0.00    -0.475 OA
ATOM     16  C   UNL A   1      30.291  27.172  24.688  1.00  0.00     0.025 C 
ATOM     17  C   UNL A   1      31.980  27.389  22.884  1.00  0.00     0.314 C 
BRANCH   8  18
ATOM     18  C   UNL A   1      32.288  21.778  25.336  1.00  0.00     0.300 C 
BRANCH  18  19
ATOM     19  N   UNL A   1      33.612  21.725  25.954  1.00  0.00    -0.332 N 
ATOM     20  C   UNL A   1      33.534  21.760  27.408  1.00  0.00     0.333 C 
ATOM     21  H   UNL A   1      34.039  22.594  25.631  1.00  0.00     0.348 HD
BRANCH  19  22
ATOM     22  C   UNL A   1      34.593  20.763  25.432  1.00  0.00     0.177 C 
ATOM     23  C   UNL A   1      34.011  19.596  24.626  1.00  0.00     0.075 C 
ATOM     24  C   UNL A   1      35.701  21.451  24.627  1.00  0.00     0.075 C 
ENDBRANCH  19  22
ENDBRANCH  18  19
ENDBRANCH   8  18
BRANCH  17  25
ATOM     25  C   UNL A   1      33.356  28.011  23.182  1.00  0.00     0.429 C 
ATOM     26  F   UNL A   1      33.629  27.938  24.509  1.00  0.00    -0.167 F 
ATOM     27  F   UNL A   1      34.373  27.384  22.548  1.00  0.00    -0.167 F 
ATOM     28  F   UNL A   1      33.419  29.315  22.828  1.00  0.00    -0.167 F 
ENDBRANCH  17  25
ENDBRANCH   4   7
ENDBRANCH   2   3
ENDBRANCH   1   2
BRANCH   1  29
ATOM     29  C   UNL A   1      32.655  32.240  27.156  1.00  0.00     0.118 C 
BRANCH  29  30
ATOM     30  N   UNL A   1      32.534  33.673  27.425  1.00  0.00    -0.352 N 
ATOM     31  C   UNL A   1      33.108  34.440  28.411  1.00  0.00     0.251 C 
ATOM     32  H   UNL A   1      31.950  34.164  26.803  1.00  0.00     0.163 HD
ATOM     33  O   UNL A   1      32.663  35.559  28.649  1.00  0.00    -0.269 OA
BRANCH  31  34
ATOM     34  C   UNL A   1      34.246  33.900  29.178  1.00  0.00     0.039 A 
ATOM     35  C   UNL A   1      35.539  34.323  28.878  1.00  0.00     0.014 A 
ATOM     36  C   UNL A   1      34.028  32.958  30.186  1.00  0.00     0.014 A 
ATOM     37  C   UNL A   1      36.620  33.655  29.423  1.00  0.00     0.010 A 
ATOM     38  C   UNL A   1      35.123  32.374  30.828  1.00  0.00     0.010 A 
ATOM     39  C   UNL A   1      36.428  32.679  30.413  1.00  0.00    -0.014 A 
BRANCH  39  40
ATOM     40  C   UNL A   1      37.619  32.015  30.997  1.00  0.00     0.031 A 
ATOM     41  C   UNL A   1      38.008  32.239  32.432  1.00  0.00     0.074 A 
ATOM     42  C   UNL A   1      38.311  31.144  30.236  1.00  0.00     0.049 A 
ATOM     43  N   UNL A   1      39.000  31.711  33.102  1.00  0.00    -0.248 NA
ATOM     44  C   UNL A   1      37.188  33.175  33.219  1.00  0.00     0.031 C 
ATOM     45  C   UNL A   1      38.028  30.855  28.827  1.00  0.00     0.029 A 
ATOM     46  N   UNL A   1      39.363  30.321  30.538  1.00  0.00    -0.354 N 
ATOM     47  C   UNL A   1      38.953  32.283  34.367  1.00  0.00     0.074 A 
ATOM     48  C   UNL A   1      37.836  33.202  34.376  1.00  0.00     0.031 C 
ATOM     49  C   UNL A   1      38.837  29.873  28.408  1.00  0.00     0.029 A 
ATOM     50  C   UNL A   1      39.746  29.516  29.492  1.00  0.00     0.049 A 
ATOM     51  H   UNL A   1      39.804  30.308  31.419  1.00  0.00     0.167 HD
ATOM     52  C   UNL A   1      39.755  32.046  35.431  1.00  0.00     0.034 A 
ATOM     53  C   UNL A   1      40.726  28.599  29.403  1.00  0.00     0.034 A 
ATOM     54  C   UNL A   1      40.829  31.091  35.434  1.00  0.00     0.049 A 
ATOM     55  C   UNL A   1      41.595  28.347  30.595  1.00  0.00     0.074 A 
ATOM     56  C   UNL A   1      41.681  30.761  36.472  1.00  0.00     0.029 A 
ATOM     57  N   UNL A   1      41.190  30.304  34.351  1.00  0.00    -0.354 N 
ATOM     58  N   UNL A   1      41.509  28.871  31.794  1.00  0.00    -0.248 NA
ATOM     59  C   UNL A   1      42.689  27.382  30.432  1.00  0.00     0.031 C 
ATOM     60  C   UNL A   1      42.562  29.776  36.015  1.00  0.00     0.029 A 
ATOM     61  C   UNL A   1      42.253  29.487  34.695  1.00  0.00     0.049 A 
ATOM     62  H   UNL A   1      40.758  30.324  33.467  1.00  0.00     0.167 HD
ATOM     63  C   UNL A   1      42.537  28.301  32.531  1.00  0.00     0.074 A 
ATOM     64  C   UNL A   1      43.217  27.371  31.651  1.00  0.00     0.031 C 
ATOM     65  C   UNL A   1      42.894  28.543  33.815  1.00  0.00     0.034 A 
BRANCH  52  66
ATOM     66  C   UNL A   1      39.473  32.799  36.702  1.00  0.00     0.023 A 
ATOM     67  C   UNL A   1      40.121  34.029  36.932  1.00  0.00     0.012 A 
ATOM     68  C   UNL A   1      38.528  32.328  37.633  1.00  0.00     0.148 A 
ATOM     69  C   UNL A   1      39.845  34.772  38.079  1.00  0.00     0.002 A 
ATOM     70  C   UNL A   1      38.236  33.087  38.760  1.00  0.00     0.091 A 
ATOM     71  F   UNL A   1      37.939  31.146  37.403  1.00  0.00    -0.205 F 
ATOM     72  C   UNL A   1      38.898  34.306  38.987  1.00  0.00     0.022 A 
BRANCH  70  73
ATOM     73  S   UNL A   1      36.995  32.602  39.965  1.00  0.00     0.127 S 
ATOM     74  O   UNL A   1      37.550  31.346  40.467  1.00  0.00    -0.237 OA
ATOM     75  O   UNL A   1      37.038  33.712  40.917  1.00  0.00    -0.237 OA
ATOM     76  O   UNL A   1      35.746  32.481  39.227  1.00  0.00    -0.744 OA
ENDBRANCH  70  73
ENDBRANCH  52  66
BRANCH  53  77
ATOM     77  C   UNL A   1      40.881  27.844  28.132  1.00  0.00     0.023 A 
ATOM     78  C   UNL A   1      41.532  28.454  27.043  1.00  0.00     0.012 A 
ATOM     79  C   UNL A   1      40.523  26.483  28.052  1.00  0.00     0.148 A 
ATOM     80  C   UNL A   1      41.833  27.717  25.898  1.00  0.00     0.002 A 
ATOM     81  C   UNL A   1      40.867  25.745  26.929  1.00  0.00     0.091 A 
ATOM     82  F   UNL A   1      39.910  25.930  29.108  1.00  0.00    -0.205 F 
ATOM     83  C   UNL A   1      41.516  26.361  25.846  1.00  0.00     0.022 A 
BRANCH  81  84
ATOM     84  S   UNL A   1      40.624  23.968  26.824  1.00  0.00     0.127 S 
ATOM     85  O   UNL A   1      41.547  23.603  25.751  1.00  0.00    -0.237 OA
ATOM     86  O   UNL A   1      41.029  23.534  28.161  1.00  0.00    -0.237 OA
ATOM     87  O   UNL A   1      39.212  23.777  26.522  1.00  0.00    -0.744 OA
ENDBRANCH  81  84
ENDBRANCH  53  77
BRANCH  65  88
ATOM     88  C   UNL A   1      44.080  27.801  34.361  1.00  0.00     0.023 A 
ATOM     89  C   UNL A   1      45.351  28.405  34.308  1.00  0.00     0.012 A 
ATOM     90  C   UNL A   1      43.916  26.574  35.030  1.00  0.00     0.148 A 
ATOM     91  C   UNL A   1      46.448  27.793  34.912  1.00  0.00     0.002 A 
ATOM     92  C   UNL A   1      45.007  25.985  35.656  1.00  0.00     0.091 A 
ATOM     93  F   UNL A   1      42.696  26.020  35.055  1.00  0.00    -0.205 F 
ATOM     94  C   UNL A   1      46.274  26.591  35.595  1.00  0.00     0.022 A 
BRANCH  92  95
ATOM     95  S   UNL A   1      44.872  24.477  36.622  1.00  0.00     0.127 S 
ATOM     96  O   UNL A   1      46.262  24.248  37.013  1.00  0.00    -0.237 OA
ATOM     97  O   UNL A   1      43.990  24.888  37.714  1.00  0.00    -0.237 OA
ATOM     98  O   UNL A   1      44.307  23.474  35.729  1.00  0.00    -0.744 OA
ENDBRANCH  92  95
ENDBRANCH  65  88
ENDBRANCH  39  40
ENDBRANCH  31  34
ENDBRANCH  29  30
ENDBRANCH   1  29
TORSDOF 17
ENDMDL
MODEL 2
REMARK VINA RESULT:     -12.3      5.842     11.397
REMARK SMILES CC(C)[N@H+](C)Cc1cc2c(cc1Cl)C=C(C(=O)NCCCNC(=O)c1ccc(-c3c4nc(c(-c5cccc(S(=O)(=O)[O-])c5F)c5ccc([nH]5)c(-c5cccc(S(=O)(=O)[O-])c5F)c5nc(c(-c6cccc(S(=O)(=O)[O-])c6F)c6ccc3[nH]6)C=C5)C=C4)cc1)[C@@H](C(F)(F)F)O2
REMARK SMILES IDX 20 1 19 2 18 3 16 4 17 5 15 7 7 8 8 9 12 10 9 11 11 12 13 13
REMARK SMILES IDX 10 14 93 15 14 16 88 17 6 18 4 19 5 20 2 22 1 23 3 24 89 25
REMARK SMILES IDX 90 26 91 27 92 28 21 29 22 30 23 31 24 33 25 34 26 35 87 36
REMARK SMILES IDX 27 37 86 38 28 39 29 40 30 41 80 42 31 43 85 44 79 45 81 46
REMARK SMILES IDX 32 47 84 48 78 49 77 50 33 52 65 53 45 54 64 55 46 56 49 57
REMARK SMILES IDX 63 58 82 59 47 60 48 61 62 63 83 64 50 65 34 66 35 67 43 68
REMARK SMILES IDX 36 69 38 70 44 71 37 72 39 73 40 74 41 75 42 76 66 77 67 78
REMARK SMILES IDX 75 79 68 80 70 81 76 82 69 83 71 84 72 85 73 86 74 87 51 88
REMARK SMILES IDX 52 89 60 90 53 91 55 92 61 93 54 94 56 95 57 96 58 97 59 98
REMARK H PARENT 18 6 4 21 22 32 81 51 49 62
REMARK Flexibility Score: inf
ROOT
ATOM      1  C   UNL A   1      37.848  20.004  24.902  1.00  0.00     0.042 C 
ENDROOT
BRANCH   1   2
ATOM      2  C   UNL A   1      36.523  20.682  25.205  1.00  0.00     0.118 C 
BRANCH   2   3
ATOM      3  N   UNL A   1      35.397  19.789  24.998  1.00  0.00    -0.352 N 
ATOM      4  C   UNL A   1      34.053  19.907  24.921  1.00  0.00     0.251 C 
ATOM      5  O   UNL A   1      33.435  18.848  24.773  1.00  0.00    -0.270 OA
ATOM      6  H   UNL A   1      35.687  18.855  24.885  1.00  0.00     0.163 HD
BRANCH   4   7
ATOM      7  C   UNL A   1      33.310  21.197  24.992  1.00  0.00     0.067 C 
ATOM      8  C   UNL A   1      31.425  25.742  23.836  1.00  0.00     0.029 A 
ATOM      9  C   UNL A   1      31.360  24.900  24.962  1.00  0.00     0.058 A 
ATOM     10  C   UNL A   1      32.026  25.233  22.669  1.00  0.00     0.050 A 
ATOM     11  C   UNL A   1      31.953  23.638  24.949  1.00  0.00     0.128 A 
ATOM     12  C   UNL A   1      32.656  23.984  22.680  1.00  0.00     0.033 A 
ATOM     13  Cl  UNL A   1      32.003  26.043  21.141  1.00  0.00    -0.084 Cl
ATOM     14  C   UNL A   1      32.631  23.190  23.824  1.00  0.00     0.019 A 
ATOM     15  O   UNL A   1      31.783  22.877  26.066  1.00  0.00    -0.475 OA
ATOM     16  C   UNL A   1      33.275  21.889  23.840  1.00  0.00     0.025 C 
ATOM     17  C   UNL A   1      32.685  21.750  26.244  1.00  0.00     0.314 C 
BRANCH   8  18
ATOM     18  C   UNL A   1      30.765  27.102  23.953  1.00  0.00     0.300 C 
BRANCH  18  19
ATOM     19  N   UNL A   1      29.540  27.257  23.169  1.00  0.00    -0.332 N 
ATOM     20  C   UNL A   1      28.381  26.711  23.862  1.00  0.00     0.333 C 
ATOM     21  H   UNL A   1      29.730  26.678  22.350  1.00  0.00     0.348 HD
BRANCH  19  22
ATOM     22  C   UNL A   1      29.287  28.543  22.506  1.00  0.00     0.177 C 
ATOM     23  C   UNL A   1      28.148  29.381  23.098  1.00  0.00     0.075 C 
ATOM     24  C   UNL A   1      30.558  29.395  22.400  1.00  0.00     0.075 C 
ENDBRANCH  19  22
ENDBRANCH  18  19
ENDBRANCH   8  18
BRANCH  17  25
ATOM     25  C   UNL A   1      33.714  22.143  27.320  1.00  0.00     0.429 C 
ATOM     26  F   UNL A   1      33.090  22.705  28.386  1.00  0.00    -0.167 F 
ATOM     27  F   UNL A   1      34.414  21.090  27.798  1.00  0.00    -0.167 F 
ATOM     28  F   UNL A   1      34.618  23.040  26.863  1.00  0.00    -0.167 F 
ENDBRANCH  17  25
ENDBRANCH   4   7
ENDBRANCH   2   3
ENDBRANCH   1   2
BRANCH   1  29
ATOM     29  C   UNL A   1      38.953  20.459  25.846  1.00  0.00     0.118 C 
BRANCH  29  30
ATOM     30  N   UNL A   1      39.983  19.434  26.014  1.00  0.00    -0.352 N 
ATOM     31  C   UNL A   1      41.348  19.560  26.117  1.00  0.00     0.251 C 
ATOM     32  H   UNL A   1      39.646  18.510  26.059  1.00  0.00     0.163 HD
ATOM     33  O   UNL A   1      42.064  18.575  25.963  1.00  0.00    -0.269 OA
BRANCH  31  34
ATOM     34  C   UNL A   1      41.933  20.883  26.402  1.00  0.00     0.039 A 
ATOM     35  C   UNL A   1      42.246  21.227  27.715  1.00  0.00     0.014 A 
ATOM     36  C   UNL A   1      42.155  21.790  25.363  1.00  0.00     0.014 A 
ATOM     37  C   UNL A   1      42.571  22.537  28.019  1.00  0.00     0.010 A 
ATOM     38  C   UNL A   1      42.607  23.078  25.660  1.00  0.00     0.010 A 
ATOM     39  C   UNL A   1      42.766  23.478  26.996  1.00  0.00    -0.014 A 
BRANCH  39  40
ATOM     40  C   UNL A   1      43.150  24.862  27.366  1.00  0.00     0.031 A 
ATOM     41  C   UNL A   1      44.493  25.422  26.989  1.00  0.00     0.074 A 
ATOM     42  C   UNL A   1      42.242  25.639  27.989  1.00  0.00     0.049 A 
ATOM     43  N   UNL A   1      44.970  26.620  27.210  1.00  0.00    -0.248 NA
ATOM     44  C   UNL A   1      45.425  24.531  26.278  1.00  0.00     0.031 C 
ATOM     45  C   UNL A   1      40.910  25.196  28.411  1.00  0.00     0.029 A 
ATOM     46  N   UNL A   1      42.280  26.961  28.344  1.00  0.00    -0.354 N 
ATOM     47  C   UNL A   1      46.266  26.614  26.711  1.00  0.00     0.074 A 
ATOM     48  C   UNL A   1      46.507  25.291  26.176  1.00  0.00     0.031 C 
ATOM     49  C   UNL A   1      40.234  26.243  28.903  1.00  0.00     0.029 A 
ATOM     50  C   UNL A   1      41.108  27.411  28.903  1.00  0.00     0.049 A 
ATOM     51  H   UNL A   1      43.071  27.533  28.214  1.00  0.00     0.167 HD
ATOM     52  C   UNL A   1      47.166  27.624  26.682  1.00  0.00     0.034 A 
ATOM     53  C   UNL A   1      40.770  28.624  29.376  1.00  0.00     0.034 A 
ATOM     54  C   UNL A   1      46.901  28.952  27.165  1.00  0.00     0.049 A 
ATOM     55  C   UNL A   1      41.777  29.730  29.325  1.00  0.00     0.074 A 
ATOM     56  C   UNL A   1      47.740  30.052  27.156  1.00  0.00     0.029 A 
ATOM     57  N   UNL A   1      45.705  29.363  27.733  1.00  0.00    -0.354 N 
ATOM     58  N   UNL A   1      42.984  29.712  28.814  1.00  0.00    -0.248 NA
ATOM     59  C   UNL A   1      41.384  31.019  29.907  1.00  0.00     0.031 C 
ATOM     60  C   UNL A   1      47.051  31.129  27.721  1.00  0.00     0.029 A 
ATOM     61  C   UNL A   1      45.781  30.702  28.077  1.00  0.00     0.049 A 
ATOM     62  H   UNL A   1      44.918  28.789  27.874  1.00  0.00     0.167 HD
ATOM     63  C   UNL A   1      43.498  30.985  29.012  1.00  0.00     0.074 A 
ATOM     64  C   UNL A   1      42.461  31.758  29.667  1.00  0.00     0.031 C 
ATOM     65  C   UNL A   1      44.726  31.463  28.696  1.00  0.00     0.034 A 
BRANCH  52  66
ATOM     66  C   UNL A   1      48.509  27.349  26.064  1.00  0.00     0.023 A 
ATOM     67  C   UNL A   1      49.553  26.860  26.874  1.00  0.00     0.012 A 
ATOM     68  C   UNL A   1      48.721  27.512  24.682  1.00  0.00     0.148 A 
ATOM     69  C   UNL A   1      50.794  26.553  26.321  1.00  0.00     0.002 A 
ATOM     70  C   UNL A   1      49.953  27.176  24.132  1.00  0.00     0.091 A 
ATOM     71  F   UNL A   1      47.720  27.998  23.935  1.00  0.00    -0.205 F 
ATOM     72  C   UNL A   1      50.992  26.702  24.951  1.00  0.00     0.022 A 
BRANCH  70  73
ATOM     73  S   UNL A   1      50.293  27.282  22.371  1.00  0.00     0.127 S 
ATOM     74  O   UNL A   1      50.142  28.718  22.131  1.00  0.00    -0.237 OA
ATOM     75  O   UNL A   1      51.669  26.793  22.292  1.00  0.00    -0.237 OA
ATOM     76  O   UNL A   1      49.306  26.434  21.720  1.00  0.00    -0.744 OA
ENDBRANCH  70  73
ENDBRANCH  52  66
BRANCH  53  77
ATOM     77  C   UNL A   1      39.391  28.827  29.895  1.00  0.00     0.023 A 
ATOM     78  C   UNL A   1      39.119  28.554  31.249  1.00  0.00     0.012 A 
ATOM     79  C   UNL A   1      38.399  29.428  29.095  1.00  0.00     0.148 A 
ATOM     80  C   UNL A   1      37.881  28.886  31.800  1.00  0.00     0.002 A 
ATOM     81  C   UNL A   1      37.188  29.799  29.662  1.00  0.00     0.091 A 
ATOM     82  F   UNL A   1      38.693  29.682  27.812  1.00  0.00    -0.205 F 
ATOM     83  C   UNL A   1      36.923  29.521  31.013  1.00  0.00     0.022 A 
BRANCH  81  84
ATOM     84  S   UNL A   1      35.947  30.740  28.769  1.00  0.00     0.127 S 
ATOM     85  O   UNL A   1      35.102  31.229  29.857  1.00  0.00    -0.237 OA
ATOM     86  O   UNL A   1      36.764  31.762  28.115  1.00  0.00    -0.237 OA
ATOM     87  O   UNL A   1      35.308  29.797  27.861  1.00  0.00    -0.744 OA
ENDBRANCH  81  84
ENDBRANCH  53  77
BRANCH  65  88
ATOM     88  C   UNL A   1      45.035  32.887  29.056  1.00  0.00     0.023 A 
ATOM     89  C   UNL A   1      45.652  33.165  30.290  1.00  0.00     0.012 A 
ATOM     90  C   UNL A   1      44.828  33.925  28.127  1.00  0.00     0.148 A 
ATOM     91  C   UNL A   1      46.057  34.462  30.599  1.00  0.00     0.002 A 
ATOM     92  C   UNL A   1      45.263  35.209  28.429  1.00  0.00     0.091 A 
ATOM     93  F   UNL A   1      44.229  33.630  26.965  1.00  0.00    -0.205 F 
ATOM     94  C   UNL A   1      45.873  35.480  29.665  1.00  0.00     0.022 A 
BRANCH  92  95
ATOM     95  S   UNL A   1      45.138  36.571  27.265  1.00  0.00     0.127 S 
ATOM     96  O   UNL A   1      45.942  36.082  26.147  1.00  0.00    -0.237 OA
ATOM     97  O   UNL A   1      43.699  36.624  27.006  1.00  0.00    -0.237 OA
ATOM     98  O   UNL A   1      45.676  37.739  27.949  1.00  0.00    -0.744 OA
ENDBRANCH  92  95
ENDBRANCH  65  88
ENDBRANCH  39  40
ENDBRANCH  31  34
ENDBRANCH  29  30
ENDBRANCH   1  29
TORSDOF 17
ENDMDL
MODEL 3
REMARK VINA RESULT:     -12.2      1.965      2.667
REMARK SMILES CC(C)[N@H+](C)Cc1cc2c(cc1Cl)C=C(C(=O)NCCCNC(=O)c1ccc(-c3c4nc(c(-c5cccc(S(=O)(=O)[O-])c5F)c5ccc([nH]5)c(-c5cccc(S(=O)(=O)[O-])c5F)c5nc(c(-c6cccc(S(=O)(=O)[O-])c6F)c6ccc3[nH]6)C=C5)C=C4)cc1)[C@@H](C(F)(F)F)O2
REMARK SMILES IDX 20 1 19 2 18 3 16 4 17 5 15 7 7 8 8 9 12 10 9 11 11 12 13 13
REMARK SMILES IDX 10 14 93 15 14 16 88 17 6 18 4 19 5 20 2 22 1 23 3 24 89 25
REMARK SMILES IDX 90 26 91 27 92 28 21 29 22 30 23 31 24 33 25 34 26 35 87 36
REMARK SMILES IDX 27 37 86 38 28 39 29 40 30 41 80 42 31 43 85 44 79 45 81 46
REMARK SMILES IDX 32 47 84 48 78 49 77 50 33 52 65 53 45 54 64 55 46 56 49 57
REMARK SMILES IDX 63 58 82 59 47 60 48 61 62 63 83 64 50 65 34 66 35 67 43 68
REMARK SMILES IDX 36 69 38 70 44 71 37 72 39 73 40 74 41 75 42 76 66 77 67 78
REMARK SMILES IDX 75 79 68 80 70 81 76 82 69 83 71 84 72 85 73 86 74 87 51 88
REMARK SMILES IDX 52 89 60 90 53 91 55 92 61 93 54 94 56 95 57 96 58 97 59 98
REMARK H PARENT 18 6 4 21 22 32 81 51 49 62
REMARK Flexibility Score: inf
ROOT
ATOM      1  C   UNL A   1      31.656  29.394  26.319  1.00  0.00     0.042 C 
ENDROOT
BRANCH   1   2
ATOM      2  C   UNL A   1      31.224  29.596  24.877  1.00  0.00     0.118 C 
BRANCH   2   3
ATOM      3  N   UNL A   1      32.325  29.396  23.950  1.00  0.00    -0.352 N 
ATOM      4  C   UNL A   1      33.086  28.357  23.541  1.00  0.00     0.251 C 
ATOM      5  O   UNL A   1      33.980  28.640  22.737  1.00  0.00    -0.270 OA
ATOM      6  H   UNL A   1      32.583  30.235  23.504  1.00  0.00     0.163 HD
BRANCH   4   7
ATOM      7  C   UNL A   1      32.903  26.947  23.985  1.00  0.00     0.067 C 
ATOM      8  C   UNL A   1      33.736  22.060  24.971  1.00  0.00     0.029 A 
ATOM      9  C   UNL A   1      32.632  22.924  25.105  1.00  0.00     0.058 A 
ATOM     10  C   UNL A   1      34.971  22.626  24.605  1.00  0.00     0.050 A 
ATOM     11  C   UNL A   1      32.740  24.278  24.795  1.00  0.00     0.128 A 
ATOM     12  C   UNL A   1      35.060  23.977  24.254  1.00  0.00     0.033 A 
ATOM     13  Cl  UNL A   1      36.467  21.756  24.602  1.00  0.00    -0.084 Cl
ATOM     14  C   UNL A   1      33.941  24.803  24.337  1.00  0.00     0.019 A 
ATOM     15  O   UNL A   1      31.632  25.041  25.014  1.00  0.00    -0.475 OA
ATOM     16  C   UNL A   1      34.027  26.208  23.983  1.00  0.00     0.025 C 
ATOM     17  C   UNL A   1      31.579  26.337  24.357  1.00  0.00     0.314 C 
BRANCH   8  18
ATOM     18  C   UNL A   1      33.515  20.600  25.315  1.00  0.00     0.300 C 
BRANCH  18  19
ATOM     19  N   UNL A   1      33.576  19.686  24.175  1.00  0.00    -0.332 N 
ATOM     20  C   UNL A   1      34.264  18.447  24.509  1.00  0.00     0.333 C 
ATOM     21  H   UNL A   1      34.150  20.205  23.509  1.00  0.00     0.348 HD
BRANCH  19  22
ATOM     22  C   UNL A   1      32.368  19.496  23.360  1.00  0.00     0.177 C 
ATOM     23  C   UNL A   1      32.062  20.616  22.359  1.00  0.00     0.075 C 
ATOM     24  C   UNL A   1      32.367  18.141  22.642  1.00  0.00     0.075 C 
ENDBRANCH  19  22
ENDBRANCH  18  19
ENDBRANCH   8  18
BRANCH  17  25
ATOM     25  C   UNL A   1      30.605  26.218  23.171  1.00  0.00     0.429 C 
ATOM     26  F   UNL A   1      29.853  25.095  23.290  1.00  0.00    -0.167 F 
ATOM     27  F   UNL A   1      29.738  27.251  23.086  1.00  0.00    -0.167 F 
ATOM     28  F   UNL A   1      31.248  26.148  21.982  1.00  0.00    -0.167 F 
ENDBRANCH  17  25
ENDBRANCH   4   7
ENDBRANCH   2   3
ENDBRANCH   1   2
BRANCH   1  29
ATOM     29  C   UNL A   1      33.020  30.010  26.599  1.00  0.00     0.118 C 
BRANCH  29  30
ATOM     30  N   UNL A   1      32.926  31.446  26.863  1.00  0.00    -0.352 N 
ATOM     31  C   UNL A   1      33.716  32.256  27.644  1.00  0.00     0.251 C 
ATOM     32  H   UNL A   1      32.181  31.903  26.411  1.00  0.00     0.163 HD
ATOM     33  O   UNL A   1      33.313  33.368  27.971  1.00  0.00    -0.269 OA
BRANCH  31  34
ATOM     34  C   UNL A   1      35.035  31.769  28.089  1.00  0.00     0.039 A 
ATOM     35  C   UNL A   1      35.191  30.429  28.436  1.00  0.00     0.014 A 
ATOM     36  C   UNL A   1      36.115  32.651  28.178  1.00  0.00     0.014 A 
ATOM     37  C   UNL A   1      36.348  30.018  29.073  1.00  0.00     0.010 A 
ATOM     38  C   UNL A   1      37.328  32.200  28.705  1.00  0.00     0.010 A 
ATOM     39  C   UNL A   1      37.436  30.895  29.207  1.00  0.00    -0.014 A 
BRANCH  39  40
ATOM     40  C   UNL A   1      38.671  30.400  29.863  1.00  0.00     0.031 A 
ATOM     41  C   UNL A   1      39.019  30.805  31.268  1.00  0.00     0.074 A 
ATOM     42  C   UNL A   1      39.445  29.518  29.200  1.00  0.00     0.049 A 
ATOM     43  N   UNL A   1      40.043  30.437  31.995  1.00  0.00    -0.248 NA
ATOM     44  C   UNL A   1      38.110  31.743  31.949  1.00  0.00     0.031 C 
ATOM     45  C   UNL A   1      39.209  29.062  27.827  1.00  0.00     0.029 A 
ATOM     46  N   UNL A   1      40.560  28.826  29.592  1.00  0.00    -0.354 N 
ATOM     47  C   UNL A   1      39.929  31.129  33.194  1.00  0.00     0.074 A 
ATOM     48  C   UNL A   1      38.737  31.945  33.101  1.00  0.00     0.031 C 
ATOM     49  C   UNL A   1      40.105  28.116  27.518  1.00  0.00     0.029 A 
ATOM     50  C   UNL A   1      41.025  27.954  28.638  1.00  0.00     0.049 A 
ATOM     51  H   UNL A   1      40.987  28.942  30.472  1.00  0.00     0.167 HD
ATOM     52  C   UNL A   1      40.733  31.074  34.281  1.00  0.00     0.034 A 
ATOM     53  C   UNL A   1      42.081  27.120  28.650  1.00  0.00     0.034 A 
ATOM     54  C   UNL A   1      41.884  30.221  34.389  1.00  0.00     0.049 A 
ATOM     55  C   UNL A   1      42.951  27.068  29.867  1.00  0.00     0.074 A 
ATOM     56  C   UNL A   1      42.747  30.075  35.461  1.00  0.00     0.029 A 
ATOM     57  N   UNL A   1      42.327  29.361  33.396  1.00  0.00    -0.354 N 
ATOM     58  N   UNL A   1      42.803  27.704  31.004  1.00  0.00    -0.248 NA
ATOM     59  C   UNL A   1      44.126  26.190  29.811  1.00  0.00     0.031 C 
ATOM     60  C   UNL A   1      43.715  29.128  35.113  1.00  0.00     0.029 A 
ATOM     61  C   UNL A   1      43.451  28.678  33.829  1.00  0.00     0.049 A 
ATOM     62  H   UNL A   1      41.907  29.252  32.512  1.00  0.00     0.167 HD
ATOM     63  C   UNL A   1      43.866  27.304  31.802  1.00  0.00     0.074 A 
ATOM     64  C   UNL A   1      44.636  26.351  31.027  1.00  0.00     0.031 C 
ATOM     65  C   UNL A   1      44.183  27.708  33.056  1.00  0.00     0.034 A 
BRANCH  52  66
ATOM     66  C   UNL A   1      40.369  31.927  35.465  1.00  0.00     0.023 A 
ATOM     67  C   UNL A   1      41.104  33.103  35.720  1.00  0.00     0.012 A 
ATOM     68  C   UNL A   1      39.270  31.605  36.284  1.00  0.00     0.148 A 
ATOM     69  C   UNL A   1      40.761  33.937  36.782  1.00  0.00     0.002 A 
ATOM     70  C   UNL A   1      38.916  32.457  37.324  1.00  0.00     0.091 A 
ATOM     71  F   UNL A   1      38.598  30.473  36.035  1.00  0.00    -0.205 F 
ATOM     72  C   UNL A   1      39.664  33.619  37.578  1.00  0.00     0.022 A 
BRANCH  70  73
ATOM     73  S   UNL A   1      37.488  32.166  38.375  1.00  0.00     0.127 S 
ATOM     74  O   UNL A   1      37.968  32.665  39.664  1.00  0.00    -0.237 OA
ATOM     75  O   UNL A   1      36.465  32.998  37.743  1.00  0.00    -0.237 OA
ATOM     76  O   UNL A   1      37.231  30.735  38.316  1.00  0.00    -0.744 OA
ENDBRANCH  70  73
ENDBRANCH  52  66
BRANCH  53  77
ATOM     77  C   UNL A   1      42.319  26.254  27.465  1.00  0.00     0.023 A 
ATOM     78  C   UNL A   1      43.159  26.713  26.434  1.00  0.00     0.012 A 
ATOM     79  C   UNL A   1      41.840  24.929  27.432  1.00  0.00     0.148 A 
ATOM     80  C   UNL A   1      43.526  25.862  25.391  1.00  0.00     0.002 A 
ATOM     81  C   UNL A   1      42.247  24.074  26.417  1.00  0.00     0.091 A 
ATOM     82  F   UNL A   1      41.048  24.519  28.433  1.00  0.00    -0.205 F 
ATOM     83  C   UNL A   1      43.084  24.541  25.391  1.00  0.00     0.022 A 
BRANCH  81  84
ATOM     84  S   UNL A   1      41.844  22.324  26.403  1.00  0.00     0.127 S 
ATOM     85  O   UNL A   1      40.391  22.354  26.248  1.00  0.00    -0.237 OA
ATOM     86  O   UNL A   1      42.581  21.860  25.228  1.00  0.00    -0.237 OA
ATOM     87  O   UNL A   1      42.323  21.795  27.672  1.00  0.00    -0.744 OA
ENDBRANCH  81  84
ENDBRANCH  53  77
BRANCH  65  88
ATOM     88  C   UNL A   1      45.420  27.132  33.682  1.00  0.00     0.023 A 
ATOM     89  C   UNL A   1      46.632  27.840  33.583  1.00  0.00     0.012 A 
ATOM     90  C   UNL A   1      45.353  25.964  34.465  1.00  0.00     0.148 A 
ATOM     91  C   UNL A   1      47.768  27.390  34.254  1.00  0.00     0.002 A 
ATOM     92  C   UNL A   1      46.481  25.539  35.156  1.00  0.00     0.091 A 
ATOM     93  F   UNL A   1      44.187  25.307  34.532  1.00  0.00    -0.205 F 
ATOM     94  C   UNL A   1      47.690  26.248  35.048  1.00  0.00     0.022 A 
BRANCH  92  95
ATOM     95  S   UNL A   1      46.462  24.124  36.262  1.00  0.00     0.127 S 
ATOM     96  O   UNL A   1      47.868  24.035  36.656  1.00  0.00    -0.237 OA
ATOM     97  O   UNL A   1      45.558  24.572  37.320  1.00  0.00    -0.237 OA
ATOM     98  O   UNL A   1      45.970  23.002  35.475  1.00  0.00    -0.744 OA
ENDBRANCH  92  95
ENDBRANCH  65  88
ENDBRANCH  39  40
ENDBRANCH  31  34
ENDBRANCH  29  30
ENDBRANCH   1  29
TORSDOF 17
ENDMDL
