MODEL 1
REMARK VINA RESULT:     -12.6      0.000      0.000
REMARK SMILES O=C(NCCCNC(=O)c1ccc(-c2c3nc(c(-c4cccc(S(=O)(=O)[O-])c4F)c4ccc([nH]4)c(-c4cccc(S(=O)(=O)[O-])c4F)c4nc(c(-c5cccc(S(=O)(=O)[O-])c5F)c5ccc2[nH]5)C=C4)C=C3)cc1)C1=Cc2cc(Cl)ccc2O[C@@H]1C(F)(F)F
REMARK SMILES IDX 6 1 5 2 4 3 3 4 1 5 2 6 73 8 74 9 83 10 75 11 82 12 76 13
REMARK SMILES IDX 81 14 77 15 80 16 78 17 79 18 84 19 85 20 86 21 87 22 7 23
REMARK SMILES IDX 8 24 9 26 10 27 11 28 72 29 12 30 71 31 13 32 14 33 15 34
REMARK SMILES IDX 65 35 16 36 70 37 64 38 66 39 17 40 69 41 63 42 62 43 18 45
REMARK SMILES IDX 50 46 30 47 49 48 31 49 34 50 48 51 67 52 32 53 33 54 47 56
REMARK SMILES IDX 68 57 35 58 19 59 20 60 28 61 21 62 23 63 29 64 22 65 24 66
REMARK SMILES IDX 25 67 26 68 27 69 51 70 52 71 60 72 53 73 55 74 61 75 54 76
REMARK SMILES IDX 56 77 57 78 58 79 59 80 36 81 37 82 45 83 38 84 40 85 46 86
REMARK SMILES IDX 39 87 41 88 42 89 43 90 44 91
REMARK H PARENT 3 7 7 25 66 44 34 55
REMARK Flexibility Score: inf
ROOT
ATOM      1  C   UNL A   1      32.676  29.613  25.738  1.00  0.00     0.118 C 
ENDROOT
BRANCH   1   2
ATOM      2  C   UNL A   1      31.836  28.486  26.327  1.00  0.00     0.042 C 
BRANCH   2   3
ATOM      3  C   UNL A   1      32.569  27.151  26.332  1.00  0.00     0.118 C 
BRANCH   3   4
ATOM      4  N   UNL A   1      31.836  26.086  27.020  1.00  0.00    -0.352 N 
ATOM      5  O   UNL A   1      30.729  24.122  27.228  1.00  0.00    -0.270 OA
ATOM      6  C   UNL A   1      31.066  25.063  26.524  1.00  0.00     0.251 C 
ATOM      7  H   UNL A   1      31.908  26.108  28.002  1.00  0.00     0.163 HD
BRANCH   6   8
ATOM      8  C   UNL A   1      30.752  25.088  25.084  1.00  0.00     0.067 C 
ATOM      9  C   UNL A   1      29.680  25.771  24.660  1.00  0.00     0.025 C 
ATOM     10  C   UNL A   1      31.841  24.658  24.153  1.00  0.00     0.314 C 
ATOM     11  C   UNL A   1      30.041  26.744  23.619  1.00  0.00     0.019 A 
ATOM     12  O   UNL A   1      32.228  25.698  23.224  1.00  0.00    -0.475 OA
ATOM     13  C   UNL A   1      29.268  27.909  23.524  1.00  0.00     0.032 A 
ATOM     14  C   UNL A   1      31.328  26.722  23.044  1.00  0.00     0.128 A 
ATOM     15  C   UNL A   1      29.809  29.051  22.934  1.00  0.00     0.041 A 
ATOM     16  C   UNL A   1      31.847  27.861  22.426  1.00  0.00     0.048 A 
ATOM     17  Cl  UNL A   1      28.924  30.525  22.968  1.00  0.00    -0.084 Cl
ATOM     18  C   UNL A   1      31.097  29.036  22.397  1.00  0.00     0.024 A 
BRANCH  10  19
ATOM     19  C   UNL A   1      31.428  23.383  23.398  1.00  0.00     0.429 C 
ATOM     20  F   UNL A   1      31.375  22.317  24.234  1.00  0.00    -0.167 F 
ATOM     21  F   UNL A   1      30.201  23.498  22.838  1.00  0.00    -0.167 F 
ATOM     22  F   UNL A   1      32.294  23.066  22.405  1.00  0.00    -0.167 F 
ENDBRANCH  10  19
ENDBRANCH   6   8
ENDBRANCH   3   4
ENDBRANCH   2   3
ENDBRANCH   1   2
BRANCH   1  23
ATOM     23  N   UNL A   1      32.366  30.938  26.266  1.00  0.00    -0.352 N 
ATOM     24  C   UNL A   1      33.082  31.742  27.136  1.00  0.00     0.251 C 
ATOM     25  H   UNL A   1      31.515  31.320  25.952  1.00  0.00     0.163 HD
ATOM     26  O   UNL A   1      32.611  32.806  27.487  1.00  0.00    -0.269 OA
BRANCH  24  27
ATOM     27  C   UNL A   1      34.391  31.285  27.672  1.00  0.00     0.039 A 
ATOM     28  C   UNL A   1      35.392  32.232  27.911  1.00  0.00     0.014 A 
ATOM     29  C   UNL A   1      34.629  29.945  27.970  1.00  0.00     0.014 A 
ATOM     30  C   UNL A   1      36.588  31.839  28.521  1.00  0.00     0.010 A 
ATOM     31  C   UNL A   1      35.751  29.585  28.706  1.00  0.00     0.010 A 
ATOM     32  C   UNL A   1      36.759  30.520  28.970  1.00  0.00    -0.014 A 
BRANCH  32  33
ATOM     33  C   UNL A   1      37.983  30.093  29.700  1.00  0.00     0.031 A 
ATOM     34  C   UNL A   1      38.238  30.572  31.109  1.00  0.00     0.074 A 
ATOM     35  C   UNL A   1      38.912  29.348  29.065  1.00  0.00     0.049 A 
ATOM     36  N   UNL A   1      39.259  30.331  31.890  1.00  0.00    -0.248 NA
ATOM     37  C   UNL A   1      37.240  31.479  31.705  1.00  0.00     0.031 C 
ATOM     38  C   UNL A   1      38.850  28.927  27.663  1.00  0.00     0.029 A 
ATOM     39  N   UNL A   1      40.099  28.824  29.512  1.00  0.00    -0.354 N 
ATOM     40  C   UNL A   1      39.050  31.093  33.035  1.00  0.00     0.074 A 
ATOM     41  C   UNL A   1      37.838  31.849  32.826  1.00  0.00     0.031 C 
ATOM     42  C   UNL A   1      39.931  28.184  27.375  1.00  0.00     0.029 A 
ATOM     43  C   UNL A   1      40.776  28.096  28.560  1.00  0.00     0.049 A 
ATOM     44  H   UNL A   1      40.434  28.955  30.428  1.00  0.00     0.167 HD
ATOM     45  C   UNL A   1      39.775  31.129  34.180  1.00  0.00     0.034 A 
ATOM     46  C   UNL A   1      41.940  27.424  28.639  1.00  0.00     0.034 A 
ATOM     47  C   UNL A   1      40.935  30.314  34.412  1.00  0.00     0.049 A 
ATOM     48  C   UNL A   1      42.663  27.383  29.957  1.00  0.00     0.074 A 
ATOM     49  C   UNL A   1      41.677  30.182  35.572  1.00  0.00     0.029 A 
ATOM     50  N   UNL A   1      41.521  29.490  33.465  1.00  0.00    -0.354 N 
ATOM     51  N   UNL A   1      42.351  27.968  31.089  1.00  0.00    -0.248 NA
ATOM     52  C   UNL A   1      43.871  26.549  30.026  1.00  0.00     0.031 C 
ATOM     53  C   UNL A   1      42.724  29.288  35.319  1.00  0.00     0.029 A 
ATOM     54  C   UNL A   1      42.616  28.845  34.012  1.00  0.00     0.049 A 
ATOM     55  H   UNL A   1      41.204  29.379  32.540  1.00  0.00     0.167 HD
ATOM     56  C   UNL A   1      43.303  27.550  32.010  1.00  0.00     0.074 A 
ATOM     57  C   UNL A   1      44.182  26.634  31.311  1.00  0.00     0.031 C 
ATOM     58  C   UNL A   1      43.451  27.902  33.312  1.00  0.00     0.034 A 
BRANCH  45  59
ATOM     59  C   UNL A   1      39.287  32.024  35.292  1.00  0.00     0.023 A 
ATOM     60  C   UNL A   1      38.343  31.536  36.219  1.00  0.00     0.012 A 
ATOM     61  C   UNL A   1      39.793  33.329  35.447  1.00  0.00     0.148 A 
ATOM     62  C   UNL A   1      37.878  32.343  37.256  1.00  0.00     0.002 A 
ATOM     63  C   UNL A   1      39.362  34.111  36.513  1.00  0.00     0.091 A 
ATOM     64  F   UNL A   1      40.672  33.787  34.545  1.00  0.00    -0.205 F 
ATOM     65  C   UNL A   1      38.395  33.626  37.409  1.00  0.00     0.022 A 
BRANCH  63  66
ATOM     66  S   UNL A   1      40.028  35.745  36.850  1.00  0.00     0.127 S 
ATOM     67  O   UNL A   1      39.342  36.093  38.094  1.00  0.00    -0.237 OA
ATOM     68  O   UNL A   1      41.457  35.468  37.000  1.00  0.00    -0.237 OA
ATOM     69  O   UNL A   1      39.684  36.565  35.697  1.00  0.00    -0.744 OA
ENDBRANCH  63  66
ENDBRANCH  45  59
BRANCH  46  70
ATOM     70  C   UNL A   1      42.442  26.656  27.463  1.00  0.00     0.023 A 
ATOM     71  C   UNL A   1      43.243  27.305  26.502  1.00  0.00     0.012 A 
ATOM     72  C   UNL A   1      42.157  25.286  27.305  1.00  0.00     0.148 A 
ATOM     73  C   UNL A   1      43.719  26.615  25.387  1.00  0.00     0.002 A 
ATOM     74  C   UNL A   1      42.682  24.591  26.221  1.00  0.00     0.091 A 
ATOM     75  F   UNL A   1      41.387  24.687  28.223  1.00  0.00    -0.205 F 
ATOM     76  C   UNL A   1      43.448  25.257  25.251  1.00  0.00     0.022 A 
BRANCH  74  77
ATOM     77  S   UNL A   1      42.497  22.813  26.038  1.00  0.00     0.127 S 
ATOM     78  O   UNL A   1      41.053  22.647  26.177  1.00  0.00    -0.237 OA
ATOM     79  O   UNL A   1      43.016  22.591  24.688  1.00  0.00    -0.237 OA
ATOM     80  O   UNL A   1      43.309  22.225  27.096  1.00  0.00    -0.744 OA
ENDBRANCH  74  77
ENDBRANCH  46  70
BRANCH  58  81
ATOM     81  C   UNL A   1      44.587  27.272  34.073  1.00  0.00     0.023 A 
ATOM     82  C   UNL A   1      45.868  27.855  34.032  1.00  0.00     0.012 A 
ATOM     83  C   UNL A   1      44.373  26.126  34.864  1.00  0.00     0.148 A 
ATOM     84  C   UNL A   1      46.931  27.279  34.725  1.00  0.00     0.002 A 
ATOM     85  C   UNL A   1      45.424  25.589  35.594  1.00  0.00     0.091 A 
ATOM     86  F   UNL A   1      43.151  25.573  34.876  1.00  0.00    -0.205 F 
ATOM     87  C   UNL A   1      46.707  26.153  35.515  1.00  0.00     0.022 A 
BRANCH  85  88
ATOM     88  S   UNL A   1      45.195  24.202  36.713  1.00  0.00     0.127 S 
ATOM     89  O   UNL A   1      46.550  24.001  37.221  1.00  0.00    -0.237 OA
ATOM     90  O   UNL A   1      44.250  24.741  37.692  1.00  0.00    -0.237 OA
ATOM     91  O   UNL A   1      44.660  23.120  35.896  1.00  0.00    -0.744 OA
ENDBRANCH  85  88
ENDBRANCH  58  81
ENDBRANCH  32  33
ENDBRANCH  24  27
ENDBRANCH   1  23
TORSDOF 14
ENDMDL
MODEL 2
REMARK VINA RESULT:     -12.5      2.235      3.017
REMARK SMILES O=C(NCCCNC(=O)c1ccc(-c2c3nc(c(-c4cccc(S(=O)(=O)[O-])c4F)c4ccc([nH]4)c(-c4cccc(S(=O)(=O)[O-])c4F)c4nc(c(-c5cccc(S(=O)(=O)[O-])c5F)c5ccc2[nH]5)C=C4)C=C3)cc1)C1=Cc2cc(Cl)ccc2O[C@@H]1C(F)(F)F
REMARK SMILES IDX 6 1 5 2 4 3 3 4 1 5 2 6 73 8 74 9 83 10 75 11 82 12 76 13
REMARK SMILES IDX 81 14 77 15 80 16 78 17 79 18 84 19 85 20 86 21 87 22 7 23
REMARK SMILES IDX 8 24 9 26 10 27 11 28 72 29 12 30 71 31 13 32 14 33 15 34
REMARK SMILES IDX 65 35 16 36 70 37 64 38 66 39 17 40 69 41 63 42 62 43 18 45
REMARK SMILES IDX 50 46 30 47 49 48 31 49 34 50 48 51 67 52 32 53 33 54 47 56
REMARK SMILES IDX 68 57 35 58 19 59 20 60 28 61 21 62 23 63 29 64 22 65 24 66
REMARK SMILES IDX 25 67 26 68 27 69 51 70 52 71 60 72 53 73 55 74 61 75 54 76
REMARK SMILES IDX 56 77 57 78 58 79 59 80 36 81 37 82 45 83 38 84 40 85 46 86
REMARK SMILES IDX 39 87 41 88 42 89 43 90 44 91
REMARK H PARENT 3 7 7 25 66 44 34 55
REMARK Flexibility Score: inf
ROOT
ATOM      1  C   UNL A   1      32.804  29.921  26.434  1.00  0.00     0.118 C 
ENDROOT
BRANCH   1   2
ATOM      2  C   UNL A   1      31.886  28.966  27.186  1.00  0.00     0.042 C 
BRANCH   2   3
ATOM      3  C   UNL A   1      32.276  27.505  26.995  1.00  0.00     0.118 C 
BRANCH   3   4
ATOM      4  N   UNL A   1      31.127  26.605  26.879  1.00  0.00    -0.352 N 
ATOM      5  O   UNL A   1      30.047  24.648  26.521  1.00  0.00    -0.270 OA
ATOM      6  C   UNL A   1      31.019  25.359  26.312  1.00  0.00     0.251 C 
ATOM      7  H   UNL A   1      30.294  26.951  27.273  1.00  0.00     0.163 HD
BRANCH   6   8
ATOM      8  C   UNL A   1      32.169  24.868  25.531  1.00  0.00     0.067 C 
ATOM      9  C   UNL A   1      32.912  23.867  26.022  1.00  0.00     0.025 C 
ATOM     10  C   UNL A   1      32.219  25.264  24.089  1.00  0.00     0.314 C 
ATOM     11  C   UNL A   1      33.013  22.755  25.065  1.00  0.00     0.019 A 
ATOM     12  O   UNL A   1      32.205  24.126  23.194  1.00  0.00    -0.475 OA
ATOM     13  C   UNL A   1      33.170  21.464  25.585  1.00  0.00     0.032 A 
ATOM     14  C   UNL A   1      32.551  22.913  23.742  1.00  0.00     0.128 A 
ATOM     15  C   UNL A   1      32.794  20.360  24.820  1.00  0.00     0.041 A 
ATOM     16  C   UNL A   1      32.211  21.800  22.973  1.00  0.00     0.048 A 
ATOM     17  Cl  UNL A   1      32.829  18.790  25.521  1.00  0.00    -0.084 Cl
ATOM     18  C   UNL A   1      32.304  20.523  23.524  1.00  0.00     0.024 A 
BRANCH  10  19
ATOM     19  C   UNL A   1      33.446  26.150  23.819  1.00  0.00     0.429 C 
ATOM     20  F   UNL A   1      33.098  27.460  23.764  1.00  0.00    -0.167 F 
ATOM     21  F   UNL A   1      34.380  26.039  24.793  1.00  0.00    -0.167 F 
ATOM     22  F   UNL A   1      34.053  25.852  22.645  1.00  0.00    -0.167 F 
ENDBRANCH  10  19
ENDBRANCH   6   8
ENDBRANCH   3   4
ENDBRANCH   2   3
ENDBRANCH   1   2
BRANCH   1  23
ATOM     23  N   UNL A   1      32.706  31.314  26.857  1.00  0.00    -0.352 N 
ATOM     24  C   UNL A   1      33.588  32.089  27.590  1.00  0.00     0.251 C 
ATOM     25  H   UNL A   1      31.883  31.775  26.576  1.00  0.00     0.163 HD
ATOM     26  O   UNL A   1      33.283  33.231  27.875  1.00  0.00    -0.269 OA
BRANCH  24  27
ATOM     27  C   UNL A   1      34.875  31.513  28.064  1.00  0.00     0.039 A 
ATOM     28  C   UNL A   1      36.006  32.335  28.113  1.00  0.00     0.014 A 
ATOM     29  C   UNL A   1      34.969  30.189  28.487  1.00  0.00     0.014 A 
ATOM     30  C   UNL A   1      37.195  31.845  28.663  1.00  0.00     0.010 A 
ATOM     31  C   UNL A   1      36.101  29.755  29.164  1.00  0.00     0.010 A 
ATOM     32  C   UNL A   1      37.240  30.565  29.239  1.00  0.00    -0.014 A 
BRANCH  32  33
ATOM     33  C   UNL A   1      38.465  30.050  29.908  1.00  0.00     0.031 A 
ATOM     34  C   UNL A   1      38.835  30.524  31.294  1.00  0.00     0.074 A 
ATOM     35  C   UNL A   1      39.295  29.225  29.236  1.00  0.00     0.049 A 
ATOM     36  N   UNL A   1      39.875  30.211  32.022  1.00  0.00    -0.248 NA
ATOM     37  C   UNL A   1      37.947  31.515  31.928  1.00  0.00     0.031 C 
ATOM     38  C   UNL A   1      39.122  28.794  27.846  1.00  0.00     0.029 A 
ATOM     39  N   UNL A   1      40.459  28.613  29.627  1.00  0.00    -0.354 N 
ATOM     40  C   UNL A   1      39.791  31.000  33.164  1.00  0.00     0.074 A 
ATOM     41  C   UNL A   1      38.633  31.849  33.009  1.00  0.00     0.031 C 
ATOM     42  C   UNL A   1      40.124  27.964  27.512  1.00  0.00     0.029 A 
ATOM     43  C   UNL A   1      41.023  27.822  28.651  1.00  0.00     0.049 A 
ATOM     44  H   UNL A   1      40.855  28.728  30.521  1.00  0.00     0.167 HD
ATOM     45  C   UNL A   1      40.578  30.991  34.267  1.00  0.00     0.034 A 
ATOM     46  C   UNL A   1      42.133  27.059  28.678  1.00  0.00     0.034 A 
ATOM     47  C   UNL A   1      41.682  30.089  34.449  1.00  0.00     0.049 A 
ATOM     48  C   UNL A   1      42.922  26.976  29.955  1.00  0.00     0.074 A 
ATOM     49  C   UNL A   1      42.473  29.911  35.569  1.00  0.00     0.029 A 
ATOM     50  N   UNL A   1      42.146  29.209  33.486  1.00  0.00    -0.354 N 
ATOM     51  N   UNL A   1      42.720  27.598  31.092  1.00  0.00    -0.248 NA
ATOM     52  C   UNL A   1      44.061  26.049  29.971  1.00  0.00     0.031 C 
ATOM     53  C   UNL A   1      43.430  28.933  35.274  1.00  0.00     0.029 A 
ATOM     54  C   UNL A   1      43.215  28.484  33.982  1.00  0.00     0.049 A 
ATOM     55  H   UNL A   1      41.771  29.113  32.580  1.00  0.00     0.167 HD
ATOM     56  C   UNL A   1      43.686  27.115  31.967  1.00  0.00     0.074 A 
ATOM     57  C   UNL A   1      44.449  26.123  31.237  1.00  0.00     0.031 C 
ATOM     58  C   UNL A   1      43.933  27.470  33.253  1.00  0.00     0.034 A 
BRANCH  45  59
ATOM     59  C   UNL A   1      40.226  31.935  35.389  1.00  0.00     0.023 A 
ATOM     60  C   UNL A   1      40.928  33.151  35.527  1.00  0.00     0.012 A 
ATOM     61  C   UNL A   1      39.174  31.645  36.279  1.00  0.00     0.148 A 
ATOM     62  C   UNL A   1      40.620  34.041  36.554  1.00  0.00     0.002 A 
ATOM     63  C   UNL A   1      38.838  32.560  37.271  1.00  0.00     0.091 A 
ATOM     64  F   UNL A   1      38.530  30.476  36.149  1.00  0.00    -0.205 F 
ATOM     65  C   UNL A   1      39.569  33.750  37.419  1.00  0.00     0.022 A 
BRANCH  63  66
ATOM     66  S   UNL A   1      37.447  32.321  38.382  1.00  0.00     0.127 S 
ATOM     67  O   UNL A   1      37.944  32.937  39.612  1.00  0.00    -0.237 OA
ATOM     68  O   UNL A   1      36.386  33.073  37.710  1.00  0.00    -0.237 OA
ATOM     69  O   UNL A   1      37.227  30.883  38.448  1.00  0.00    -0.744 OA
ENDBRANCH  63  66
ENDBRANCH  45  59
BRANCH  46  70
ATOM     70  C   UNL A   1      42.506  26.240  27.488  1.00  0.00     0.023 A 
ATOM     71  C   UNL A   1      43.301  26.811  26.476  1.00  0.00     0.012 A 
ATOM     72  C   UNL A   1      42.104  24.896  27.368  1.00  0.00     0.148 A 
ATOM     73  C   UNL A   1      43.659  26.072  25.347  1.00  0.00     0.002 A 
ATOM     74  C   UNL A   1      42.511  24.147  26.269  1.00  0.00     0.091 A 
ATOM     75  F   UNL A   1      41.341  24.371  28.336  1.00  0.00    -0.205 F 
ATOM     76  C   UNL A   1      43.273  24.739  25.248  1.00  0.00     0.022 A 
BRANCH  74  77
ATOM     77  S   UNL A   1      42.175  22.388  26.125  1.00  0.00     0.127 S 
ATOM     78  O   UNL A   1      42.907  22.042  24.910  1.00  0.00    -0.237 OA
ATOM     79  O   UNL A   1      42.753  21.867  27.364  1.00  0.00    -0.237 OA
ATOM     80  O   UNL A   1      40.724  22.273  26.046  1.00  0.00    -0.744 OA
ENDBRANCH  74  77
ENDBRANCH  46  70
BRANCH  58  81
ATOM     81  C   UNL A   1      45.055  26.760  33.962  1.00  0.00     0.023 A 
ATOM     82  C   UNL A   1      46.372  27.246  33.855  1.00  0.00     0.012 A 
ATOM     83  C   UNL A   1      44.797  25.634  34.768  1.00  0.00     0.148 A 
ATOM     84  C   UNL A   1      47.423  26.595  34.499  1.00  0.00     0.002 A 
ATOM     85  C   UNL A   1      45.840  25.023  35.450  1.00  0.00     0.091 A 
ATOM     86  F   UNL A   1      43.539  25.172  34.843  1.00  0.00    -0.205 F 
ATOM     87  C   UNL A   1      47.156  25.490  35.305  1.00  0.00     0.022 A 
BRANCH  85  88
ATOM     88  S   UNL A   1      45.565  23.659  36.586  1.00  0.00     0.127 S 
ATOM     89  O   UNL A   1      44.981  22.650  35.707  1.00  0.00    -0.237 OA
ATOM     90  O   UNL A   1      46.921  23.355  37.047  1.00  0.00    -0.237 OA
ATOM     91  O   UNL A   1      44.684  24.180  37.623  1.00  0.00    -0.744 OA
ENDBRANCH  85  88
ENDBRANCH  58  81
ENDBRANCH  32  33
ENDBRANCH  24  27
ENDBRANCH   1  23
TORSDOF 14
ENDMDL
MODEL 3
REMARK VINA RESULT:     -12.5      1.811      2.695
REMARK SMILES O=C(NCCCNC(=O)c1ccc(-c2c3nc(c(-c4cccc(S(=O)(=O)[O-])c4F)c4ccc([nH]4)c(-c4cccc(S(=O)(=O)[O-])c4F)c4nc(c(-c5cccc(S(=O)(=O)[O-])c5F)c5ccc2[nH]5)C=C4)C=C3)cc1)C1=Cc2cc(Cl)ccc2O[C@@H]1C(F)(F)F
REMARK SMILES IDX 6 1 5 2 4 3 3 4 1 5 2 6 73 8 74 9 83 10 75 11 82 12 76 13
REMARK SMILES IDX 81 14 77 15 80 16 78 17 79 18 84 19 85 20 86 21 87 22 7 23
REMARK SMILES IDX 8 24 9 26 10 27 11 28 72 29 12 30 71 31 13 32 14 33 15 34
REMARK SMILES IDX 65 35 16 36 70 37 64 38 66 39 17 40 69 41 63 42 62 43 18 45
REMARK SMILES IDX 50 46 30 47 49 48 31 49 34 50 48 51 67 52 32 53 33 54 47 56
REMARK SMILES IDX 68 57 35 58 19 59 20 60 28 61 21 62 23 63 29 64 22 65 24 66
REMARK SMILES IDX 25 67 26 68 27 69 51 70 52 71 60 72 53 73 55 74 61 75 54 76
REMARK SMILES IDX 56 77 57 78 58 79 59 80 36 81 37 82 45 83 38 84 40 85 46 86
REMARK SMILES IDX 39 87 41 88 42 89 43 90 44 91
REMARK H PARENT 3 7 7 25 66 44 34 55
REMARK Flexibility Score: inf
ROOT
ATOM      1  C   UNL A   1      32.863  29.606  25.656  1.00  0.00     0.118 C 
ENDROOT
BRANCH   1   2
ATOM      2  C   UNL A   1      31.734  28.583  25.676  1.00  0.00     0.042 C 
BRANCH   2   3
ATOM      3  C   UNL A   1      32.031  27.401  26.590  1.00  0.00     0.118 C 
BRANCH   3   4
ATOM      4  N   UNL A   1      30.953  26.410  26.631  1.00  0.00    -0.352 N 
ATOM      5  O   UNL A   1      30.022  24.347  26.573  1.00  0.00    -0.270 OA
ATOM      6  C   UNL A   1      30.932  25.093  26.241  1.00  0.00     0.251 C 
ATOM      7  H   UNL A   1      30.103  26.744  26.998  1.00  0.00     0.163 HD
BRANCH   6   8
ATOM      8  C   UNL A   1      32.102  24.586  25.502  1.00  0.00     0.067 C 
ATOM      9  C   UNL A   1      32.858  23.627  26.052  1.00  0.00     0.025 C 
ATOM     10  C   UNL A   1      32.165  24.909  24.042  1.00  0.00     0.314 C 
ATOM     11  C   UNL A   1      32.994  22.470  25.155  1.00  0.00     0.019 A 
ATOM     12  O   UNL A   1      32.185  23.727  23.206  1.00  0.00    -0.475 OA
ATOM     13  C   UNL A   1      33.169  21.211  25.743  1.00  0.00     0.032 A 
ATOM     14  C   UNL A   1      32.547  22.552  23.820  1.00  0.00     0.128 A 
ATOM     15  C   UNL A   1      32.825  20.062  25.031  1.00  0.00     0.041 A 
ATOM     16  C   UNL A   1      32.239  21.394  23.105  1.00  0.00     0.048 A 
ATOM     17  Cl  UNL A   1      32.881  18.530  25.811  1.00  0.00    -0.084 Cl
ATOM     18  C   UNL A   1      32.350  20.148  23.722  1.00  0.00     0.024 A 
BRANCH  10  19
ATOM     19  C   UNL A   1      33.377  25.806  23.742  1.00  0.00     0.429 C 
ATOM     20  F   UNL A   1      34.068  26.086  24.875  1.00  0.00    -0.167 F 
ATOM     21  F   UNL A   1      34.250  25.214  22.893  1.00  0.00    -0.167 F 
ATOM     22  F   UNL A   1      33.022  26.991  23.191  1.00  0.00    -0.167 F 
ENDBRANCH  10  19
ENDBRANCH   6   8
ENDBRANCH   3   4
ENDBRANCH   2   3
ENDBRANCH   1   2
BRANCH   1  23
ATOM     23  N   UNL A   1      32.515  30.901  26.230  1.00  0.00    -0.352 N 
ATOM     24  C   UNL A   1      33.197  31.685  27.146  1.00  0.00     0.251 C 
ATOM     25  H   UNL A   1      31.661  31.278  25.916  1.00  0.00     0.163 HD
ATOM     26  O   UNL A   1      32.697  32.724  27.530  1.00  0.00    -0.269 OA
BRANCH  24  27
ATOM     27  C   UNL A   1      34.506  31.234  27.688  1.00  0.00     0.039 A 
ATOM     28  C   UNL A   1      35.497  32.188  27.942  1.00  0.00     0.014 A 
ATOM     29  C   UNL A   1      34.753  29.893  27.975  1.00  0.00     0.014 A 
ATOM     30  C   UNL A   1      36.691  31.800  28.559  1.00  0.00     0.010 A 
ATOM     31  C   UNL A   1      35.873  29.537  28.717  1.00  0.00     0.010 A 
ATOM     32  C   UNL A   1      36.871  30.478  28.997  1.00  0.00    -0.014 A 
BRANCH  32  33
ATOM     33  C   UNL A   1      38.093  30.055  29.732  1.00  0.00     0.031 A 
ATOM     34  C   UNL A   1      38.336  30.529  31.145  1.00  0.00     0.074 A 
ATOM     35  C   UNL A   1      39.030  29.318  29.100  1.00  0.00     0.049 A 
ATOM     36  N   UNL A   1      39.354  30.291  31.931  1.00  0.00    -0.248 NA
ATOM     37  C   UNL A   1      37.330  31.428  31.739  1.00  0.00     0.031 C 
ATOM     38  C   UNL A   1      38.979  28.902  27.695  1.00  0.00     0.029 A 
ATOM     39  N   UNL A   1      40.217  28.799  29.552  1.00  0.00    -0.354 N 
ATOM     40  C   UNL A   1      39.134  31.046  33.078  1.00  0.00     0.074 A 
ATOM     41  C   UNL A   1      37.919  31.796  32.865  1.00  0.00     0.031 C 
ATOM     42  C   UNL A   1      40.066  28.168  27.411  1.00  0.00     0.029 A 
ATOM     43  C   UNL A   1      40.904  28.079  28.600  1.00  0.00     0.049 A 
ATOM     44  H   UNL A   1      40.546  28.928  30.470  1.00  0.00     0.167 HD
ATOM     45  C   UNL A   1      39.851  31.081  34.227  1.00  0.00     0.034 A 
ATOM     46  C   UNL A   1      42.072  27.413  28.683  1.00  0.00     0.034 A 
ATOM     47  C   UNL A   1      41.015  30.273  34.463  1.00  0.00     0.049 A 
ATOM     48  C   UNL A   1      42.787  27.371  30.006  1.00  0.00     0.074 A 
ATOM     49  C   UNL A   1      41.751  30.139  35.626  1.00  0.00     0.029 A 
ATOM     50  N   UNL A   1      41.611  29.456  33.516  1.00  0.00    -0.354 N 
ATOM     51  N   UNL A   1      42.465  27.949  31.138  1.00  0.00    -0.248 NA
ATOM     52  C   UNL A   1      43.999  26.544  30.078  1.00  0.00     0.031 C 
ATOM     53  C   UNL A   1      42.804  29.253  35.376  1.00  0.00     0.029 A 
ATOM     54  C   UNL A   1      42.707  28.814  34.066  1.00  0.00     0.049 A 
ATOM     55  H   UNL A   1      41.301  29.347  32.588  1.00  0.00     0.167 HD
ATOM     56  C   UNL A   1      43.414  27.532  32.063  1.00  0.00     0.074 A 
ATOM     57  C   UNL A   1      44.302  26.625  31.366  1.00  0.00     0.031 C 
ATOM     58  C   UNL A   1      43.552  27.880  33.367  1.00  0.00     0.034 A 
BRANCH  45  59
ATOM     59  C   UNL A   1      39.352  31.968  35.340  1.00  0.00     0.023 A 
ATOM     60  C   UNL A   1      38.413  31.467  36.266  1.00  0.00     0.012 A 
ATOM     61  C   UNL A   1      39.841  33.280  35.497  1.00  0.00     0.148 A 
ATOM     62  C   UNL A   1      37.938  32.267  37.303  1.00  0.00     0.002 A 
ATOM     63  C   UNL A   1      39.400  34.055  36.564  1.00  0.00     0.091 A 
ATOM     64  F   UNL A   1      40.715  33.750  34.597  1.00  0.00    -0.205 F 
ATOM     65  C   UNL A   1      38.439  33.557  37.459  1.00  0.00     0.022 A 
BRANCH  63  66
ATOM     66  S   UNL A   1      40.045  35.697  36.904  1.00  0.00     0.127 S 
ATOM     67  O   UNL A   1      39.356  36.033  38.149  1.00  0.00    -0.237 OA
ATOM     68  O   UNL A   1      41.478  35.438  37.052  1.00  0.00    -0.237 OA
ATOM     69  O   UNL A   1      39.690  36.515  35.752  1.00  0.00    -0.744 OA
ENDBRANCH  63  66
ENDBRANCH  45  59
BRANCH  46  70
ATOM     70  C   UNL A   1      42.585  26.654  27.507  1.00  0.00     0.023 A 
ATOM     71  C   UNL A   1      43.457  27.287  26.600  1.00  0.00     0.012 A 
ATOM     72  C   UNL A   1      42.240  25.305  27.296  1.00  0.00     0.148 A 
ATOM     73  C   UNL A   1      43.946  26.605  25.485  1.00  0.00     0.002 A 
ATOM     74  C   UNL A   1      42.775  24.614  26.215  1.00  0.00     0.091 A 
ATOM     75  F   UNL A   1      41.402  24.721  28.164  1.00  0.00    -0.205 F 
ATOM     76  C   UNL A   1      43.614  25.267  25.298  1.00  0.00     0.022 A 
BRANCH  74  77
ATOM     77  S   UNL A   1      42.510  22.853  25.972  1.00  0.00     0.127 S 
ATOM     78  O   UNL A   1      43.084  22.645  24.646  1.00  0.00    -0.237 OA
ATOM     79  O   UNL A   1      43.279  22.276  27.076  1.00  0.00    -0.237 OA
ATOM     80  O   UNL A   1      41.071  22.657  26.080  1.00  0.00    -0.744 OA
ENDBRANCH  74  77
ENDBRANCH  46  70
BRANCH  58  81
ATOM     81  C   UNL A   1      44.687  27.253  34.133  1.00  0.00     0.023 A 
ATOM     82  C   UNL A   1      45.960  27.855  34.117  1.00  0.00     0.012 A 
ATOM     83  C   UNL A   1      44.479  26.091  34.901  1.00  0.00     0.148 A 
ATOM     84  C   UNL A   1      47.022  27.282  34.815  1.00  0.00     0.002 A 
ATOM     85  C   UNL A   1      45.529  25.557  35.636  1.00  0.00     0.091 A 
ATOM     86  F   UNL A   1      43.265  25.521  34.888  1.00  0.00    -0.205 F 
ATOM     87  C   UNL A   1      46.805  26.140  35.583  1.00  0.00     0.022 A 
BRANCH  85  88
ATOM     88  S   UNL A   1      45.305  24.148  36.728  1.00  0.00     0.127 S 
ATOM     89  O   UNL A   1      44.297  24.649  37.659  1.00  0.00    -0.237 OA
ATOM     90  O   UNL A   1      44.829  23.112  35.811  1.00  0.00    -0.237 OA
ATOM     91  O   UNL A   1      46.618  23.882  37.303  1.00  0.00    -0.744 OA
ENDBRANCH  85  88
ENDBRANCH  58  81
ENDBRANCH  32  33
ENDBRANCH  24  27
ENDBRANCH   1  23
TORSDOF 14
ENDMDL
