MODEL 1
REMARK VINA RESULT:     -12.3      0.000      0.000
REMARK SMILES COc1ccccc1-c1ccc(C(=O)NCCCNC(=O)c2ccc(-c3c4nc(c(-c5cccc(S(=O)(=O)[O-])c5F)c5ccc([nH]5)c(-c5cccc(S(=O)(=O)[O-])c5F)c5nc(c(-c6cccc(S(=O)(=O)[O-])c6F)c6ccc3[nH]6)C=C5)C=C4)cc2)c(O)c1
REMARK SMILES IDX 17 1 16 2 15 3 13 4 14 5 12 7 9 8 10 9 87 10 11 11 85 12
REMARK SMILES IDX 8 13 3 14 4 15 5 16 7 17 6 18 2 19 1 20 86 21 18 23 19 24
REMARK SMILES IDX 20 25 21 27 22 28 23 29 84 30 24 31 83 32 25 33 26 34 27 35
REMARK SMILES IDX 77 36 28 37 82 38 76 39 78 40 29 41 81 42 75 43 74 44 30 46
REMARK SMILES IDX 62 47 42 48 61 49 43 50 46 51 60 52 79 53 44 54 45 55 59 57
REMARK SMILES IDX 80 58 47 59 31 60 32 61 40 62 33 63 35 64 41 65 34 66 36 67
REMARK SMILES IDX 37 68 38 69 39 70 63 71 64 72 72 73 65 74 67 75 73 76 66 77
REMARK SMILES IDX 68 78 69 79 70 80 71 81 48 82 49 83 57 84 50 85 52 86 58 87
REMARK SMILES IDX 51 88 53 89 54 90 55 91 56 92
REMARK H PARENT 15 6 86 22 19 26 78 45 46 56
REMARK Flexibility Score: inf
ROOT
ATOM      1  C   UNL A   1      31.435  32.322  26.366  1.00  0.00     0.042 C 
ENDROOT
BRANCH   1   2
ATOM      2  C   UNL A   1      31.367  30.811  26.161  1.00  0.00     0.118 C 
BRANCH   2   3
ATOM      3  N   UNL A   1      30.929  30.484  24.817  1.00  0.00    -0.352 N 
ATOM      4  C   UNL A   1      31.110  29.358  24.054  1.00  0.00     0.255 C 
ATOM      5  O   UNL A   1      30.606  29.345  22.929  1.00  0.00    -0.269 OA
ATOM      6  H   UNL A   1      30.411  31.194  24.373  1.00  0.00     0.163 HD
BRANCH   4   7
ATOM      7  C   UNL A   1      31.763  28.117  24.555  1.00  0.00     0.081 A 
ATOM      8  C   UNL A   1      32.741  25.624  25.471  1.00  0.00    -0.011 A 
ATOM      9  C   UNL A   1      31.484  25.710  24.861  1.00  0.00     0.010 A 
ATOM     10  C   UNL A   1      33.526  26.780  25.556  1.00  0.00     0.055 A 
ATOM     11  C   UNL A   1      31.000  26.944  24.415  1.00  0.00     0.018 A 
ATOM     12  C   UNL A   1      33.052  28.006  25.083  1.00  0.00     0.128 A 
BRANCH   8  13
ATOM     13  C   UNL A   1      33.245  24.361  26.016  1.00  0.00     0.024 A 
ATOM     14  C   UNL A   1      32.497  23.547  26.890  1.00  0.00     0.126 A 
ATOM     15  C   UNL A   1      33.083  22.423  27.482  1.00  0.00     0.047 A 
ATOM     16  C   UNL A   1      34.403  22.077  27.193  1.00  0.00     0.004 A 
ATOM     17  C   UNL A   1      34.574  23.990  25.733  1.00  0.00     0.012 A 
ATOM     18  C   UNL A   1      35.148  22.859  26.318  1.00  0.00     0.001 A 
BRANCH  14  19
ATOM     19  O   UNL A   1      31.223  23.818  27.327  1.00  0.00    -0.496 OA
ATOM     20  C   UNL A   1      30.225  22.918  26.851  1.00  0.00     0.278 C 
ENDBRANCH  14  19
ENDBRANCH   8  13
BRANCH  12  21
ATOM     21  O   UNL A   1      33.909  29.063  25.126  1.00  0.00    -0.507 OA
ATOM     22  H   UNL A   1      33.874  29.665  25.843  1.00  0.00     0.293 HD
ENDBRANCH  12  21
ENDBRANCH   4   7
ENDBRANCH   2   3
ENDBRANCH   1   2
BRANCH   1  23
ATOM     23  C   UNL A   1      32.597  32.777  27.235  1.00  0.00     0.118 C 
BRANCH  23  24
ATOM     24  N   UNL A   1      32.467  34.166  27.640  1.00  0.00    -0.352 N 
ATOM     25  C   UNL A   1      33.085  34.837  28.667  1.00  0.00     0.251 C 
ATOM     26  H   UNL A   1      31.847  34.706  27.099  1.00  0.00     0.163 HD
ATOM     27  O   UNL A   1      32.680  35.955  28.981  1.00  0.00    -0.269 OA
BRANCH  25  28
ATOM     28  C   UNL A   1      34.220  34.228  29.402  1.00  0.00     0.039 A 
ATOM     29  C   UNL A   1      35.519  34.434  28.926  1.00  0.00     0.014 A 
ATOM     30  C   UNL A   1      34.015  33.416  30.523  1.00  0.00     0.014 A 
ATOM     31  C   UNL A   1      36.607  33.858  29.589  1.00  0.00     0.010 A 
ATOM     32  C   UNL A   1      35.103  32.914  31.231  1.00  0.00     0.010 A 
ATOM     33  C   UNL A   1      36.409  33.106  30.757  1.00  0.00    -0.014 A 
BRANCH  33  34
ATOM     34  C   UNL A   1      37.548  32.477  31.475  1.00  0.00     0.031 A 
ATOM     35  C   UNL A   1      38.298  31.334  30.841  1.00  0.00     0.074 A 
ATOM     36  C   UNL A   1      37.860  32.879  32.723  1.00  0.00     0.049 A 
ATOM     37  N   UNL A   1      39.277  30.616  31.329  1.00  0.00    -0.248 NA
ATOM     38  C   UNL A   1      37.871  30.920  29.493  1.00  0.00     0.031 C 
ATOM     39  C   UNL A   1      37.160  33.922  33.475  1.00  0.00     0.029 A 
ATOM     40  N   UNL A   1      38.829  32.440  33.589  1.00  0.00    -0.354 N 
ATOM     41  C   UNL A   1      39.553  29.647  30.372  1.00  0.00     0.074 A 
ATOM     42  C   UNL A   1      38.617  29.845  29.288  1.00  0.00     0.031 C 
ATOM     43  C   UNL A   1      37.723  34.044  34.688  1.00  0.00     0.029 A 
ATOM     44  C   UNL A   1      38.807  33.074  34.810  1.00  0.00     0.049 A 
ATOM     45  H   UNL A   1      39.479  31.738  33.359  1.00  0.00     0.167 HD
ATOM     46  C   UNL A   1      40.521  28.699  30.375  1.00  0.00     0.034 A 
ATOM     47  C   UNL A   1      39.574  32.892  35.904  1.00  0.00     0.034 A 
ATOM     48  C   UNL A   1      41.488  28.545  31.427  1.00  0.00     0.049 A 
ATOM     49  C   UNL A   1      40.684  31.876  35.856  1.00  0.00     0.074 A 
ATOM     50  C   UNL A   1      42.564  27.675  31.488  1.00  0.00     0.029 A 
ATOM     51  N   UNL A   1      41.501  29.281  32.602  1.00  0.00    -0.354 N 
ATOM     52  N   UNL A   1      41.028  31.076  34.877  1.00  0.00    -0.248 NA
ATOM     53  C   UNL A   1      41.537  31.767  37.048  1.00  0.00     0.031 C 
ATOM     54  C   UNL A   1      43.220  27.878  32.706  1.00  0.00     0.029 A 
ATOM     55  C   UNL A   1      42.564  28.887  33.395  1.00  0.00     0.049 A 
ATOM     56  H   UNL A   1      40.850  29.980  32.838  1.00  0.00     0.167 HD
ATOM     57  C   UNL A   1      42.160  30.399  35.317  1.00  0.00     0.074 A 
ATOM     58  C   UNL A   1      42.454  30.898  36.645  1.00  0.00     0.031 C 
ATOM     59  C   UNL A   1      42.882  29.440  34.686  1.00  0.00     0.034 A 
BRANCH  46  60
ATOM     60  C   UNL A   1      40.623  27.795  29.174  1.00  0.00     0.023 A 
ATOM     61  C   UNL A   1      39.797  26.655  29.091  1.00  0.00     0.012 A 
ATOM     62  C   UNL A   1      41.487  28.100  28.104  1.00  0.00     0.148 A 
ATOM     63  C   UNL A   1      39.853  25.813  27.982  1.00  0.00     0.002 A 
ATOM     64  C   UNL A   1      41.505  27.280  26.980  1.00  0.00     0.091 A 
ATOM     65  F   UNL A   1      42.280  29.176  28.207  1.00  0.00    -0.205 F 
ATOM     66  C   UNL A   1      40.699  26.132  26.923  1.00  0.00     0.022 A 
BRANCH  64  67
ATOM     67  S   UNL A   1      42.501  27.646  25.529  1.00  0.00     0.127 S 
ATOM     68  O   UNL A   1      41.921  28.912  25.084  1.00  0.00    -0.237 OA
ATOM     69  O   UNL A   1      43.845  27.757  26.098  1.00  0.00    -0.237 OA
ATOM     70  O   UNL A   1      42.318  26.520  24.624  1.00  0.00    -0.744 OA
ENDBRANCH  64  67
ENDBRANCH  46  60
BRANCH  47  71
ATOM     71  C   UNL A   1      39.372  33.751  37.105  1.00  0.00     0.023 A 
ATOM     72  C   UNL A   1      39.822  35.086  37.082  1.00  0.00     0.012 A 
ATOM     73  C   UNL A   1      38.715  33.269  38.255  1.00  0.00     0.148 A 
ATOM     74  C   UNL A   1      39.653  35.915  38.192  1.00  0.00     0.002 A 
ATOM     75  C   UNL A   1      38.502  34.116  39.337  1.00  0.00     0.091 A 
ATOM     76  F   UNL A   1      38.305  31.992  38.264  1.00  0.00    -0.205 F 
ATOM     77  C   UNL A   1      38.985  35.434  39.314  1.00  0.00     0.022 A 
BRANCH  75  78
ATOM     78  S   UNL A   1      37.533  33.620  40.767  1.00  0.00     0.127 S 
ATOM     79  O   UNL A   1      38.404  32.621  41.384  1.00  0.00    -0.237 OA
ATOM     80  O   UNL A   1      37.419  34.877  41.508  1.00  0.00    -0.237 OA
ATOM     81  O   UNL A   1      36.274  33.125  40.233  1.00  0.00    -0.744 OA
ENDBRANCH  75  78
ENDBRANCH  47  71
BRANCH  59  82
ATOM     82  C   UNL A   1      44.090  28.892  35.398  1.00  0.00     0.023 A 
ATOM     83  C   UNL A   1      45.346  29.503  35.220  1.00  0.00     0.012 A 
ATOM     84  C   UNL A   1      43.963  27.821  36.305  1.00  0.00     0.148 A 
ATOM     85  C   UNL A   1      46.464  29.037  35.911  1.00  0.00     0.002 A 
ATOM     86  C   UNL A   1      45.070  27.393  37.025  1.00  0.00     0.091 A 
ATOM     87  F   UNL A   1      42.762  27.239  36.445  1.00  0.00    -0.205 F 
ATOM     88  C   UNL A   1      46.324  27.992  36.821  1.00  0.00     0.022 A 
BRANCH  86  89
ATOM     89  S   UNL A   1      44.960  26.120  38.288  1.00  0.00     0.127 S 
ATOM     90  O   UNL A   1      43.983  26.697  39.210  1.00  0.00    -0.237 OA
ATOM     91  O   UNL A   1      44.475  24.967  37.529  1.00  0.00    -0.237 OA
ATOM     92  O   UNL A   1      46.309  25.967  38.818  1.00  0.00    -0.744 OA
ENDBRANCH  86  89
ENDBRANCH  59  82
ENDBRANCH  33  34
ENDBRANCH  25  28
ENDBRANCH  23  24
ENDBRANCH   1  23
TORSDOF 16
ENDMDL
MODEL 2
REMARK VINA RESULT:     -12.1      3.559      8.822
REMARK SMILES COc1ccccc1-c1ccc(C(=O)NCCCNC(=O)c2ccc(-c3c4nc(c(-c5cccc(S(=O)(=O)[O-])c5F)c5ccc([nH]5)c(-c5cccc(S(=O)(=O)[O-])c5F)c5nc(c(-c6cccc(S(=O)(=O)[O-])c6F)c6ccc3[nH]6)C=C5)C=C4)cc2)c(O)c1
REMARK SMILES IDX 17 1 16 2 15 3 13 4 14 5 12 7 9 8 10 9 87 10 11 11 85 12
REMARK SMILES IDX 8 13 3 14 4 15 5 16 7 17 6 18 2 19 1 20 86 21 18 23 19 24
REMARK SMILES IDX 20 25 21 27 22 28 23 29 84 30 24 31 83 32 25 33 26 34 27 35
REMARK SMILES IDX 77 36 28 37 82 38 76 39 78 40 29 41 81 42 75 43 74 44 30 46
REMARK SMILES IDX 62 47 42 48 61 49 43 50 46 51 60 52 79 53 44 54 45 55 59 57
REMARK SMILES IDX 80 58 47 59 31 60 32 61 40 62 33 63 35 64 41 65 34 66 36 67
REMARK SMILES IDX 37 68 38 69 39 70 63 71 64 72 72 73 65 74 67 75 73 76 66 77
REMARK SMILES IDX 68 78 69 79 70 80 71 81 48 82 49 83 57 84 50 85 52 86 58 87
REMARK SMILES IDX 51 88 53 89 54 90 55 91 56 92
REMARK H PARENT 15 6 86 22 19 26 78 45 46 56
REMARK Flexibility Score: inf
ROOT
ATOM      1  C   UNL A   1      32.016  28.103  27.153  1.00  0.00     0.042 C 
ENDROOT
BRANCH   1   2
ATOM      2  C   UNL A   1      31.614  27.418  25.849  1.00  0.00     0.118 C 
BRANCH   2   3
ATOM      3  N   UNL A   1      32.279  28.024  24.711  1.00  0.00    -0.352 N 
ATOM      4  C   UNL A   1      33.252  27.547  23.870  1.00  0.00     0.255 C 
ATOM      5  O   UNL A   1      33.630  28.286  22.959  1.00  0.00    -0.269 OA
ATOM      6  H   UNL A   1      31.979  28.940  24.505  1.00  0.00     0.163 HD
BRANCH   4   7
ATOM      7  C   UNL A   1      33.775  26.155  23.918  1.00  0.00     0.081 A 
ATOM      8  C   UNL A   1      34.862  23.567  24.288  1.00  0.00    -0.011 A 
ATOM      9  C   UNL A   1      34.731  24.441  25.373  1.00  0.00     0.010 A 
ATOM     10  C   UNL A   1      34.384  23.975  23.037  1.00  0.00     0.055 A 
ATOM     11  C   UNL A   1      34.200  25.721  25.187  1.00  0.00     0.018 A 
ATOM     12  C   UNL A   1      33.826  25.243  22.860  1.00  0.00     0.128 A 
BRANCH   8  13
ATOM     13  C   UNL A   1      35.483  22.249  24.434  1.00  0.00     0.024 A 
ATOM     14  C   UNL A   1      34.743  21.071  24.660  1.00  0.00     0.126 A 
ATOM     15  C   UNL A   1      35.402  19.865  24.924  1.00  0.00     0.047 A 
ATOM     16  C   UNL A   1      36.795  19.806  24.938  1.00  0.00     0.004 A 
ATOM     17  C   UNL A   1      36.889  22.165  24.447  1.00  0.00     0.012 A 
ATOM     18  C   UNL A   1      37.539  20.955  24.698  1.00  0.00     0.001 A 
BRANCH  14  19
ATOM     19  O   UNL A   1      33.375  21.003  24.761  1.00  0.00    -0.496 OA
ATOM     20  C   UNL A   1      32.875  19.776  25.285  1.00  0.00     0.278 C 
ENDBRANCH  14  19
ENDBRANCH   8  13
BRANCH  12  21
ATOM     21  O   UNL A   1      33.309  25.531  21.634  1.00  0.00    -0.507 OA
ATOM     22  H   UNL A   1      32.390  25.681  21.537  1.00  0.00     0.293 HD
ENDBRANCH  12  21
ENDBRANCH   4   7
ENDBRANCH   2   3
ENDBRANCH   1   2
BRANCH   1  23
ATOM     23  C   UNL A   1      33.437  28.642  27.156  1.00  0.00     0.118 C 
BRANCH  23  24
ATOM     24  N   UNL A   1      33.472  30.093  27.234  1.00  0.00    -0.352 N 
ATOM     25  C   UNL A   1      34.411  30.913  27.809  1.00  0.00     0.251 C 
ATOM     26  H   UNL A   1      32.713  30.555  26.812  1.00  0.00     0.163 HD
ATOM     27  O   UNL A   1      34.153  32.106  27.960  1.00  0.00    -0.269 OA
BRANCH  25  28
ATOM     28  C   UNL A   1      35.719  30.377  28.258  1.00  0.00     0.039 A 
ATOM     29  C   UNL A   1      35.811  29.803  29.530  1.00  0.00     0.014 A 
ATOM     30  C   UNL A   1      36.864  30.479  27.461  1.00  0.00     0.014 A 
ATOM     31  C   UNL A   1      37.036  29.305  29.986  1.00  0.00     0.010 A 
ATOM     32  C   UNL A   1      38.062  29.907  27.881  1.00  0.00     0.010 A 
ATOM     33  C   UNL A   1      38.168  29.339  29.158  1.00  0.00    -0.014 A 
BRANCH  33  34
ATOM     34  C   UNL A   1      39.483  28.823  29.622  1.00  0.00     0.031 A 
ATOM     35  C   UNL A   1      40.220  29.530  30.730  1.00  0.00     0.074 A 
ATOM     36  C   UNL A   1      40.048  27.769  29.001  1.00  0.00     0.049 A 
ATOM     37  N   UNL A   1      41.399  29.272  31.234  1.00  0.00    -0.248 NA
ATOM     38  C   UNL A   1      39.557  30.701  31.332  1.00  0.00     0.031 C 
ATOM     39  C   UNL A   1      39.472  27.047  27.865  1.00  0.00     0.029 A 
ATOM     40  N   UNL A   1      41.248  27.139  29.220  1.00  0.00    -0.354 N 
ATOM     41  C   UNL A   1      41.637  30.268  32.176  1.00  0.00     0.074 A 
ATOM     42  C   UNL A   1      40.495  31.154  32.151  1.00  0.00     0.031 C 
ATOM     43  C   UNL A   1      40.315  26.072  27.489  1.00  0.00     0.029 A 
ATOM     44  C   UNL A   1      41.501  26.114  28.338  1.00  0.00     0.049 A 
ATOM     45  H   UNL A   1      41.867  27.396  29.940  1.00  0.00     0.167 HD
ATOM     46  C   UNL A   1      42.693  30.413  33.012  1.00  0.00     0.034 A 
ATOM     47  C   UNL A   1      42.571  25.301  28.227  1.00  0.00     0.034 A 
ATOM     48  C   UNL A   1      43.797  29.495  33.075  1.00  0.00     0.049 A 
ATOM     49  C   UNL A   1      43.701  25.443  29.211  1.00  0.00     0.074 A 
ATOM     50  C   UNL A   1      44.873  29.501  33.946  1.00  0.00     0.029 A 
ATOM     51  N   UNL A   1      43.966  28.403  32.237  1.00  0.00    -0.354 N 
ATOM     52  N   UNL A   1      43.833  26.296  30.198  1.00  0.00    -0.248 NA
ATOM     53  C   UNL A   1      44.811  24.486  29.093  1.00  0.00     0.031 C 
ATOM     54  C   UNL A   1      45.699  28.419  33.626  1.00  0.00     0.029 A 
ATOM     55  C   UNL A   1      45.127  27.728  32.569  1.00  0.00     0.049 A 
ATOM     56  H   UNL A   1      43.351  28.147  31.513  1.00  0.00     0.167 HD
ATOM     57  C   UNL A   1      45.016  25.953  30.842  1.00  0.00     0.074 A 
ATOM     58  C   UNL A   1      45.553  24.802  30.144  1.00  0.00     0.031 C 
ATOM     59  C   UNL A   1      45.612  26.545  31.906  1.00  0.00     0.034 A 
BRANCH  46  60
ATOM     60  C   UNL A   1      42.673  31.574  33.972  1.00  0.00     0.023 A 
ATOM     61  C   UNL A   1      43.146  32.833  33.549  1.00  0.00     0.012 A 
ATOM     62  C   UNL A   1      42.137  31.438  35.268  1.00  0.00     0.148 A 
ATOM     63  C   UNL A   1      43.119  33.930  34.408  1.00  0.00     0.002 A 
ATOM     64  C   UNL A   1      42.073  32.547  36.104  1.00  0.00     0.091 A 
ATOM     65  F   UNL A   1      41.711  30.230  35.662  1.00  0.00    -0.205 F 
ATOM     66  C   UNL A   1      42.573  33.790  35.680  1.00  0.00     0.022 A 
BRANCH  64  67
ATOM     67  S   UNL A   1      41.316  32.491  37.734  1.00  0.00     0.127 S 
ATOM     68  O   UNL A   1      41.375  33.896  38.135  1.00  0.00    -0.237 OA
ATOM     69  O   UNL A   1      39.970  32.000  37.432  1.00  0.00    -0.237 OA
ATOM     70  O   UNL A   1      42.131  31.578  38.523  1.00  0.00    -0.744 OA
ENDBRANCH  64  67
ENDBRANCH  46  60
BRANCH  47  71
ATOM     71  C   UNL A   1      42.583  24.224  27.196  1.00  0.00     0.023 A 
ATOM     72  C   UNL A   1      43.216  24.461  25.959  1.00  0.00     0.012 A 
ATOM     73  C   UNL A   1      42.002  22.964  27.438  1.00  0.00     0.148 A 
ATOM     74  C   UNL A   1      43.241  23.477  24.971  1.00  0.00     0.002 A 
ATOM     75  C   UNL A   1      42.078  21.969  26.469  1.00  0.00     0.091 A 
ATOM     76  F   UNL A   1      41.393  22.760  28.615  1.00  0.00    -0.205 F 
ATOM     77  C   UNL A   1      42.681  22.229  25.229  1.00  0.00     0.022 A 
BRANCH  75  78
ATOM     78  S   UNL A   1      41.503  20.293  26.770  1.00  0.00     0.127 S 
ATOM     79  O   UNL A   1      40.085  20.510  27.048  1.00  0.00    -0.237 OA
ATOM     80  O   UNL A   1      41.785  19.640  25.489  1.00  0.00    -0.237 OA
ATOM     81  O   UNL A   1      42.302  19.799  27.879  1.00  0.00    -0.744 OA
ENDBRANCH  75  78
ENDBRANCH  47  71
BRANCH  59  82
ATOM     82  C   UNL A   1      46.893  25.940  32.417  1.00  0.00     0.023 A 
ATOM     83  C   UNL A   1      48.131  26.409  31.936  1.00  0.00     0.012 A 
ATOM     84  C   UNL A   1      46.870  24.964  33.433  1.00  0.00     0.148 A 
ATOM     85  C   UNL A   1      49.326  25.893  32.436  1.00  0.00     0.002 A 
ATOM     86  C   UNL A   1      48.064  24.489  33.959  1.00  0.00     0.091 A 
ATOM     87  F   UNL A   1      45.681  24.515  33.863  1.00  0.00    -0.205 F 
ATOM     88  C   UNL A   1      49.293  24.943  33.455  1.00  0.00     0.022 A 
BRANCH  86  89
ATOM     89  S   UNL A   1      48.114  23.338  35.338  1.00  0.00     0.127 S 
ATOM     90  O   UNL A   1      47.635  22.105  34.716  1.00  0.00    -0.237 OA
ATOM     91  O   UNL A   1      49.534  23.332  35.690  1.00  0.00    -0.237 OA
ATOM     92  O   UNL A   1      47.243  23.904  36.360  1.00  0.00    -0.744 OA
ENDBRANCH  86  89
ENDBRANCH  59  82
ENDBRANCH  33  34
ENDBRANCH  25  28
ENDBRANCH  23  24
ENDBRANCH   1  23
TORSDOF 16
ENDMDL
MODEL 3
REMARK VINA RESULT:     -12.1      2.482      3.335
REMARK SMILES COc1ccccc1-c1ccc(C(=O)NCCCNC(=O)c2ccc(-c3c4nc(c(-c5cccc(S(=O)(=O)[O-])c5F)c5ccc([nH]5)c(-c5cccc(S(=O)(=O)[O-])c5F)c5nc(c(-c6cccc(S(=O)(=O)[O-])c6F)c6ccc3[nH]6)C=C5)C=C4)cc2)c(O)c1
REMARK SMILES IDX 17 1 16 2 15 3 13 4 14 5 12 7 9 8 10 9 87 10 11 11 85 12
REMARK SMILES IDX 8 13 3 14 4 15 5 16 7 17 6 18 2 19 1 20 86 21 18 23 19 24
REMARK SMILES IDX 20 25 21 27 22 28 23 29 84 30 24 31 83 32 25 33 26 34 27 35
REMARK SMILES IDX 77 36 28 37 82 38 76 39 78 40 29 41 81 42 75 43 74 44 30 46
REMARK SMILES IDX 62 47 42 48 61 49 43 50 46 51 60 52 79 53 44 54 45 55 59 57
REMARK SMILES IDX 80 58 47 59 31 60 32 61 40 62 33 63 35 64 41 65 34 66 36 67
REMARK SMILES IDX 37 68 38 69 39 70 63 71 64 72 72 73 65 74 67 75 73 76 66 77
REMARK SMILES IDX 68 78 69 79 70 80 71 81 48 82 49 83 57 84 50 85 52 86 58 87
REMARK SMILES IDX 51 88 53 89 54 90 55 91 56 92
REMARK H PARENT 15 6 86 22 19 26 78 45 46 56
REMARK Flexibility Score: inf
ROOT
ATOM      1  C   UNL A   1      31.695  28.545  25.073  1.00  0.00     0.042 C 
ENDROOT
BRANCH   1   2
ATOM      2  C   UNL A   1      31.341  28.354  23.601  1.00  0.00     0.118 C 
BRANCH   2   3
ATOM      3  N   UNL A   1      32.503  28.539  22.753  1.00  0.00    -0.352 N 
ATOM      4  C   UNL A   1      33.506  27.677  22.389  1.00  0.00     0.255 C 
ATOM      5  O   UNL A   1      34.378  28.105  21.631  1.00  0.00    -0.269 OA
ATOM      6  H   UNL A   1      32.588  29.443  22.371  1.00  0.00     0.163 HD
BRANCH   4   7
ATOM      7  C   UNL A   1      33.527  26.234  22.753  1.00  0.00     0.081 A 
ATOM      8  C   UNL A   1      33.675  23.574  23.710  1.00  0.00    -0.011 A 
ATOM      9  C   UNL A   1      33.859  24.651  24.584  1.00  0.00     0.010 A 
ATOM     10  C   UNL A   1      33.352  23.841  22.374  1.00  0.00     0.055 A 
ATOM     11  C   UNL A   1      33.792  25.964  24.108  1.00  0.00     0.018 A 
ATOM     12  C   UNL A   1      33.256  25.155  21.907  1.00  0.00     0.128 A 
BRANCH   8  13
ATOM     13  C   UNL A   1      33.814  22.187  24.160  1.00  0.00     0.024 A 
ATOM     14  C   UNL A   1      35.019  21.658  24.661  1.00  0.00     0.126 A 
ATOM     15  C   UNL A   1      35.124  20.292  24.949  1.00  0.00     0.047 A 
ATOM     16  C   UNL A   1      34.032  19.444  24.771  1.00  0.00     0.004 A 
ATOM     17  C   UNL A   1      32.721  21.314  23.994  1.00  0.00     0.012 A 
ATOM     18  C   UNL A   1      32.829  19.955  24.295  1.00  0.00     0.001 A 
BRANCH  14  19
ATOM     19  O   UNL A   1      36.193  22.358  24.801  1.00  0.00    -0.496 OA
ATOM     20  C   UNL A   1      37.375  21.577  24.646  1.00  0.00     0.278 C 
ENDBRANCH  14  19
ENDBRANCH   8  13
BRANCH  12  21
ATOM     21  O   UNL A   1      32.855  25.330  20.619  1.00  0.00    -0.507 OA
ATOM     22  H   UNL A   1      32.273  24.713  20.221  1.00  0.00     0.293 HD
ENDBRANCH  12  21
ENDBRANCH   4   7
ENDBRANCH   2   3
ENDBRANCH   1   2
BRANCH   1  23
ATOM     23  C   UNL A   1      32.823  29.535  25.315  1.00  0.00     0.118 C 
BRANCH  23  24
ATOM     24  N   UNL A   1      32.331  30.827  25.762  1.00  0.00    -0.352 N 
ATOM     25  C   UNL A   1      32.740  31.596  26.823  1.00  0.00     0.251 C 
ATOM     26  H   UNL A   1      31.600  31.208  25.225  1.00  0.00     0.163 HD
ATOM     27  O   UNL A   1      32.055  32.559  27.164  1.00  0.00    -0.269 OA
BRANCH  25  28
ATOM     28  C   UNL A   1      33.983  31.275  27.564  1.00  0.00     0.039 A 
ATOM     29  C   UNL A   1      34.211  29.951  27.955  1.00  0.00     0.014 A 
ATOM     30  C   UNL A   1      34.901  32.268  27.920  1.00  0.00     0.014 A 
ATOM     31  C   UNL A   1      35.366  29.621  28.670  1.00  0.00     0.010 A 
ATOM     32  C   UNL A   1      36.092  31.925  28.556  1.00  0.00     0.010 A 
ATOM     33  C   UNL A   1      36.325  30.603  28.963  1.00  0.00    -0.014 A 
BRANCH  33  34
ATOM     34  C   UNL A   1      37.558  30.280  29.727  1.00  0.00     0.031 A 
ATOM     35  C   UNL A   1      38.589  29.355  29.133  1.00  0.00     0.074 A 
ATOM     36  C   UNL A   1      37.715  30.752  30.979  1.00  0.00     0.049 A 
ATOM     37  N   UNL A   1      39.698  28.906  29.663  1.00  0.00    -0.248 NA
ATOM     38  C   UNL A   1      38.326  28.844  27.777  1.00  0.00     0.031 C 
ATOM     39  C   UNL A   1      36.752  31.592  31.694  1.00  0.00     0.029 A 
ATOM     40  N   UNL A   1      38.732  30.571  31.883  1.00  0.00    -0.354 N 
ATOM     41  C   UNL A   1      40.240  28.031  28.728  1.00  0.00     0.074 A 
ATOM     42  C   UNL A   1      39.322  27.986  27.611  1.00  0.00     0.031 C 
ATOM     43  C   UNL A   1      37.225  31.855  32.923  1.00  0.00     0.029 A 
ATOM     44  C   UNL A   1      38.510  31.185  33.094  1.00  0.00     0.049 A 
ATOM     45  H   UNL A   1      39.543  30.051  31.683  1.00  0.00     0.167 HD
ATOM     46  C   UNL A   1      41.411  27.353  28.776  1.00  0.00     0.034 A 
ATOM     47  C   UNL A   1      39.259  31.204  34.215  1.00  0.00     0.034 A 
ATOM     48  C   UNL A   1      42.349  27.448  29.861  1.00  0.00     0.049 A 
ATOM     49  C   UNL A   1      40.587  30.495  34.217  1.00  0.00     0.074 A 
ATOM     50  C   UNL A   1      43.603  26.873  29.969  1.00  0.00     0.029 A 
ATOM     51  N   UNL A   1      42.137  28.169  31.026  1.00  0.00    -0.354 N 
ATOM     52  N   UNL A   1      41.153  29.800  33.260  1.00  0.00    -0.248 NA
ATOM     53  C   UNL A   1      41.398  30.606  35.438  1.00  0.00     0.031 C 
ATOM     54  C   UNL A   1      44.144  27.237  31.206  1.00  0.00     0.029 A 
ATOM     55  C   UNL A   1      43.236  28.055  31.859  1.00  0.00     0.049 A 
ATOM     56  H   UNL A   1      41.325  28.686  31.231  1.00  0.00     0.167 HD
ATOM     57  C   UNL A   1      42.401  29.427  33.747  1.00  0.00     0.074 A 
ATOM     58  C   UNL A   1      42.515  29.989  35.077  1.00  0.00     0.031 C 
ATOM     59  C   UNL A   1      43.360  28.675  33.152  1.00  0.00     0.034 A 
BRANCH  46  60
ATOM     60  C   UNL A   1      41.776  26.497  27.590  1.00  0.00     0.023 A 
ATOM     61  C   UNL A   1      42.397  27.090  26.472  1.00  0.00     0.012 A 
ATOM     62  C   UNL A   1      41.560  25.106  27.601  1.00  0.00     0.148 A 
ATOM     63  C   UNL A   1      42.766  26.321  25.369  1.00  0.00     0.002 A 
ATOM     64  C   UNL A   1      41.971  24.337  26.517  1.00  0.00     0.091 A 
ATOM     65  F   UNL A   1      40.950  24.560  28.663  1.00  0.00    -0.205 F 
ATOM     66  C   UNL A   1      42.563  24.945  25.398  1.00  0.00     0.022 A 
BRANCH  64  67
ATOM     67  S   UNL A   1      41.827  22.546  26.488  1.00  0.00     0.127 S 
ATOM     68  O   UNL A   1      40.376  22.367  26.455  1.00  0.00    -0.237 OA
ATOM     69  O   UNL A   1      42.511  22.203  25.239  1.00  0.00    -0.237 OA
ATOM     70  O   UNL A   1      42.491  22.070  27.692  1.00  0.00    -0.744 OA
ENDBRANCH  64  67
ENDBRANCH  46  60
BRANCH  47  71
ATOM     71  C   UNL A   1      38.808  31.991  35.398  1.00  0.00     0.023 A 
ATOM     72  C   UNL A   1      38.932  33.394  35.380  1.00  0.00     0.012 A 
ATOM     73  C   UNL A   1      38.233  31.367  36.523  1.00  0.00     0.148 A 
ATOM     74  C   UNL A   1      38.525  34.160  36.473  1.00  0.00     0.002 A 
ATOM     75  C   UNL A   1      37.778  32.141  37.586  1.00  0.00     0.091 A 
ATOM     76  F   UNL A   1      38.133  30.031  36.527  1.00  0.00    -0.205 F 
ATOM     77  C   UNL A   1      37.939  33.535  37.570  1.00  0.00     0.022 A 
BRANCH  75  78
ATOM     78  S   UNL A   1      36.891  31.430  38.977  1.00  0.00     0.127 S 
ATOM     79  O   UNL A   1      36.610  30.080  38.493  1.00  0.00    -0.237 OA
ATOM     80  O   UNL A   1      37.890  31.504  40.045  1.00  0.00    -0.237 OA
ATOM     81  O   UNL A   1      35.734  32.287  39.182  1.00  0.00    -0.744 OA
ENDBRANCH  75  78
ENDBRANCH  47  71
BRANCH  59  82
ATOM     82  C   UNL A   1      44.640  28.447  33.911  1.00  0.00     0.023 A 
ATOM     83  C   UNL A   1      45.692  29.379  33.811  1.00  0.00     0.012 A 
ATOM     84  C   UNL A   1      44.769  27.350  34.786  1.00  0.00     0.148 A 
ATOM     85  C   UNL A   1      46.863  29.207  34.546  1.00  0.00     0.002 A 
ATOM     86  C   UNL A   1      45.920  27.210  35.551  1.00  0.00     0.091 A 
ATOM     87  F   UNL A   1      43.765  26.462  34.853  1.00  0.00    -0.205 F 
ATOM     88  C   UNL A   1      46.973  28.131  35.424  1.00  0.00     0.022 A 
BRANCH  86  89
ATOM     89  S   UNL A   1      46.105  25.910  36.777  1.00  0.00     0.127 S 
ATOM     90  O   UNL A   1      44.976  26.176  37.668  1.00  0.00    -0.237 OA
ATOM     91  O   UNL A   1      45.972  24.697  35.970  1.00  0.00    -0.237 OA
ATOM     92  O   UNL A   1      47.425  26.102  37.364  1.00  0.00    -0.744 OA
ENDBRANCH  86  89
ENDBRANCH  59  82
ENDBRANCH  33  34
ENDBRANCH  25  28
ENDBRANCH  23  24
ENDBRANCH   1  23
TORSDOF 16
ENDMDL
