MODEL 1
REMARK VINA RESULT:     -11.7      0.000      0.000
REMARK SMILES O=C(CN(Cc1ccccc1Cl)S(=O)(=O)c1ccc(Cl)cc1)NCCCNC(=O)c1ccc(-c2c3nc(c(-c4cccc(S(=O)(=O)[O-])c4F)c4ccc([nH]4)c(-c4cccc(S(=O)(=O)[O-])c4F)c4nc(c(-c5cccc(S(=O)(=O)[O-])c5F)c5ccc2[nH]5)C=C4)C=C3)cc1
REMARK SMILES IDX 25 1 24 2 23 3 1 4 2 5 3 7 4 8 5 9 6 10 7 11 11 12 8 13
REMARK SMILES IDX 10 14 12 15 9 16 13 17 14 18 15 19 16 20 17 21 22 22 18 23
REMARK SMILES IDX 21 24 19 25 20 26 26 27 27 28 28 29 29 31 30 32 31 33 92 34
REMARK SMILES IDX 32 35 91 36 33 37 34 38 35 39 85 40 36 41 90 42 84 43 86 44
REMARK SMILES IDX 37 45 89 46 83 47 82 48 38 50 70 51 50 52 69 53 51 54 54 55
REMARK SMILES IDX 68 56 87 57 52 58 53 59 67 61 88 62 55 63 39 64 40 65 48 66
REMARK SMILES IDX 41 67 43 68 49 69 42 70 44 71 45 72 46 73 47 74 71 75 72 76
REMARK SMILES IDX 80 77 73 78 75 79 81 80 74 81 76 82 77 83 78 84 79 85 56 86
REMARK SMILES IDX 57 87 65 88 58 89 60 90 66 91 59 92 61 93 62 94 63 95 64 96
REMARK H PARENT 23 6 27 30 86 49 54 60
REMARK Flexibility Score: inf
ROOT
ATOM      1  C   UNL A   1      36.251  23.141  24.317  1.00  0.00     0.042 C 
ENDROOT
BRANCH   1   2
ATOM      2  C   UNL A   1      35.084  22.174  24.187  1.00  0.00     0.117 C 
BRANCH   2   3
ATOM      3  N   UNL A   1      33.804  22.776  24.510  1.00  0.00    -0.355 N 
ATOM      4  O   UNL A   1      32.523  21.219  23.403  1.00  0.00    -0.274 OA
ATOM      5  C   UNL A   1      32.610  22.183  24.162  1.00  0.00     0.235 C 
ATOM      6  H   UNL A   1      33.788  23.635  24.990  1.00  0.00     0.163 HD
BRANCH   5   7
ATOM      7  C   UNL A   1      31.377  22.857  24.734  1.00  0.00     0.202 C 
BRANCH   7   8
ATOM      8  N   UNL A   1      31.303  24.360  24.768  1.00  0.00    -0.184 NA
BRANCH   8   9
ATOM      9  C   UNL A   1      30.727  24.878  23.492  1.00  0.00     0.140 C 
BRANCH   9  10
ATOM     10  C   UNL A   1      30.763  26.371  23.187  1.00  0.00    -0.014 A 
ATOM     11  C   UNL A   1      29.651  27.196  23.427  1.00  0.00     0.006 A 
ATOM     12  C   UNL A   1      31.931  27.014  22.729  1.00  0.00     0.045 A 
ATOM     13  C   UNL A   1      29.669  28.571  23.177  1.00  0.00     0.000 A 
ATOM     14  C   UNL A   1      31.954  28.396  22.481  1.00  0.00     0.021 A 
ATOM     15  Cl  UNL A   1      33.415  26.166  22.468  1.00  0.00    -0.084 Cl
ATOM     16  C   UNL A   1      30.820  29.173  22.698  1.00  0.00     0.002 A 
ENDBRANCH   9  10
ENDBRANCH   8   9
BRANCH   8  17
ATOM     17  S   UNL A   1      30.967  25.048  26.287  1.00  0.00     0.243 S 
ATOM     18  O   UNL A   1      29.573  25.435  26.342  1.00  0.00    -0.207 OA
ATOM     19  O   UNL A   1      31.502  24.142  27.277  1.00  0.00    -0.207 OA
BRANCH  17  20
ATOM     20  C   UNL A   1      31.916  26.554  26.480  1.00  0.00     0.082 A 
ATOM     21  C   UNL A   1      31.424  27.645  27.202  1.00  0.00     0.023 A 
ATOM     22  C   UNL A   1      33.248  26.562  26.039  1.00  0.00     0.023 A 
ATOM     23  C   UNL A   1      32.228  28.771  27.405  1.00  0.00     0.022 A 
ATOM     24  C   UNL A   1      34.065  27.670  26.285  1.00  0.00     0.022 A 
ATOM     25  C   UNL A   1      33.546  28.776  26.952  1.00  0.00     0.041 A 
ATOM     26  Cl  UNL A   1      34.547  30.143  27.252  1.00  0.00    -0.084 Cl
ENDBRANCH  17  20
ENDBRANCH   8  17
ENDBRANCH   7   8
ENDBRANCH   5   7
ENDBRANCH   2   3
ENDBRANCH   1   2
BRANCH   1  27
ATOM     27  C   UNL A   1      36.815  23.277  25.728  1.00  0.00     0.118 C 
BRANCH  27  28
ATOM     28  N   UNL A   1      37.981  22.439  25.976  1.00  0.00    -0.352 N 
ATOM     29  C   UNL A   1      39.220  22.765  26.475  1.00  0.00     0.251 C 
ATOM     30  H   UNL A   1      37.863  21.489  25.748  1.00  0.00     0.163 HD
ATOM     31  O   UNL A   1      40.102  21.911  26.500  1.00  0.00    -0.269 OA
BRANCH  29  32
ATOM     32  C   UNL A   1      39.511  24.136  26.956  1.00  0.00     0.039 A 
ATOM     33  C   UNL A   1      39.231  24.452  28.290  1.00  0.00     0.014 A 
ATOM     34  C   UNL A   1      40.037  25.113  26.108  1.00  0.00     0.014 A 
ATOM     35  C   UNL A   1      39.547  25.720  28.789  1.00  0.00     0.010 A 
ATOM     36  C   UNL A   1      40.416  26.352  26.623  1.00  0.00     0.010 A 
ATOM     37  C   UNL A   1      40.178  26.669  27.969  1.00  0.00    -0.014 A 
BRANCH  37  38
ATOM     38  C   UNL A   1      40.620  27.984  28.505  1.00  0.00     0.031 A 
ATOM     39  C   UNL A   1      42.083  28.281  28.694  1.00  0.00     0.074 A 
ATOM     40  C   UNL A   1      39.697  28.877  28.918  1.00  0.00     0.049 A 
ATOM     41  N   UNL A   1      42.650  29.340  29.215  1.00  0.00    -0.248 NA
ATOM     42  C   UNL A   1      43.035  27.243  28.267  1.00  0.00     0.031 C 
ATOM     43  C   UNL A   1      38.248  28.679  28.868  1.00  0.00     0.029 A 
ATOM     44  N   UNL A   1      39.843  30.117  29.490  1.00  0.00    -0.354 N 
ATOM     45  C   UNL A   1      44.015  29.081  29.215  1.00  0.00     0.074 A 
ATOM     46  C   UNL A   1      44.192  27.754  28.665  1.00  0.00     0.031 C 
ATOM     47  C   UNL A   1      37.638  29.757  29.388  1.00  0.00     0.029 A 
ATOM     48  C   UNL A   1      38.649  30.712  29.830  1.00  0.00     0.049 A 
ATOM     49  H   UNL A   1      40.719  30.541  29.642  1.00  0.00     0.167 HD
ATOM     50  C   UNL A   1      45.032  29.886  29.606  1.00  0.00     0.034 A 
ATOM     51  C   UNL A   1      38.397  31.890  30.432  1.00  0.00     0.034 A 
ATOM     52  C   UNL A   1      44.862  31.227  30.096  1.00  0.00     0.049 A 
ATOM     53  C   UNL A   1      39.546  32.788  30.803  1.00  0.00     0.074 A 
ATOM     54  C   UNL A   1      45.836  32.152  30.426  1.00  0.00     0.029 A 
ATOM     55  N   UNL A   1      43.638  31.835  30.328  1.00  0.00    -0.354 N 
ATOM     56  N   UNL A   1      40.831  32.593  30.638  1.00  0.00    -0.248 NA
ATOM     57  C   UNL A   1      39.208  34.086  31.408  1.00  0.00     0.031 C 
ATOM     58  C   UNL A   1      45.201  33.319  30.865  1.00  0.00     0.029 A 
ATOM     59  C   UNL A   1      43.831  33.123  30.800  1.00  0.00     0.049 A 
ATOM     60  H   UNL A   1      42.761  31.414  30.181  1.00  0.00     0.167 HD
ATOM     61  C   UNL A   1      41.453  33.752  31.088  1.00  0.00     0.074 A 
ATOM     62  C   UNL A   1      40.403  34.654  31.510  1.00  0.00     0.031 C 
ATOM     63  C   UNL A   1      42.777  34.035  31.160  1.00  0.00     0.034 A 
BRANCH  50  64
ATOM     64  C   UNL A   1      46.435  29.360  29.453  1.00  0.00     0.023 A 
ATOM     65  C   UNL A   1      47.006  28.607  30.499  1.00  0.00     0.012 A 
ATOM     66  C   UNL A   1      47.162  29.550  28.262  1.00  0.00     0.148 A 
ATOM     67  C   UNL A   1      48.290  28.079  30.376  1.00  0.00     0.002 A 
ATOM     68  C   UNL A   1      48.427  28.987  28.131  1.00  0.00     0.091 A 
ATOM     69  F   UNL A   1      46.613  30.287  27.286  1.00  0.00    -0.205 F 
ATOM     70  C   UNL A   1      48.996  28.259  29.189  1.00  0.00     0.022 A 
BRANCH  68  71
ATOM     71  S   UNL A   1      49.384  29.104  26.614  1.00  0.00     0.127 S 
ATOM     72  O   UNL A   1      49.599  30.546  26.512  1.00  0.00    -0.237 OA
ATOM     73  O   UNL A   1      50.583  28.331  26.943  1.00  0.00    -0.237 OA
ATOM     74  O   UNL A   1      48.553  28.516  25.574  1.00  0.00    -0.744 OA
ENDBRANCH  68  71
ENDBRANCH  50  64
BRANCH  51  75
ATOM     75  C   UNL A   1      36.988  32.325  30.647  1.00  0.00     0.023 A 
ATOM     76  C   UNL A   1      36.402  32.151  31.917  1.00  0.00     0.012 A 
ATOM     77  C   UNL A   1      36.238  32.935  29.623  1.00  0.00     0.148 A 
ATOM     78  C   UNL A   1      35.089  32.554  32.156  1.00  0.00     0.002 A 
ATOM     79  C   UNL A   1      34.947  33.381  29.883  1.00  0.00     0.091 A 
ATOM     80  F   UNL A   1      36.806  33.077  28.417  1.00  0.00    -0.205 F 
ATOM     81  C   UNL A   1      34.365  33.178  31.144  1.00  0.00     0.022 A 
BRANCH  79  82
ATOM     82  S   UNL A   1      33.993  34.309  28.676  1.00  0.00     0.127 S 
ATOM     83  O   UNL A   1      33.774  33.309  27.635  1.00  0.00    -0.237 OA
ATOM     84  O   UNL A   1      32.802  34.675  29.442  1.00  0.00    -0.237 OA
ATOM     85  O   UNL A   1      34.834  35.440  28.306  1.00  0.00    -0.744 OA
ENDBRANCH  79  82
ENDBRANCH  51  75
BRANCH  63  86
ATOM     86  C   UNL A   1      43.176  35.387  31.691  1.00  0.00     0.023 A 
ATOM     87  C   UNL A   1      43.341  35.567  33.078  1.00  0.00     0.012 A 
ATOM     88  C   UNL A   1      43.462  36.453  30.815  1.00  0.00     0.148 A 
ATOM     89  C   UNL A   1      43.760  36.795  33.588  1.00  0.00     0.002 A 
ATOM     90  C   UNL A   1      43.919  37.661  31.328  1.00  0.00     0.091 A 
ATOM     91  F   UNL A   1      43.277  36.269  29.499  1.00  0.00    -0.205 F 
ATOM     92  C   UNL A   1      44.060  37.838  32.714  1.00  0.00     0.022 A 
BRANCH  90  93
ATOM     93  S   UNL A   1      44.416  39.024  30.267  1.00  0.00     0.127 S 
ATOM     94  O   UNL A   1      44.827  40.029  31.245  1.00  0.00    -0.237 OA
ATOM     95  O   UNL A   1      45.514  38.438  29.497  1.00  0.00    -0.237 OA
ATOM     96  O   UNL A   1      43.241  39.360  29.476  1.00  0.00    -0.744 OA
ENDBRANCH  90  93
ENDBRANCH  63  86
ENDBRANCH  37  38
ENDBRANCH  29  32
ENDBRANCH  27  28
ENDBRANCH   1  27
TORSDOF 18
ENDMDL
MODEL 2
REMARK VINA RESULT:     -11.6      4.157      9.320
REMARK SMILES O=C(CN(Cc1ccccc1Cl)S(=O)(=O)c1ccc(Cl)cc1)NCCCNC(=O)c1ccc(-c2c3nc(c(-c4cccc(S(=O)(=O)[O-])c4F)c4ccc([nH]4)c(-c4cccc(S(=O)(=O)[O-])c4F)c4nc(c(-c5cccc(S(=O)(=O)[O-])c5F)c5ccc2[nH]5)C=C4)C=C3)cc1
REMARK SMILES IDX 25 1 24 2 23 3 1 4 2 5 3 7 4 8 5 9 6 10 7 11 11 12 8 13
REMARK SMILES IDX 10 14 12 15 9 16 13 17 14 18 15 19 16 20 17 21 22 22 18 23
REMARK SMILES IDX 21 24 19 25 20 26 26 27 27 28 28 29 29 31 30 32 31 33 92 34
REMARK SMILES IDX 32 35 91 36 33 37 34 38 35 39 85 40 36 41 90 42 84 43 86 44
REMARK SMILES IDX 37 45 89 46 83 47 82 48 38 50 70 51 50 52 69 53 51 54 54 55
REMARK SMILES IDX 68 56 87 57 52 58 53 59 67 61 88 62 55 63 39 64 40 65 48 66
REMARK SMILES IDX 41 67 43 68 49 69 42 70 44 71 45 72 46 73 47 74 71 75 72 76
REMARK SMILES IDX 80 77 73 78 75 79 81 80 74 81 76 82 77 83 78 84 79 85 56 86
REMARK SMILES IDX 57 87 65 88 58 89 60 90 66 91 59 92 61 93 62 94 63 95 64 96
REMARK H PARENT 23 6 27 30 86 49 54 60
REMARK Flexibility Score: inf
ROOT
ATOM      1  C   UNL A   1      32.799  28.086  26.432  1.00  0.00     0.042 C 
ENDROOT
BRANCH   1   2
ATOM      2  C   UNL A   1      31.567  28.081  25.539  1.00  0.00     0.117 C 
BRANCH   2   3
ATOM      3  N   UNL A   1      31.428  26.864  24.763  1.00  0.00    -0.355 N 
ATOM      4  O   UNL A   1      30.309  27.832  23.002  1.00  0.00    -0.274 OA
ATOM      5  C   UNL A   1      30.884  26.865  23.497  1.00  0.00     0.235 C 
ATOM      6  H   UNL A   1      31.730  26.012  25.152  1.00  0.00     0.163 HD
BRANCH   5   7
ATOM      7  C   UNL A   1      30.982  25.540  22.764  1.00  0.00     0.202 C 
BRANCH   7   8
ATOM      8  N   UNL A   1      31.999  24.522  23.207  1.00  0.00    -0.184 NA
BRANCH   8   9
ATOM      9  C   UNL A   1      31.316  23.285  23.689  1.00  0.00     0.140 C 
BRANCH   9  10
ATOM     10  C   UNL A   1      32.110  22.205  24.414  1.00  0.00    -0.014 A 
ATOM     11  C   UNL A   1      32.557  21.051  23.748  1.00  0.00     0.006 A 
ATOM     12  C   UNL A   1      32.508  22.344  25.760  1.00  0.00     0.045 A 
ATOM     13  C   UNL A   1      33.307  20.059  24.386  1.00  0.00     0.000 A 
ATOM     14  C   UNL A   1      33.265  21.352  26.402  1.00  0.00     0.021 A 
ATOM     15  Cl  UNL A   1      32.123  23.742  26.701  1.00  0.00    -0.084 Cl
ATOM     16  C   UNL A   1      33.658  20.206  25.718  1.00  0.00     0.002 A 
ENDBRANCH   9  10
ENDBRANCH   8   9
BRANCH   8  17
ATOM     17  S   UNL A   1      33.452  24.497  22.324  1.00  0.00     0.243 S 
ATOM     18  O   UNL A   1      33.399  23.437  21.339  1.00  0.00    -0.207 OA
ATOM     19  O   UNL A   1      33.701  25.857  21.903  1.00  0.00    -0.207 OA
BRANCH  17  20
ATOM     20  C   UNL A   1      34.808  24.099  23.422  1.00  0.00     0.082 A 
ATOM     21  C   UNL A   1      34.921  24.678  24.689  1.00  0.00     0.023 A 
ATOM     22  C   UNL A   1      35.673  23.055  23.061  1.00  0.00     0.023 A 
ATOM     23  C   UNL A   1      35.946  24.278  25.553  1.00  0.00     0.022 A 
ATOM     24  C   UNL A   1      36.666  22.624  23.945  1.00  0.00     0.022 A 
ATOM     25  C   UNL A   1      36.809  23.249  25.180  1.00  0.00     0.041 A 
ATOM     26  Cl  UNL A   1      38.034  22.725  26.269  1.00  0.00    -0.084 Cl
ENDBRANCH  17  20
ENDBRANCH   8  17
ENDBRANCH   7   8
ENDBRANCH   5   7
ENDBRANCH   2   3
ENDBRANCH   1   2
BRANCH   1  27
ATOM     27  C   UNL A   1      33.866  29.105  26.042  1.00  0.00     0.118 C 
BRANCH  27  28
ATOM     28  N   UNL A   1      33.738  30.380  26.736  1.00  0.00    -0.352 N 
ATOM     29  C   UNL A   1      34.525  30.943  27.713  1.00  0.00     0.251 C 
ATOM     30  H   UNL A   1      32.965  30.924  26.462  1.00  0.00     0.163 HD
ATOM     31  O   UNL A   1      34.168  31.993  28.242  1.00  0.00    -0.269 OA
BRANCH  29  32
ATOM     32  C   UNL A   1      35.779  30.288  28.153  1.00  0.00     0.039 A 
ATOM     33  C   UNL A   1      36.903  30.366  27.323  1.00  0.00     0.014 A 
ATOM     34  C   UNL A   1      35.854  29.587  29.359  1.00  0.00     0.014 A 
ATOM     35  C   UNL A   1      38.117  29.806  27.737  1.00  0.00     0.010 A 
ATOM     36  C   UNL A   1      37.080  29.092  29.801  1.00  0.00     0.010 A 
ATOM     37  C   UNL A   1      38.225  29.198  28.997  1.00  0.00    -0.014 A 
BRANCH  37  38
ATOM     38  C   UNL A   1      39.529  28.692  29.503  1.00  0.00     0.031 A 
ATOM     39  C   UNL A   1      40.256  29.415  30.605  1.00  0.00     0.074 A 
ATOM     40  C   UNL A   1      40.111  27.635  28.899  1.00  0.00     0.049 A 
ATOM     41  N   UNL A   1      41.432  29.164  31.121  1.00  0.00    -0.248 NA
ATOM     42  C   UNL A   1      39.586  30.589  31.187  1.00  0.00     0.031 C 
ATOM     43  C   UNL A   1      39.552  26.896  27.766  1.00  0.00     0.029 A 
ATOM     44  N   UNL A   1      41.316  27.019  29.135  1.00  0.00    -0.354 N 
ATOM     45  C   UNL A   1      41.660  30.166  32.056  1.00  0.00     0.074 A 
ATOM     46  C   UNL A   1      40.512  31.045  32.019  1.00  0.00     0.031 C 
ATOM     47  C   UNL A   1      40.411  25.929  27.404  1.00  0.00     0.029 A 
ATOM     48  C   UNL A   1      41.591  25.991  28.262  1.00  0.00     0.049 A 
ATOM     49  H   UNL A   1      41.925  27.286  29.862  1.00  0.00     0.167 HD
ATOM     50  C   UNL A   1      42.715  30.324  32.892  1.00  0.00     0.034 A 
ATOM     51  C   UNL A   1      42.671  25.193  28.159  1.00  0.00     0.034 A 
ATOM     52  C   UNL A   1      43.828  29.417  32.972  1.00  0.00     0.049 A 
ATOM     53  C   UNL A   1      43.801  25.355  29.139  1.00  0.00     0.074 A 
ATOM     54  C   UNL A   1      44.895  29.441  33.853  1.00  0.00     0.029 A 
ATOM     55  N   UNL A   1      44.021  28.326  32.140  1.00  0.00    -0.354 N 
ATOM     56  N   UNL A   1      43.919  26.207  30.127  1.00  0.00    -0.248 NA
ATOM     57  C   UNL A   1      44.929  24.419  29.014  1.00  0.00     0.031 C 
ATOM     58  C   UNL A   1      45.738  28.366  33.549  1.00  0.00     0.029 A 
ATOM     59  C   UNL A   1      45.191  27.669  32.484  1.00  0.00     0.049 A 
ATOM     60  H   UNL A   1      43.417  28.057  31.411  1.00  0.00     0.167 HD
ATOM     61  C   UNL A   1      45.116  25.892  30.761  1.00  0.00     0.074 A 
ATOM     62  C   UNL A   1      45.674  24.755  30.059  1.00  0.00     0.031 C 
ATOM     63  C   UNL A   1      45.707  26.501  31.818  1.00  0.00     0.034 A 
BRANCH  50  64
ATOM     64  C   UNL A   1      42.680  31.490  33.845  1.00  0.00     0.023 A 
ATOM     65  C   UNL A   1      43.190  32.736  33.426  1.00  0.00     0.012 A 
ATOM     66  C   UNL A   1      42.091  31.377  35.119  1.00  0.00     0.148 A 
ATOM     67  C   UNL A   1      43.144  33.843  34.271  1.00  0.00     0.002 A 
ATOM     68  C   UNL A   1      42.014  32.496  35.941  1.00  0.00     0.091 A 
ATOM     69  F   UNL A   1      41.631  30.180  35.509  1.00  0.00    -0.205 F 
ATOM     70  C   UNL A   1      42.547  33.726  35.524  1.00  0.00     0.022 A 
BRANCH  68  71
ATOM     71  S   UNL A   1      41.199  32.462  37.543  1.00  0.00     0.127 S 
ATOM     72  O   UNL A   1      41.216  33.876  37.912  1.00  0.00    -0.237 OA
ATOM     73  O   UNL A   1      39.875  31.935  37.208  1.00  0.00    -0.237 OA
ATOM     74  O   UNL A   1      42.003  31.583  38.380  1.00  0.00    -0.744 OA
ENDBRANCH  68  71
ENDBRANCH  50  64
BRANCH  51  75
ATOM     75  C   UNL A   1      42.696  24.110  27.135  1.00  0.00     0.023 A 
ATOM     76  C   UNL A   1      43.369  24.334  25.918  1.00  0.00     0.012 A 
ATOM     77  C   UNL A   1      42.094  22.859  27.368  1.00  0.00     0.148 A 
ATOM     78  C   UNL A   1      43.420  23.340  24.941  1.00  0.00     0.002 A 
ATOM     79  C   UNL A   1      42.194  21.855  26.411  1.00  0.00     0.091 A 
ATOM     80  F   UNL A   1      41.445  22.671  28.525  1.00  0.00    -0.205 F 
ATOM     81  C   UNL A   1      42.843  22.098  25.190  1.00  0.00     0.022 A 
BRANCH  79  82
ATOM     82  S   UNL A   1      41.592  20.188  26.705  1.00  0.00     0.127 S 
ATOM     83  O   UNL A   1      41.976  19.509  25.471  1.00  0.00    -0.237 OA
ATOM     84  O   UNL A   1      42.353  19.792  27.890  1.00  0.00    -0.237 OA
ATOM     85  O   UNL A   1      40.160  20.330  26.935  1.00  0.00    -0.744 OA
ENDBRANCH  79  82
ENDBRANCH  51  75
BRANCH  63  86
ATOM     86  C   UNL A   1      47.016  25.941  32.307  1.00  0.00     0.023 A 
ATOM     87  C   UNL A   1      47.029  25.060  33.405  1.00  0.00     0.012 A 
ATOM     88  C   UNL A   1      48.221  26.225  31.633  1.00  0.00     0.148 A 
ATOM     89  C   UNL A   1      48.224  24.489  33.842  1.00  0.00     0.002 A 
ATOM     90  C   UNL A   1      49.401  25.620  32.048  1.00  0.00     0.091 A 
ATOM     91  F   UNL A   1      48.192  27.085  30.603  1.00  0.00    -0.205 F 
ATOM     92  C   UNL A   1      49.407  24.759  33.158  1.00  0.00     0.022 A 
BRANCH  90  93
ATOM     93  S   UNL A   1      50.952  25.841  31.167  1.00  0.00     0.127 S 
ATOM     94  O   UNL A   1      51.892  25.133  32.033  1.00  0.00    -0.237 OA
ATOM     95  O   UNL A   1      50.684  25.179  29.889  1.00  0.00    -0.237 OA
ATOM     96  O   UNL A   1      51.149  27.280  31.066  1.00  0.00    -0.744 OA
ENDBRANCH  90  93
ENDBRANCH  63  86
ENDBRANCH  37  38
ENDBRANCH  29  32
ENDBRANCH  27  28
ENDBRANCH   1  27
TORSDOF 18
ENDMDL
MODEL 3
REMARK VINA RESULT:     -11.6      1.765      2.206
REMARK SMILES O=C(CN(Cc1ccccc1Cl)S(=O)(=O)c1ccc(Cl)cc1)NCCCNC(=O)c1ccc(-c2c3nc(c(-c4cccc(S(=O)(=O)[O-])c4F)c4ccc([nH]4)c(-c4cccc(S(=O)(=O)[O-])c4F)c4nc(c(-c5cccc(S(=O)(=O)[O-])c5F)c5ccc2[nH]5)C=C4)C=C3)cc1
REMARK SMILES IDX 25 1 24 2 23 3 1 4 2 5 3 7 4 8 5 9 6 10 7 11 11 12 8 13
REMARK SMILES IDX 10 14 12 15 9 16 13 17 14 18 15 19 16 20 17 21 22 22 18 23
REMARK SMILES IDX 21 24 19 25 20 26 26 27 27 28 28 29 29 31 30 32 31 33 92 34
REMARK SMILES IDX 32 35 91 36 33 37 34 38 35 39 85 40 36 41 90 42 84 43 86 44
REMARK SMILES IDX 37 45 89 46 83 47 82 48 38 50 70 51 50 52 69 53 51 54 54 55
REMARK SMILES IDX 68 56 87 57 52 58 53 59 67 61 88 62 55 63 39 64 40 65 48 66
REMARK SMILES IDX 41 67 43 68 49 69 42 70 44 71 45 72 46 73 47 74 71 75 72 76
REMARK SMILES IDX 80 77 73 78 75 79 81 80 74 81 76 82 77 83 78 84 79 85 56 86
REMARK SMILES IDX 57 87 65 88 58 89 60 90 66 91 59 92 61 93 62 94 63 95 64 96
REMARK H PARENT 23 6 27 30 86 49 54 60
REMARK Flexibility Score: inf
ROOT
ATOM      1  C   UNL A   1      35.753  21.724  24.829  1.00  0.00     0.042 C 
ENDROOT
BRANCH   1   2
ATOM      2  C   UNL A   1      34.575  21.005  25.470  1.00  0.00     0.117 C 
BRANCH   2   3
ATOM      3  N   UNL A   1      33.373  21.816  25.525  1.00  0.00    -0.355 N 
ATOM      4  O   UNL A   1      32.585  21.216  23.449  1.00  0.00    -0.274 OA
ATOM      5  C   UNL A   1      32.420  21.776  24.531  1.00  0.00     0.235 C 
ATOM      6  H   UNL A   1      33.234  22.412  26.295  1.00  0.00     0.163 HD
BRANCH   5   7
ATOM      7  C   UNL A   1      31.150  22.548  24.838  1.00  0.00     0.202 C 
BRANCH   7   8
ATOM      8  N   UNL A   1      31.184  24.053  24.856  1.00  0.00    -0.184 NA
BRANCH   8   9
ATOM      9  C   UNL A   1      30.598  24.599  23.597  1.00  0.00     0.140 C 
BRANCH   9  10
ATOM     10  C   UNL A   1      30.696  26.088  23.289  1.00  0.00    -0.014 A 
ATOM     11  C   UNL A   1      29.641  26.969  23.586  1.00  0.00     0.006 A 
ATOM     12  C   UNL A   1      31.870  26.671  22.771  1.00  0.00     0.045 A 
ATOM     13  C   UNL A   1      29.718  28.342  23.334  1.00  0.00     0.000 A 
ATOM     14  C   UNL A   1      31.952  28.050  22.522  1.00  0.00     0.021 A 
ATOM     15  Cl  UNL A   1      33.294  25.748  22.435  1.00  0.00    -0.084 Cl
ATOM     16  C   UNL A   1      30.873  28.885  22.796  1.00  0.00     0.002 A 
ENDBRANCH   9  10
ENDBRANCH   8   9
BRANCH   8  17
ATOM     17  S   UNL A   1      30.957  24.779  26.378  1.00  0.00     0.243 S 
ATOM     18  O   UNL A   1      29.560  25.123  26.542  1.00  0.00    -0.207 OA
ATOM     19  O   UNL A   1      31.605  23.921  27.344  1.00  0.00    -0.207 OA
BRANCH  17  20
ATOM     20  C   UNL A   1      31.867  26.318  26.444  1.00  0.00     0.082 A 
ATOM     21  C   UNL A   1      31.325  27.468  27.025  1.00  0.00     0.023 A 
ATOM     22  C   UNL A   1      33.216  26.311  26.058  1.00  0.00     0.023 A 
ATOM     23  C   UNL A   1      32.098  28.628  27.136  1.00  0.00     0.022 A 
ATOM     24  C   UNL A   1      34.001  27.457  26.215  1.00  0.00     0.022 A 
ATOM     25  C   UNL A   1      33.434  28.615  26.738  1.00  0.00     0.041 A 
ATOM     26  Cl  UNL A   1      34.395  30.030  26.927  1.00  0.00    -0.084 Cl
ENDBRANCH  17  20
ENDBRANCH   8  17
ENDBRANCH   7   8
ENDBRANCH   5   7
ENDBRANCH   2   3
ENDBRANCH   1   2
BRANCH   1  27
ATOM     27  C   UNL A   1      36.825  22.193  25.808  1.00  0.00     0.118 C 
BRANCH  27  28
ATOM     28  N   UNL A   1      37.951  21.275  25.927  1.00  0.00    -0.352 N 
ATOM     29  C   UNL A   1      39.254  21.511  26.293  1.00  0.00     0.251 C 
ATOM     30  H   UNL A   1      37.744  20.337  25.709  1.00  0.00     0.163 HD
ATOM     31  O   UNL A   1      40.074  20.598  26.221  1.00  0.00    -0.269 OA
BRANCH  29  32
ATOM     32  C   UNL A   1      39.688  22.853  26.746  1.00  0.00     0.039 A 
ATOM     33  C   UNL A   1      40.589  22.941  27.812  1.00  0.00     0.014 A 
ATOM     34  C   UNL A   1      39.207  24.019  26.146  1.00  0.00     0.014 A 
ATOM     35  C   UNL A   1      41.061  24.192  28.226  1.00  0.00     0.010 A 
ATOM     36  C   UNL A   1      39.731  25.258  26.512  1.00  0.00     0.010 A 
ATOM     37  C   UNL A   1      40.665  25.359  27.554  1.00  0.00    -0.014 A 
BRANCH  37  38
ATOM     38  C   UNL A   1      41.235  26.687  27.906  1.00  0.00     0.031 A 
ATOM     39  C   UNL A   1      42.663  27.020  27.571  1.00  0.00     0.074 A 
ATOM     40  C   UNL A   1      40.494  27.559  28.619  1.00  0.00     0.049 A 
ATOM     41  N   UNL A   1      43.351  28.095  27.864  1.00  0.00    -0.248 NA
ATOM     42  C   UNL A   1      43.430  26.003  26.833  1.00  0.00     0.031 C 
ATOM     43  C   UNL A   1      39.124  27.326  29.081  1.00  0.00     0.029 A 
ATOM     44  N   UNL A   1      40.801  28.806  29.109  1.00  0.00    -0.354 N 
ATOM     45  C   UNL A   1      44.635  27.869  27.384  1.00  0.00     0.074 A 
ATOM     46  C   UNL A   1      44.640  26.545  26.802  1.00  0.00     0.031 C 
ATOM     47  C   UNL A   1      38.710  28.391  29.785  1.00  0.00     0.029 A 
ATOM     48  C   UNL A   1      39.788  29.373  29.848  1.00  0.00     0.049 A 
ATOM     49  H   UNL A   1      41.663  29.251  28.945  1.00  0.00     0.167 HD
ATOM     50  C   UNL A   1      45.705  28.701  27.397  1.00  0.00     0.034 A 
ATOM     51  C   UNL A   1      39.733  30.548  30.505  1.00  0.00     0.034 A 
ATOM     52  C   UNL A   1      45.684  30.040  27.921  1.00  0.00     0.049 A 
ATOM     53  C   UNL A   1      40.917  31.475  30.453  1.00  0.00     0.074 A 
ATOM     54  C   UNL A   1      46.689  30.990  27.891  1.00  0.00     0.029 A 
ATOM     55  N   UNL A   1      44.605  30.619  28.569  1.00  0.00    -0.354 N 
ATOM     56  N   UNL A   1      42.067  31.310  29.847  1.00  0.00    -0.248 NA
ATOM     57  C   UNL A   1      40.781  32.768  31.142  1.00  0.00     0.031 C 
ATOM     58  C   UNL A   1      46.220  32.144  28.529  1.00  0.00     0.029 A 
ATOM     59  C   UNL A   1      44.920  31.914  28.948  1.00  0.00     0.049 A 
ATOM     60  H   UNL A   1      43.742  30.176  28.737  1.00  0.00     0.167 HD
ATOM     61  C   UNL A   1      42.779  32.487  30.054  1.00  0.00     0.074 A 
ATOM     62  C   UNL A   1      41.921  33.365  30.821  1.00  0.00     0.031 C 
ATOM     63  C   UNL A   1      44.036  32.802  29.658  1.00  0.00     0.034 A 
BRANCH  50  64
ATOM     64  C   UNL A   1      46.978  28.209  26.759  1.00  0.00     0.023 A 
ATOM     65  C   UNL A   1      48.025  27.744  27.581  1.00  0.00     0.012 A 
ATOM     66  C   UNL A   1      47.117  28.142  25.360  1.00  0.00     0.148 A 
ATOM     67  C   UNL A   1      49.202  27.252  27.023  1.00  0.00     0.002 A 
ATOM     68  C   UNL A   1      48.279  27.614  24.809  1.00  0.00     0.091 A 
ATOM     69  F   UNL A   1      46.120  28.609  24.593  1.00  0.00    -0.205 F 
ATOM     70  C   UNL A   1      49.326  27.177  25.638  1.00  0.00     0.022 A 
BRANCH  68  71
ATOM     71  S   UNL A   1      48.503  27.409  23.037  1.00  0.00     0.127 S 
ATOM     72  O   UNL A   1      49.855  27.932  22.848  1.00  0.00    -0.237 OA
ATOM     73  O   UNL A   1      48.381  25.960  22.873  1.00  0.00    -0.237 OA
ATOM     74  O   UNL A   1      47.437  28.179  22.411  1.00  0.00    -0.744 OA
ENDBRANCH  68  71
ENDBRANCH  50  64
BRANCH  51  75
ATOM     75  C   UNL A   1      38.479  30.949  31.202  1.00  0.00     0.023 A 
ATOM     76  C   UNL A   1      38.351  30.698  32.582  1.00  0.00     0.012 A 
ATOM     77  C   UNL A   1      37.433  31.603  30.523  1.00  0.00     0.148 A 
ATOM     78  C   UNL A   1      37.194  31.067  33.268  1.00  0.00     0.002 A 
ATOM     79  C   UNL A   1      36.305  32.015  31.224  1.00  0.00     0.091 A 
ATOM     80  F   UNL A   1      37.566  31.818  29.207  1.00  0.00    -0.205 F 
ATOM     81  C   UNL A   1      36.177  31.735  32.593  1.00  0.00     0.022 A 
BRANCH  79  82
ATOM     82  S   UNL A   1      35.007  32.993  30.458  1.00  0.00     0.127 S 
ATOM     83  O   UNL A   1      34.109  33.233  31.585  1.00  0.00    -0.237 OA
ATOM     84  O   UNL A   1      35.743  34.170  29.995  1.00  0.00    -0.237 OA
ATOM     85  O   UNL A   1      34.477  32.161  29.387  1.00  0.00    -0.744 OA
ENDBRANCH  79  82
ENDBRANCH  51  75
BRANCH  63  86
ATOM     86  C   UNL A   1      44.563  34.166  30.021  1.00  0.00     0.023 A 
ATOM     87  C   UNL A   1      45.334  34.324  31.188  1.00  0.00     0.012 A 
ATOM     88  C   UNL A   1      44.361  35.269  29.169  1.00  0.00     0.148 A 
ATOM     89  C   UNL A   1      45.875  35.567  31.517  1.00  0.00     0.002 A 
ATOM     90  C   UNL A   1      44.938  36.495  29.480  1.00  0.00     0.091 A 
ATOM     91  F   UNL A   1      43.605  35.104  28.073  1.00  0.00    -0.205 F 
ATOM     92  C   UNL A   1      45.688  36.648  30.658  1.00  0.00     0.022 A 
BRANCH  90  93
ATOM     93  S   UNL A   1      44.823  37.914  28.384  1.00  0.00     0.127 S 
ATOM     94  O   UNL A   1      45.802  38.826  28.972  1.00  0.00    -0.237 OA
ATOM     95  O   UNL A   1      45.218  37.346  27.093  1.00  0.00    -0.237 OA
ATOM     96  O   UNL A   1      43.437  38.352  28.446  1.00  0.00    -0.744 OA
ENDBRANCH  90  93
ENDBRANCH  63  86
ENDBRANCH  37  38
ENDBRANCH  29  32
ENDBRANCH  27  28
ENDBRANCH   1  27
TORSDOF 18
ENDMDL
