MODEL 1
REMARK VINA RESULT:     -13.0      0.000      0.000
REMARK SMILES O=C(NCCCNC(=O)c1ccc(-c2c3nc(c(-c4cccc(S(=O)(=O)[O-])c4F)c4ccc([nH]4)c(-c4cccc(S(=O)(=O)[O-])c4F)c4nc(c(-c5cccc(S(=O)(=O)[O-])c5F)c5ccc2[nH]5)C=C4)C=C3)cc1)C1=Cc2cc(S(F)(F)(F)(F)F)cc(Br)c2O[C@H]1C(F)(F)F
REMARK SMILES IDX 6 1 5 2 4 3 3 4 1 5 2 6 73 8 74 9 89 10 75 11 88 12 76 13
REMARK SMILES IDX 87 14 77 15 85 16 84 17 86 18 90 19 91 20 92 21 93 22 78 23
REMARK SMILES IDX 79 24 80 25 81 26 82 27 83 28 7 29 8 30 9 32 10 33 11 34
REMARK SMILES IDX 72 35 12 36 71 37 13 38 14 39 15 40 65 41 16 42 70 43 64 44
REMARK SMILES IDX 66 45 17 46 69 47 63 48 62 49 18 51 50 52 30 53 49 54 31 55
REMARK SMILES IDX 34 56 48 57 67 58 32 59 33 60 47 62 68 63 35 64 19 65 20 66
REMARK SMILES IDX 28 67 21 68 23 69 29 70 22 71 24 72 25 73 26 74 27 75 51 76
REMARK SMILES IDX 52 77 60 78 53 79 55 80 61 81 54 82 56 83 57 84 58 85 59 86
REMARK SMILES IDX 36 87 37 88 45 89 38 90 40 91 46 92 39 93 41 94 42 95 43 96
REMARK SMILES IDX 44 97
REMARK H PARENT 3 7 7 31 66 50 34 61
REMARK Flexibility Score: inf
ROOT
ATOM      1  C   UNL A   1      36.441  22.761  25.085  1.00  0.00     0.118 C 
ENDROOT
BRANCH   1   2
ATOM      2  C   UNL A   1      35.787  22.952  23.726  1.00  0.00     0.042 C 
BRANCH   2   3
ATOM      3  C   UNL A   1      34.693  24.003  23.833  1.00  0.00     0.118 C 
BRANCH   3   4
ATOM      4  N   UNL A   1      33.433  23.453  23.313  1.00  0.00    -0.352 N 
ATOM      5  O   UNL A   1      31.384  22.344  23.780  1.00  0.00    -0.270 OA
ATOM      6  C   UNL A   1      32.474  22.819  24.229  1.00  0.00     0.251 C 
ATOM      7  H   UNL A   1      33.231  23.509  22.351  1.00  0.00     0.163 HD
BRANCH   6   8
ATOM      8  C   UNL A   1      32.786  22.733  25.714  1.00  0.00     0.067 C 
ATOM      9  C   UNL A   1      32.679  23.840  26.497  1.00  0.00     0.025 C 
ATOM     10  C   UNL A   1      33.218  21.409  26.324  1.00  0.00     0.314 C 
ATOM     11  C   UNL A   1      32.248  25.164  25.887  1.00  0.00     0.020 A 
ATOM     12  O   UNL A   1      30.699  24.011  24.502  1.00  0.00    -0.474 OA
ATOM     13  C   UNL A   1      32.883  26.318  26.315  1.00  0.00     0.036 A 
ATOM     14  C   UNL A   1      31.224  25.214  25.043  1.00  0.00     0.142 A 
ATOM     15  C   UNL A   1      32.175  27.507  26.018  1.00  0.00     0.109 A 
ATOM     16  C   UNL A   1      30.667  26.419  24.690  1.00  0.00     0.062 A 
ATOM     17  C   UNL A   1      31.208  27.597  25.123  1.00  0.00     0.044 A 
ATOM     18  Br  UNL A   1      29.074  26.450  23.548  1.00  0.00    -0.047 Br
BRANCH  10  19
ATOM     19  C   UNL A   1      33.256  20.342  25.244  1.00  0.00     0.429 C 
ATOM     20  F   UNL A   1      32.034  20.151  24.753  1.00  0.00    -0.167 F 
ATOM     21  F   UNL A   1      34.066  20.746  24.270  1.00  0.00    -0.167 F 
ATOM     22  F   UNL A   1      33.711  19.200  25.753  1.00  0.00    -0.167 F 
ENDBRANCH  10  19
BRANCH  15  23
ATOM     23  S   UNL A   1      32.627  29.005  26.926  1.00  0.00     0.310 S 
ATOM     24  F   UNL A   1      33.773  28.250  27.722  1.00  0.00    -0.094 F 
ATOM     25  F   UNL A   1      31.639  28.569  28.073  1.00  0.00    -0.094 F 
ATOM     26  F   UNL A   1      33.015  30.291  27.710  1.00  0.00    -0.094 F 
ATOM     27  F   UNL A   1      33.714  29.352  25.833  1.00  0.00    -0.094 F 
ATOM     28  F   UNL A   1      32.327  27.647  26.174  1.00  0.00    -0.094 F 
ENDBRANCH  15  23
ENDBRANCH   6   8
ENDBRANCH   3   4
ENDBRANCH   2   3
ENDBRANCH   1   2
BRANCH   1  29
ATOM     29  N   UNL A   1      37.182  21.492  25.096  1.00  0.00    -0.352 N 
ATOM     30  C   UNL A   1      38.505  21.419  25.734  1.00  0.00     0.251 C 
ATOM     31  H   UNL A   1      36.793  20.690  24.679  1.00  0.00     0.163 HD
ATOM     32  O   UNL A   1      39.147  20.322  25.744  1.00  0.00    -0.269 OA
BRANCH  30  33
ATOM     33  C   UNL A   1      39.106  22.657  26.380  1.00  0.00     0.039 A 
ATOM     34  C   UNL A   1      38.716  23.912  25.941  1.00  0.00     0.014 A 
ATOM     35  C   UNL A   1      40.112  22.508  27.234  1.00  0.00     0.014 A 
ATOM     36  C   UNL A   1      39.642  24.938  26.240  1.00  0.00     0.010 A 
ATOM     37  C   UNL A   1      40.893  23.582  27.588  1.00  0.00     0.010 A 
ATOM     38  C   UNL A   1      40.601  24.842  27.143  1.00  0.00    -0.014 A 
BRANCH  38  39
ATOM     39  C   UNL A   1      41.338  26.065  27.662  1.00  0.00     0.031 A 
ATOM     40  C   UNL A   1      42.663  26.215  27.248  1.00  0.00     0.074 A 
ATOM     41  C   UNL A   1      40.637  27.022  28.374  1.00  0.00     0.049 A 
ATOM     42  N   UNL A   1      43.456  27.274  27.422  1.00  0.00    -0.248 NA
ATOM     43  C   UNL A   1      43.421  25.185  26.522  1.00  0.00     0.031 C 
ATOM     44  C   UNL A   1      39.297  26.883  28.788  1.00  0.00     0.029 A 
ATOM     45  N   UNL A   1      41.085  28.253  28.803  1.00  0.00    -0.354 N 
ATOM     46  C   UNL A   1      44.650  27.053  26.870  1.00  0.00     0.074 A 
ATOM     47  C   UNL A   1      44.647  25.703  26.289  1.00  0.00     0.031 C 
ATOM     48  C   UNL A   1      38.947  28.005  29.467  1.00  0.00     0.029 A 
ATOM     49  C   UNL A   1      40.060  28.868  29.489  1.00  0.00     0.049 A 
ATOM     50  H   UNL A   1      41.982  28.627  28.648  1.00  0.00     0.167 HD
ATOM     51  C   UNL A   1      45.740  27.922  26.827  1.00  0.00     0.034 A 
ATOM     52  C   UNL A   1      40.077  30.108  30.107  1.00  0.00     0.034 A 
ATOM     53  C   UNL A   1      45.742  29.181  27.407  1.00  0.00     0.049 A 
ATOM     54  C   UNL A   1      41.188  30.955  30.115  1.00  0.00     0.074 A 
ATOM     55  C   UNL A   1      46.830  30.073  27.367  1.00  0.00     0.029 A 
ATOM     56  N   UNL A   1      44.726  29.786  28.114  1.00  0.00    -0.354 N 
ATOM     57  N   UNL A   1      42.368  30.749  29.529  1.00  0.00    -0.248 NA
ATOM     58  C   UNL A   1      41.227  32.258  30.793  1.00  0.00     0.031 C 
ATOM     59  C   UNL A   1      46.480  31.198  28.047  1.00  0.00     0.029 A 
ATOM     60  C   UNL A   1      45.166  31.025  28.524  1.00  0.00     0.049 A 
ATOM     61  H   UNL A   1      43.838  29.399  28.294  1.00  0.00     0.167 HD
ATOM     62  C   UNL A   1      43.173  31.792  29.739  1.00  0.00     0.074 A 
ATOM     63  C   UNL A   1      42.454  32.774  30.561  1.00  0.00     0.031 C 
ATOM     64  C   UNL A   1      44.479  31.966  29.274  1.00  0.00     0.034 A 
BRANCH  51  65
ATOM     65  C   UNL A   1      46.996  27.464  26.103  1.00  0.00     0.023 A 
ATOM     66  C   UNL A   1      47.111  27.622  24.732  1.00  0.00     0.012 A 
ATOM     67  C   UNL A   1      47.955  26.882  26.814  1.00  0.00     0.148 A 
ATOM     68  C   UNL A   1      48.160  26.867  24.155  1.00  0.00     0.002 A 
ATOM     69  C   UNL A   1      49.021  26.282  26.188  1.00  0.00     0.091 A 
ATOM     70  F   UNL A   1      47.883  26.881  28.141  1.00  0.00    -0.205 F 
ATOM     71  C   UNL A   1      49.168  26.347  24.831  1.00  0.00     0.022 A 
BRANCH  69  72
ATOM     72  S   UNL A   1      50.248  25.391  27.176  1.00  0.00     0.127 S 
ATOM     73  O   UNL A   1      50.827  26.328  28.238  1.00  0.00    -0.237 OA
ATOM     74  O   UNL A   1      49.582  24.195  27.860  1.00  0.00    -0.237 OA
ATOM     75  O   UNL A   1      51.506  24.837  26.159  1.00  0.00    -0.744 OA
ENDBRANCH  69  72
ENDBRANCH  51  65
BRANCH  52  76
ATOM     76  C   UNL A   1      38.816  30.573  30.815  1.00  0.00     0.023 A 
ATOM     77  C   UNL A   1      38.577  30.213  32.131  1.00  0.00     0.012 A 
ATOM     78  C   UNL A   1      37.971  31.353  30.151  1.00  0.00     0.148 A 
ATOM     79  C   UNL A   1      37.262  30.495  32.574  1.00  0.00     0.002 A 
ATOM     80  C   UNL A   1      36.761  31.701  30.700  1.00  0.00     0.091 A 
ATOM     81  F   UNL A   1      38.300  31.802  28.943  1.00  0.00    -0.205 F 
ATOM     82  C   UNL A   1      36.433  31.329  31.974  1.00  0.00     0.022 A 
BRANCH  80  83
ATOM     83  S   UNL A   1      35.580  32.663  29.721  1.00  0.00     0.127 S 
ATOM     84  O   UNL A   1      34.216  32.654  30.412  1.00  0.00    -0.237 OA
ATOM     85  O   UNL A   1      36.078  34.105  29.595  1.00  0.00    -0.237 OA
ATOM     86  O   UNL A   1      35.435  31.973  28.163  1.00  0.00    -0.744 OA
ENDBRANCH  80  83
ENDBRANCH  52  76
BRANCH  64  87
ATOM     87  C   UNL A   1      45.189  33.267  29.612  1.00  0.00     0.023 A 
ATOM     88  C   UNL A   1      45.839  33.397  30.828  1.00  0.00     0.012 A 
ATOM     89  C   UNL A   1      45.042  34.303  28.796  1.00  0.00     0.148 A 
ATOM     90  C   UNL A   1      46.049  34.738  31.226  1.00  0.00     0.002 A 
ATOM     91  C   UNL A   1      45.394  35.568  29.200  1.00  0.00     0.091 A 
ATOM     92  F   UNL A   1      44.549  34.116  27.575  1.00  0.00    -0.205 F 
ATOM     93  C   UNL A   1      45.988  35.779  30.414  1.00  0.00     0.022 A 
BRANCH  91  94
ATOM     94  S   UNL A   1      45.069  36.977  28.110  1.00  0.00     0.127 S 
ATOM     95  O   UNL A   1      45.885  36.826  26.825  1.00  0.00    -0.237 OA
ATOM     96  O   UNL A   1      43.578  37.021  27.765  1.00  0.00    -0.237 OA
ATOM     97  O   UNL A   1      45.514  38.425  28.903  1.00  0.00    -0.744 OA
ENDBRANCH  91  94
ENDBRANCH  64  87
ENDBRANCH  38  39
ENDBRANCH  30  33
ENDBRANCH   1  29
TORSDOF 15
ENDMDL
MODEL 2
REMARK VINA RESULT:     -13.0      1.441      1.647
REMARK SMILES O=C(NCCCNC(=O)c1ccc(-c2c3nc(c(-c4cccc(S(=O)(=O)[O-])c4F)c4ccc([nH]4)c(-c4cccc(S(=O)(=O)[O-])c4F)c4nc(c(-c5cccc(S(=O)(=O)[O-])c5F)c5ccc2[nH]5)C=C4)C=C3)cc1)C1=Cc2cc(S(F)(F)(F)(F)F)cc(Br)c2O[C@H]1C(F)(F)F
REMARK SMILES IDX 6 1 5 2 4 3 3 4 1 5 2 6 73 8 74 9 89 10 75 11 88 12 76 13
REMARK SMILES IDX 87 14 77 15 85 16 84 17 86 18 90 19 91 20 92 21 93 22 78 23
REMARK SMILES IDX 79 24 80 25 81 26 82 27 83 28 7 29 8 30 9 32 10 33 11 34
REMARK SMILES IDX 72 35 12 36 71 37 13 38 14 39 15 40 65 41 16 42 70 43 64 44
REMARK SMILES IDX 66 45 17 46 69 47 63 48 62 49 18 51 50 52 30 53 49 54 31 55
REMARK SMILES IDX 34 56 48 57 67 58 32 59 33 60 47 62 68 63 35 64 19 65 20 66
REMARK SMILES IDX 28 67 21 68 23 69 29 70 22 71 24 72 25 73 26 74 27 75 51 76
REMARK SMILES IDX 52 77 60 78 53 79 55 80 61 81 54 82 56 83 57 84 58 85 59 86
REMARK SMILES IDX 36 87 37 88 45 89 38 90 40 91 46 92 39 93 41 94 42 95 43 96
REMARK SMILES IDX 44 97
REMARK H PARENT 3 7 7 31 66 50 34 61
REMARK Flexibility Score: inf
ROOT
ATOM      1  C   UNL A   1      36.343  22.749  25.000  1.00  0.00     0.118 C 
ENDROOT
BRANCH   1   2
ATOM      2  C   UNL A   1      35.644  22.903  23.659  1.00  0.00     0.042 C 
BRANCH   2   3
ATOM      3  C   UNL A   1      34.604  24.009  23.753  1.00  0.00     0.118 C 
BRANCH   3   4
ATOM      4  N   UNL A   1      33.314  23.513  23.253  1.00  0.00    -0.352 N 
ATOM      5  O   UNL A   1      31.219  22.511  23.755  1.00  0.00    -0.270 OA
ATOM      6  C   UNL A   1      32.335  22.940  24.188  1.00  0.00     0.251 C 
ATOM      7  H   UNL A   1      33.106  23.564  22.292  1.00  0.00     0.163 HD
BRANCH   6   8
ATOM      8  C   UNL A   1      32.656  22.861  25.671  1.00  0.00     0.067 C 
ATOM      9  C   UNL A   1      32.566  23.974  26.447  1.00  0.00     0.025 C 
ATOM     10  C   UNL A   1      33.079  21.537  26.288  1.00  0.00     0.314 C 
ATOM     11  C   UNL A   1      32.145  25.298  25.830  1.00  0.00     0.020 A 
ATOM     12  O   UNL A   1      30.574  24.152  24.464  1.00  0.00    -0.474 OA
ATOM     13  C   UNL A   1      32.795  26.449  26.245  1.00  0.00     0.036 A 
ATOM     14  C   UNL A   1      31.115  25.353  24.993  1.00  0.00     0.142 A 
ATOM     15  C   UNL A   1      32.097  27.643  25.944  1.00  0.00     0.109 A 
ATOM     16  C   UNL A   1      30.568  26.561  24.635  1.00  0.00     0.062 A 
ATOM     17  C   UNL A   1      31.124  27.737  25.056  1.00  0.00     0.044 A 
ATOM     18  Br  UNL A   1      28.967  26.601  23.504  1.00  0.00    -0.047 Br
BRANCH  10  19
ATOM     19  C   UNL A   1      33.098  20.462  25.215  1.00  0.00     0.429 C 
ATOM     20  F   UNL A   1      31.865  20.251  24.762  1.00  0.00    -0.167 F 
ATOM     21  F   UNL A   1      33.874  20.868  24.214  1.00  0.00    -0.167 F 
ATOM     22  F   UNL A   1      33.583  19.330  25.719  1.00  0.00    -0.167 F 
ENDBRANCH  10  19
BRANCH  15  23
ATOM     23  S   UNL A   1      32.571  29.143  26.839  1.00  0.00     0.310 S 
ATOM     24  F   UNL A   1      33.716  28.382  27.630  1.00  0.00    -0.094 F 
ATOM     25  F   UNL A   1      31.588  28.724  27.997  1.00  0.00    -0.094 F 
ATOM     26  F   UNL A   1      32.978  30.430  27.610  1.00  0.00    -0.094 F 
ATOM     27  F   UNL A   1      33.652  29.472  25.735  1.00  0.00    -0.094 F 
ATOM     28  F   UNL A   1      32.251  27.783  26.099  1.00  0.00    -0.094 F 
ENDBRANCH  15  23
ENDBRANCH   6   8
ENDBRANCH   3   4
ENDBRANCH   2   3
ENDBRANCH   1   2
BRANCH   1  29
ATOM     29  N   UNL A   1      37.023  21.447  25.049  1.00  0.00    -0.352 N 
ATOM     30  C   UNL A   1      38.333  21.327  25.707  1.00  0.00     0.251 C 
ATOM     31  H   UNL A   1      36.602  20.655  24.644  1.00  0.00     0.163 HD
ATOM     32  O   UNL A   1      38.922  20.201  25.750  1.00  0.00    -0.269 OA
BRANCH  30  33
ATOM     33  C   UNL A   1      38.984  22.549  26.333  1.00  0.00     0.039 A 
ATOM     34  C   UNL A   1      38.577  23.814  25.939  1.00  0.00     0.014 A 
ATOM     35  C   UNL A   1      40.039  22.379  27.121  1.00  0.00     0.014 A 
ATOM     36  C   UNL A   1      39.530  24.828  26.196  1.00  0.00     0.010 A 
ATOM     37  C   UNL A   1      40.850  23.440  27.442  1.00  0.00     0.010 A 
ATOM     38  C   UNL A   1      40.542  24.710  27.037  1.00  0.00    -0.014 A 
BRANCH  38  39
ATOM     39  C   UNL A   1      41.320  25.919  27.527  1.00  0.00     0.031 A 
ATOM     40  C   UNL A   1      42.642  26.028  27.089  1.00  0.00     0.074 A 
ATOM     41  C   UNL A   1      40.658  26.903  28.240  1.00  0.00     0.049 A 
ATOM     42  N   UNL A   1      43.465  27.067  27.237  1.00  0.00    -0.248 NA
ATOM     43  C   UNL A   1      43.359  24.969  26.364  1.00  0.00     0.031 C 
ATOM     44  C   UNL A   1      39.322  26.805  28.678  1.00  0.00     0.029 A 
ATOM     45  N   UNL A   1      41.145  28.126  28.646  1.00  0.00    -0.354 N 
ATOM     46  C   UNL A   1      44.643  26.807  26.668  1.00  0.00     0.074 A 
ATOM     47  C   UNL A   1      44.594  25.451  26.104  1.00  0.00     0.031 C 
ATOM     48  C   UNL A   1      39.013  27.944  29.349  1.00  0.00     0.029 A 
ATOM     49  C   UNL A   1      40.149  28.776  29.341  1.00  0.00     0.049 A 
ATOM     50  H   UNL A   1      42.049  28.474  28.471  1.00  0.00     0.167 HD
ATOM     51  C   UNL A   1      45.755  27.646  26.596  1.00  0.00     0.034 A 
ATOM     52  C   UNL A   1      40.211  30.023  29.943  1.00  0.00     0.034 A 
ATOM     53  C   UNL A   1      45.801  28.911  27.160  1.00  0.00     0.049 A 
ATOM     54  C   UNL A   1      41.344  30.840  29.922  1.00  0.00     0.074 A 
ATOM     55  C   UNL A   1      46.912  29.773  27.091  1.00  0.00     0.029 A 
ATOM     56  N   UNL A   1      44.814  29.552  27.877  1.00  0.00    -0.354 N 
ATOM     57  N   UNL A   1      42.508  30.595  29.319  1.00  0.00    -0.248 NA
ATOM     58  C   UNL A   1      41.430  32.149  30.583  1.00  0.00     0.031 C 
ATOM     59  C   UNL A   1      46.604  30.914  27.762  1.00  0.00     0.029 A 
ATOM     60  C   UNL A   1      45.295  30.783  28.264  1.00  0.00     0.049 A 
ATOM     61  H   UNL A   1      43.920  29.191  28.077  1.00  0.00     0.167 HD
ATOM     62  C   UNL A   1      43.344  31.619  29.503  1.00  0.00     0.074 A 
ATOM     63  C   UNL A   1      42.665  32.629  30.325  1.00  0.00     0.031 C 
ATOM     64  C   UNL A   1      44.645  31.751  29.014  1.00  0.00     0.034 A 
BRANCH  51  65
ATOM     65  C   UNL A   1      46.986  27.145  25.857  1.00  0.00     0.023 A 
ATOM     66  C   UNL A   1      47.981  26.461  26.536  1.00  0.00     0.012 A 
ATOM     67  C   UNL A   1      47.094  27.412  24.560  1.00  0.00     0.148 A 
ATOM     68  C   UNL A   1      49.194  26.351  25.815  1.00  0.00     0.002 A 
ATOM     69  C   UNL A   1      48.264  27.152  23.889  1.00  0.00     0.091 A 
ATOM     70  F   UNL A   1      46.061  27.935  23.908  1.00  0.00    -0.205 F 
ATOM     71  C   UNL A   1      49.311  26.532  24.512  1.00  0.00     0.022 A 
BRANCH  69  72
ATOM     72  S   UNL A   1      48.422  27.638  22.153  1.00  0.00     0.127 S 
ATOM     73  O   UNL A   1      47.151  28.365  21.708  1.00  0.00    -0.237 OA
ATOM     74  O   UNL A   1      49.625  28.570  21.992  1.00  0.00    -0.237 OA
ATOM     75  O   UNL A   1      48.648  26.245  21.188  1.00  0.00    -0.744 OA
ENDBRANCH  69  72
ENDBRANCH  51  65
BRANCH  52  76
ATOM     76  C   UNL A   1      38.974  30.530  30.667  1.00  0.00     0.023 A 
ATOM     77  C   UNL A   1      38.775  30.238  32.006  1.00  0.00     0.012 A 
ATOM     78  C   UNL A   1      38.113  31.283  29.991  1.00  0.00     0.148 A 
ATOM     79  C   UNL A   1      37.477  30.550  32.476  1.00  0.00     0.002 A 
ATOM     80  C   UNL A   1      36.922  31.664  30.560  1.00  0.00     0.091 A 
ATOM     81  F   UNL A   1      38.406  31.670  28.753  1.00  0.00    -0.205 F 
ATOM     82  C   UNL A   1      36.633  31.358  31.861  1.00  0.00     0.022 A 
BRANCH  80  83
ATOM     83  S   UNL A   1      35.717  32.586  29.572  1.00  0.00     0.127 S 
ATOM     84  O   UNL A   1      35.473  31.854  28.251  1.00  0.00    -0.237 OA
ATOM     85  O   UNL A   1      34.400  32.695  30.346  1.00  0.00    -0.237 OA
ATOM     86  O   UNL A   1      36.320  34.153  29.253  1.00  0.00    -0.744 OA
ENDBRANCH  80  83
ENDBRANCH  52  76
BRANCH  64  87
ATOM     87  C   UNL A   1      45.396  33.036  29.324  1.00  0.00     0.023 A 
ATOM     88  C   UNL A   1      46.089  33.155  30.517  1.00  0.00     0.012 A 
ATOM     89  C   UNL A   1      45.246  34.074  28.509  1.00  0.00     0.148 A 
ATOM     90  C   UNL A   1      46.342  34.492  30.903  1.00  0.00     0.002 A 
ATOM     91  C   UNL A   1      45.640  35.331  28.897  1.00  0.00     0.091 A 
ATOM     92  F   UNL A   1      44.709  33.894  27.306  1.00  0.00    -0.205 F 
ATOM     93  C   UNL A   1      46.278  35.531  30.090  1.00  0.00     0.022 A 
BRANCH  91  94
ATOM     94  S   UNL A   1      45.312  36.744  27.814  1.00  0.00     0.127 S 
ATOM     95  O   UNL A   1      46.075  36.567  26.500  1.00  0.00    -0.237 OA
ATOM     96  O   UNL A   1      43.811  36.827  27.524  1.00  0.00    -0.237 OA
ATOM     97  O   UNL A   1      45.824  38.183  28.582  1.00  0.00    -0.744 OA
ENDBRANCH  91  94
ENDBRANCH  64  87
ENDBRANCH  38  39
ENDBRANCH  30  33
ENDBRANCH   1  29
TORSDOF 15
ENDMDL
MODEL 3
REMARK VINA RESULT:     -13.0      5.243      9.866
REMARK SMILES O=C(NCCCNC(=O)c1ccc(-c2c3nc(c(-c4cccc(S(=O)(=O)[O-])c4F)c4ccc([nH]4)c(-c4cccc(S(=O)(=O)[O-])c4F)c4nc(c(-c5cccc(S(=O)(=O)[O-])c5F)c5ccc2[nH]5)C=C4)C=C3)cc1)C1=Cc2cc(S(F)(F)(F)(F)F)cc(Br)c2O[C@H]1C(F)(F)F
REMARK SMILES IDX 6 1 5 2 4 3 3 4 1 5 2 6 73 8 74 9 89 10 75 11 88 12 76 13
REMARK SMILES IDX 87 14 77 15 85 16 84 17 86 18 90 19 91 20 92 21 93 22 78 23
REMARK SMILES IDX 79 24 80 25 81 26 82 27 83 28 7 29 8 30 9 32 10 33 11 34
REMARK SMILES IDX 72 35 12 36 71 37 13 38 14 39 15 40 65 41 16 42 70 43 64 44
REMARK SMILES IDX 66 45 17 46 69 47 63 48 62 49 18 51 50 52 30 53 49 54 31 55
REMARK SMILES IDX 34 56 48 57 67 58 32 59 33 60 47 62 68 63 35 64 19 65 20 66
REMARK SMILES IDX 28 67 21 68 23 69 29 70 22 71 24 72 25 73 26 74 27 75 51 76
REMARK SMILES IDX 52 77 60 78 53 79 55 80 61 81 54 82 56 83 57 84 58 85 59 86
REMARK SMILES IDX 36 87 37 88 45 89 38 90 40 91 46 92 39 93 41 94 42 95 43 96
REMARK SMILES IDX 44 97
REMARK H PARENT 3 7 7 31 66 50 34 61
REMARK Flexibility Score: inf
ROOT
ATOM      1  C   UNL A   1      32.632  28.553  26.536  1.00  0.00     0.118 C 
ENDROOT
BRANCH   1   2
ATOM      2  C   UNL A   1      31.467  27.582  26.642  1.00  0.00     0.042 C 
BRANCH   2   3
ATOM      3  C   UNL A   1      31.880  26.231  26.080  1.00  0.00     0.118 C 
BRANCH   3   4
ATOM      4  N   UNL A   1      30.873  25.775  25.111  1.00  0.00    -0.352 N 
ATOM      5  O   UNL A   1      30.154  25.704  22.848  1.00  0.00    -0.270 OA
ATOM      6  C   UNL A   1      31.025  26.098  23.686  1.00  0.00     0.251 C 
ATOM      7  H   UNL A   1      30.096  25.253  25.418  1.00  0.00     0.163 HD
BRANCH   6   8
ATOM      8  C   UNL A   1      32.223  26.904  23.213  1.00  0.00     0.067 C 
ATOM      9  C   UNL A   1      33.447  26.317  23.129  1.00  0.00     0.025 C 
ATOM     10  C   UNL A   1      32.055  28.367  22.834  1.00  0.00     0.314 C 
ATOM     11  C   UNL A   1      33.616  24.855  23.509  1.00  0.00     0.020 A 
ATOM     12  O   UNL A   1      31.518  24.362  22.509  1.00  0.00    -0.474 OA
ATOM     13  C   UNL A   1      34.751  24.490  24.214  1.00  0.00     0.036 A 
ATOM     14  C   UNL A   1      32.746  23.945  23.087  1.00  0.00     0.142 A 
ATOM     15  C   UNL A   1      35.030  23.103  24.175  1.00  0.00     0.109 A 
ATOM     16  C   UNL A   1      33.023  22.604  23.203  1.00  0.00     0.062 A 
ATOM     17  C   UNL A   1      34.156  22.174  23.836  1.00  0.00     0.044 A 
ATOM     18  Br  UNL A   1      31.778  21.291  22.450  1.00  0.00    -0.047 Br
BRANCH  10  19
ATOM     19  C   UNL A   1      30.602  28.773  23.015  1.00  0.00     0.429 C 
ATOM     20  F   UNL A   1      30.201  28.482  24.250  1.00  0.00    -0.167 F 
ATOM     21  F   UNL A   1      30.494  30.082  22.812  1.00  0.00    -0.167 F 
ATOM     22  F   UNL A   1      29.840  28.124  22.138  1.00  0.00    -0.167 F 
ENDBRANCH  10  19
BRANCH  15  23
ATOM     23  S   UNL A   1      36.701  22.568  24.620  1.00  0.00     0.310 S 
ATOM     24  F   UNL A   1      37.236  24.060  24.654  1.00  0.00    -0.094 F 
ATOM     25  F   UNL A   1      37.067  22.544  23.088  1.00  0.00    -0.094 F 
ATOM     26  F   UNL A   1      38.137  22.109  25.000  1.00  0.00    -0.094 F 
ATOM     27  F   UNL A   1      36.356  22.733  26.153  1.00  0.00    -0.094 F 
ATOM     28  F   UNL A   1      35.274  23.143  24.254  1.00  0.00    -0.094 F 
ENDBRANCH  15  23
ENDBRANCH   6   8
ENDBRANCH   3   4
ENDBRANCH   2   3
ENDBRANCH   1   2
BRANCH   1  29
ATOM     29  N   UNL A   1      32.119  29.930  26.492  1.00  0.00    -0.352 N 
ATOM     30  C   UNL A   1      32.939  31.036  27.007  1.00  0.00     0.251 C 
ATOM     31  H   UNL A   1      31.228  30.112  26.116  1.00  0.00     0.163 HD
ATOM     32  O   UNL A   1      32.496  32.227  26.969  1.00  0.00    -0.269 OA
BRANCH  30  33
ATOM     33  C   UNL A   1      34.316  30.756  27.586  1.00  0.00     0.039 A 
ATOM     34  C   UNL A   1      34.623  29.478  28.026  1.00  0.00     0.014 A 
ATOM     35  C   UNL A   1      35.136  31.776  27.809  1.00  0.00     0.014 A 
ATOM     36  C   UNL A   1      35.691  29.432  28.952  1.00  0.00     0.010 A 
ATOM     37  C   UNL A   1      36.237  31.625  28.616  1.00  0.00     0.010 A 
ATOM     38  C   UNL A   1      36.568  30.403  29.134  1.00  0.00    -0.014 A 
BRANCH  38  39
ATOM     39  C   UNL A   1      37.873  30.174  29.878  1.00  0.00     0.031 A 
ATOM     40  C   UNL A   1      37.962  30.720  31.160  1.00  0.00     0.074 A 
ATOM     41  C   UNL A   1      38.823  29.333  29.326  1.00  0.00     0.049 A 
ATOM     42  N   UNL A   1      38.920  30.515  32.066  1.00  0.00    -0.248 NA
ATOM     43  C   UNL A   1      36.971  31.642  31.734  1.00  0.00     0.031 C 
ATOM     44  C   UNL A   1      38.736  28.771  28.037  1.00  0.00     0.029 A 
ATOM     45  N   UNL A   1      39.996  28.891  29.900  1.00  0.00    -0.354 N 
ATOM     46  C   UNL A   1      38.650  31.193  33.183  1.00  0.00     0.074 A 
ATOM     47  C   UNL A   1      37.396  31.934  32.982  1.00  0.00     0.031 C 
ATOM     48  C   UNL A   1      39.845  28.013  27.832  1.00  0.00     0.029 A 
ATOM     49  C   UNL A   1      40.643  28.086  28.989  1.00  0.00     0.049 A 
ATOM     50  H   UNL A   1      40.316  29.113  30.804  1.00  0.00     0.167 HD
ATOM     51  C   UNL A   1      39.399  31.223  34.360  1.00  0.00     0.034 A 
ATOM     52  C   UNL A   1      41.863  27.446  29.140  1.00  0.00     0.034 A 
ATOM     53  C   UNL A   1      40.596  30.547  34.526  1.00  0.00     0.049 A 
ATOM     54  C   UNL A   1      42.642  27.522  30.297  1.00  0.00     0.074 A 
ATOM     55  C   UNL A   1      41.360  30.561  35.709  1.00  0.00     0.029 A 
ATOM     56  N   UNL A   1      41.257  29.762  33.607  1.00  0.00    -0.354 N 
ATOM     57  N   UNL A   1      42.353  28.169  31.426  1.00  0.00    -0.248 NA
ATOM     58  C   UNL A   1      43.950  26.873  30.456  1.00  0.00     0.031 C 
ATOM     59  C   UNL A   1      42.470  29.802  35.504  1.00  0.00     0.029 A 
ATOM     60  C   UNL A   1      42.418  29.303  34.188  1.00  0.00     0.049 A 
ATOM     61  H   UNL A   1      40.951  29.563  32.692  1.00  0.00     0.167 HD
ATOM     62  C   UNL A   1      43.331  27.996  32.318  1.00  0.00     0.074 A 
ATOM     63  C   UNL A   1      44.375  27.167  31.703  1.00  0.00     0.031 C 
ATOM     64  C   UNL A   1      43.391  28.495  33.621  1.00  0.00     0.034 A 
BRANCH  51  65
ATOM     65  C   UNL A   1      38.871  32.044  35.526  1.00  0.00     0.023 A 
ATOM     66  C   UNL A   1      39.154  33.397  35.615  1.00  0.00     0.012 A 
ATOM     67  C   UNL A   1      38.166  31.423  36.465  1.00  0.00     0.148 A 
ATOM     68  C   UNL A   1      38.893  33.953  36.890  1.00  0.00     0.002 A 
ATOM     69  C   UNL A   1      37.829  32.072  37.629  1.00  0.00     0.091 A 
ATOM     70  F   UNL A   1      37.785  30.164  36.278  1.00  0.00    -0.205 F 
ATOM     71  C   UNL A   1      38.130  33.393  37.811  1.00  0.00     0.022 A 
BRANCH  69  72
ATOM     72  S   UNL A   1      36.977  31.163  38.941  1.00  0.00     0.127 S 
ATOM     73  O   UNL A   1      36.761  29.713  38.501  1.00  0.00    -0.237 OA
ATOM     74  O   UNL A   1      37.825  31.188  40.214  1.00  0.00    -0.237 OA
ATOM     75  O   UNL A   1      35.463  31.895  39.251  1.00  0.00    -0.744 OA
ENDBRANCH  69  72
ENDBRANCH  51  65
BRANCH  52  76
ATOM     76  C   UNL A   1      42.382  26.611  27.980  1.00  0.00     0.023 A 
ATOM     77  C   UNL A   1      43.153  27.192  26.987  1.00  0.00     0.012 A 
ATOM     78  C   UNL A   1      42.103  25.313  27.964  1.00  0.00     0.148 A 
ATOM     79  C   UNL A   1      43.347  26.367  25.853  1.00  0.00     0.002 A 
ATOM     80  C   UNL A   1      42.441  24.539  26.881  1.00  0.00     0.091 A 
ATOM     81  F   UNL A   1      41.489  24.757  29.005  1.00  0.00    -0.205 F 
ATOM     82  C   UNL A   1      43.152  25.061  25.835  1.00  0.00     0.022 A 
BRANCH  80  83
ATOM     83  S   UNL A   1      41.939  22.800  26.835  1.00  0.00     0.127 S 
ATOM     84  O   UNL A   1      42.278  22.206  25.466  1.00  0.00    -0.237 OA
ATOM     85  O   UNL A   1      42.682  22.025  27.925  1.00  0.00    -0.237 OA
ATOM     86  O   UNL A   1      40.254  22.687  27.103  1.00  0.00    -0.744 OA
ENDBRANCH  80  83
ENDBRANCH  52  76
BRANCH  64  87
ATOM     87  C   UNL A   1      44.598  28.129  34.469  1.00  0.00     0.023 A 
ATOM     88  C   UNL A   1      45.746  28.901  34.396  1.00  0.00     0.012 A 
ATOM     89  C   UNL A   1      44.577  26.989  35.149  1.00  0.00     0.148 A 
ATOM     90  C   UNL A   1      46.914  28.235  34.839  1.00  0.00     0.002 A 
ATOM     91  C   UNL A   1      45.734  26.464  35.672  1.00  0.00     0.091 A 
ATOM     92  F   UNL A   1      43.425  26.349  35.327  1.00  0.00    -0.205 F 
ATOM     93  C   UNL A   1      46.917  27.144  35.585  1.00  0.00     0.022 A 
BRANCH  91  94
ATOM     94  S   UNL A   1      45.693  24.849  36.488  1.00  0.00     0.127 S 
ATOM     95  O   UNL A   1      45.221  23.787  35.493  1.00  0.00    -0.237 OA
ATOM     96  O   UNL A   1      47.096  24.493  36.987  1.00  0.00    -0.237 OA
ATOM     97  O   UNL A   1      44.615  24.909  37.815  1.00  0.00    -0.744 OA
ENDBRANCH  91  94
ENDBRANCH  64  87
ENDBRANCH  38  39
ENDBRANCH  30  33
ENDBRANCH   1  29
TORSDOF 15
ENDMDL
