MODEL 1
REMARK VINA RESULT:     -13.0      0.000      0.000
REMARK SMILES O=C(NCCCNC(=O)[C@@H]1CCCN1S(=O)(=O)c1ccc2[nH]c(=O)c(=O)[nH]c2c1)c1ccc(-c2c3nc(c(-c4cccc(S(=O)(=O)[O-])c4F)c4ccc([nH]4)c(-c4cccc(S(=O)(=O)[O-])c4F)c4nc(c(-c5cccc(S(=O)(=O)[O-])c5F)c5ccc2[nH]5)C=C4)C=C3)cc1
REMARK SMILES IDX 4 1 3 2 1 3 2 4 30 6 31 7 92 8 32 9 91 10 33 11 34 12 35 13
REMARK SMILES IDX 85 14 36 15 90 16 84 17 86 18 37 19 89 20 83 21 82 22 38 24
REMARK SMILES IDX 70 25 50 26 69 27 51 28 54 29 68 30 87 31 52 32 53 33 67 35
REMARK SMILES IDX 88 36 55 37 39 38 40 39 48 40 41 41 43 42 49 43 42 44 44 45
REMARK SMILES IDX 45 46 46 47 47 48 71 49 72 50 80 51 73 52 75 53 81 54 74 55
REMARK SMILES IDX 76 56 77 57 78 58 79 59 56 60 57 61 65 62 58 63 60 64 66 65
REMARK SMILES IDX 59 66 61 67 62 68 63 69 64 70 5 71 6 72 7 73 8 74 9 76 10 77
REMARK SMILES IDX 11 78 14 79 12 80 13 81 15 82 16 83 17 84 18 85 19 86 29 87
REMARK SMILES IDX 20 88 28 89 21 90 27 91 22 92 25 93 23 95 26 97 24 98
REMARK H PARENT 3 5 86 23 54 34 7 75 27 94 22 96
REMARK Flexibility Score: inf
ROOT
ATOM      1  C   UNL A   1      33.591  29.036  25.058  1.00  0.00     0.118 C 
ENDROOT
BRANCH   1   2
ATOM      2  N   UNL A   1      32.974  30.252  25.563  1.00  0.00    -0.352 N 
ATOM      3  O   UNL A   1      32.407  31.813  27.064  1.00  0.00    -0.269 OA
ATOM      4  C   UNL A   1      33.226  30.969  26.708  1.00  0.00     0.251 C 
ATOM      5  H   UNL A   1      32.261  30.621  24.993  1.00  0.00     0.163 HD
BRANCH   4   6
ATOM      6  C   UNL A   1      34.451  30.735  27.511  1.00  0.00     0.039 A 
ATOM      7  C   UNL A   1      34.715  29.493  28.089  1.00  0.00     0.014 A 
ATOM      8  C   UNL A   1      35.401  31.759  27.617  1.00  0.00     0.014 A 
ATOM      9  C   UNL A   1      35.851  29.314  28.875  1.00  0.00     0.010 A 
ATOM     10  C   UNL A   1      36.588  31.549  28.330  1.00  0.00     0.010 A 
ATOM     11  C   UNL A   1      36.815  30.331  28.986  1.00  0.00    -0.014 A 
BRANCH  11  12
ATOM     12  C   UNL A   1      38.084  30.045  29.708  1.00  0.00     0.031 A 
ATOM     13  C   UNL A   1      38.352  30.588  31.083  1.00  0.00     0.074 A 
ATOM     14  C   UNL A   1      38.997  29.254  29.108  1.00  0.00     0.049 A 
ATOM     15  N   UNL A   1      39.370  30.353  31.873  1.00  0.00    -0.248 NA
ATOM     16  C   UNL A   1      37.364  31.521  31.646  1.00  0.00     0.031 C 
ATOM     17  C   UNL A   1      38.885  28.727  27.745  1.00  0.00     0.029 A 
ATOM     18  N   UNL A   1      40.189  28.748  29.560  1.00  0.00    -0.354 N 
ATOM     19  C   UNL A   1      39.159  31.119  33.013  1.00  0.00     0.074 A 
ATOM     20  C   UNL A   1      37.925  31.847  32.805  1.00  0.00     0.031 C 
ATOM     21  C   UNL A   1      39.940  27.942  27.486  1.00  0.00     0.029 A 
ATOM     22  C   UNL A   1      40.825  27.940  28.645  1.00  0.00     0.049 A 
ATOM     23  H   UNL A   1      40.554  28.943  30.453  1.00  0.00     0.167 HD
ATOM     24  C   UNL A   1      39.910  31.190  34.139  1.00  0.00     0.034 A 
ATOM     25  C   UNL A   1      41.990  27.269  28.726  1.00  0.00     0.034 A 
ATOM     26  C   UNL A   1      41.122  30.443  34.355  1.00  0.00     0.049 A 
ATOM     27  C   UNL A   1      42.770  27.320  30.009  1.00  0.00     0.074 A 
ATOM     28  C   UNL A   1      41.933  30.422  35.476  1.00  0.00     0.029 A 
ATOM     29  N   UNL A   1      41.698  29.582  33.432  1.00  0.00    -0.354 N 
ATOM     30  N   UNL A   1      42.481  27.949  31.123  1.00  0.00    -0.248 NA
ATOM     31  C   UNL A   1      44.016  26.544  30.060  1.00  0.00     0.031 C 
ATOM     32  C   UNL A   1      43.002  29.552  35.230  1.00  0.00     0.029 A 
ATOM     33  C   UNL A   1      42.851  29.023  33.959  1.00  0.00     0.049 A 
ATOM     34  H   UNL A   1      41.341  29.396  32.534  1.00  0.00     0.167 HD
ATOM     35  C   UNL A   1      43.502  27.636  32.010  1.00  0.00     0.074 A 
ATOM     36  C   UNL A   1      44.393  26.727  31.319  1.00  0.00     0.031 C 
ATOM     37  C   UNL A   1      43.701  28.084  33.274  1.00  0.00     0.034 A 
BRANCH  24  38
ATOM     38  C   UNL A   1      39.408  32.061  35.262  1.00  0.00     0.023 A 
ATOM     39  C   UNL A   1      38.491  31.523  36.189  1.00  0.00     0.012 A 
ATOM     40  C   UNL A   1      39.893  33.369  35.452  1.00  0.00     0.148 A 
ATOM     41  C   UNL A   1      38.048  32.279  37.273  1.00  0.00     0.002 A 
ATOM     42  C   UNL A   1      39.474  34.106  36.555  1.00  0.00     0.091 A 
ATOM     43  F   UNL A   1      40.750  33.871  34.551  1.00  0.00    -0.205 F 
ATOM     44  C   UNL A   1      38.546  33.566  37.462  1.00  0.00     0.022 A 
BRANCH  42  45
ATOM     45  S   UNL A   1      40.106  35.746  36.926  1.00  0.00     0.127 S 
ATOM     46  O   UNL A   1      39.638  36.511  35.772  1.00  0.00    -0.237 OA
ATOM     47  O   UNL A   1      39.426  36.064  38.183  1.00  0.00    -0.237 OA
ATOM     48  O   UNL A   1      41.551  35.602  37.038  1.00  0.00    -0.744 OA
ENDBRANCH  42  45
ENDBRANCH  24  38
BRANCH  25  49
ATOM     49  C   UNL A   1      42.449  26.446  27.572  1.00  0.00     0.023 A 
ATOM     50  C   UNL A   1      43.332  27.002  26.626  1.00  0.00     0.012 A 
ATOM     51  C   UNL A   1      42.058  25.100  27.438  1.00  0.00     0.148 A 
ATOM     52  C   UNL A   1      43.798  26.237  25.555  1.00  0.00     0.002 A 
ATOM     53  C   UNL A   1      42.575  24.328  26.405  1.00  0.00     0.091 A 
ATOM     54  F   UNL A   1      41.199  24.592  28.333  1.00  0.00    -0.205 F 
ATOM     55  C   UNL A   1      43.431  24.897  25.452  1.00  0.00     0.022 A 
BRANCH  53  56
ATOM     56  S   UNL A   1      42.269  22.560  26.312  1.00  0.00     0.127 S 
ATOM     57  O   UNL A   1      40.814  22.510  26.217  1.00  0.00    -0.237 OA
ATOM     58  O   UNL A   1      42.981  22.183  25.090  1.00  0.00    -0.237 OA
ATOM     59  O   UNL A   1      42.854  22.012  27.529  1.00  0.00    -0.744 OA
ENDBRANCH  53  56
ENDBRANCH  25  49
BRANCH  37  60
ATOM     60  C   UNL A   1      44.931  27.593  33.991  1.00  0.00     0.023 A 
ATOM     61  C   UNL A   1      46.124  28.339  33.907  1.00  0.00     0.012 A 
ATOM     62  C   UNL A   1      44.898  26.427  34.779  1.00  0.00     0.148 A 
ATOM     63  C   UNL A   1      47.274  27.913  34.569  1.00  0.00     0.002 A 
ATOM     64  C   UNL A   1      46.038  26.032  35.470  1.00  0.00     0.091 A 
ATOM     65  F   UNL A   1      43.761  25.717  34.828  1.00  0.00    -0.205 F 
ATOM     66  C   UNL A   1      47.229  26.767  35.358  1.00  0.00     0.022 A 
BRANCH  64  67
ATOM     67  S   UNL A   1      46.039  24.615  36.573  1.00  0.00     0.127 S 
ATOM     68  O   UNL A   1      47.403  24.647  37.100  1.00  0.00    -0.237 OA
ATOM     69  O   UNL A   1      45.004  24.970  37.545  1.00  0.00    -0.237 OA
ATOM     70  O   UNL A   1      45.710  23.466  35.740  1.00  0.00    -0.744 OA
ENDBRANCH  64  67
ENDBRANCH  37  60
ENDBRANCH  11  12
ENDBRANCH   4   6
ENDBRANCH   1   2
BRANCH   1  71
ATOM     71  C   UNL A   1      32.750  27.798  25.358  1.00  0.00     0.042 C 
BRANCH  71  72
ATOM     72  C   UNL A   1      33.011  26.630  24.416  1.00  0.00     0.117 C 
BRANCH  72  73
ATOM     73  N   UNL A   1      34.268  25.942  24.673  1.00  0.00    -0.355 N 
ATOM     74  C   UNL A   1      34.631  24.854  25.397  1.00  0.00     0.238 C 
ATOM     75  H   UNL A   1      35.030  26.365  24.217  1.00  0.00     0.163 HD
ATOM     76  O   UNL A   1      35.832  24.557  25.320  1.00  0.00    -0.273 OA
BRANCH  74  77
ATOM     77  C   UNL A   1      33.716  23.984  26.239  1.00  0.00     0.162 C 
ATOM     78  C   UNL A   1      34.272  22.870  27.107  1.00  0.00     0.032 C 
ATOM     79  N   UNL A   1      32.447  23.402  25.669  1.00  0.00    -0.185 NA
ATOM     80  C   UNL A   1      33.024  22.360  27.800  1.00  0.00     0.019 C 
ATOM     81  C   UNL A   1      31.929  22.472  26.744  1.00  0.00     0.103 C 
BRANCH  79  82
ATOM     82  S   UNL A   1      32.451  22.639  24.136  1.00  0.00     0.243 S 
ATOM     83  O   UNL A   1      31.068  22.391  23.773  1.00  0.00    -0.207 OA
ATOM     84  O   UNL A   1      33.293  23.439  23.276  1.00  0.00    -0.207 OA
BRANCH  82  85
ATOM     85  C   UNL A   1      33.260  21.060  24.272  1.00  0.00     0.084 A 
ATOM     86  C   UNL A   1      34.627  21.001  24.549  1.00  0.00     0.024 A 
ATOM     87  C   UNL A   1      32.489  19.893  24.346  1.00  0.00     0.050 A 
ATOM     88  C   UNL A   1      35.264  19.775  24.748  1.00  0.00     0.030 A 
ATOM     89  C   UNL A   1      33.114  18.676  24.626  1.00  0.00     0.066 A 
ATOM     90  C   UNL A   1      34.503  18.613  24.786  1.00  0.00     0.065 A 
ATOM     91  N   UNL A   1      32.348  17.518  24.793  1.00  0.00    -0.316 N 
ATOM     92  N   UNL A   1      35.130  17.386  25.008  1.00  0.00    -0.316 N 
ATOM     93  C   UNL A   1      32.896  16.284  25.076  1.00  0.00     0.314 A 
ATOM     94  H   UNL A   1      31.370  17.587  24.704  1.00  0.00     0.170 HD
ATOM     95  C   UNL A   1      34.442  16.200  25.127  1.00  0.00     0.314 A 
ATOM     96  H   UNL A   1      36.111  17.369  25.085  1.00  0.00     0.170 HD
ATOM     97  O   UNL A   1      32.196  15.298  25.268  1.00  0.00    -0.263 OA
ATOM     98  O   UNL A   1      35.021  15.130  25.263  1.00  0.00    -0.263 OA
ENDBRANCH  82  85
ENDBRANCH  79  82
ENDBRANCH  74  77
ENDBRANCH  72  73
ENDBRANCH  71  72
ENDBRANCH   1  71
TORSDOF 15
ENDMDL
MODEL 2
REMARK VINA RESULT:     -12.9      2.203      4.515
REMARK SMILES O=C(NCCCNC(=O)[C@@H]1CCCN1S(=O)(=O)c1ccc2[nH]c(=O)c(=O)[nH]c2c1)c1ccc(-c2c3nc(c(-c4cccc(S(=O)(=O)[O-])c4F)c4ccc([nH]4)c(-c4cccc(S(=O)(=O)[O-])c4F)c4nc(c(-c5cccc(S(=O)(=O)[O-])c5F)c5ccc2[nH]5)C=C4)C=C3)cc1
REMARK SMILES IDX 4 1 3 2 1 3 2 4 30 6 31 7 92 8 32 9 91 10 33 11 34 12 35 13
REMARK SMILES IDX 85 14 36 15 90 16 84 17 86 18 37 19 89 20 83 21 82 22 38 24
REMARK SMILES IDX 70 25 50 26 69 27 51 28 54 29 68 30 87 31 52 32 53 33 67 35
REMARK SMILES IDX 88 36 55 37 39 38 40 39 48 40 41 41 43 42 49 43 42 44 44 45
REMARK SMILES IDX 45 46 46 47 47 48 71 49 72 50 80 51 73 52 75 53 81 54 74 55
REMARK SMILES IDX 76 56 77 57 78 58 79 59 56 60 57 61 65 62 58 63 60 64 66 65
REMARK SMILES IDX 59 66 61 67 62 68 63 69 64 70 5 71 6 72 7 73 8 74 9 76 10 77
REMARK SMILES IDX 11 78 14 79 12 80 13 81 15 82 16 83 17 84 18 85 19 86 29 87
REMARK SMILES IDX 20 88 28 89 21 90 27 91 22 92 25 93 23 95 26 97 24 98
REMARK H PARENT 3 5 86 23 54 34 7 75 27 94 22 96
REMARK Flexibility Score: inf
ROOT
ATOM      1  C   UNL A   1      32.583  29.596  26.058  1.00  0.00     0.118 C 
ENDROOT
BRANCH   1   2
ATOM      2  N   UNL A   1      32.468  31.032  26.251  1.00  0.00    -0.352 N 
ATOM      3  O   UNL A   1      32.731  33.009  27.268  1.00  0.00    -0.269 OA
ATOM      4  C   UNL A   1      33.174  31.880  27.071  1.00  0.00     0.251 C 
ATOM      5  H   UNL A   1      31.773  31.468  25.706  1.00  0.00     0.163 HD
BRANCH   4   6
ATOM      6  C   UNL A   1      34.438  31.453  27.718  1.00  0.00     0.039 A 
ATOM      7  C   UNL A   1      35.456  32.365  27.998  1.00  0.00     0.014 A 
ATOM      8  C   UNL A   1      34.574  30.122  28.133  1.00  0.00     0.014 A 
ATOM      9  C   UNL A   1      36.650  31.929  28.567  1.00  0.00     0.010 A 
ATOM     10  C   UNL A   1      35.739  29.703  28.789  1.00  0.00     0.010 A 
ATOM     11  C   UNL A   1      36.799  30.598  28.992  1.00  0.00    -0.014 A 
BRANCH  11  12
ATOM     12  C   UNL A   1      38.031  30.212  29.732  1.00  0.00     0.031 A 
ATOM     13  C   UNL A   1      38.295  30.688  31.132  1.00  0.00     0.074 A 
ATOM     14  C   UNL A   1      38.912  29.392  29.123  1.00  0.00     0.049 A 
ATOM     15  N   UNL A   1      39.278  30.366  31.935  1.00  0.00    -0.248 NA
ATOM     16  C   UNL A   1      37.349  31.656  31.707  1.00  0.00     0.031 C 
ATOM     17  C   UNL A   1      38.804  28.921  27.740  1.00  0.00     0.029 A 
ATOM     18  N   UNL A   1      40.061  28.801  29.583  1.00  0.00    -0.354 N 
ATOM     19  C   UNL A   1      39.083  31.101  33.098  1.00  0.00     0.074 A 
ATOM     20  C   UNL A   1      37.898  31.907  32.889  1.00  0.00     0.031 C 
ATOM     21  C   UNL A   1      39.819  28.087  27.475  1.00  0.00     0.029 A 
ATOM     22  C   UNL A   1      40.673  27.991  28.653  1.00  0.00     0.049 A 
ATOM     23  H   UNL A   1      40.415  28.942  30.491  1.00  0.00     0.167 HD
ATOM     24  C   UNL A   1      39.808  31.087  34.243  1.00  0.00     0.034 A 
ATOM     25  C   UNL A   1      41.795  27.251  28.736  1.00  0.00     0.034 A 
ATOM     26  C   UNL A   1      40.969  30.264  34.458  1.00  0.00     0.049 A 
ATOM     27  C   UNL A   1      42.544  27.210  30.037  1.00  0.00     0.074 A 
ATOM     28  C   UNL A   1      41.750  30.155  35.597  1.00  0.00     0.029 A 
ATOM     29  N   UNL A   1      41.518  29.405  33.518  1.00  0.00    -0.354 N 
ATOM     30  N   UNL A   1      42.264  27.813  31.167  1.00  0.00    -0.248 NA
ATOM     31  C   UNL A   1      43.742  26.361  30.088  1.00  0.00     0.031 C 
ATOM     32  C   UNL A   1      42.773  29.234  35.343  1.00  0.00     0.029 A 
ATOM     33  C   UNL A   1      42.623  28.760  34.049  1.00  0.00     0.049 A 
ATOM     34  H   UNL A   1      41.173  29.273  32.605  1.00  0.00     0.167 HD
ATOM     35  C   UNL A   1      43.243  27.410  32.065  1.00  0.00     0.074 A 
ATOM     36  C   UNL A   1      44.097  26.476  31.361  1.00  0.00     0.031 C 
ATOM     37  C   UNL A   1      43.436  27.799  33.350  1.00  0.00     0.034 A 
BRANCH  24  38
ATOM     38  C   UNL A   1      39.329  31.945  35.387  1.00  0.00     0.023 A 
ATOM     39  C   UNL A   1      38.460  31.385  36.346  1.00  0.00     0.012 A 
ATOM     40  C   UNL A   1      39.792  33.263  35.562  1.00  0.00     0.148 A 
ATOM     41  C   UNL A   1      38.040  32.129  37.447  1.00  0.00     0.002 A 
ATOM     42  C   UNL A   1      39.397  33.989  36.682  1.00  0.00     0.091 A 
ATOM     43  F   UNL A   1      40.603  33.786  34.631  1.00  0.00    -0.205 F 
ATOM     44  C   UNL A   1      38.516  33.426  37.621  1.00  0.00     0.022 A 
BRANCH  42  45
ATOM     45  S   UNL A   1      40.006  35.642  37.033  1.00  0.00     0.127 S 
ATOM     46  O   UNL A   1      39.291  35.963  38.267  1.00  0.00    -0.237 OA
ATOM     47  O   UNL A   1      41.442  35.415  37.203  1.00  0.00    -0.237 OA
ATOM     48  O   UNL A   1      39.654  36.453  35.876  1.00  0.00    -0.744 OA
ENDBRANCH  42  45
ENDBRANCH  24  38
BRANCH  25  49
ATOM     49  C   UNL A   1      42.235  26.445  27.562  1.00  0.00     0.023 A 
ATOM     50  C   UNL A   1      43.104  27.013  26.612  1.00  0.00     0.012 A 
ATOM     51  C   UNL A   1      41.840  25.101  27.413  1.00  0.00     0.148 A 
ATOM     52  C   UNL A   1      43.552  26.264  25.522  1.00  0.00     0.002 A 
ATOM     53  C   UNL A   1      42.339  24.344  26.361  1.00  0.00     0.091 A 
ATOM     54  F   UNL A   1      40.993  24.581  28.314  1.00  0.00    -0.205 F 
ATOM     55  C   UNL A   1      43.181  24.927  25.404  1.00  0.00     0.022 A 
BRANCH  53  56
ATOM     56  S   UNL A   1      42.029  22.578  26.246  1.00  0.00     0.127 S 
ATOM     57  O   UNL A   1      40.571  22.532  26.185  1.00  0.00    -0.237 OA
ATOM     58  O   UNL A   1      42.710  22.221  25.001  1.00  0.00    -0.237 OA
ATOM     59  O   UNL A   1      42.642  22.009  27.439  1.00  0.00    -0.744 OA
ENDBRANCH  53  56
ENDBRANCH  25  49
BRANCH  37  60
ATOM     60  C   UNL A   1      44.617  27.212  34.075  1.00  0.00     0.023 A 
ATOM     61  C   UNL A   1      45.865  27.861  34.002  1.00  0.00     0.012 A 
ATOM     62  C   UNL A   1      44.485  26.051  34.861  1.00  0.00     0.148 A 
ATOM     63  C   UNL A   1      46.973  27.345  34.672  1.00  0.00     0.002 A 
ATOM     64  C   UNL A   1      45.585  25.566  35.560  1.00  0.00     0.091 A 
ATOM     65  F   UNL A   1      43.295  25.434  34.900  1.00  0.00    -0.205 F 
ATOM     66  C   UNL A   1      46.831  26.205  35.459  1.00  0.00     0.022 A 
BRANCH  64  67
ATOM     67  S   UNL A   1      45.465  24.153  36.662  1.00  0.00     0.127 S 
ATOM     68  O   UNL A   1      46.845  24.017  37.125  1.00  0.00    -0.237 OA
ATOM     69  O   UNL A   1      44.525  24.624  37.679  1.00  0.00    -0.237 OA
ATOM     70  O   UNL A   1      44.962  23.057  35.844  1.00  0.00    -0.744 OA
ENDBRANCH  64  67
ENDBRANCH  37  60
ENDBRANCH  11  12
ENDBRANCH   4   6
ENDBRANCH   1   2
BRANCH   1  71
ATOM     71  C   UNL A   1      31.505  28.826  26.815  1.00  0.00     0.042 C 
BRANCH  71  72
ATOM     72  C   UNL A   1      31.691  27.315  26.790  1.00  0.00     0.117 C 
BRANCH  72  73
ATOM     73  N   UNL A   1      32.949  26.891  26.192  1.00  0.00    -0.355 N 
ATOM     74  C   UNL A   1      33.485  25.696  25.841  1.00  0.00     0.238 C 
ATOM     75  H   UNL A   1      33.549  27.646  25.999  1.00  0.00     0.163 HD
ATOM     76  O   UNL A   1      34.599  25.765  25.301  1.00  0.00    -0.273 OA
BRANCH  74  77
ATOM     77  C   UNL A   1      32.845  24.331  26.021  1.00  0.00     0.162 C 
ATOM     78  C   UNL A   1      33.683  23.065  26.022  1.00  0.00     0.032 C 
ATOM     79  N   UNL A   1      31.602  23.944  25.259  1.00  0.00    -0.185 NA
ATOM     80  C   UNL A   1      32.641  22.002  26.311  1.00  0.00     0.019 C 
ATOM     81  C   UNL A   1      31.394  22.479  25.575  1.00  0.00     0.103 C 
BRANCH  79  82
ATOM     82  S   UNL A   1      31.483  24.241  23.577  1.00  0.00     0.243 S 
ATOM     83  O   UNL A   1      32.763  23.897  22.986  1.00  0.00    -0.207 OA
ATOM     84  O   UNL A   1      30.277  23.586  23.125  1.00  0.00    -0.207 OA
BRANCH  82  85
ATOM     85  C   UNL A   1      31.219  25.980  23.308  1.00  0.00     0.084 A 
ATOM     86  C   UNL A   1      32.203  26.743  22.677  1.00  0.00     0.024 A 
ATOM     87  C   UNL A   1      29.941  26.522  23.501  1.00  0.00     0.050 A 
ATOM     88  C   UNL A   1      31.982  28.087  22.375  1.00  0.00     0.030 A 
ATOM     89  C   UNL A   1      29.695  27.844  23.124  1.00  0.00     0.066 A 
ATOM     90  C   UNL A   1      30.725  28.635  22.601  1.00  0.00     0.065 A 
ATOM     91  N   UNL A   1      28.405  28.372  23.227  1.00  0.00    -0.316 N 
ATOM     92  N   UNL A   1      30.489  29.972  22.280  1.00  0.00    -0.316 N 
ATOM     93  C   UNL A   1      28.087  29.666  22.868  1.00  0.00     0.314 A 
ATOM     94  H   UNL A   1      27.688  27.792  23.571  1.00  0.00     0.170 HD
ATOM     95  C   UNL A   1      29.256  30.572  22.409  1.00  0.00     0.314 A 
ATOM     96  H   UNL A   1      31.240  30.513  21.944  1.00  0.00     0.170 HD
ATOM     97  O   UNL A   1      26.938  30.085  22.920  1.00  0.00    -0.263 OA
ATOM     98  O   UNL A   1      29.091  31.762  22.175  1.00  0.00    -0.263 OA
ENDBRANCH  82  85
ENDBRANCH  79  82
ENDBRANCH  74  77
ENDBRANCH  72  73
ENDBRANCH  71  72
ENDBRANCH   1  71
TORSDOF 15
ENDMDL
MODEL 3
REMARK VINA RESULT:     -12.9      4.965      9.500
REMARK SMILES O=C(NCCCNC(=O)[C@@H]1CCCN1S(=O)(=O)c1ccc2[nH]c(=O)c(=O)[nH]c2c1)c1ccc(-c2c3nc(c(-c4cccc(S(=O)(=O)[O-])c4F)c4ccc([nH]4)c(-c4cccc(S(=O)(=O)[O-])c4F)c4nc(c(-c5cccc(S(=O)(=O)[O-])c5F)c5ccc2[nH]5)C=C4)C=C3)cc1
REMARK SMILES IDX 4 1 3 2 1 3 2 4 30 6 31 7 92 8 32 9 91 10 33 11 34 12 35 13
REMARK SMILES IDX 85 14 36 15 90 16 84 17 86 18 37 19 89 20 83 21 82 22 38 24
REMARK SMILES IDX 70 25 50 26 69 27 51 28 54 29 68 30 87 31 52 32 53 33 67 35
REMARK SMILES IDX 88 36 55 37 39 38 40 39 48 40 41 41 43 42 49 43 42 44 44 45
REMARK SMILES IDX 45 46 46 47 47 48 71 49 72 50 80 51 73 52 75 53 81 54 74 55
REMARK SMILES IDX 76 56 77 57 78 58 79 59 56 60 57 61 65 62 58 63 60 64 66 65
REMARK SMILES IDX 59 66 61 67 62 68 63 69 64 70 5 71 6 72 7 73 8 74 9 76 10 77
REMARK SMILES IDX 11 78 14 79 12 80 13 81 15 82 16 83 17 84 18 85 19 86 29 87
REMARK SMILES IDX 20 88 28 89 21 90 27 91 22 92 25 93 23 95 26 97 24 98
REMARK H PARENT 3 5 86 23 54 34 7 75 27 94 22 96
REMARK Flexibility Score: inf
ROOT
ATOM      1  C   UNL A   1      36.846  22.041  25.380  1.00  0.00     0.118 C 
ENDROOT
BRANCH   1   2
ATOM      2  N   UNL A   1      37.807  21.000  25.708  1.00  0.00    -0.352 N 
ATOM      3  O   UNL A   1      39.815  20.085  26.088  1.00  0.00    -0.269 OA
ATOM      4  C   UNL A   1      39.113  21.094  26.125  1.00  0.00     0.251 C 
ATOM      5  H   UNL A   1      37.468  20.080  25.616  1.00  0.00     0.163 HD
BRANCH   4   6
ATOM      6  C   UNL A   1      39.680  22.378  26.604  1.00  0.00     0.039 A 
ATOM      7  C   UNL A   1      40.735  22.412  27.517  1.00  0.00     0.014 A 
ATOM      8  C   UNL A   1      39.202  23.577  26.062  1.00  0.00     0.014 A 
ATOM      9  C   UNL A   1      41.219  23.631  27.983  1.00  0.00     0.010 A 
ATOM     10  C   UNL A   1      39.752  24.802  26.462  1.00  0.00     0.010 A 
ATOM     11  C   UNL A   1      40.751  24.842  27.445  1.00  0.00    -0.014 A 
BRANCH  11  12
ATOM     12  C   UNL A   1      41.403  26.114  27.860  1.00  0.00     0.031 A 
ATOM     13  C   UNL A   1      42.812  26.449  27.459  1.00  0.00     0.074 A 
ATOM     14  C   UNL A   1      40.687  26.989  28.596  1.00  0.00     0.049 A 
ATOM     15  N   UNL A   1      43.482  27.555  27.669  1.00  0.00    -0.248 NA
ATOM     16  C   UNL A   1      43.574  25.417  26.741  1.00  0.00     0.031 C 
ATOM     17  C   UNL A   1      39.336  26.746  29.109  1.00  0.00     0.029 A 
ATOM     18  N   UNL A   1      40.982  28.255  29.032  1.00  0.00    -0.354 N 
ATOM     19  C   UNL A   1      44.746  27.347  27.131  1.00  0.00     0.074 A 
ATOM     20  C   UNL A   1      44.759  25.999  26.603  1.00  0.00     0.031 C 
ATOM     21  C   UNL A   1      38.905  27.838  29.755  1.00  0.00     0.029 A 
ATOM     22  C   UNL A   1      39.959  28.846  29.738  1.00  0.00     0.049 A 
ATOM     23  H   UNL A   1      41.843  28.699  28.856  1.00  0.00     0.167 HD
ATOM     24  C   UNL A   1      45.791  28.208  27.060  1.00  0.00     0.034 A 
ATOM     25  C   UNL A   1      39.874  30.062  30.309  1.00  0.00     0.034 A 
ATOM     26  C   UNL A   1      45.765  29.558  27.561  1.00  0.00     0.049 A 
ATOM     27  C   UNL A   1      41.025  31.016  30.162  1.00  0.00     0.074 A 
ATOM     28  C   UNL A   1      46.762  30.517  27.505  1.00  0.00     0.029 A 
ATOM     29  N   UNL A   1      44.687  30.143  28.209  1.00  0.00    -0.354 N 
ATOM     30  N   UNL A   1      42.162  30.842  29.533  1.00  0.00    -0.248 NA
ATOM     31  C   UNL A   1      40.871  32.343  30.772  1.00  0.00     0.031 C 
ATOM     32  C   UNL A   1      46.288  31.681  28.122  1.00  0.00     0.029 A 
ATOM     33  C   UNL A   1      44.992  31.450  28.554  1.00  0.00     0.049 A 
ATOM     34  H   UNL A   1      43.831  29.695  28.398  1.00  0.00     0.167 HD
ATOM     35  C   UNL A   1      42.854  32.039  29.661  1.00  0.00     0.074 A 
ATOM     36  C   UNL A   1      41.989  32.945  30.390  1.00  0.00     0.031 C 
ATOM     37  C   UNL A   1      44.104  32.353  29.239  1.00  0.00     0.034 A 
BRANCH  24  38
ATOM     38  C   UNL A   1      47.038  27.741  26.355  1.00  0.00     0.023 A 
ATOM     39  C   UNL A   1      48.009  27.022  27.083  1.00  0.00     0.012 A 
ATOM     40  C   UNL A   1      47.218  27.936  24.972  1.00  0.00     0.148 A 
ATOM     41  C   UNL A   1      49.148  26.525  26.453  1.00  0.00     0.002 A 
ATOM     42  C   UNL A   1      48.340  27.407  24.341  1.00  0.00     0.091 A 
ATOM     43  F   UNL A   1      46.294  28.637  24.299  1.00  0.00    -0.205 F 
ATOM     44  C   UNL A   1      49.309  26.708  25.081  1.00  0.00     0.022 A 
BRANCH  42  45
ATOM     45  S   UNL A   1      48.608  27.529  22.569  1.00  0.00     0.127 S 
ATOM     46  O   UNL A   1      48.616  26.122  22.175  1.00  0.00    -0.237 OA
ATOM     47  O   UNL A   1      47.430  28.277  22.128  1.00  0.00    -0.237 OA
ATOM     48  O   UNL A   1      49.872  28.234  22.403  1.00  0.00    -0.744 OA
ENDBRANCH  42  45
ENDBRANCH  24  38
BRANCH  25  49
ATOM     49  C   UNL A   1      38.624  30.459  31.018  1.00  0.00     0.023 A 
ATOM     50  C   UNL A   1      38.501  30.221  32.400  1.00  0.00     0.012 A 
ATOM     51  C   UNL A   1      37.582  31.119  30.339  1.00  0.00     0.148 A 
ATOM     52  C   UNL A   1      37.351  30.613  33.088  1.00  0.00     0.002 A 
ATOM     53  C   UNL A   1      36.468  31.562  31.043  1.00  0.00     0.091 A 
ATOM     54  F   UNL A   1      37.704  31.317  29.019  1.00  0.00    -0.205 F 
ATOM     55  C   UNL A   1      36.341  31.295  32.413  1.00  0.00     0.022 A 
BRANCH  53  56
ATOM     56  S   UNL A   1      35.214  32.585  30.264  1.00  0.00     0.127 S 
ATOM     57  O   UNL A   1      34.263  32.779  31.354  1.00  0.00    -0.237 OA
ATOM     58  O   UNL A   1      35.973  33.779  29.888  1.00  0.00    -0.237 OA
ATOM     59  O   UNL A   1      34.741  31.803  29.128  1.00  0.00    -0.744 OA
ENDBRANCH  53  56
ENDBRANCH  25  49
BRANCH  37  60
ATOM     60  C   UNL A   1      44.609  33.735  29.557  1.00  0.00     0.023 A 
ATOM     61  C   UNL A   1      45.262  33.968  30.783  1.00  0.00     0.012 A 
ATOM     62  C   UNL A   1      44.480  34.787  28.630  1.00  0.00     0.148 A 
ATOM     63  C   UNL A   1      45.749  35.235  31.098  1.00  0.00     0.002 A 
ATOM     64  C   UNL A   1      45.005  36.038  28.934  1.00  0.00     0.091 A 
ATOM     65  F   UNL A   1      43.834  34.553  27.478  1.00  0.00    -0.205 F 
ATOM     66  C   UNL A   1      45.630  36.267  30.171  1.00  0.00     0.022 A 
BRANCH  64  67
ATOM     67  S   UNL A   1      44.967  37.398  27.761  1.00  0.00     0.127 S 
ATOM     68  O   UNL A   1      43.537  37.509  27.478  1.00  0.00    -0.237 OA
ATOM     69  O   UNL A   1      45.521  38.504  28.542  1.00  0.00    -0.237 OA
ATOM     70  O   UNL A   1      45.802  36.977  26.643  1.00  0.00    -0.744 OA
ENDBRANCH  64  67
ENDBRANCH  37  60
ENDBRANCH  11  12
ENDBRANCH   4   6
ENDBRANCH   1   2
BRANCH   1  71
ATOM     71  C   UNL A   1      36.646  22.184  23.874  1.00  0.00     0.042 C 
BRANCH  71  72
ATOM     72  C   UNL A   1      35.661  23.278  23.482  1.00  0.00     0.117 C 
BRANCH  72  73
ATOM     73  N   UNL A   1      35.304  24.163  24.582  1.00  0.00    -0.355 N 
ATOM     74  C   UNL A   1      34.467  25.220  24.724  1.00  0.00     0.238 C 
ATOM     75  H   UNL A   1      35.780  23.943  25.414  1.00  0.00     0.163 HD
ATOM     76  O   UNL A   1      34.411  25.688  25.870  1.00  0.00    -0.273 OA
BRANCH  74  77
ATOM     77  C   UNL A   1      33.602  25.838  23.640  1.00  0.00     0.162 C 
ATOM     78  C   UNL A   1      33.039  27.241  23.789  1.00  0.00     0.032 C 
ATOM     79  N   UNL A   1      32.479  25.063  22.999  1.00  0.00    -0.185 NA
ATOM     80  C   UNL A   1      32.338  27.439  22.460  1.00  0.00     0.019 C 
ATOM     81  C   UNL A   1      31.764  26.068  22.123  1.00  0.00     0.103 C 
BRANCH  79  82
ATOM     82  S   UNL A   1      31.373  24.176  23.959  1.00  0.00     0.243 S 
ATOM     83  O   UNL A   1      31.144  24.940  25.171  1.00  0.00    -0.207 OA
ATOM     84  O   UNL A   1      30.263  23.830  23.100  1.00  0.00    -0.207 OA
BRANCH  82  85
ATOM     85  C   UNL A   1      32.117  22.631  24.432  1.00  0.00     0.084 A 
ATOM     86  C   UNL A   1      32.418  22.386  25.774  1.00  0.00     0.024 A 
ATOM     87  C   UNL A   1      32.171  21.579  23.508  1.00  0.00     0.050 A 
ATOM     88  C   UNL A   1      32.919  21.149  26.180  1.00  0.00     0.030 A 
ATOM     89  C   UNL A   1      32.596  20.318  23.932  1.00  0.00     0.066 A 
ATOM     90  C   UNL A   1      33.007  20.116  25.254  1.00  0.00     0.065 A 
ATOM     91  N   UNL A   1      32.570  19.237  23.045  1.00  0.00    -0.316 N 
ATOM     92  N   UNL A   1      33.485  18.869  25.659  1.00  0.00    -0.316 N 
ATOM     93  C   UNL A   1      32.968  17.963  23.395  1.00  0.00     0.314 A 
ATOM     94  H   UNL A   1      32.251  19.392  22.127  1.00  0.00     0.170 HD
ATOM     95  C   UNL A   1      33.539  17.776  24.823  1.00  0.00     0.314 A 
ATOM     96  H   UNL A   1      33.797  18.765  26.587  1.00  0.00     0.170 HD
ATOM     97  O   UNL A   1      32.886  17.025  22.613  1.00  0.00    -0.263 OA
ATOM     98  O   UNL A   1      34.018  16.709  25.187  1.00  0.00    -0.263 OA
ENDBRANCH  82  85
ENDBRANCH  79  82
ENDBRANCH  74  77
ENDBRANCH  72  73
ENDBRANCH  71  72
ENDBRANCH   1  71
TORSDOF 15
ENDMDL
