MODEL 1
REMARK VINA RESULT:     -12.0      0.000      0.000
REMARK SMILES CSc1ccccc1NC(=O)[C@@H]1CC=CC[C@H]1C(=O)NCCCNC(=O)c1ccc(-c2c3nc(c(-c4cccc(S(=O)(=O)[O-])c4F)c4ccc([nH]4)c(-c4cccc(S(=O)(=O)[O-])c4F)c4nc(c(-c5cccc(S(=O)(=O)[O-])c5F)c5ccc2[nH]5)C=C4)C=C3)cc1
REMARK SMILES IDX 22 1 21 2 20 3 18 4 19 5 17 7 12 8 13 9 14 10 16 11 15 12
REMARK SMILES IDX 10 13 9 14 11 16 8 17 3 18 4 19 5 20 7 21 6 22 2 23 1 24
REMARK SMILES IDX 23 25 24 26 25 27 26 29 27 30 28 31 89 32 29 33 88 34 30 35
REMARK SMILES IDX 31 36 32 37 82 38 33 39 87 40 81 41 83 42 34 43 86 44 80 45
REMARK SMILES IDX 79 46 35 48 67 49 47 50 66 51 48 52 51 53 65 54 84 55 49 56
REMARK SMILES IDX 50 57 64 59 85 60 52 61 36 62 37 63 45 64 38 65 40 66 46 67
REMARK SMILES IDX 39 68 41 69 42 70 43 71 44 72 68 73 69 74 77 75 70 76 72 77
REMARK SMILES IDX 78 78 71 79 73 80 74 81 75 82 76 83 53 84 54 85 62 86 55 87
REMARK SMILES IDX 57 88 63 89 56 90 58 91 59 92 60 93 61 94
REMARK H PARENT 20 6 9 15 24 28 83 47 51 58
REMARK Flexibility Score: inf
ROOT
ATOM      1  C   UNL A   1      33.338  28.092  26.049  1.00  0.00     0.042 C 
ENDROOT
BRANCH   1   2
ATOM      2  C   UNL A   1      33.164  29.092  24.905  1.00  0.00     0.117 C 
BRANCH   2   3
ATOM      3  N   UNL A   1      33.903  28.792  23.688  1.00  0.00    -0.356 N 
ATOM      4  C   UNL A   1      33.562  28.129  22.549  1.00  0.00     0.224 C 
ATOM      5  O   UNL A   1      34.321  28.262  21.583  1.00  0.00    -0.275 OA
ATOM      6  H   UNL A   1      34.826  29.135  23.689  1.00  0.00     0.163 HD
BRANCH   4   7
ATOM      7  C   UNL A   1      32.325  27.242  22.420  1.00  0.00     0.095 C 
ATOM      8  C   UNL A   1      32.493  25.865  23.113  1.00  0.00     0.095 C 
ATOM      9  C   UNL A   1      31.146  25.270  23.611  1.00  0.00     0.041 C 
ATOM     10  C   UNL A   1      30.125  26.249  24.091  1.00  0.00    -0.030 C 
ATOM     11  C   UNL A   1      31.108  28.117  22.779  1.00  0.00     0.041 C 
ATOM     12  C   UNL A   1      30.102  27.526  23.706  1.00  0.00    -0.030 C 
BRANCH   8  13
ATOM     13  C   UNL A   1      33.053  24.789  22.152  1.00  0.00     0.228 C 
ATOM     14  N   UNL A   1      33.402  23.542  22.610  1.00  0.00    -0.325 N 
ATOM     15  H   UNL A   1      33.000  22.797  22.107  1.00  0.00     0.169 HD
ATOM     16  O   UNL A   1      33.011  24.955  20.929  1.00  0.00    -0.274 OA
BRANCH  14  17
ATOM     17  C   UNL A   1      34.238  23.141  23.679  1.00  0.00     0.054 A 
ATOM     18  C   UNL A   1      33.887  22.136  24.609  1.00  0.00     0.031 A 
ATOM     19  C   UNL A   1      34.839  21.772  25.596  1.00  0.00     0.017 A 
ATOM     20  C   UNL A   1      36.109  22.341  25.653  1.00  0.00     0.001 A 
ATOM     21  C   UNL A   1      35.540  23.648  23.726  1.00  0.00     0.027 A 
ATOM     22  C   UNL A   1      36.466  23.273  24.699  1.00  0.00     0.002 A 
BRANCH  18  23
ATOM     23  S   UNL A   1      32.333  21.264  24.846  1.00  0.00    -0.127 SA
ATOM     24  C   UNL A   1      31.255  22.334  25.817  1.00  0.00     0.091 C 
ENDBRANCH  18  23
ENDBRANCH  14  17
ENDBRANCH   8  13
ENDBRANCH   4   7
ENDBRANCH   2   3
ENDBRANCH   1   2
BRANCH   1  25
ATOM     25  C   UNL A   1      33.331  28.650  27.469  1.00  0.00     0.118 C 
BRANCH  25  26
ATOM     26  N   UNL A   1      33.397  30.096  27.561  1.00  0.00    -0.352 N 
ATOM     27  C   UNL A   1      34.470  30.886  27.910  1.00  0.00     0.251 C 
ATOM     28  H   UNL A   1      32.566  30.577  27.344  1.00  0.00     0.163 HD
ATOM     29  O   UNL A   1      34.340  32.109  27.918  1.00  0.00    -0.269 OA
BRANCH  27  30
ATOM     30  C   UNL A   1      35.760  30.283  28.332  1.00  0.00     0.039 A 
ATOM     31  C   UNL A   1      36.835  30.342  27.442  1.00  0.00     0.014 A 
ATOM     32  C   UNL A   1      35.927  29.659  29.574  1.00  0.00     0.014 A 
ATOM     33  C   UNL A   1      38.085  29.837  27.814  1.00  0.00     0.010 A 
ATOM     34  C   UNL A   1      37.191  29.198  29.964  1.00  0.00     0.010 A 
ATOM     35  C   UNL A   1      38.288  29.286  29.092  1.00  0.00    -0.014 A 
BRANCH  35  36
ATOM     36  C   UNL A   1      39.652  28.855  29.513  1.00  0.00     0.031 A 
ATOM     37  C   UNL A   1      40.397  29.561  30.616  1.00  0.00     0.074 A 
ATOM     38  C   UNL A   1      40.251  27.829  28.873  1.00  0.00     0.049 A 
ATOM     39  N   UNL A   1      41.558  29.267  31.144  1.00  0.00    -0.248 NA
ATOM     40  C   UNL A   1      39.765  30.760  31.190  1.00  0.00     0.031 C 
ATOM     41  C   UNL A   1      39.689  27.105  27.732  1.00  0.00     0.029 A 
ATOM     42  N   UNL A   1      41.467  27.223  29.082  1.00  0.00    -0.354 N 
ATOM     43  C   UNL A   1      41.809  30.249  32.095  1.00  0.00     0.074 A 
ATOM     44  C   UNL A   1      40.690  31.167  32.049  1.00  0.00     0.031 C 
ATOM     45  C   UNL A   1      40.550  26.147  27.351  1.00  0.00     0.029 A 
ATOM     46  C   UNL A   1      41.733  26.196  28.205  1.00  0.00     0.049 A 
ATOM     47  H   UNL A   1      42.089  27.498  29.794  1.00  0.00     0.167 HD
ATOM     48  C   UNL A   1      42.857  30.362  32.949  1.00  0.00     0.034 A 
ATOM     49  C   UNL A   1      42.800  25.379  28.101  1.00  0.00     0.034 A 
ATOM     50  C   UNL A   1      43.953  29.432  33.027  1.00  0.00     0.049 A 
ATOM     51  C   UNL A   1      43.927  25.497  29.092  1.00  0.00     0.074 A 
ATOM     52  C   UNL A   1      45.004  29.418  33.928  1.00  0.00     0.029 A 
ATOM     53  N   UNL A   1      44.149  28.361  32.171  1.00  0.00    -0.354 N 
ATOM     54  N   UNL A   1      44.051  26.318  30.107  1.00  0.00    -0.248 NA
ATOM     55  C   UNL A   1      45.044  24.550  28.949  1.00  0.00     0.031 C 
ATOM     56  C   UNL A   1      45.848  28.350  33.603  1.00  0.00     0.029 A 
ATOM     57  C   UNL A   1      45.311  27.686  32.514  1.00  0.00     0.049 A 
ATOM     58  H   UNL A   1      43.552  28.115  31.428  1.00  0.00     0.167 HD
ATOM     59  C   UNL A   1      45.238  25.964  30.742  1.00  0.00     0.074 A 
ATOM     60  C   UNL A   1      45.785  24.840  30.011  1.00  0.00     0.031 C 
ATOM     61  C   UNL A   1      45.827  26.532  31.822  1.00  0.00     0.034 A 
BRANCH  48  62
ATOM     62  C   UNL A   1      42.841  31.510  33.927  1.00  0.00     0.023 A 
ATOM     63  C   UNL A   1      43.360  32.761  33.531  1.00  0.00     0.012 A 
ATOM     64  C   UNL A   1      42.245  31.379  35.196  1.00  0.00     0.148 A 
ATOM     65  C   UNL A   1      43.317  33.854  34.395  1.00  0.00     0.002 A 
ATOM     66  C   UNL A   1      42.168  32.485  36.037  1.00  0.00     0.091 A 
ATOM     67  F   UNL A   1      41.772  30.180  35.561  1.00  0.00    -0.205 F 
ATOM     68  C   UNL A   1      42.712  33.718  35.643  1.00  0.00     0.022 A 
BRANCH  66  69
ATOM     69  S   UNL A   1      41.340  32.434  37.630  1.00  0.00     0.127 S 
ATOM     70  O   UNL A   1      41.372  33.842  38.025  1.00  0.00    -0.237 OA
ATOM     71  O   UNL A   1      40.011  31.933  37.272  1.00  0.00    -0.237 OA
ATOM     72  O   UNL A   1      42.124  31.531  38.460  1.00  0.00    -0.744 OA
ENDBRANCH  66  69
ENDBRANCH  48  62
BRANCH  49  73
ATOM     73  C   UNL A   1      42.819  24.314  27.058  1.00  0.00     0.023 A 
ATOM     74  C   UNL A   1      43.529  24.530  25.860  1.00  0.00     0.012 A 
ATOM     75  C   UNL A   1      42.162  23.084  27.253  1.00  0.00     0.148 A 
ATOM     76  C   UNL A   1      43.559  23.553  24.864  1.00  0.00     0.002 A 
ATOM     77  C   UNL A   1      42.244  22.093  26.282  1.00  0.00     0.091 A 
ATOM     78  F   UNL A   1      41.478  22.903  28.392  1.00  0.00    -0.205 F 
ATOM     79  C   UNL A   1      42.926  22.333  25.079  1.00  0.00     0.022 A 
BRANCH  77  80
ATOM     80  S   UNL A   1      41.574  20.445  26.531  1.00  0.00     0.127 S 
ATOM     81  O   UNL A   1      40.137  20.688  26.441  1.00  0.00    -0.237 OA
ATOM     82  O   UNL A   1      42.148  19.711  25.402  1.00  0.00    -0.237 OA
ATOM     83  O   UNL A   1      42.067  20.016  27.833  1.00  0.00    -0.744 OA
ENDBRANCH  77  80
ENDBRANCH  49  73
BRANCH  61  84
ATOM     84  C   UNL A   1      47.125  25.940  32.311  1.00  0.00     0.023 A 
ATOM     85  C   UNL A   1      48.347  26.412  31.794  1.00  0.00     0.012 A 
ATOM     86  C   UNL A   1      47.136  24.970  33.335  1.00  0.00     0.148 A 
ATOM     87  C   UNL A   1      49.560  25.907  32.265  1.00  0.00     0.002 A 
ATOM     88  C   UNL A   1      48.350  24.505  33.831  1.00  0.00     0.091 A 
ATOM     89  F   UNL A   1      45.964  24.517  33.801  1.00  0.00    -0.205 F 
ATOM     90  C   UNL A   1      49.561  24.964  33.290  1.00  0.00     0.022 A 
BRANCH  88  91
ATOM     91  S   UNL A   1      48.450  23.359  35.212  1.00  0.00     0.127 S 
ATOM     92  O   UNL A   1      49.894  23.179  35.345  1.00  0.00    -0.237 OA
ATOM     93  O   UNL A   1      47.828  24.121  36.295  1.00  0.00    -0.237 OA
ATOM     94  O   UNL A   1      47.705  22.176  34.804  1.00  0.00    -0.744 OA
ENDBRANCH  88  91
ENDBRANCH  61  84
ENDBRANCH  35  36
ENDBRANCH  27  30
ENDBRANCH  25  26
ENDBRANCH   1  25
TORSDOF 16
ENDMDL
MODEL 2
REMARK VINA RESULT:     -11.9      2.215      2.916
REMARK SMILES CSc1ccccc1NC(=O)[C@@H]1CC=CC[C@H]1C(=O)NCCCNC(=O)c1ccc(-c2c3nc(c(-c4cccc(S(=O)(=O)[O-])c4F)c4ccc([nH]4)c(-c4cccc(S(=O)(=O)[O-])c4F)c4nc(c(-c5cccc(S(=O)(=O)[O-])c5F)c5ccc2[nH]5)C=C4)C=C3)cc1
REMARK SMILES IDX 22 1 21 2 20 3 18 4 19 5 17 7 12 8 13 9 14 10 16 11 15 12
REMARK SMILES IDX 10 13 9 14 11 16 8 17 3 18 4 19 5 20 7 21 6 22 2 23 1 24
REMARK SMILES IDX 23 25 24 26 25 27 26 29 27 30 28 31 89 32 29 33 88 34 30 35
REMARK SMILES IDX 31 36 32 37 82 38 33 39 87 40 81 41 83 42 34 43 86 44 80 45
REMARK SMILES IDX 79 46 35 48 67 49 47 50 66 51 48 52 51 53 65 54 84 55 49 56
REMARK SMILES IDX 50 57 64 59 85 60 52 61 36 62 37 63 45 64 38 65 40 66 46 67
REMARK SMILES IDX 39 68 41 69 42 70 43 71 44 72 68 73 69 74 77 75 70 76 72 77
REMARK SMILES IDX 78 78 71 79 73 80 74 81 75 82 76 83 53 84 54 85 62 86 55 87
REMARK SMILES IDX 57 88 63 89 56 90 58 91 59 92 60 93 61 94
REMARK H PARENT 20 6 9 15 24 28 83 47 51 58
REMARK Flexibility Score: inf
ROOT
ATOM      1  C   UNL A   1      31.694  29.599  27.245  1.00  0.00     0.042 C 
ENDROOT
BRANCH   1   2
ATOM      2  C   UNL A   1      32.086  28.175  27.640  1.00  0.00     0.117 C 
BRANCH   2   3
ATOM      3  N   UNL A   1      31.138  27.134  27.270  1.00  0.00    -0.356 N 
ATOM      4  C   UNL A   1      30.999  26.381  26.144  1.00  0.00     0.224 C 
ATOM      5  O   UNL A   1      30.258  25.395  26.226  1.00  0.00    -0.275 OA
ATOM      6  H   UNL A   1      30.470  26.938  27.966  1.00  0.00     0.163 HD
BRANCH   4   7
ATOM      7  C   UNL A   1      31.688  26.697  24.818  1.00  0.00     0.095 C 
ATOM      8  C   UNL A   1      32.096  25.425  24.030  1.00  0.00     0.095 C 
ATOM      9  C   UNL A   1      32.122  25.649  22.492  1.00  0.00     0.041 C 
ATOM     10  C   UNL A   1      31.109  26.598  21.942  1.00  0.00    -0.030 C 
ATOM     11  C   UNL A   1      30.833  27.771  24.116  1.00  0.00     0.041 C 
ATOM     12  C   UNL A   1      30.540  27.560  22.670  1.00  0.00    -0.030 C 
BRANCH   8  13
ATOM     13  C   UNL A   1      33.530  24.958  24.372  1.00  0.00     0.228 C 
ATOM     14  N   UNL A   1      34.054  23.815  23.821  1.00  0.00    -0.325 N 
ATOM     15  H   UNL A   1      34.934  23.935  23.395  1.00  0.00     0.169 HD
ATOM     16  O   UNL A   1      34.305  25.701  24.986  1.00  0.00    -0.274 OA
BRANCH  14  17
ATOM     17  C   UNL A   1      33.551  22.494  23.757  1.00  0.00     0.054 A 
ATOM     18  C   UNL A   1      33.687  21.556  24.805  1.00  0.00     0.031 A 
ATOM     19  C   UNL A   1      33.078  20.284  24.653  1.00  0.00     0.017 A 
ATOM     20  C   UNL A   1      32.325  19.948  23.528  1.00  0.00     0.001 A 
ATOM     21  C   UNL A   1      32.740  22.147  22.672  1.00  0.00     0.027 A 
ATOM     22  C   UNL A   1      32.143  20.894  22.540  1.00  0.00     0.002 A 
BRANCH  18  23
ATOM     23  S   UNL A   1      34.629  21.649  26.333  1.00  0.00    -0.127 SA
ATOM     24  C   UNL A   1      33.604  22.495  27.551  1.00  0.00     0.091 C 
ENDBRANCH  18  23
ENDBRANCH  14  17
ENDBRANCH   8  13
ENDBRANCH   4   7
ENDBRANCH   2   3
ENDBRANCH   1   2
BRANCH   1  25
ATOM     25  C   UNL A   1      32.769  30.460  26.590  1.00  0.00     0.118 C 
BRANCH  25  26
ATOM     26  N   UNL A   1      32.744  31.862  26.961  1.00  0.00    -0.352 N 
ATOM     27  C   UNL A   1      33.695  32.587  27.645  1.00  0.00     0.251 C 
ATOM     28  H   UNL A   1      31.942  32.363  26.688  1.00  0.00     0.163 HD
ATOM     29  O   UNL A   1      33.504  33.783  27.857  1.00  0.00    -0.269 OA
BRANCH  27  30
ATOM     30  C   UNL A   1      34.918  31.934  28.179  1.00  0.00     0.039 A 
ATOM     31  C   UNL A   1      36.113  32.658  28.155  1.00  0.00     0.014 A 
ATOM     32  C   UNL A   1      34.911  30.631  28.691  1.00  0.00     0.014 A 
ATOM     33  C   UNL A   1      37.280  32.107  28.696  1.00  0.00     0.010 A 
ATOM     34  C   UNL A   1      36.068  30.101  29.277  1.00  0.00     0.010 A 
ATOM     35  C   UNL A   1      37.265  30.834  29.292  1.00  0.00    -0.014 A 
BRANCH  35  36
ATOM     36  C   UNL A   1      38.490  30.309  29.963  1.00  0.00     0.031 A 
ATOM     37  C   UNL A   1      38.879  30.750  31.350  1.00  0.00     0.074 A 
ATOM     38  C   UNL A   1      39.287  29.441  29.305  1.00  0.00     0.049 A 
ATOM     39  N   UNL A   1      39.873  30.337  32.096  1.00  0.00    -0.248 NA
ATOM     40  C   UNL A   1      38.059  31.801  31.974  1.00  0.00     0.031 C 
ATOM     41  C   UNL A   1      39.084  28.988  27.928  1.00  0.00     0.029 A 
ATOM     42  N   UNL A   1      40.433  28.792  29.700  1.00  0.00    -0.354 N 
ATOM     43  C   UNL A   1      39.814  31.086  33.265  1.00  0.00     0.074 A 
ATOM     44  C   UNL A   1      38.703  32.003  33.116  1.00  0.00     0.031 C 
ATOM     45  C   UNL A   1      40.061  28.128  27.598  1.00  0.00     0.029 A 
ATOM     46  C   UNL A   1      40.972  27.979  28.730  1.00  0.00     0.049 A 
ATOM     47  H   UNL A   1      40.830  28.900  30.595  1.00  0.00     0.167 HD
ATOM     48  C   UNL A   1      40.591  31.001  34.373  1.00  0.00     0.034 A 
ATOM     49  C   UNL A   1      42.068  27.194  28.746  1.00  0.00     0.034 A 
ATOM     50  C   UNL A   1      41.672  30.066  34.544  1.00  0.00     0.049 A 
ATOM     51  C   UNL A   1      42.886  27.084  30.005  1.00  0.00     0.074 A 
ATOM     52  C   UNL A   1      42.447  29.846  35.671  1.00  0.00     0.029 A 
ATOM     53  N   UNL A   1      42.142  29.205  33.565  1.00  0.00    -0.354 N 
ATOM     54  N   UNL A   1      42.695  27.662  31.166  1.00  0.00    -0.248 NA
ATOM     55  C   UNL A   1      44.046  26.180  29.971  1.00  0.00     0.031 C 
ATOM     56  C   UNL A   1      43.400  28.867  35.366  1.00  0.00     0.029 A 
ATOM     57  C   UNL A   1      43.203  28.461  34.057  1.00  0.00     0.049 A 
ATOM     58  H   UNL A   1      41.775  29.132  32.655  1.00  0.00     0.167 HD
ATOM     59  C   UNL A   1      43.688  27.167  32.007  1.00  0.00     0.074 A 
ATOM     60  C   UNL A   1      44.464  26.224  31.229  1.00  0.00     0.031 C 
ATOM     61  C   UNL A   1      43.941  27.481  33.301  1.00  0.00     0.034 A 
BRANCH  48  62
ATOM     62  C   UNL A   1      40.260  31.908  35.532  1.00  0.00     0.023 A 
ATOM     63  C   UNL A   1      41.002  33.094  35.713  1.00  0.00     0.012 A 
ATOM     64  C   UNL A   1      39.173  31.635  36.385  1.00  0.00     0.148 A 
ATOM     65  C   UNL A   1      40.690  33.977  36.746  1.00  0.00     0.002 A 
ATOM     66  C   UNL A   1      38.842  32.542  37.387  1.00  0.00     0.091 A 
ATOM     67  F   UNL A   1      38.489  30.497  36.208  1.00  0.00    -0.205 F 
ATOM     68  C   UNL A   1      39.604  33.706  37.575  1.00  0.00     0.022 A 
BRANCH  66  69
ATOM     69  S   UNL A   1      37.415  32.323  38.456  1.00  0.00     0.127 S 
ATOM     70  O   UNL A   1      37.865  32.974  39.686  1.00  0.00    -0.237 OA
ATOM     71  O   UNL A   1      36.370  33.048  37.731  1.00  0.00    -0.237 OA
ATOM     72  O   UNL A   1      37.201  30.886  38.548  1.00  0.00    -0.744 OA
ENDBRANCH  66  69
ENDBRANCH  48  62
BRANCH  49  73
ATOM     73  C   UNL A   1      42.416  26.382  27.545  1.00  0.00     0.023 A 
ATOM     74  C   UNL A   1      43.150  26.973  26.497  1.00  0.00     0.012 A 
ATOM     75  C   UNL A   1      42.048  25.027  27.445  1.00  0.00     0.148 A 
ATOM     76  C   UNL A   1      43.484  26.239  25.359  1.00  0.00     0.002 A 
ATOM     77  C   UNL A   1      42.433  24.285  26.334  1.00  0.00     0.091 A 
ATOM     78  F   UNL A   1      41.336  24.486  28.444  1.00  0.00    -0.205 F 
ATOM     79  C   UNL A   1      43.135  24.894  25.283  1.00  0.00     0.022 A 
BRANCH  77  80
ATOM     80  S   UNL A   1      42.145  22.516  26.213  1.00  0.00     0.127 S 
ATOM     81  O   UNL A   1      42.797  22.191  24.947  1.00  0.00    -0.237 OA
ATOM     82  O   UNL A   1      42.830  22.015  27.406  1.00  0.00    -0.237 OA
ATOM     83  O   UNL A   1      40.698  22.353  26.244  1.00  0.00    -0.744 OA
ENDBRANCH  77  80
ENDBRANCH  49  73
BRANCH  61  84
ATOM     84  C   UNL A   1      45.091  26.784  33.984  1.00  0.00     0.023 A 
ATOM     85  C   UNL A   1      46.383  27.342  33.921  1.00  0.00     0.012 A 
ATOM     86  C   UNL A   1      44.879  25.619  34.749  1.00  0.00     0.148 A 
ATOM     87  C   UNL A   1      47.452  26.736  34.582  1.00  0.00     0.002 A 
ATOM     88  C   UNL A   1      45.940  25.046  35.443  1.00  0.00     0.091 A 
ATOM     89  F   UNL A   1      43.648  25.090  34.782  1.00  0.00    -0.205 F 
ATOM     90  C   UNL A   1      47.228  25.597  35.351  1.00  0.00     0.022 A 
BRANCH  88  91
ATOM     91  S   UNL A   1      45.727  23.632  36.531  1.00  0.00     0.127 S 
ATOM     92  O   UNL A   1      44.873  24.188  37.579  1.00  0.00    -0.237 OA
ATOM     93  O   UNL A   1      45.066  22.662  35.657  1.00  0.00    -0.237 OA
ATOM     94  O   UNL A   1      47.067  23.247  36.953  1.00  0.00    -0.744 OA
ENDBRANCH  88  91
ENDBRANCH  61  84
ENDBRANCH  35  36
ENDBRANCH  27  30
ENDBRANCH  25  26
ENDBRANCH   1  25
TORSDOF 16
ENDMDL
MODEL 3
REMARK VINA RESULT:     -11.9      2.213      3.140
REMARK SMILES CSc1ccccc1NC(=O)[C@@H]1CC=CC[C@H]1C(=O)NCCCNC(=O)c1ccc(-c2c3nc(c(-c4cccc(S(=O)(=O)[O-])c4F)c4ccc([nH]4)c(-c4cccc(S(=O)(=O)[O-])c4F)c4nc(c(-c5cccc(S(=O)(=O)[O-])c5F)c5ccc2[nH]5)C=C4)C=C3)cc1
REMARK SMILES IDX 22 1 21 2 20 3 18 4 19 5 17 7 12 8 13 9 14 10 16 11 15 12
REMARK SMILES IDX 10 13 9 14 11 16 8 17 3 18 4 19 5 20 7 21 6 22 2 23 1 24
REMARK SMILES IDX 23 25 24 26 25 27 26 29 27 30 28 31 89 32 29 33 88 34 30 35
REMARK SMILES IDX 31 36 32 37 82 38 33 39 87 40 81 41 83 42 34 43 86 44 80 45
REMARK SMILES IDX 79 46 35 48 67 49 47 50 66 51 48 52 51 53 65 54 84 55 49 56
REMARK SMILES IDX 50 57 64 59 85 60 52 61 36 62 37 63 45 64 38 65 40 66 46 67
REMARK SMILES IDX 39 68 41 69 42 70 43 71 44 72 68 73 69 74 77 75 70 76 72 77
REMARK SMILES IDX 78 78 71 79 73 80 74 81 75 82 76 83 53 84 54 85 62 86 55 87
REMARK SMILES IDX 57 88 63 89 56 90 58 91 59 92 60 93 61 94
REMARK H PARENT 20 6 9 15 24 28 83 47 51 58
REMARK Flexibility Score: inf
ROOT
ATOM      1  C   UNL A   1      32.250  29.555  25.300  1.00  0.00     0.042 C 
ENDROOT
BRANCH   1   2
ATOM      2  C   UNL A   1      33.341  28.494  25.151  1.00  0.00     0.117 C 
BRANCH   2   3
ATOM      3  N   UNL A   1      33.985  28.431  23.848  1.00  0.00    -0.356 N 
ATOM      4  C   UNL A   1      33.561  27.971  22.639  1.00  0.00     0.224 C 
ATOM      5  O   UNL A   1      34.240  28.290  21.657  1.00  0.00    -0.275 OA
ATOM      6  H   UNL A   1      34.903  28.788  23.840  1.00  0.00     0.163 HD
BRANCH   4   7
ATOM      7  C   UNL A   1      32.325  27.094  22.447  1.00  0.00     0.095 C 
ATOM      8  C   UNL A   1      32.288  25.881  23.414  1.00  0.00     0.095 C 
ATOM      9  C   UNL A   1      30.843  25.419  23.749  1.00  0.00     0.041 C 
ATOM     10  C   UNL A   1      29.804  26.488  23.824  1.00  0.00    -0.030 C 
ATOM     11  C   UNL A   1      31.110  28.041  22.389  1.00  0.00     0.041 C 
ATOM     12  C   UNL A   1      29.920  27.662  23.201  1.00  0.00    -0.030 C 
BRANCH   8  13
ATOM     13  C   UNL A   1      32.960  24.627  22.806  1.00  0.00     0.228 C 
ATOM     14  N   UNL A   1      32.968  23.430  23.480  1.00  0.00    -0.325 N 
ATOM     15  H   UNL A   1      32.641  22.665  22.953  1.00  0.00     0.169 HD
ATOM     16  O   UNL A   1      33.325  24.618  21.626  1.00  0.00    -0.274 OA
BRANCH  14  17
ATOM     17  C   UNL A   1      33.364  23.105  24.798  1.00  0.00     0.054 A 
ATOM     18  C   UNL A   1      34.711  23.059  25.219  1.00  0.00     0.031 A 
ATOM     19  C   UNL A   1      34.981  22.788  26.586  1.00  0.00     0.017 A 
ATOM     20  C   UNL A   1      33.965  22.606  27.524  1.00  0.00     0.001 A 
ATOM     21  C   UNL A   1      32.370  22.978  25.774  1.00  0.00     0.027 A 
ATOM     22  C   UNL A   1      32.652  22.720  27.116  1.00  0.00     0.002 A 
BRANCH  18  23
ATOM     23  S   UNL A   1      36.231  23.183  24.268  1.00  0.00    -0.127 SA
ATOM     24  C   UNL A   1      37.538  22.395  25.228  1.00  0.00     0.091 C 
ENDBRANCH  18  23
ENDBRANCH  14  17
ENDBRANCH   8  13
ENDBRANCH   4   7
ENDBRANCH   2   3
ENDBRANCH   1   2
BRANCH   1  25
ATOM     25  C   UNL A   1      31.977  30.082  26.705  1.00  0.00     0.118 C 
BRANCH  25  26
ATOM     26  N   UNL A   1      31.960  31.527  26.827  1.00  0.00    -0.352 N 
ATOM     27  C   UNL A   1      32.942  32.360  27.316  1.00  0.00     0.251 C 
ATOM     28  H   UNL A   1      31.137  31.972  26.519  1.00  0.00     0.163 HD
ATOM     29  O   UNL A   1      32.752  33.574  27.326  1.00  0.00    -0.269 OA
BRANCH  27  30
ATOM     30  C   UNL A   1      34.201  31.809  27.881  1.00  0.00     0.039 A 
ATOM     31  C   UNL A   1      35.253  32.696  28.125  1.00  0.00     0.014 A 
ATOM     32  C   UNL A   1      34.365  30.449  28.164  1.00  0.00     0.014 A 
ATOM     33  C   UNL A   1      36.439  32.235  28.707  1.00  0.00     0.010 A 
ATOM     34  C   UNL A   1      35.534  29.999  28.792  1.00  0.00     0.010 A 
ATOM     35  C   UNL A   1      36.583  30.887  29.077  1.00  0.00    -0.014 A 
BRANCH  35  36
ATOM     36  C   UNL A   1      37.809  30.436  29.798  1.00  0.00     0.031 A 
ATOM     37  C   UNL A   1      38.106  30.886  31.205  1.00  0.00     0.074 A 
ATOM     38  C   UNL A   1      38.691  29.631  29.169  1.00  0.00     0.049 A 
ATOM     39  N   UNL A   1      39.091  30.530  31.991  1.00  0.00    -0.248 NA
ATOM     40  C   UNL A   1      37.191  31.872  31.801  1.00  0.00     0.031 C 
ATOM     41  C   UNL A   1      38.579  29.183  27.780  1.00  0.00     0.029 A 
ATOM     42  N   UNL A   1      39.858  29.055  29.610  1.00  0.00    -0.354 N 
ATOM     43  C   UNL A   1      38.930  31.259  33.164  1.00  0.00     0.074 A 
ATOM     44  C   UNL A   1      37.768  32.102  32.973  1.00  0.00     0.031 C 
ATOM     45  C   UNL A   1      39.626  28.394  27.487  1.00  0.00     0.029 A 
ATOM     46  C   UNL A   1      40.494  28.291  28.658  1.00  0.00     0.049 A 
ATOM     47  H   UNL A   1      40.208  29.178  30.522  1.00  0.00     0.167 HD
ATOM     48  C   UNL A   1      39.661  31.213  34.305  1.00  0.00     0.034 A 
ATOM     49  C   UNL A   1      41.638  27.581  28.715  1.00  0.00     0.034 A 
ATOM     50  C   UNL A   1      40.794  30.349  34.516  1.00  0.00     0.049 A 
ATOM     51  C   UNL A   1      42.404  27.510  30.009  1.00  0.00     0.074 A 
ATOM     52  C   UNL A   1      41.531  30.168  35.675  1.00  0.00     0.029 A 
ATOM     53  N   UNL A   1      41.363  29.533  33.551  1.00  0.00    -0.354 N 
ATOM     54  N   UNL A   1      42.124  28.059  31.166  1.00  0.00    -0.248 NA
ATOM     55  C   UNL A   1      43.623  26.685  30.019  1.00  0.00     0.031 C 
ATOM     56  C   UNL A   1      42.559  29.258  35.404  1.00  0.00     0.029 A 
ATOM     57  C   UNL A   1      42.449  28.855  34.083  1.00  0.00     0.049 A 
ATOM     58  H   UNL A   1      41.043  29.448  32.625  1.00  0.00     0.167 HD
ATOM     59  C   UNL A   1      43.109  27.622  32.046  1.00  0.00     0.074 A 
ATOM     60  C   UNL A   1      43.980  26.742  31.296  1.00  0.00     0.031 C 
ATOM     61  C   UNL A   1      43.283  27.936  33.353  1.00  0.00     0.034 A 
BRANCH  48  62
ATOM     62  C   UNL A   1      39.219  32.082  35.455  1.00  0.00     0.023 A 
ATOM     63  C   UNL A   1      38.352  31.546  36.431  1.00  0.00     0.012 A 
ATOM     64  C   UNL A   1      39.720  33.388  35.618  1.00  0.00     0.148 A 
ATOM     65  C   UNL A   1      37.964  32.308  37.532  1.00  0.00     0.002 A 
ATOM     66  C   UNL A   1      39.361  34.127  36.741  1.00  0.00     0.091 A 
ATOM     67  F   UNL A   1      40.530  33.886  34.674  1.00  0.00    -0.205 F 
ATOM     68  C   UNL A   1      38.476  33.593  37.691  1.00  0.00     0.022 A 
BRANCH  66  69
ATOM     69  S   UNL A   1      40.028  35.761  37.078  1.00  0.00     0.127 S 
ATOM     70  O   UNL A   1      41.456  35.474  37.212  1.00  0.00    -0.237 OA
ATOM     71  O   UNL A   1      39.667  36.499  35.866  1.00  0.00    -0.237 OA
ATOM     72  O   UNL A   1      39.364  36.222  38.288  1.00  0.00    -0.744 OA
ENDBRANCH  66  69
ENDBRANCH  48  62
BRANCH  49  73
ATOM     73  C   UNL A   1      42.092  26.808  27.524  1.00  0.00     0.023 A 
ATOM     74  C   UNL A   1      42.780  27.472  26.489  1.00  0.00     0.012 A 
ATOM     75  C   UNL A   1      41.871  25.421  27.422  1.00  0.00     0.148 A 
ATOM     76  C   UNL A   1      43.211  26.775  25.360  1.00  0.00     0.002 A 
ATOM     77  C   UNL A   1      42.353  24.723  26.321  1.00  0.00     0.091 A 
ATOM     78  F   UNL A   1      41.201  24.810  28.409  1.00  0.00    -0.205 F 
ATOM     79  C   UNL A   1      43.007  25.400  25.281  1.00  0.00     0.022 A 
BRANCH  77  80
ATOM     80  S   UNL A   1      42.255  22.933  26.200  1.00  0.00     0.127 S 
ATOM     81  O   UNL A   1      42.857  22.686  24.893  1.00  0.00    -0.237 OA
ATOM     82  O   UNL A   1      43.066  22.508  27.343  1.00  0.00    -0.237 OA
ATOM     83  O   UNL A   1      40.840  22.610  26.321  1.00  0.00    -0.744 OA
ENDBRANCH  77  80
ENDBRANCH  49  73
BRANCH  61  84
ATOM     84  C   UNL A   1      44.445  27.309  34.081  1.00  0.00     0.023 A 
ATOM     85  C   UNL A   1      45.710  27.929  34.043  1.00  0.00     0.012 A 
ATOM     86  C   UNL A   1      44.268  26.149  34.862  1.00  0.00     0.148 A 
ATOM     87  C   UNL A   1      46.788  27.388  34.746  1.00  0.00     0.002 A 
ATOM     88  C   UNL A   1      45.336  25.641  35.595  1.00  0.00     0.091 A 
ATOM     89  F   UNL A   1      43.064  25.560  34.870  1.00  0.00    -0.205 F 
ATOM     90  C   UNL A   1      46.598  26.252  35.529  1.00  0.00     0.022 A 
BRANCH  88  91
ATOM     91  S   UNL A   1      45.161  24.237  36.704  1.00  0.00     0.127 S 
ATOM     92  O   UNL A   1      44.223  24.757  37.697  1.00  0.00    -0.237 OA
ATOM     93  O   UNL A   1      44.607  23.210  35.822  1.00  0.00    -0.237 OA
ATOM     94  O   UNL A   1      46.500  23.948  37.197  1.00  0.00    -0.744 OA
ENDBRANCH  88  91
ENDBRANCH  61  84
ENDBRANCH  35  36
ENDBRANCH  27  30
ENDBRANCH  25  26
ENDBRANCH   1  25
TORSDOF 16
ENDMDL
