MODEL 1
REMARK VINA RESULT:     -12.7      0.000      0.000
REMARK SMILES COc1ccc([C@@H](CC(=O)NCCCNC(=O)c2ccc(-c3c4nc(c(-c5cccc(S(=O)(=O)[O-])c5F)c5ccc([nH]5)c(-c5cccc(S(=O)(=O)[O-])c5F)c5nc(c(-c6cccc(S(=O)(=O)[O-])c6F)c6ccc3[nH]6)C=C5)C=C4)cc2)NC(=O)c2ccc(Cl)c([N+](=O)[O-])c2)cc1
REMARK SMILES IDX 12 1 11 2 9 3 10 4 8 6 7 7 6 8 3 9 4 10 95 11 5 12 94 13
REMARK SMILES IDX 2 14 1 15 81 16 82 17 83 19 84 20 85 21 93 22 86 23 89 24
REMARK SMILES IDX 87 25 88 26 90 27 91 28 92 29 13 30 14 31 15 32 16 33 17 35
REMARK SMILES IDX 18 36 19 37 80 38 20 39 79 40 21 41 22 42 23 43 73 44 24 45
REMARK SMILES IDX 78 46 72 47 74 48 25 49 77 50 71 51 70 52 26 54 58 55 38 56
REMARK SMILES IDX 57 57 39 58 42 59 56 60 75 61 40 62 41 63 55 65 76 66 43 67
REMARK SMILES IDX 27 68 28 69 36 70 29 71 31 72 37 73 30 74 32 75 33 76 34 77
REMARK SMILES IDX 35 78 59 79 60 80 68 81 61 82 63 83 69 84 62 85 64 86 65 87
REMARK SMILES IDX 66 88 67 89 44 90 45 91 53 92 46 93 48 94 54 95 47 96 49 97
REMARK SMILES IDX 50 98 51 99 52 100
REMARK H PARENT 11 5 81 18 15 34 74 53 42 64
REMARK Flexibility Score: inf
ROOT
ATOM      1  C   UNL A   1      33.449  30.088  26.806  1.00  0.00     0.117 C 
ENDROOT
BRANCH   1   2
ATOM      2  N   UNL A   1      32.534  29.304  27.623  1.00  0.00    -0.356 N 
ATOM      3  C   UNL A   1      32.003  28.069  27.396  1.00  0.00     0.222 C 
ATOM      4  O   UNL A   1      31.032  27.729  28.076  1.00  0.00    -0.275 OA
ATOM      5  H   UNL A   1      32.257  29.729  28.466  1.00  0.00     0.163 HD
BRANCH   3   6
ATOM      6  C   UNL A   1      32.624  27.110  26.403  1.00  0.00     0.129 C 
BRANCH   6   7
ATOM      7  C   UNL A   1      31.633  26.205  25.645  1.00  0.00     0.122 C 
BRANCH   7   8
ATOM      8  C   UNL A   1      30.838  26.944  24.579  1.00  0.00    -0.025 A 
ATOM      9  C   UNL A   1      29.343  28.595  22.869  1.00  0.00     0.118 A 
ATOM     10  C   UNL A   1      28.792  27.407  23.344  1.00  0.00     0.047 A 
ATOM     11  C   UNL A   1      30.660  28.928  23.164  1.00  0.00     0.047 A 
ATOM     12  C   UNL A   1      29.542  26.574  24.186  1.00  0.00     0.010 A 
ATOM     13  C   UNL A   1      31.406  28.100  24.002  1.00  0.00     0.010 A 
BRANCH   9  14
ATOM     14  O   UNL A   1      28.524  29.530  22.301  1.00  0.00    -0.497 OA
ATOM     15  C   UNL A   1      29.195  30.776  22.134  1.00  0.00     0.278 C 
ENDBRANCH   9  14
ENDBRANCH   7   8
BRANCH   7  16
ATOM     16  N   UNL A   1      30.813  25.398  26.549  1.00  0.00    -0.345 N 
ATOM     17  C   UNL A   1      30.816  24.043  26.760  1.00  0.00     0.252 C 
ATOM     18  H   UNL A   1      30.160  25.903  27.085  1.00  0.00     0.164 HD
ATOM     19  O   UNL A   1      29.945  23.490  27.418  1.00  0.00    -0.269 OA
BRANCH  17  20
ATOM     20  C   UNL A   1      31.916  23.233  26.205  1.00  0.00     0.046 A 
ATOM     21  C   UNL A   1      33.240  23.597  26.461  1.00  0.00     0.016 A 
ATOM     22  C   UNL A   1      31.627  22.114  25.422  1.00  0.00     0.101 A 
ATOM     23  C   UNL A   1      34.284  22.792  25.990  1.00  0.00     0.028 A 
ATOM     24  C   UNL A   1      32.680  21.305  24.981  1.00  0.00     0.288 A 
ATOM     25  C   UNL A   1      34.010  21.625  25.264  1.00  0.00     0.118 A 
ATOM     26  Cl  UNL A   1      35.351  20.632  24.824  1.00  0.00    -0.077 Cl
BRANCH  24  27
ATOM     27  N   UNL A   1      32.325  20.088  24.278  1.00  0.00     0.064 N 
ATOM     28  O   UNL A   1      32.166  19.057  24.942  1.00  0.00    -0.258 OA
ATOM     29  O   UNL A   1      32.266  20.160  23.041  1.00  0.00    -0.258 OA
ENDBRANCH  24  27
ENDBRANCH  17  20
ENDBRANCH   7  16
ENDBRANCH   6   7
ENDBRANCH   3   6
ENDBRANCH   1   2
BRANCH   1  30
ATOM     30  C   UNL A   1      32.741  31.313  26.239  1.00  0.00     0.042 C 
BRANCH  30  31
ATOM     31  C   UNL A   1      31.907  32.096  27.243  1.00  0.00     0.118 C 
BRANCH  31  32
ATOM     32  N   UNL A   1      32.340  33.477  27.342  1.00  0.00    -0.352 N 
ATOM     33  C   UNL A   1      33.413  34.058  27.975  1.00  0.00     0.251 C 
ATOM     34  H   UNL A   1      31.759  34.116  26.869  1.00  0.00     0.163 HD
ATOM     35  O   UNL A   1      33.388  35.283  28.113  1.00  0.00    -0.269 OA
BRANCH  33  36
ATOM     36  C   UNL A   1      34.591  33.297  28.484  1.00  0.00     0.039 A 
ATOM     37  C   UNL A   1      34.374  32.377  29.521  1.00  0.00     0.014 A 
ATOM     38  C   UNL A   1      35.906  33.544  28.084  1.00  0.00     0.014 A 
ATOM     39  C   UNL A   1      35.448  31.718  30.135  1.00  0.00     0.010 A 
ATOM     40  C   UNL A   1      36.971  32.820  28.637  1.00  0.00     0.010 A 
ATOM     41  C   UNL A   1      36.762  31.922  29.694  1.00  0.00    -0.014 A 
BRANCH  41  42
ATOM     42  C   UNL A   1      37.918  31.240  30.349  1.00  0.00     0.031 A 
ATOM     43  C   UNL A   1      38.307  31.571  31.771  1.00  0.00     0.074 A 
ATOM     44  C   UNL A   1      38.661  30.351  29.657  1.00  0.00     0.049 A 
ATOM     45  N   UNL A   1      39.303  31.108  32.485  1.00  0.00    -0.248 NA
ATOM     46  C   UNL A   1      37.484  32.567  32.477  1.00  0.00     0.031 C 
ATOM     47  C   UNL A   1      38.445  29.978  28.259  1.00  0.00     0.029 A 
ATOM     48  N   UNL A   1      39.761  29.616  30.030  1.00  0.00    -0.354 N 
ATOM     49  C   UNL A   1      39.253  31.784  33.700  1.00  0.00     0.074 A 
ATOM     50  C   UNL A   1      38.144  32.709  33.618  1.00  0.00     0.031 C 
ATOM     51  C   UNL A   1      39.377  29.082  27.894  1.00  0.00     0.029 A 
ATOM     52  C   UNL A   1      40.275  28.836  29.020  1.00  0.00     0.049 A 
ATOM     53  H   UNL A   1      40.145  29.645  30.936  1.00  0.00     0.167 HD
ATOM     54  C   UNL A   1      40.034  31.632  34.799  1.00  0.00     0.034 A 
ATOM     55  C   UNL A   1      41.348  28.019  28.994  1.00  0.00     0.034 A 
ATOM     56  C   UNL A   1      41.096  30.669  34.915  1.00  0.00     0.049 A 
ATOM     57  C   UNL A   1      42.167  27.831  30.242  1.00  0.00     0.074 A 
ATOM     58  C   UNL A   1      41.877  30.380  36.022  1.00  0.00     0.029 A 
ATOM     59  N   UNL A   1      41.527  29.836  33.896  1.00  0.00    -0.354 N 
ATOM     60  N   UNL A   1      42.004  28.367  31.427  1.00  0.00    -0.248 NA
ATOM     61  C   UNL A   1      43.301  26.896  30.161  1.00  0.00     0.031 C 
ATOM     62  C   UNL A   1      42.789  29.380  35.668  1.00  0.00     0.029 A 
ATOM     63  C   UNL A   1      42.566  29.037  34.344  1.00  0.00     0.049 A 
ATOM     64  H   UNL A   1      41.150  29.814  32.987  1.00  0.00     0.167 HD
ATOM     65  C   UNL A   1      42.988  27.811  32.237  1.00  0.00     0.074 A 
ATOM     66  C   UNL A   1      43.730  26.879  31.416  1.00  0.00     0.031 C 
ATOM     67  C   UNL A   1      43.262  28.065  33.540  1.00  0.00     0.034 A 
BRANCH  54  68
ATOM     68  C   UNL A   1      39.727  32.488  36.002  1.00  0.00     0.023 A 
ATOM     69  C   UNL A   1      40.324  33.760  36.116  1.00  0.00     0.012 A 
ATOM     70  C   UNL A   1      38.799  32.071  36.977  1.00  0.00     0.148 A 
ATOM     71  C   UNL A   1      40.029  34.590  37.197  1.00  0.00     0.002 A 
ATOM     72  C   UNL A   1      38.478  32.922  38.030  1.00  0.00     0.091 A 
ATOM     73  F   UNL A   1      38.254  30.851  36.864  1.00  0.00    -0.205 F 
ATOM     74  C   UNL A   1      39.099  34.176  38.147  1.00  0.00     0.022 A 
BRANCH  72  75
ATOM     75  S   UNL A   1      37.235  32.511  39.261  1.00  0.00     0.127 S 
ATOM     76  O   UNL A   1      37.471  33.539  40.273  1.00  0.00    -0.237 OA
ATOM     77  O   UNL A   1      35.990  32.669  38.509  1.00  0.00    -0.237 OA
ATOM     78  O   UNL A   1      37.521  31.144  39.675  1.00  0.00    -0.744 OA
ENDBRANCH  72  75
ENDBRANCH  54  68
BRANCH  55  79
ATOM     79  C   UNL A   1      41.667  27.257  27.753  1.00  0.00     0.023 A 
ATOM     80  C   UNL A   1      42.199  27.940  26.642  1.00  0.00     0.012 A 
ATOM     81  C   UNL A   1      41.481  25.863  27.678  1.00  0.00     0.148 A 
ATOM     82  C   UNL A   1      42.513  27.253  25.469  1.00  0.00     0.002 A 
ATOM     83  C   UNL A   1      41.852  25.177  26.528  1.00  0.00     0.091 A 
ATOM     84  F   UNL A   1      40.957  25.233  28.739  1.00  0.00    -0.205 F 
ATOM     85  C   UNL A   1      42.351  25.871  25.416  1.00  0.00     0.022 A 
BRANCH  83  86
ATOM     86  S   UNL A   1      41.816  23.383  26.431  1.00  0.00     0.127 S 
ATOM     87  O   UNL A   1      42.537  23.001  27.641  1.00  0.00    -0.237 OA
ATOM     88  O   UNL A   1      40.378  23.106  26.456  1.00  0.00    -0.237 OA
ATOM     89  O   UNL A   1      42.462  23.049  25.169  1.00  0.00    -0.744 OA
ENDBRANCH  83  86
ENDBRANCH  55  79
BRANCH  67  90
ATOM     90  C   UNL A   1      44.395  27.307  34.182  1.00  0.00     0.023 A 
ATOM     91  C   UNL A   1      45.704  27.828  34.123  1.00  0.00     0.012 A 
ATOM     92  C   UNL A   1      44.155  26.123  34.907  1.00  0.00     0.148 A 
ATOM     93  C   UNL A   1      46.760  27.166  34.750  1.00  0.00     0.002 A 
ATOM     94  C   UNL A   1      45.205  25.493  35.567  1.00  0.00     0.091 A 
ATOM     95  F   UNL A   1      42.908  25.631  34.936  1.00  0.00    -0.205 F 
ATOM     96  C   UNL A   1      46.510  26.007  35.480  1.00  0.00     0.022 A 
BRANCH  94  97
ATOM     97  S   UNL A   1      44.957  24.046  36.603  1.00  0.00     0.127 S 
ATOM     98  O   UNL A   1      44.223  24.610  37.733  1.00  0.00    -0.237 OA
ATOM     99  O   UNL A   1      44.165  23.172  35.736  1.00  0.00    -0.237 OA
ATOM    100  O   UNL A   1      46.290  23.541  36.908  1.00  0.00    -0.744 OA
ENDBRANCH  94  97
ENDBRANCH  67  90
ENDBRANCH  41  42
ENDBRANCH  33  36
ENDBRANCH  31  32
ENDBRANCH  30  31
ENDBRANCH   1  30
TORSDOF 19
ENDMDL
MODEL 2
REMARK VINA RESULT:     -12.2      2.865      3.718
REMARK SMILES COc1ccc([C@@H](CC(=O)NCCCNC(=O)c2ccc(-c3c4nc(c(-c5cccc(S(=O)(=O)[O-])c5F)c5ccc([nH]5)c(-c5cccc(S(=O)(=O)[O-])c5F)c5nc(c(-c6cccc(S(=O)(=O)[O-])c6F)c6ccc3[nH]6)C=C5)C=C4)cc2)NC(=O)c2ccc(Cl)c([N+](=O)[O-])c2)cc1
REMARK SMILES IDX 12 1 11 2 9 3 10 4 8 6 7 7 6 8 3 9 4 10 95 11 5 12 94 13
REMARK SMILES IDX 2 14 1 15 81 16 82 17 83 19 84 20 85 21 93 22 86 23 89 24
REMARK SMILES IDX 87 25 88 26 90 27 91 28 92 29 13 30 14 31 15 32 16 33 17 35
REMARK SMILES IDX 18 36 19 37 80 38 20 39 79 40 21 41 22 42 23 43 73 44 24 45
REMARK SMILES IDX 78 46 72 47 74 48 25 49 77 50 71 51 70 52 26 54 58 55 38 56
REMARK SMILES IDX 57 57 39 58 42 59 56 60 75 61 40 62 41 63 55 65 76 66 43 67
REMARK SMILES IDX 27 68 28 69 36 70 29 71 31 72 37 73 30 74 32 75 33 76 34 77
REMARK SMILES IDX 35 78 59 79 60 80 68 81 61 82 63 83 69 84 62 85 64 86 65 87
REMARK SMILES IDX 66 88 67 89 44 90 45 91 53 92 46 93 48 94 54 95 47 96 49 97
REMARK SMILES IDX 50 98 51 99 52 100
REMARK H PARENT 11 5 81 18 15 34 74 53 42 64
REMARK Flexibility Score: inf
ROOT
ATOM      1  C   UNL A   1      31.406  27.667  26.407  1.00  0.00     0.117 C 
ENDROOT
BRANCH   1   2
ATOM      2  N   UNL A   1      31.301  26.218  26.506  1.00  0.00    -0.356 N 
ATOM      3  C   UNL A   1      30.613  25.339  25.724  1.00  0.00     0.222 C 
ATOM      4  O   UNL A   1      30.431  24.201  26.163  1.00  0.00    -0.275 OA
ATOM      5  H   UNL A   1      31.803  25.812  27.249  1.00  0.00     0.163 HD
BRANCH   3   6
ATOM      6  C   UNL A   1      30.152  25.711  24.331  1.00  0.00     0.129 C 
BRANCH   6   7
ATOM      7  C   UNL A   1      30.879  26.908  23.688  1.00  0.00     0.122 C 
BRANCH   7   8
ATOM      8  C   UNL A   1      30.005  28.146  23.562  1.00  0.00    -0.025 A 
ATOM      9  C   UNL A   1      28.371  30.347  22.952  1.00  0.00     0.118 A 
ATOM     10  C   UNL A   1      29.683  30.552  23.374  1.00  0.00     0.047 A 
ATOM     11  C   UNL A   1      27.835  29.064  22.914  1.00  0.00     0.047 A 
ATOM     12  C   UNL A   1      30.495  29.455  23.693  1.00  0.00     0.010 A 
ATOM     13  C   UNL A   1      28.644  27.973  23.231  1.00  0.00     0.010 A 
BRANCH   9  14
ATOM     14  O   UNL A   1      27.687  31.378  22.370  1.00  0.00    -0.497 OA
ATOM     15  C   UNL A   1      28.401  32.605  22.485  1.00  0.00     0.278 C 
ENDBRANCH   9  14
ENDBRANCH   7   8
BRANCH   7  16
ATOM     16  N   UNL A   1      31.575  26.540  22.455  1.00  0.00    -0.345 N 
ATOM     17  C   UNL A   1      32.721  25.809  22.281  1.00  0.00     0.252 C 
ATOM     18  H   UNL A   1      31.158  26.868  21.625  1.00  0.00     0.164 HD
ATOM     19  O   UNL A   1      33.283  25.736  21.195  1.00  0.00    -0.269 OA
BRANCH  17  20
ATOM     20  C   UNL A   1      33.278  25.061  23.424  1.00  0.00     0.046 A 
ATOM     21  C   UNL A   1      34.061  25.726  24.369  1.00  0.00     0.016 A 
ATOM     22  C   UNL A   1      33.025  23.695  23.548  1.00  0.00     0.101 A 
ATOM     23  C   UNL A   1      34.535  25.033  25.489  1.00  0.00     0.028 A 
ATOM     24  C   UNL A   1      33.484  23.021  24.686  1.00  0.00     0.288 A 
ATOM     25  C   UNL A   1      34.230  23.677  25.668  1.00  0.00     0.118 A 
ATOM     26  Cl  UNL A   1      34.757  22.932  27.132  1.00  0.00    -0.077 Cl
BRANCH  24  27
ATOM     27  N   UNL A   1      33.091  21.633  24.832  1.00  0.00     0.064 N 
ATOM     28  O   UNL A   1      33.818  20.767  24.330  1.00  0.00    -0.258 OA
ATOM     29  O   UNL A   1      32.012  21.420  25.403  1.00  0.00    -0.258 OA
ENDBRANCH  24  27
ENDBRANCH  17  20
ENDBRANCH   7  16
ENDBRANCH   6   7
ENDBRANCH   3   6
ENDBRANCH   1   2
BRANCH   1  30
ATOM     30  C   UNL A   1      32.767  28.137  26.906  1.00  0.00     0.042 C 
BRANCH  30  31
ATOM     31  C   UNL A   1      33.472  29.141  26.004  1.00  0.00     0.118 C 
BRANCH  31  32
ATOM     32  N   UNL A   1      33.560  30.451  26.622  1.00  0.00    -0.352 N 
ATOM     33  C   UNL A   1      34.401  30.956  27.584  1.00  0.00     0.251 C 
ATOM     34  H   UNL A   1      32.894  31.097  26.291  1.00  0.00     0.163 HD
ATOM     35  O   UNL A   1      34.077  32.024  28.109  1.00  0.00    -0.269 OA
BRANCH  33  36
ATOM     36  C   UNL A   1      35.669  30.296  28.012  1.00  0.00     0.039 A 
ATOM     37  C   UNL A   1      35.695  29.697  29.281  1.00  0.00     0.014 A 
ATOM     38  C   UNL A   1      36.858  30.357  27.284  1.00  0.00     0.014 A 
ATOM     39  C   UNL A   1      36.885  29.168  29.802  1.00  0.00     0.010 A 
ATOM     40  C   UNL A   1      38.026  29.750  27.767  1.00  0.00     0.010 A 
ATOM     41  C   UNL A   1      38.065  29.178  29.047  1.00  0.00    -0.014 A 
BRANCH  41  42
ATOM     42  C   UNL A   1      39.344  28.633  29.595  1.00  0.00     0.031 A 
ATOM     43  C   UNL A   1      39.982  29.244  30.821  1.00  0.00     0.074 A 
ATOM     44  C   UNL A   1      39.970  27.615  28.969  1.00  0.00     0.049 A 
ATOM     45  N   UNL A   1      41.108  28.928  31.412  1.00  0.00    -0.248 NA
ATOM     46  C   UNL A   1      39.277  30.370  31.454  1.00  0.00     0.031 C 
ATOM     47  C   UNL A   1      39.507  26.966  27.742  1.00  0.00     0.029 A 
ATOM     48  N   UNL A   1      41.142  26.961  29.268  1.00  0.00    -0.354 N 
ATOM     49  C   UNL A   1      41.266  29.838  32.452  1.00  0.00     0.074 A 
ATOM     50  C   UNL A   1      40.135  30.737  32.397  1.00  0.00     0.031 C 
ATOM     51  C   UNL A   1      40.380  26.006  27.396  1.00  0.00     0.029 A 
ATOM     52  C   UNL A   1      41.480  25.987  28.357  1.00  0.00     0.049 A 
ATOM     53  H   UNL A   1      41.688  27.171  30.060  1.00  0.00     0.167 HD
ATOM     54  C   UNL A   1      42.244  29.906  33.390  1.00  0.00     0.034 A 
ATOM     55  C   UNL A   1      42.553  25.172  28.294  1.00  0.00     0.034 A 
ATOM     56  C   UNL A   1      43.338  28.977  33.495  1.00  0.00     0.049 A 
ATOM     57  C   UNL A   1      43.598  25.235  29.376  1.00  0.00     0.074 A 
ATOM     58  C   UNL A   1      44.320  28.913  34.469  1.00  0.00     0.029 A 
ATOM     59  N   UNL A   1      43.595  27.950  32.602  1.00  0.00    -0.354 N 
ATOM     60  N   UNL A   1      43.644  26.004  30.437  1.00  0.00    -0.248 NA
ATOM     61  C   UNL A   1      44.724  24.294  29.272  1.00  0.00     0.031 C 
ATOM     62  C   UNL A   1      45.180  27.854  34.157  1.00  0.00     0.029 A 
ATOM     63  C   UNL A   1      44.723  27.250  32.997  1.00  0.00     0.049 A 
ATOM     64  H   UNL A   1      43.055  27.747  31.805  1.00  0.00     0.167 HD
ATOM     65  C   UNL A   1      44.778  25.617  31.141  1.00  0.00     0.074 A 
ATOM     66  C   UNL A   1      45.381  24.529  30.399  1.00  0.00     0.031 C 
ATOM     67  C   UNL A   1      45.285  26.129  32.289  1.00  0.00     0.034 A 
BRANCH  54  68
ATOM     68  C   UNL A   1      42.143  30.992  34.431  1.00  0.00     0.023 A 
ATOM     69  C   UNL A   1      41.453  30.736  35.633  1.00  0.00     0.012 A 
ATOM     70  C   UNL A   1      42.788  32.233  34.256  1.00  0.00     0.148 A 
ATOM     71  C   UNL A   1      41.377  31.708  36.631  1.00  0.00     0.002 A 
ATOM     72  C   UNL A   1      42.743  33.182  35.273  1.00  0.00     0.091 A 
ATOM     73  F   UNL A   1      43.425  32.468  33.099  1.00  0.00    -0.205 F 
ATOM     74  C   UNL A   1      42.031  32.925  36.455  1.00  0.00     0.022 A 
BRANCH  72  75
ATOM     75  S   UNL A   1      43.618  34.748  35.174  1.00  0.00     0.127 S 
ATOM     76  O   UNL A   1      45.003  34.304  35.026  1.00  0.00    -0.237 OA
ATOM     77  O   UNL A   1      43.039  35.351  33.972  1.00  0.00    -0.237 OA
ATOM     78  O   UNL A   1      43.313  35.455  36.410  1.00  0.00    -0.744 OA
ENDBRANCH  72  75
ENDBRANCH  54  68
BRANCH  55  79
ATOM     79  C   UNL A   1      42.657  24.170  27.196  1.00  0.00     0.023 A 
ATOM     80  C   UNL A   1      43.395  24.488  26.039  1.00  0.00     0.012 A 
ATOM     81  C   UNL A   1      42.063  22.898  27.302  1.00  0.00     0.148 A 
ATOM     82  C   UNL A   1      43.514  23.569  24.996  1.00  0.00     0.002 A 
ATOM     83  C   UNL A   1      42.236  21.966  26.286  1.00  0.00     0.091 A 
ATOM     84  F   UNL A   1      41.350  22.619  28.403  1.00  0.00    -0.205 F 
ATOM     85  C   UNL A   1      42.946  22.305  25.125  1.00  0.00     0.022 A 
BRANCH  83  86
ATOM     86  S   UNL A   1      41.665  20.269  26.437  1.00  0.00     0.127 S 
ATOM     87  O   UNL A   1      42.161  19.900  27.760  1.00  0.00    -0.237 OA
ATOM     88  O   UNL A   1      40.212  20.428  26.345  1.00  0.00    -0.237 OA
ATOM     89  O   UNL A   1      42.256  19.558  25.312  1.00  0.00    -0.744 OA
ENDBRANCH  83  86
ENDBRANCH  55  79
BRANCH  67  90
ATOM     90  C   UNL A   1      46.540  25.508  32.844  1.00  0.00     0.023 A 
ATOM     91  C   UNL A   1      47.796  26.043  32.494  1.00  0.00     0.012 A 
ATOM     92  C   UNL A   1      46.475  24.446  33.769  1.00  0.00     0.148 A 
ATOM     93  C   UNL A   1      48.969  25.512  33.032  1.00  0.00     0.002 A 
ATOM     94  C   UNL A   1      47.646  23.952  34.335  1.00  0.00     0.091 A 
ATOM     95  F   UNL A   1      45.274  23.935  34.075  1.00  0.00    -0.205 F 
ATOM     96  C   UNL A   1      48.893  24.477  33.960  1.00  0.00     0.022 A 
BRANCH  94  97
ATOM     97  S   UNL A   1      47.635  22.680  35.605  1.00  0.00     0.127 S 
ATOM     98  O   UNL A   1      46.958  21.581  34.920  1.00  0.00    -0.237 OA
ATOM     99  O   UNL A   1      49.063  22.462  35.842  1.00  0.00    -0.237 OA
ATOM    100  O   UNL A   1      46.918  23.253  36.736  1.00  0.00    -0.744 OA
ENDBRANCH  94  97
ENDBRANCH  67  90
ENDBRANCH  41  42
ENDBRANCH  33  36
ENDBRANCH  31  32
ENDBRANCH  30  31
ENDBRANCH   1  30
TORSDOF 19
ENDMDL
MODEL 3
REMARK VINA RESULT:     -12.1      1.905      2.502
REMARK SMILES COc1ccc([C@@H](CC(=O)NCCCNC(=O)c2ccc(-c3c4nc(c(-c5cccc(S(=O)(=O)[O-])c5F)c5ccc([nH]5)c(-c5cccc(S(=O)(=O)[O-])c5F)c5nc(c(-c6cccc(S(=O)(=O)[O-])c6F)c6ccc3[nH]6)C=C5)C=C4)cc2)NC(=O)c2ccc(Cl)c([N+](=O)[O-])c2)cc1
REMARK SMILES IDX 12 1 11 2 9 3 10 4 8 6 7 7 6 8 3 9 4 10 95 11 5 12 94 13
REMARK SMILES IDX 2 14 1 15 81 16 82 17 83 19 84 20 85 21 93 22 86 23 89 24
REMARK SMILES IDX 87 25 88 26 90 27 91 28 92 29 13 30 14 31 15 32 16 33 17 35
REMARK SMILES IDX 18 36 19 37 80 38 20 39 79 40 21 41 22 42 23 43 73 44 24 45
REMARK SMILES IDX 78 46 72 47 74 48 25 49 77 50 71 51 70 52 26 54 58 55 38 56
REMARK SMILES IDX 57 57 39 58 42 59 56 60 75 61 40 62 41 63 55 65 76 66 43 67
REMARK SMILES IDX 27 68 28 69 36 70 29 71 31 72 37 73 30 74 32 75 33 76 34 77
REMARK SMILES IDX 35 78 59 79 60 80 68 81 61 82 63 83 69 84 62 85 64 86 65 87
REMARK SMILES IDX 66 88 67 89 44 90 45 91 53 92 46 93 48 94 54 95 47 96 49 97
REMARK SMILES IDX 50 98 51 99 52 100
REMARK H PARENT 11 5 81 18 15 34 74 53 42 64
REMARK Flexibility Score: inf
ROOT
ATOM      1  C   UNL A   1      32.254  27.164  25.683  1.00  0.00     0.117 C 
ENDROOT
BRANCH   1   2
ATOM      2  N   UNL A   1      31.295  26.233  26.261  1.00  0.00    -0.356 N 
ATOM      3  C   UNL A   1      30.261  25.570  25.672  1.00  0.00     0.222 C 
ATOM      4  O   UNL A   1      29.408  25.066  26.407  1.00  0.00    -0.275 OA
ATOM      5  H   UNL A   1      31.412  26.056  27.222  1.00  0.00     0.163 HD
BRANCH   3   6
ATOM      6  C   UNL A   1      30.191  25.384  24.171  1.00  0.00     0.129 C 
BRANCH   6   7
ATOM      7  C   UNL A   1      30.940  26.440  23.335  1.00  0.00     0.122 C 
BRANCH   7   8
ATOM      8  C   UNL A   1      30.121  27.697  23.081  1.00  0.00    -0.025 A 
ATOM      9  C   UNL A   1      28.431  29.812  22.336  1.00  0.00     0.118 A 
ATOM     10  C   UNL A   1      29.803  29.908  22.113  1.00  0.00     0.047 A 
ATOM     11  C   UNL A   1      27.901  28.714  23.004  1.00  0.00     0.047 A 
ATOM     12  C   UNL A   1      30.650  28.859  22.498  1.00  0.00     0.010 A 
ATOM     13  C   UNL A   1      28.744  27.671  23.386  1.00  0.00     0.010 A 
BRANCH   9  14
ATOM     14  O   UNL A   1      27.590  30.687  21.707  1.00  0.00    -0.497 OA
ATOM     15  C   UNL A   1      28.292  31.504  20.775  1.00  0.00     0.278 C 
ENDBRANCH   9  14
ENDBRANCH   7   8
BRANCH   7  16
ATOM     16  N   UNL A   1      31.548  25.870  22.132  1.00  0.00    -0.345 N 
ATOM     17  C   UNL A   1      32.618  25.022  22.010  1.00  0.00     0.252 C 
ATOM     18  H   UNL A   1      31.127  26.138  21.284  1.00  0.00     0.164 HD
ATOM     19  O   UNL A   1      33.124  24.774  20.924  1.00  0.00    -0.269 OA
BRANCH  17  20
ATOM     20  C   UNL A   1      33.155  24.364  23.216  1.00  0.00     0.046 A 
ATOM     21  C   UNL A   1      34.139  25.003  23.972  1.00  0.00     0.016 A 
ATOM     22  C   UNL A   1      32.682  23.104  23.586  1.00  0.00     0.101 A 
ATOM     23  C   UNL A   1      34.603  24.409  25.152  1.00  0.00     0.028 A 
ATOM     24  C   UNL A   1      33.136  22.535  24.781  1.00  0.00     0.288 A 
ATOM     25  C   UNL A   1      34.087  23.178  25.578  1.00  0.00     0.118 A 
ATOM     26  Cl  UNL A   1      34.629  22.576  27.101  1.00  0.00    -0.077 Cl
BRANCH  24  27
ATOM     27  N   UNL A   1      32.526  21.284  25.188  1.00  0.00     0.064 N 
ATOM     28  O   UNL A   1      31.396  21.324  25.690  1.00  0.00    -0.258 OA
ATOM     29  O   UNL A   1      33.216  20.263  25.057  1.00  0.00    -0.258 OA
ENDBRANCH  24  27
ENDBRANCH  17  20
ENDBRANCH   7  16
ENDBRANCH   6   7
ENDBRANCH   3   6
ENDBRANCH   1   2
BRANCH   1  30
ATOM     30  C   UNL A   1      31.979  28.582  26.168  1.00  0.00     0.042 C 
BRANCH  30  31
ATOM     31  C   UNL A   1      32.707  29.678  25.403  1.00  0.00     0.118 C 
BRANCH  31  32
ATOM     32  N   UNL A   1      32.464  30.988  25.976  1.00  0.00    -0.352 N 
ATOM     33  C   UNL A   1      33.064  31.659  27.015  1.00  0.00     0.251 C 
ATOM     34  H   UNL A   1      31.735  31.488  25.542  1.00  0.00     0.163 HD
ATOM     35  O   UNL A   1      32.478  32.651  27.455  1.00  0.00    -0.269 OA
BRANCH  33  36
ATOM     36  C   UNL A   1      34.369  31.264  27.619  1.00  0.00     0.039 A 
ATOM     37  C   UNL A   1      34.525  29.926  28.015  1.00  0.00     0.014 A 
ATOM     38  C   UNL A   1      35.384  32.169  27.933  1.00  0.00     0.014 A 
ATOM     39  C   UNL A   1      35.674  29.508  28.703  1.00  0.00     0.010 A 
ATOM     40  C   UNL A   1      36.570  31.734  28.541  1.00  0.00     0.010 A 
ATOM     41  C   UNL A   1      36.718  30.405  28.965  1.00  0.00    -0.014 A 
BRANCH  41  42
ATOM     42  C   UNL A   1      37.940  29.979  29.711  1.00  0.00     0.031 A 
ATOM     43  C   UNL A   1      38.218  30.499  31.102  1.00  0.00     0.074 A 
ATOM     44  C   UNL A   1      38.837  29.157  29.128  1.00  0.00     0.049 A 
ATOM     45  N   UNL A   1      39.246  30.269  31.881  1.00  0.00    -0.248 NA
ATOM     46  C   UNL A   1      37.225  31.415  31.687  1.00  0.00     0.031 C 
ATOM     47  C   UNL A   1      38.735  28.624  27.769  1.00  0.00     0.029 A 
ATOM     48  N   UNL A   1      40.023  28.643  29.597  1.00  0.00    -0.354 N 
ATOM     49  C   UNL A   1      39.046  31.040  33.022  1.00  0.00     0.074 A 
ATOM     50  C   UNL A   1      37.811  31.766  32.824  1.00  0.00     0.031 C 
ATOM     51  C   UNL A   1      39.808  27.857  27.515  1.00  0.00     0.029 A 
ATOM     52  C   UNL A   1      40.689  27.862  28.680  1.00  0.00     0.049 A 
ATOM     53  H   UNL A   1      40.363  28.817  30.504  1.00  0.00     0.167 HD
ATOM     54  C   UNL A   1      39.799  31.117  34.147  1.00  0.00     0.034 A 
ATOM     55  C   UNL A   1      41.876  27.226  28.760  1.00  0.00     0.034 A 
ATOM     56  C   UNL A   1      40.993  30.349  34.383  1.00  0.00     0.049 A 
ATOM     57  C   UNL A   1      42.667  27.288  30.039  1.00  0.00     0.074 A 
ATOM     58  C   UNL A   1      41.766  30.292  35.530  1.00  0.00     0.029 A 
ATOM     59  N   UNL A   1      41.586  29.502  33.461  1.00  0.00    -0.354 N 
ATOM     60  N   UNL A   1      42.377  27.901  31.161  1.00  0.00    -0.248 NA
ATOM     61  C   UNL A   1      43.934  26.541  30.077  1.00  0.00     0.031 C 
ATOM     62  C   UNL A   1      42.835  29.420  35.297  1.00  0.00     0.029 A 
ATOM     63  C   UNL A   1      42.718  28.923  34.009  1.00  0.00     0.049 A 
ATOM     64  H   UNL A   1      41.251  29.336  32.550  1.00  0.00     0.167 HD
ATOM     65  C   UNL A   1      43.404  27.587  32.044  1.00  0.00     0.074 A 
ATOM     66  C   UNL A   1      44.312  26.710  31.336  1.00  0.00     0.031 C 
ATOM     67  C   UNL A   1      43.586  28.002  33.322  1.00  0.00     0.034 A 
BRANCH  54  68
ATOM     68  C   UNL A   1      39.318  32.023  35.252  1.00  0.00     0.023 A 
ATOM     69  C   UNL A   1      38.383  31.537  36.188  1.00  0.00     0.012 A 
ATOM     70  C   UNL A   1      39.842  33.322  35.411  1.00  0.00     0.148 A 
ATOM     71  C   UNL A   1      37.950  32.338  37.244  1.00  0.00     0.002 A 
ATOM     72  C   UNL A   1      39.436  34.100  36.491  1.00  0.00     0.091 A 
ATOM     73  F   UNL A   1      40.717  33.777  34.502  1.00  0.00    -0.205 F 
ATOM     74  C   UNL A   1      38.485  33.614  37.401  1.00  0.00     0.022 A 
BRANCH  72  75
ATOM     75  S   UNL A   1      40.125  35.727  36.823  1.00  0.00     0.127 S 
ATOM     76  O   UNL A   1      39.660  36.486  35.664  1.00  0.00    -0.237 OA
ATOM     77  O   UNL A   1      39.479  36.085  38.086  1.00  0.00    -0.237 OA
ATOM     78  O   UNL A   1      41.566  35.539  36.914  1.00  0.00    -0.744 OA
ENDBRANCH  72  75
ENDBRANCH  54  68
BRANCH  55  79
ATOM     79  C   UNL A   1      42.356  26.411  27.608  1.00  0.00     0.023 A 
ATOM     80  C   UNL A   1      43.214  26.998  26.658  1.00  0.00     0.012 A 
ATOM     81  C   UNL A   1      41.999  25.056  27.468  1.00  0.00     0.148 A 
ATOM     82  C   UNL A   1      43.685  26.258  25.572  1.00  0.00     0.002 A 
ATOM     83  C   UNL A   1      42.520  24.309  26.417  1.00  0.00     0.091 A 
ATOM     84  F   UNL A   1      41.168  24.520  28.372  1.00  0.00    -0.205 F 
ATOM     85  C   UNL A   1      43.348  24.912  25.458  1.00  0.00     0.022 A 
BRANCH  83  86
ATOM     86  S   UNL A   1      42.256  22.537  26.281  1.00  0.00     0.127 S 
ATOM     87  O   UNL A   1      40.818  22.463  26.044  1.00  0.00    -0.237 OA
ATOM     88  O   UNL A   1      43.091  22.193  25.128  1.00  0.00    -0.237 OA
ATOM     89  O   UNL A   1      42.726  21.976  27.541  1.00  0.00    -0.744 OA
ENDBRANCH  83  86
ENDBRANCH  55  79
BRANCH  67  90
ATOM     90  C   UNL A   1      44.797  27.497  34.061  1.00  0.00     0.023 A 
ATOM     91  C   UNL A   1      45.986  28.255  34.053  1.00  0.00     0.012 A 
ATOM     92  C   UNL A   1      44.739  26.313  34.824  1.00  0.00     0.148 A 
ATOM     93  C   UNL A   1      47.105  27.828  34.769  1.00  0.00     0.002 A 
ATOM     94  C   UNL A   1      45.844  25.917  35.570  1.00  0.00     0.091 A 
ATOM     95  F   UNL A   1      43.608  25.593  34.803  1.00  0.00    -0.205 F 
ATOM     96  C   UNL A   1      47.031  26.668  35.535  1.00  0.00     0.022 A 
BRANCH  94  97
ATOM     97  S   UNL A   1      45.807  24.485  36.654  1.00  0.00     0.127 S 
ATOM     98  O   UNL A   1      47.172  24.468  37.174  1.00  0.00    -0.237 OA
ATOM     99  O   UNL A   1      44.785  24.860  37.634  1.00  0.00    -0.237 OA
ATOM    100  O   UNL A   1      45.442  23.355  35.809  1.00  0.00    -0.744 OA
ENDBRANCH  94  97
ENDBRANCH  67  90
ENDBRANCH  41  42
ENDBRANCH  33  36
ENDBRANCH  31  32
ENDBRANCH  30  31
ENDBRANCH   1  30
TORSDOF 19
ENDMDL
