MODEL 1
REMARK VINA RESULT:     -12.1      0.000      0.000
REMARK SMILES O=C(C[C@@H]1C(=O)NC(=S)N1c1ccccc1)NCCCNC(=O)c1ccc(-c2c3nc(c(-c4cccc(S(=O)(=O)[O-])c4F)c4ccc([nH]4)c(-c4cccc(S(=O)(=O)[O-])c4F)c4nc(c(-c5cccc(S(=O)(=O)[O-])c5F)c5ccc2[nH]5)C=C4)C=C3)cc1
REMARK SMILES IDX 19 1 18 2 17 3 1 4 2 5 3 7 4 8 5 9 10 10 6 11 7 12 8 13 9 15
REMARK SMILES IDX 11 16 12 17 16 18 13 19 15 20 14 21 20 22 21 23 22 24 23 26
REMARK SMILES IDX 24 27 25 28 86 29 26 30 85 31 27 32 28 33 29 34 79 35 30 36
REMARK SMILES IDX 84 37 78 38 80 39 31 40 83 41 77 42 76 43 32 45 64 46 44 47
REMARK SMILES IDX 63 48 45 49 48 50 62 51 81 52 46 53 47 54 61 56 82 57 49 58
REMARK SMILES IDX 33 59 34 60 42 61 35 62 37 63 43 64 36 65 38 66 39 67 40 68
REMARK SMILES IDX 41 69 65 70 66 71 74 72 67 73 69 74 75 75 68 76 70 77 71 78
REMARK SMILES IDX 72 79 73 80 50 81 51 82 59 83 52 84 54 85 60 86 53 87 55 88
REMARK SMILES IDX 56 89 57 90 58 91
REMARK H PARENT 17 6 7 14 21 25 80 44 48 55
REMARK Flexibility Score: inf
ROOT
ATOM      1  C   UNL A   1      36.554  22.319  23.906  1.00  0.00     0.042 C 
ENDROOT
BRANCH   1   2
ATOM      2  C   UNL A   1      35.163  22.897  23.653  1.00  0.00     0.117 C 
BRANCH   2   3
ATOM      3  N   UNL A   1      34.525  23.341  24.876  1.00  0.00    -0.356 N 
ATOM      4  O   UNL A   1      33.361  21.412  25.348  1.00  0.00    -0.275 OA
ATOM      5  C   UNL A   1      33.652  22.573  25.611  1.00  0.00     0.222 C 
ATOM      6  H   UNL A   1      34.728  24.248  25.201  1.00  0.00     0.163 HD
BRANCH   5   7
ATOM      7  C   UNL A   1      33.046  23.302  26.793  1.00  0.00     0.135 C 
BRANCH   7   8
ATOM      8  C   UNL A   1      31.745  24.043  26.510  1.00  0.00     0.188 C 
ATOM      9  C   UNL A   1      30.718  23.212  25.745  1.00  0.00     0.249 C 
ATOM     10  N   UNL A   1      31.814  25.228  25.652  1.00  0.00    -0.306 N 
ATOM     11  O   UNL A   1      30.301  22.114  26.084  1.00  0.00    -0.272 OA
ATOM     12  N   UNL A   1      30.311  23.903  24.649  1.00  0.00    -0.301 N 
ATOM     13  C   UNL A   1      30.907  25.124  24.589  1.00  0.00     0.180 C 
ATOM     14  H   UNL A   1      29.669  23.563  23.985  1.00  0.00     0.172 HD
ATOM     15  S   UNL A   1      30.543  26.222  23.394  1.00  0.00    -0.040 S 
BRANCH  10  16
ATOM     16  C   UNL A   1      32.295  26.446  26.186  1.00  0.00     0.044 A 
ATOM     17  C   UNL A   1      33.605  26.867  25.926  1.00  0.00     0.026 A 
ATOM     18  C   UNL A   1      31.451  27.257  26.946  1.00  0.00     0.026 A 
ATOM     19  C   UNL A   1      34.063  28.089  26.421  1.00  0.00     0.002 A 
ATOM     20  C   UNL A   1      31.912  28.477  27.445  1.00  0.00     0.002 A 
ATOM     21  C   UNL A   1      33.215  28.895  27.180  1.00  0.00     0.000 A 
ENDBRANCH  10  16
ENDBRANCH   7   8
ENDBRANCH   5   7
ENDBRANCH   2   3
ENDBRANCH   1   2
BRANCH   1  22
ATOM     22  C   UNL A   1      37.013  22.313  25.364  1.00  0.00     0.118 C 
BRANCH  22  23
ATOM     23  N   UNL A   1      38.046  21.330  25.649  1.00  0.00    -0.352 N 
ATOM     24  C   UNL A   1      39.310  21.498  26.168  1.00  0.00     0.251 C 
ATOM     25  H   UNL A   1      37.805  20.400  25.437  1.00  0.00     0.163 HD
ATOM     26  O   UNL A   1      40.068  20.532  26.213  1.00  0.00    -0.269 OA
BRANCH  24  27
ATOM     27  C   UNL A   1      39.777  22.821  26.650  1.00  0.00     0.039 A 
ATOM     28  C   UNL A   1      40.712  22.857  27.689  1.00  0.00     0.014 A 
ATOM     29  C   UNL A   1      39.284  24.020  26.128  1.00  0.00     0.014 A 
ATOM     30  C   UNL A   1      41.193  24.084  28.158  1.00  0.00     0.010 A 
ATOM     31  C   UNL A   1      39.821  25.242  26.544  1.00  0.00     0.010 A 
ATOM     32  C   UNL A   1      40.779  25.290  27.568  1.00  0.00    -0.014 A 
BRANCH  32  33
ATOM     33  C   UNL A   1      41.372  26.587  27.997  1.00  0.00     0.031 A 
ATOM     34  C   UNL A   1      42.812  26.925  27.706  1.00  0.00     0.074 A 
ATOM     35  C   UNL A   1      40.618  27.454  28.703  1.00  0.00     0.049 A 
ATOM     36  N   UNL A   1      43.469  28.027  27.970  1.00  0.00    -0.248 NA
ATOM     37  C   UNL A   1      43.628  25.887  27.059  1.00  0.00     0.031 C 
ATOM     38  C   UNL A   1      39.242  27.213  29.143  1.00  0.00     0.029 A 
ATOM     39  N   UNL A   1      40.904  28.708  29.187  1.00  0.00    -0.354 N 
ATOM     40  C   UNL A   1      44.775  27.808  27.549  1.00  0.00     0.074 A 
ATOM     41  C   UNL A   1      44.828  26.451  27.046  1.00  0.00     0.031 C 
ATOM     42  C   UNL A   1      38.798  28.288  29.811  1.00  0.00     0.029 A 
ATOM     43  C   UNL A   1      39.859  29.289  29.868  1.00  0.00     0.049 A 
ATOM     44  H   UNL A   1      41.775  29.148  29.060  1.00  0.00     0.167 HD
ATOM     45  C   UNL A   1      45.827  28.662  27.549  1.00  0.00     0.034 A 
ATOM     46  C   UNL A   1      39.758  30.494  30.461  1.00  0.00     0.034 A 
ATOM     47  C   UNL A   1      45.765  30.023  28.014  1.00  0.00     0.049 A 
ATOM     48  C   UNL A   1      40.916  31.450  30.382  1.00  0.00     0.074 A 
ATOM     49  C   UNL A   1      46.753  30.993  27.974  1.00  0.00     0.029 A 
ATOM     50  N   UNL A   1      44.661  30.608  28.612  1.00  0.00    -0.354 N 
ATOM     51  N   UNL A   1      42.088  31.283  29.819  1.00  0.00    -0.248 NA
ATOM     52  C   UNL A   1      40.721  32.779  30.979  1.00  0.00     0.031 C 
ATOM     53  C   UNL A   1      46.251  32.158  28.566  1.00  0.00     0.029 A 
ATOM     54  C   UNL A   1      44.941  31.922  28.949  1.00  0.00     0.049 A 
ATOM     55  H   UNL A   1      43.802  30.156  28.774  1.00  0.00     0.167 HD
ATOM     56  C   UNL A   1      42.756  32.494  29.961  1.00  0.00     0.074 A 
ATOM     57  C   UNL A   1      41.844  33.394  30.637  1.00  0.00     0.031 C 
ATOM     58  C   UNL A   1      44.015  32.827  29.581  1.00  0.00     0.034 A 
BRANCH  45  59
ATOM     59  C   UNL A   1      47.131  28.169  26.970  1.00  0.00     0.023 A 
ATOM     60  C   UNL A   1      48.174  27.784  27.840  1.00  0.00     0.012 A 
ATOM     61  C   UNL A   1      47.305  28.022  25.580  1.00  0.00     0.148 A 
ATOM     62  C   UNL A   1      49.379  27.299  27.334  1.00  0.00     0.002 A 
ATOM     63  C   UNL A   1      48.493  27.495  25.086  1.00  0.00     0.091 A 
ATOM     64  F   UNL A   1      46.311  28.409  24.767  1.00  0.00    -0.205 F 
ATOM     65  C   UNL A   1      49.535  27.144  25.961  1.00  0.00     0.022 A 
BRANCH  63  66
ATOM     66  S   UNL A   1      48.762  27.179  23.338  1.00  0.00     0.127 S 
ATOM     67  O   UNL A   1      48.072  28.311  22.724  1.00  0.00    -0.237 OA
ATOM     68  O   UNL A   1      50.221  27.227  23.238  1.00  0.00    -0.237 OA
ATOM     69  O   UNL A   1      48.179  25.872  23.072  1.00  0.00    -0.744 OA
ENDBRANCH  63  66
ENDBRANCH  45  59
BRANCH  46  70
ATOM     70  C   UNL A   1      38.477  30.899  31.107  1.00  0.00     0.023 A 
ATOM     71  C   UNL A   1      38.278  30.636  32.477  1.00  0.00     0.012 A 
ATOM     72  C   UNL A   1      37.469  31.563  30.383  1.00  0.00     0.148 A 
ATOM     73  C   UNL A   1      37.086  30.993  33.105  1.00  0.00     0.002 A 
ATOM     74  C   UNL A   1      36.307  31.968  31.028  1.00  0.00     0.091 A 
ATOM     75  F   UNL A   1      37.672  31.794  29.079  1.00  0.00    -0.205 F 
ATOM     76  C   UNL A   1      36.105  31.668  32.384  1.00  0.00     0.022 A 
BRANCH  74  77
ATOM     77  S   UNL A   1      35.052  32.962  30.213  1.00  0.00     0.127 S 
ATOM     78  O   UNL A   1      35.846  34.062  29.674  1.00  0.00    -0.237 OA
ATOM     79  O   UNL A   1      34.530  32.029  29.213  1.00  0.00    -0.237 OA
ATOM     80  O   UNL A   1      34.097  33.319  31.254  1.00  0.00    -0.744 OA
ENDBRANCH  74  77
ENDBRANCH  46  70
BRANCH  58  81
ATOM     81  C   UNL A   1      44.473  34.237  29.857  1.00  0.00     0.023 A 
ATOM     82  C   UNL A   1      45.249  34.513  31.001  1.00  0.00     0.012 A 
ATOM     83  C   UNL A   1      44.162  35.283  28.966  1.00  0.00     0.148 A 
ATOM     84  C   UNL A   1      45.665  35.815  31.279  1.00  0.00     0.002 A 
ATOM     85  C   UNL A   1      44.625  36.569  29.223  1.00  0.00     0.091 A 
ATOM     86  F   UNL A   1      43.406  35.009  27.893  1.00  0.00    -0.205 F 
ATOM     87  C   UNL A   1      45.362  36.840  30.386  1.00  0.00     0.022 A 
BRANCH  85  88
ATOM     88  S   UNL A   1      44.361  37.925  28.075  1.00  0.00     0.127 S 
ATOM     89  O   UNL A   1      42.935  38.196  28.254  1.00  0.00    -0.237 OA
ATOM     90  O   UNL A   1      45.248  38.962  28.603  1.00  0.00    -0.237 OA
ATOM     91  O   UNL A   1      44.746  37.416  26.766  1.00  0.00    -0.744 OA
ENDBRANCH  85  88
ENDBRANCH  58  81
ENDBRANCH  32  33
ENDBRANCH  24  27
ENDBRANCH  22  23
ENDBRANCH   1  22
TORSDOF 15
ENDMDL
MODEL 2
REMARK VINA RESULT:     -12.0      5.252     10.297
REMARK SMILES O=C(C[C@@H]1C(=O)NC(=S)N1c1ccccc1)NCCCNC(=O)c1ccc(-c2c3nc(c(-c4cccc(S(=O)(=O)[O-])c4F)c4ccc([nH]4)c(-c4cccc(S(=O)(=O)[O-])c4F)c4nc(c(-c5cccc(S(=O)(=O)[O-])c5F)c5ccc2[nH]5)C=C4)C=C3)cc1
REMARK SMILES IDX 19 1 18 2 17 3 1 4 2 5 3 7 4 8 5 9 10 10 6 11 7 12 8 13 9 15
REMARK SMILES IDX 11 16 12 17 16 18 13 19 15 20 14 21 20 22 21 23 22 24 23 26
REMARK SMILES IDX 24 27 25 28 86 29 26 30 85 31 27 32 28 33 29 34 79 35 30 36
REMARK SMILES IDX 84 37 78 38 80 39 31 40 83 41 77 42 76 43 32 45 64 46 44 47
REMARK SMILES IDX 63 48 45 49 48 50 62 51 81 52 46 53 47 54 61 56 82 57 49 58
REMARK SMILES IDX 33 59 34 60 42 61 35 62 37 63 43 64 36 65 38 66 39 67 40 68
REMARK SMILES IDX 41 69 65 70 66 71 74 72 67 73 69 74 75 75 68 76 70 77 71 78
REMARK SMILES IDX 72 79 73 80 50 81 51 82 59 83 52 84 54 85 60 86 53 87 55 88
REMARK SMILES IDX 56 89 57 90 58 91
REMARK H PARENT 17 6 7 14 21 25 80 44 48 55
REMARK Flexibility Score: inf
ROOT
ATOM      1  C   UNL A   1      31.580  28.556  24.950  1.00  0.00     0.042 C 
ENDROOT
BRANCH   1   2
ATOM      2  C   UNL A   1      31.893  27.436  23.959  1.00  0.00     0.117 C 
BRANCH   2   3
ATOM      3  N   UNL A   1      31.317  26.170  24.365  1.00  0.00    -0.356 N 
ATOM      4  O   UNL A   1      32.461  24.813  22.900  1.00  0.00    -0.275 OA
ATOM      5  C   UNL A   1      31.626  24.963  23.785  1.00  0.00     0.222 C 
ATOM      6  H   UNL A   1      30.665  26.174  25.103  1.00  0.00     0.163 HD
BRANCH   5   7
ATOM      7  C   UNL A   1      30.815  23.802  24.325  1.00  0.00     0.135 C 
BRANCH   7   8
ATOM      8  C   UNL A   1      31.484  22.991  25.427  1.00  0.00     0.188 C 
ATOM      9  C   UNL A   1      32.019  23.839  26.578  1.00  0.00     0.249 C 
ATOM     10  N   UNL A   1      32.691  22.237  25.075  1.00  0.00    -0.306 N 
ATOM     11  O   UNL A   1      31.365  24.639  27.231  1.00  0.00    -0.272 OA
ATOM     12  N   UNL A   1      33.326  23.537  26.786  1.00  0.00    -0.301 N 
ATOM     13  C   UNL A   1      33.744  22.555  25.943  1.00  0.00     0.180 C 
ATOM     14  H   UNL A   1      33.896  23.972  27.461  1.00  0.00     0.172 HD
ATOM     15  S   UNL A   1      35.281  21.926  26.020  1.00  0.00    -0.040 S 
BRANCH  10  16
ATOM     16  C   UNL A   1      32.568  21.019  24.367  1.00  0.00     0.044 A 
ATOM     17  C   UNL A   1      32.600  19.796  25.048  1.00  0.00     0.026 A 
ATOM     18  C   UNL A   1      32.377  21.031  22.985  1.00  0.00     0.026 A 
ATOM     19  C   UNL A   1      32.439  18.598  24.350  1.00  0.00     0.002 A 
ATOM     20  C   UNL A   1      32.221  19.832  22.287  1.00  0.00     0.002 A 
ATOM     21  C   UNL A   1      32.248  18.617  22.969  1.00  0.00     0.000 A 
ENDBRANCH  10  16
ENDBRANCH   7   8
ENDBRANCH   5   7
ENDBRANCH   2   3
ENDBRANCH   1   2
BRANCH   1  22
ATOM     22  C   UNL A   1      32.778  29.390  25.405  1.00  0.00     0.118 C 
BRANCH  22  23
ATOM     23  N   UNL A   1      32.414  30.692  25.940  1.00  0.00    -0.352 N 
ATOM     24  C   UNL A   1      33.009  31.440  26.931  1.00  0.00     0.251 C 
ATOM     25  H   UNL A   1      31.619  31.103  25.531  1.00  0.00     0.163 HD
ATOM     26  O   UNL A   1      32.458  32.471  27.311  1.00  0.00    -0.269 OA
BRANCH  24  27
ATOM     27  C   UNL A   1      34.283  31.014  27.560  1.00  0.00     0.039 A 
ATOM     28  C   UNL A   1      35.254  31.988  27.819  1.00  0.00     0.014 A 
ATOM     29  C   UNL A   1      34.555  29.676  27.861  1.00  0.00     0.014 A 
ATOM     30  C   UNL A   1      36.460  31.630  28.430  1.00  0.00     0.010 A 
ATOM     31  C   UNL A   1      35.728  29.333  28.539  1.00  0.00     0.010 A 
ATOM     32  C   UNL A   1      36.697  30.304  28.828  1.00  0.00    -0.014 A 
BRANCH  32  33
ATOM     33  C   UNL A   1      37.937  29.946  29.574  1.00  0.00     0.031 A 
ATOM     34  C   UNL A   1      38.199  30.478  30.960  1.00  0.00     0.074 A 
ATOM     35  C   UNL A   1      38.864  29.171  28.975  1.00  0.00     0.049 A 
ATOM     36  N   UNL A   1      39.204  30.227  31.761  1.00  0.00    -0.248 NA
ATOM     37  C   UNL A   1      37.223  31.431  31.509  1.00  0.00     0.031 C 
ATOM     38  C   UNL A   1      38.788  28.671  27.600  1.00  0.00     0.029 A 
ATOM     39  N   UNL A   1      40.060  28.677  29.439  1.00  0.00    -0.354 N 
ATOM     40  C   UNL A   1      38.999  31.008  32.893  1.00  0.00     0.074 A 
ATOM     41  C   UNL A   1      37.792  31.771  32.658  1.00  0.00     0.031 C 
ATOM     42  C   UNL A   1      39.873  27.928  27.340  1.00  0.00     0.029 A 
ATOM     43  C   UNL A   1      40.736  27.911  28.518  1.00  0.00     0.049 A 
ATOM     44  H   UNL A   1      40.400  28.856  30.345  1.00  0.00     0.167 HD
ATOM     45  C   UNL A   1      39.726  31.063  34.035  1.00  0.00     0.034 A 
ATOM     46  C   UNL A   1      41.911  27.258  28.611  1.00  0.00     0.034 A 
ATOM     47  C   UNL A   1      40.906  30.276  34.283  1.00  0.00     0.049 A 
ATOM     48  C   UNL A   1      42.660  27.278  29.914  1.00  0.00     0.074 A 
ATOM     49  C   UNL A   1      41.661  30.198  35.442  1.00  0.00     0.029 A 
ATOM     50  N   UNL A   1      41.510  29.438  33.360  1.00  0.00    -0.354 N 
ATOM     51  N   UNL A   1      42.352  27.885  31.035  1.00  0.00    -0.248 NA
ATOM     52  C   UNL A   1      43.895  26.484  29.981  1.00  0.00     0.031 C 
ATOM     53  C   UNL A   1      42.732  29.327  35.211  1.00  0.00     0.029 A 
ATOM     54  C   UNL A   1      42.629  28.842  33.918  1.00  0.00     0.049 A 
ATOM     55  H   UNL A   1      41.191  29.288  32.441  1.00  0.00     0.167 HD
ATOM     56  C   UNL A   1      43.333  27.517  31.949  1.00  0.00     0.074 A 
ATOM     57  C   UNL A   1      44.228  26.612  31.258  1.00  0.00     0.031 C 
ATOM     58  C   UNL A   1      43.489  27.907  33.239  1.00  0.00     0.034 A 
BRANCH  45  59
ATOM     59  C   UNL A   1      39.232  31.968  35.138  1.00  0.00     0.023 A 
ATOM     60  C   UNL A   1      39.377  33.365  35.005  1.00  0.00     0.012 A 
ATOM     61  C   UNL A   1      38.568  31.449  36.267  1.00  0.00     0.148 A 
ATOM     62  C   UNL A   1      38.905  34.227  35.995  1.00  0.00     0.002 A 
ATOM     63  C   UNL A   1      38.060  32.317  37.226  1.00  0.00     0.091 A 
ATOM     64  F   UNL A   1      38.454  30.118  36.385  1.00  0.00    -0.205 F 
ATOM     65  C   UNL A   1      38.238  33.705  37.098  1.00  0.00     0.022 A 
BRANCH  63  66
ATOM     66  S   UNL A   1      37.114  31.750  38.645  1.00  0.00     0.127 S 
ATOM     67  O   UNL A   1      38.047  31.999  39.741  1.00  0.00    -0.237 OA
ATOM     68  O   UNL A   1      35.953  32.641  38.617  1.00  0.00    -0.237 OA
ATOM     69  O   UNL A   1      36.808  30.349  38.389  1.00  0.00    -0.744 OA
ENDBRANCH  63  66
ENDBRANCH  45  59
BRANCH  46  70
ATOM     70  C   UNL A   1      42.407  26.455  27.457  1.00  0.00     0.023 A 
ATOM     71  C   UNL A   1      43.244  27.061  26.499  1.00  0.00     0.012 A 
ATOM     72  C   UNL A   1      42.078  25.094  27.316  1.00  0.00     0.148 A 
ATOM     73  C   UNL A   1      43.713  26.338  25.404  1.00  0.00     0.002 A 
ATOM     74  C   UNL A   1      42.596  24.363  26.254  1.00  0.00     0.091 A 
ATOM     75  F   UNL A   1      41.271  24.538  28.231  1.00  0.00    -0.205 F 
ATOM     76  C   UNL A   1      43.398  24.987  25.287  1.00  0.00     0.022 A 
BRANCH  74  77
ATOM     77  S   UNL A   1      42.355  22.589  26.100  1.00  0.00     0.127 S 
ATOM     78  O   UNL A   1      40.899  22.489  26.053  1.00  0.00    -0.237 OA
ATOM     79  O   UNL A   1      43.035  22.301  24.836  1.00  0.00    -0.237 OA
ATOM     80  O   UNL A   1      42.995  22.004  27.271  1.00  0.00    -0.744 OA
ENDBRANCH  74  77
ENDBRANCH  46  70
BRANCH  58  81
ATOM     81  C   UNL A   1      44.654  27.328  34.002  1.00  0.00     0.023 A 
ATOM     82  C   UNL A   1      45.915  27.956  33.944  1.00  0.00     0.012 A 
ATOM     83  C   UNL A   1      44.494  26.181  34.804  1.00  0.00     0.148 A 
ATOM     84  C   UNL A   1      47.006  27.424  34.630  1.00  0.00     0.002 A 
ATOM     85  C   UNL A   1      45.573  25.686  35.525  1.00  0.00     0.091 A 
ATOM     86  F   UNL A   1      43.294  25.582  34.833  1.00  0.00    -0.205 F 
ATOM     87  C   UNL A   1      46.833  26.296  35.428  1.00  0.00     0.022 A 
BRANCH  85  88
ATOM     88  S   UNL A   1      45.411  24.295  36.652  1.00  0.00     0.127 S 
ATOM     89  O   UNL A   1      46.765  24.191  37.195  1.00  0.00    -0.237 OA
ATOM     90  O   UNL A   1      44.409  24.776  37.604  1.00  0.00    -0.237 OA
ATOM     91  O   UNL A   1      44.972  23.173  35.834  1.00  0.00    -0.744 OA
ENDBRANCH  85  88
ENDBRANCH  58  81
ENDBRANCH  32  33
ENDBRANCH  24  27
ENDBRANCH  22  23
ENDBRANCH   1  22
TORSDOF 15
ENDMDL
MODEL 3
REMARK VINA RESULT:     -11.9      5.060     10.124
REMARK SMILES O=C(C[C@@H]1C(=O)NC(=S)N1c1ccccc1)NCCCNC(=O)c1ccc(-c2c3nc(c(-c4cccc(S(=O)(=O)[O-])c4F)c4ccc([nH]4)c(-c4cccc(S(=O)(=O)[O-])c4F)c4nc(c(-c5cccc(S(=O)(=O)[O-])c5F)c5ccc2[nH]5)C=C4)C=C3)cc1
REMARK SMILES IDX 19 1 18 2 17 3 1 4 2 5 3 7 4 8 5 9 10 10 6 11 7 12 8 13 9 15
REMARK SMILES IDX 11 16 12 17 16 18 13 19 15 20 14 21 20 22 21 23 22 24 23 26
REMARK SMILES IDX 24 27 25 28 86 29 26 30 85 31 27 32 28 33 29 34 79 35 30 36
REMARK SMILES IDX 84 37 78 38 80 39 31 40 83 41 77 42 76 43 32 45 64 46 44 47
REMARK SMILES IDX 63 48 45 49 48 50 62 51 81 52 46 53 47 54 61 56 82 57 49 58
REMARK SMILES IDX 33 59 34 60 42 61 35 62 37 63 43 64 36 65 38 66 39 67 40 68
REMARK SMILES IDX 41 69 65 70 66 71 74 72 67 73 69 74 75 75 68 76 70 77 71 78
REMARK SMILES IDX 72 79 73 80 50 81 51 82 59 83 52 84 54 85 60 86 53 87 55 88
REMARK SMILES IDX 56 89 57 90 58 91
REMARK H PARENT 17 6 7 14 21 25 80 44 48 55
REMARK Flexibility Score: inf
ROOT
ATOM      1  C   UNL A   1      31.388  29.117  25.980  1.00  0.00     0.042 C 
ENDROOT
BRANCH   1   2
ATOM      2  C   UNL A   1      31.169  28.141  24.826  1.00  0.00     0.117 C 
BRANCH   2   3
ATOM      3  N   UNL A   1      32.402  27.507  24.404  1.00  0.00    -0.356 N 
ATOM      4  O   UNL A   1      32.058  25.453  25.382  1.00  0.00    -0.275 OA
ATOM      5  C   UNL A   1      32.762  26.223  24.739  1.00  0.00     0.222 C 
ATOM      6  H   UNL A   1      33.021  28.029  23.842  1.00  0.00     0.163 HD
BRANCH   5   7
ATOM      7  C   UNL A   1      34.143  25.831  24.255  1.00  0.00     0.135 C 
BRANCH   7   8
ATOM      8  C   UNL A   1      34.177  24.855  23.087  1.00  0.00     0.188 C 
ATOM      9  C   UNL A   1      33.148  25.158  22.000  1.00  0.00     0.249 C 
ATOM     10  N   UNL A   1      33.855  23.453  23.367  1.00  0.00    -0.306 N 
ATOM     11  O   UNL A   1      33.027  26.226  21.418  1.00  0.00    -0.272 OA
ATOM     12  N   UNL A   1      32.413  24.043  21.756  1.00  0.00    -0.301 N 
ATOM     13  C   UNL A   1      32.838  22.998  22.517  1.00  0.00     0.180 C 
ATOM     14  H   UNL A   1      31.670  23.997  21.112  1.00  0.00     0.172 HD
ATOM     15  S   UNL A   1      32.173  21.481  22.376  1.00  0.00    -0.040 S 
BRANCH  10  16
ATOM     16  C   UNL A   1      34.825  22.625  23.979  1.00  0.00     0.044 A 
ATOM     17  C   UNL A   1      36.166  22.689  23.581  1.00  0.00     0.026 A 
ATOM     18  C   UNL A   1      34.456  21.764  25.013  1.00  0.00     0.026 A 
ATOM     19  C   UNL A   1      37.127  21.900  24.215  1.00  0.00     0.002 A 
ATOM     20  C   UNL A   1      35.417  20.972  25.644  1.00  0.00     0.002 A 
ATOM     21  C   UNL A   1      36.751  21.041  25.248  1.00  0.00     0.000 A 
ENDBRANCH  10  16
ENDBRANCH   7   8
ENDBRANCH   5   7
ENDBRANCH   2   3
ENDBRANCH   1   2
BRANCH   1  22
ATOM     22  C   UNL A   1      32.648  29.978  25.887  1.00  0.00     0.118 C 
BRANCH  22  23
ATOM     23  N   UNL A   1      32.450  31.353  26.321  1.00  0.00    -0.352 N 
ATOM     24  C   UNL A   1      33.169  32.111  27.217  1.00  0.00     0.251 C 
ATOM     25  H   UNL A   1      31.683  31.812  25.910  1.00  0.00     0.163 HD
ATOM     26  O   UNL A   1      32.749  33.223  27.527  1.00  0.00    -0.269 OA
BRANCH  24  27
ATOM     27  C   UNL A   1      34.422  31.603  27.828  1.00  0.00     0.039 A 
ATOM     28  C   UNL A   1      35.462  32.508  28.060  1.00  0.00     0.014 A 
ATOM     29  C   UNL A   1      34.604  30.252  28.138  1.00  0.00     0.014 A 
ATOM     30  C   UNL A   1      36.652  32.073  28.653  1.00  0.00     0.010 A 
ATOM     31  C   UNL A   1      35.762  29.833  28.800  1.00  0.00     0.010 A 
ATOM     32  C   UNL A   1      36.803  30.737  29.062  1.00  0.00    -0.014 A 
BRANCH  32  33
ATOM     33  C   UNL A   1      38.027  30.300  29.789  1.00  0.00     0.031 A 
ATOM     34  C   UNL A   1      38.335  30.800  31.178  1.00  0.00     0.074 A 
ATOM     35  C   UNL A   1      38.902  29.480  29.171  1.00  0.00     0.049 A 
ATOM     36  N   UNL A   1      39.332  30.482  31.965  1.00  0.00    -0.248 NA
ATOM     37  C   UNL A   1      37.421  31.801  31.749  1.00  0.00     0.031 C 
ATOM     38  C   UNL A   1      38.782  29.001  27.793  1.00  0.00     0.029 A 
ATOM     39  N   UNL A   1      40.072  28.913  29.617  1.00  0.00    -0.354 N 
ATOM     40  C   UNL A   1      39.184  31.261  33.107  1.00  0.00     0.074 A 
ATOM     41  C   UNL A   1      38.020  32.095  32.895  1.00  0.00     0.031 C 
ATOM     42  C   UNL A   1      39.821  28.200  27.512  1.00  0.00     0.029 A 
ATOM     43  C   UNL A   1      40.693  28.121  28.680  1.00  0.00     0.049 A 
ATOM     44  H   UNL A   1      40.432  29.062  30.521  1.00  0.00     0.167 HD
ATOM     45  C   UNL A   1      39.925  31.261  34.242  1.00  0.00     0.034 A 
ATOM     46  C   UNL A   1      41.830  27.400  28.753  1.00  0.00     0.034 A 
ATOM     47  C   UNL A   1      41.060  30.405  34.468  1.00  0.00     0.049 A 
ATOM     48  C   UNL A   1      42.593  27.362  30.048  1.00  0.00     0.074 A 
ATOM     49  C   UNL A   1      41.822  30.270  35.617  1.00  0.00     0.029 A 
ATOM     50  N   UNL A   1      41.605  29.545  33.530  1.00  0.00    -0.354 N 
ATOM     51  N   UNL A   1      42.332  27.972  31.178  1.00  0.00    -0.248 NA
ATOM     52  C   UNL A   1      43.781  26.498  30.092  1.00  0.00     0.031 C 
ATOM     53  C   UNL A   1      42.839  29.343  35.365  1.00  0.00     0.029 A 
ATOM     54  C   UNL A   1      42.694  28.879  34.069  1.00  0.00     0.049 A 
ATOM     55  H   UNL A   1      41.268  29.424  32.613  1.00  0.00     0.167 HD
ATOM     56  C   UNL A   1      43.300  27.539  32.077  1.00  0.00     0.074 A 
ATOM     57  C   UNL A   1      44.134  26.591  31.366  1.00  0.00     0.031 C 
ATOM     58  C   UNL A   1      43.492  27.904  33.370  1.00  0.00     0.034 A 
BRANCH  45  59
ATOM     59  C   UNL A   1      39.495  32.180  35.360  1.00  0.00     0.023 A 
ATOM     60  C   UNL A   1      38.667  31.681  36.387  1.00  0.00     0.012 A 
ATOM     61  C   UNL A   1      39.958  33.509  35.433  1.00  0.00     0.148 A 
ATOM     62  C   UNL A   1      38.276  32.499  37.447  1.00  0.00     0.002 A 
ATOM     63  C   UNL A   1      39.601  34.304  36.517  1.00  0.00     0.091 A 
ATOM     64  F   UNL A   1      40.730  33.973  34.439  1.00  0.00    -0.205 F 
ATOM     65  C   UNL A   1      38.751  33.804  37.518  1.00  0.00     0.022 A 
BRANCH  63  66
ATOM     66  S   UNL A   1      40.225  35.973  36.743  1.00  0.00     0.127 S 
ATOM     67  O   UNL A   1      41.663  35.737  36.862  1.00  0.00    -0.237 OA
ATOM     68  O   UNL A   1      39.816  36.627  35.500  1.00  0.00    -0.237 OA
ATOM     69  O   UNL A   1      39.575  36.485  37.941  1.00  0.00    -0.744 OA
ENDBRANCH  63  66
ENDBRANCH  45  59
BRANCH  46  70
ATOM     70  C   UNL A   1      42.267  26.583  27.585  1.00  0.00     0.023 A 
ATOM     71  C   UNL A   1      43.062  27.175  26.584  1.00  0.00     0.012 A 
ATOM     72  C   UNL A   1      41.923  25.223  27.472  1.00  0.00     0.148 A 
ATOM     73  C   UNL A   1      43.476  26.438  25.475  1.00  0.00     0.002 A 
ATOM     74  C   UNL A   1      42.386  24.479  26.394  1.00  0.00     0.091 A 
ATOM     75  F   UNL A   1      41.155  24.681  28.428  1.00  0.00    -0.205 F 
ATOM     76  C   UNL A   1      43.147  25.088  25.385  1.00  0.00     0.022 A 
BRANCH  74  77
ATOM     77  S   UNL A   1      42.127  22.705  26.268  1.00  0.00     0.127 S 
ATOM     78  O   UNL A   1      40.670  22.617  26.256  1.00  0.00    -0.237 OA
ATOM     79  O   UNL A   1      42.774  22.396  24.992  1.00  0.00    -0.237 OA
ATOM     80  O   UNL A   1      42.789  22.130  27.430  1.00  0.00    -0.744 OA
ENDBRANCH  74  77
ENDBRANCH  46  70
BRANCH  58  81
ATOM     81  C   UNL A   1      44.630  27.251  34.113  1.00  0.00     0.023 A 
ATOM     82  C   UNL A   1      45.925  27.804  34.045  1.00  0.00     0.012 A 
ATOM     83  C   UNL A   1      44.412  26.107  34.907  1.00  0.00     0.148 A 
ATOM     84  C   UNL A   1      46.990  27.202  34.713  1.00  0.00     0.002 A 
ATOM     85  C   UNL A   1      45.469  25.543  35.611  1.00  0.00     0.091 A 
ATOM     86  F   UNL A   1      43.179  25.580  34.946  1.00  0.00    -0.205 F 
ATOM     87  C   UNL A   1      46.761  26.079  35.503  1.00  0.00     0.022 A 
BRANCH  85  88
ATOM     88  S   UNL A   1      45.238  24.154  36.727  1.00  0.00     0.127 S 
ATOM     89  O   UNL A   1      44.316  24.713  37.714  1.00  0.00    -0.237 OA
ATOM     90  O   UNL A   1      44.651  23.140  35.850  1.00  0.00    -0.237 OA
ATOM     91  O   UNL A   1      46.567  23.820  37.223  1.00  0.00    -0.744 OA
ENDBRANCH  85  88
ENDBRANCH  58  81
ENDBRANCH  32  33
ENDBRANCH  24  27
ENDBRANCH  22  23
ENDBRANCH   1  22
TORSDOF 15
ENDMDL
