MODEL 1
REMARK VINA RESULT:     -12.0      0.000      0.000
REMARK SMILES C[C@H](NC(=O)N1CC[C@@H](C(=O)NCCCNC(=O)c2ccc(-c3c4nc(c(-c5cccc(S(=O)(=O)[O-])c5F)c5ccc([nH]5)c(-c5cccc(S(=O)(=O)[O-])c5F)c5nc(c(-c6cccc(S(=O)(=O)[O-])c6F)c6ccc3[nH]6)C=C5)C=C4)cc2)[C@H]1C)c1ccc(Cl)cc1
REMARK SMILES IDX 14 1 13 2 12 3 10 4 11 5 9 7 6 8 7 9 82 10 8 11 83 12 4 13
REMARK SMILES IDX 3 14 5 16 2 17 1 18 84 19 85 20 90 21 86 22 89 23 87 24
REMARK SMILES IDX 88 25 15 26 16 27 17 28 18 30 19 31 20 32 81 33 21 34 80 35
REMARK SMILES IDX 22 36 23 37 24 38 74 39 25 40 79 41 73 42 75 43 26 44 78 45
REMARK SMILES IDX 72 46 71 47 27 49 59 50 39 51 58 52 40 53 43 54 57 55 76 56
REMARK SMILES IDX 41 57 42 58 56 60 77 61 44 62 28 63 29 64 37 65 30 66 32 67
REMARK SMILES IDX 38 68 31 69 33 70 34 71 35 72 36 73 60 74 61 75 69 76 62 77
REMARK SMILES IDX 64 78 70 79 63 80 65 81 66 82 67 83 68 84 45 85 46 86 54 87
REMARK SMILES IDX 47 88 49 89 55 90 48 91 50 92 51 93 52 94 53 95
REMARK H PARENT 12 6 3 15 16 29 75 48 43 59
REMARK Flexibility Score: inf
ROOT
ATOM      1  C   UNL A   1      37.945  19.637  24.971  1.00  0.00     0.042 C 
ENDROOT
BRANCH   1   2
ATOM      2  C   UNL A   1      36.591  20.336  25.075  1.00  0.00     0.117 C 
BRANCH   2   3
ATOM      3  N   UNL A   1      36.506  21.544  24.272  1.00  0.00    -0.356 N 
ATOM      4  C   UNL A   1      35.504  22.417  24.010  1.00  0.00     0.225 C 
ATOM      5  O   UNL A   1      35.800  23.380  23.290  1.00  0.00    -0.275 OA
ATOM      6  H   UNL A   1      37.352  21.776  23.825  1.00  0.00     0.163 HD
BRANCH   4   7
ATOM      7  C   UNL A   1      34.078  22.295  24.523  1.00  0.00     0.102 C 
ATOM      8  N   UNL A   1      32.532  23.780  25.561  1.00  0.00    -0.321 N 
ATOM      9  C   UNL A   1      31.848  23.174  24.440  1.00  0.00     0.122 C 
ATOM     10  C   UNL A   1      33.723  22.979  25.859  1.00  0.00     0.096 C 
ATOM     11  C   UNL A   1      32.966  22.681  23.540  1.00  0.00     0.037 C 
ATOM     12  C   UNL A   1      34.833  23.716  26.584  1.00  0.00     0.032 C 
BRANCH   8  13
ATOM     13  C   UNL A   1      31.766  24.253  26.604  1.00  0.00     0.318 C 
ATOM     14  N   UNL A   1      31.628  25.603  26.678  1.00  0.00    -0.331 N 
ATOM     15  H   UNL A   1      31.318  25.966  27.539  1.00  0.00     0.165 HD
ATOM     16  O   UNL A   1      31.202  23.517  27.408  1.00  0.00    -0.249 OA
BRANCH  14  17
ATOM     17  C   UNL A   1      31.887  26.571  25.620  1.00  0.00     0.111 C 
ATOM     18  C   UNL A   1      30.603  26.807  24.824  1.00  0.00     0.036 C 
BRANCH  17  19
ATOM     19  C   UNL A   1      32.522  27.865  26.105  1.00  0.00    -0.026 A 
ATOM     20  C   UNL A   1      33.909  27.881  26.348  1.00  0.00     0.007 A 
ATOM     21  C   UNL A   1      31.792  29.030  26.386  1.00  0.00     0.007 A 
ATOM     22  C   UNL A   1      34.529  28.983  26.939  1.00  0.00     0.021 A 
ATOM     23  C   UNL A   1      32.418  30.146  26.955  1.00  0.00     0.021 A 
ATOM     24  C   UNL A   1      33.777  30.108  27.255  1.00  0.00     0.041 A 
ATOM     25  Cl  UNL A   1      34.526  31.429  28.058  1.00  0.00    -0.084 Cl
ENDBRANCH  17  19
ENDBRANCH  14  17
ENDBRANCH   8  13
ENDBRANCH   4   7
ENDBRANCH   2   3
ENDBRANCH   1   2
BRANCH   1  26
ATOM     26  C   UNL A   1      39.058  20.189  25.852  1.00  0.00     0.118 C 
BRANCH  26  27
ATOM     27  N   UNL A   1      40.183  19.276  25.962  1.00  0.00    -0.352 N 
ATOM     28  C   UNL A   1      41.535  19.510  26.065  1.00  0.00     0.251 C 
ATOM     29  H   UNL A   1      39.934  18.323  25.964  1.00  0.00     0.163 HD
ATOM     30  O   UNL A   1      42.298  18.554  25.925  1.00  0.00    -0.269 OA
BRANCH  28  31
ATOM     31  C   UNL A   1      42.101  20.862  26.317  1.00  0.00     0.039 A 
ATOM     32  C   UNL A   1      42.319  21.253  27.645  1.00  0.00     0.014 A 
ATOM     33  C   UNL A   1      42.335  21.788  25.299  1.00  0.00     0.014 A 
ATOM     34  C   UNL A   1      42.795  22.537  27.942  1.00  0.00     0.010 A 
ATOM     35  C   UNL A   1      42.896  23.036  25.588  1.00  0.00     0.010 A 
ATOM     36  C   UNL A   1      43.109  23.439  26.914  1.00  0.00    -0.014 A 
BRANCH  36  37
ATOM     37  C   UNL A   1      43.628  24.805  27.207  1.00  0.00     0.031 A 
ATOM     38  C   UNL A   1      42.709  25.878  27.741  1.00  0.00     0.074 A 
ATOM     39  C   UNL A   1      44.913  25.112  26.931  1.00  0.00     0.049 A 
ATOM     40  N   UNL A   1      42.968  27.135  28.001  1.00  0.00    -0.248 NA
ATOM     41  C   UNL A   1      41.311  25.495  27.994  1.00  0.00     0.031 C 
ATOM     42  C   UNL A   1      45.893  24.195  26.345  1.00  0.00     0.029 A 
ATOM     43  N   UNL A   1      45.606  26.288  27.078  1.00  0.00    -0.354 N 
ATOM     44  C   UNL A   1      41.762  27.702  28.400  1.00  0.00     0.074 A 
ATOM     45  C   UNL A   1      40.764  26.657  28.324  1.00  0.00     0.031 C 
ATOM     46  C   UNL A   1      47.059  24.841  26.186  1.00  0.00     0.029 A 
ATOM     47  C   UNL A   1      46.906  26.224  26.629  1.00  0.00     0.049 A 
ATOM     48  H   UNL A   1      45.212  27.101  27.470  1.00  0.00     0.167 HD
ATOM     49  C   UNL A   1      41.509  28.964  28.821  1.00  0.00     0.034 A 
ATOM     50  C   UNL A   1      47.865  27.169  26.573  1.00  0.00     0.034 A 
ATOM     51  C   UNL A   1      42.510  29.989  28.956  1.00  0.00     0.049 A 
ATOM     52  C   UNL A   1      47.573  28.549  27.099  1.00  0.00     0.074 A 
ATOM     53  C   UNL A   1      42.367  31.268  29.465  1.00  0.00     0.029 A 
ATOM     54  N   UNL A   1      43.836  29.855  28.582  1.00  0.00    -0.354 N 
ATOM     55  N   UNL A   1      46.466  29.015  27.625  1.00  0.00    -0.248 NA
ATOM     56  C   UNL A   1      48.674  29.523  27.061  1.00  0.00     0.031 C 
ATOM     57  C   UNL A   1      43.606  31.914  29.383  1.00  0.00     0.029 A 
ATOM     58  C   UNL A   1      44.524  31.028  28.842  1.00  0.00     0.049 A 
ATOM     59  H   UNL A   1      44.233  29.044  28.188  1.00  0.00     0.167 HD
ATOM     60  C   UNL A   1      46.746  30.323  28.008  1.00  0.00     0.074 A 
ATOM     61  C   UNL A   1      48.135  30.567  27.678  1.00  0.00     0.031 C 
ATOM     62  C   UNL A   1      45.921  31.243  28.566  1.00  0.00     0.034 A 
BRANCH  49  63
ATOM     63  C   UNL A   1      40.096  29.298  29.230  1.00  0.00     0.023 A 
ATOM     64  C   UNL A   1      39.151  29.642  28.242  1.00  0.00     0.012 A 
ATOM     65  C   UNL A   1      39.685  29.208  30.575  1.00  0.00     0.148 A 
ATOM     66  C   UNL A   1      37.830  29.925  28.587  1.00  0.00     0.002 A 
ATOM     67  C   UNL A   1      38.356  29.450  30.907  1.00  0.00     0.091 A 
ATOM     68  F   UNL A   1      40.600  28.897  31.505  1.00  0.00    -0.205 F 
ATOM     69  C   UNL A   1      37.431  29.820  29.917  1.00  0.00     0.022 A 
BRANCH  67  70
ATOM     70  S   UNL A   1      37.724  29.263  32.579  1.00  0.00     0.127 S 
ATOM     71  O   UNL A   1      38.554  30.215  33.316  1.00  0.00    -0.237 OA
ATOM     72  O   UNL A   1      36.326  29.665  32.428  1.00  0.00    -0.237 OA
ATOM     73  O   UNL A   1      37.919  27.862  32.926  1.00  0.00    -0.744 OA
ENDBRANCH  67  70
ENDBRANCH  49  63
BRANCH  50  74
ATOM     74  C   UNL A   1      49.223  26.818  26.065  1.00  0.00     0.023 A 
ATOM     75  C   UNL A   1      50.078  26.040  26.870  1.00  0.00     0.012 A 
ATOM     76  C   UNL A   1      49.657  27.216  24.786  1.00  0.00     0.148 A 
ATOM     77  C   UNL A   1      51.352  25.690  26.423  1.00  0.00     0.002 A 
ATOM     78  C   UNL A   1      50.906  26.816  24.324  1.00  0.00     0.091 A 
ATOM     79  F   UNL A   1      48.835  27.968  24.041  1.00  0.00    -0.205 F 
ATOM     80  C   UNL A   1      51.763  26.068  25.148  1.00  0.00     0.022 A 
BRANCH  78  81
ATOM     81  S   UNL A   1      51.462  27.140  22.647  1.00  0.00     0.127 S 
ATOM     82  O   UNL A   1      52.662  26.312  22.563  1.00  0.00    -0.237 OA
ATOM     83  O   UNL A   1      50.328  26.664  21.853  1.00  0.00    -0.237 OA
ATOM     84  O   UNL A   1      51.677  28.580  22.575  1.00  0.00    -0.744 OA
ENDBRANCH  78  81
ENDBRANCH  50  74
BRANCH  62  85
ATOM     85  C   UNL A   1      46.498  32.597  28.890  1.00  0.00     0.023 A 
ATOM     86  C   UNL A   1      47.189  32.789  30.102  1.00  0.00     0.012 A 
ATOM     87  C   UNL A   1      46.425  33.655  27.962  1.00  0.00     0.148 A 
ATOM     88  C   UNL A   1      47.769  34.023  30.400  1.00  0.00     0.002 A 
ATOM     89  C   UNL A   1      47.045  34.866  28.245  1.00  0.00     0.091 A 
ATOM     90  F   UNL A   1      45.747  33.459  26.821  1.00  0.00    -0.205 F 
ATOM     91  C   UNL A   1      47.709  35.055  29.468  1.00  0.00     0.022 A 
BRANCH  89  92
ATOM     92  S   UNL A   1      47.098  36.219  27.063  1.00  0.00     0.127 S 
ATOM     93  O   UNL A   1      45.719  36.702  27.102  1.00  0.00    -0.237 OA
ATOM     94  O   UNL A   1      48.078  37.122  27.666  1.00  0.00    -0.237 OA
ATOM     95  O   UNL A   1      47.521  35.629  25.800  1.00  0.00    -0.744 OA
ENDBRANCH  89  92
ENDBRANCH  62  85
ENDBRANCH  36  37
ENDBRANCH  28  31
ENDBRANCH  26  27
ENDBRANCH   1  26
TORSDOF 16
ENDMDL
MODEL 2
REMARK VINA RESULT:     -12.0      5.701     11.783
REMARK SMILES C[C@H](NC(=O)N1CC[C@@H](C(=O)NCCCNC(=O)c2ccc(-c3c4nc(c(-c5cccc(S(=O)(=O)[O-])c5F)c5ccc([nH]5)c(-c5cccc(S(=O)(=O)[O-])c5F)c5nc(c(-c6cccc(S(=O)(=O)[O-])c6F)c6ccc3[nH]6)C=C5)C=C4)cc2)[C@H]1C)c1ccc(Cl)cc1
REMARK SMILES IDX 14 1 13 2 12 3 10 4 11 5 9 7 6 8 7 9 82 10 8 11 83 12 4 13
REMARK SMILES IDX 3 14 5 16 2 17 1 18 84 19 85 20 90 21 86 22 89 23 87 24
REMARK SMILES IDX 88 25 15 26 16 27 17 28 18 30 19 31 20 32 81 33 21 34 80 35
REMARK SMILES IDX 22 36 23 37 24 38 74 39 25 40 79 41 73 42 75 43 26 44 78 45
REMARK SMILES IDX 72 46 71 47 27 49 59 50 39 51 58 52 40 53 43 54 57 55 76 56
REMARK SMILES IDX 41 57 42 58 56 60 77 61 44 62 28 63 29 64 37 65 30 66 32 67
REMARK SMILES IDX 38 68 31 69 33 70 34 71 35 72 36 73 60 74 61 75 69 76 62 77
REMARK SMILES IDX 64 78 70 79 63 80 65 81 66 82 67 83 68 84 45 85 46 86 54 87
REMARK SMILES IDX 47 88 49 89 55 90 48 91 50 92 51 93 52 94 53 95
REMARK H PARENT 12 6 3 15 16 29 75 48 43 59
REMARK Flexibility Score: inf
ROOT
ATOM      1  C   UNL A   1      31.284  31.967  26.518  1.00  0.00     0.042 C 
ENDROOT
BRANCH   1   2
ATOM      2  C   UNL A   1      31.409  30.740  25.617  1.00  0.00     0.117 C 
BRANCH   2   3
ATOM      3  N   UNL A   1      31.836  29.547  26.330  1.00  0.00    -0.356 N 
ATOM      4  C   UNL A   1      31.748  28.222  26.061  1.00  0.00     0.225 C 
ATOM      5  O   UNL A   1      32.261  27.466  26.896  1.00  0.00    -0.275 OA
ATOM      6  H   UNL A   1      32.282  29.742  27.186  1.00  0.00     0.163 HD
BRANCH   4   7
ATOM      7  C   UNL A   1      31.074  27.619  24.838  1.00  0.00     0.102 C 
ATOM      8  N   UNL A   1      31.656  25.933  23.261  1.00  0.00    -0.321 N 
ATOM      9  C   UNL A   1      30.337  25.609  23.758  1.00  0.00     0.122 C 
ATOM     10  C   UNL A   1      31.943  27.330  23.598  1.00  0.00     0.096 C 
ATOM     11  C   UNL A   1      30.240  26.355  25.077  1.00  0.00     0.037 C 
ATOM     12  C   UNL A   1      33.415  27.687  23.675  1.00  0.00     0.032 C 
BRANCH   8  13
ATOM     13  C   UNL A   1      32.010  25.458  22.017  1.00  0.00     0.318 C 
ATOM     14  N   UNL A   1      32.702  24.287  22.000  1.00  0.00    -0.331 N 
ATOM     15  H   UNL A   1      33.182  24.074  21.167  1.00  0.00     0.165 HD
ATOM     16  O   UNL A   1      31.698  26.021  20.972  1.00  0.00    -0.249 OA
BRANCH  14  17
ATOM     17  C   UNL A   1      32.809  23.315  23.079  1.00  0.00     0.111 C 
ATOM     18  C   UNL A   1      32.452  21.926  22.547  1.00  0.00     0.036 C 
BRANCH  17  19
ATOM     19  C   UNL A   1      34.143  23.339  23.806  1.00  0.00    -0.026 A 
ATOM     20  C   UNL A   1      34.207  23.950  25.073  1.00  0.00     0.007 A 
ATOM     21  C   UNL A   1      35.335  22.841  23.257  1.00  0.00     0.007 A 
ATOM     22  C   UNL A   1      35.426  24.145  25.725  1.00  0.00     0.021 A 
ATOM     23  C   UNL A   1      36.555  23.012  23.922  1.00  0.00     0.021 A 
ATOM     24  C   UNL A   1      36.599  23.688  25.139  1.00  0.00     0.041 A 
ATOM     25  Cl  UNL A   1      38.106  24.002  25.903  1.00  0.00    -0.084 Cl
ENDBRANCH  17  19
ENDBRANCH  14  17
ENDBRANCH   8  13
ENDBRANCH   4   7
ENDBRANCH   2   3
ENDBRANCH   1   2
BRANCH   1  26
ATOM     26  C   UNL A   1      32.558  32.424  27.216  1.00  0.00     0.118 C 
BRANCH  26  27
ATOM     27  N   UNL A   1      32.527  33.835  27.560  1.00  0.00    -0.352 N 
ATOM     28  C   UNL A   1      33.197  34.548  28.528  1.00  0.00     0.251 C 
ATOM     29  H   UNL A   1      31.921  34.375  27.005  1.00  0.00     0.163 HD
ATOM     30  O   UNL A   1      32.828  35.700  28.755  1.00  0.00    -0.269 OA
BRANCH  28  31
ATOM     31  C   UNL A   1      34.326  33.977  29.312  1.00  0.00     0.039 A 
ATOM     32  C   UNL A   1      35.629  34.370  28.980  1.00  0.00     0.014 A 
ATOM     33  C   UNL A   1      34.149  33.001  30.295  1.00  0.00     0.014 A 
ATOM     34  C   UNL A   1      36.732  33.819  29.646  1.00  0.00     0.010 A 
ATOM     35  C   UNL A   1      35.242  32.520  31.023  1.00  0.00     0.010 A 
ATOM     36  C   UNL A   1      36.550  32.901  30.692  1.00  0.00    -0.014 A 
BRANCH  36  37
ATOM     37  C   UNL A   1      37.709  32.312  31.422  1.00  0.00     0.031 A 
ATOM     38  C   UNL A   1      38.520  31.197  30.805  1.00  0.00     0.074 A 
ATOM     39  C   UNL A   1      37.997  32.726  32.673  1.00  0.00     0.049 A 
ATOM     40  N   UNL A   1      39.523  30.525  31.312  1.00  0.00    -0.248 NA
ATOM     41  C   UNL A   1      38.139  30.764  29.451  1.00  0.00     0.031 C 
ATOM     42  C   UNL A   1      37.254  33.743  33.419  1.00  0.00     0.029 A 
ATOM     43  N   UNL A   1      38.976  32.322  33.549  1.00  0.00    -0.354 N 
ATOM     44  C   UNL A   1      39.861  29.565  30.364  1.00  0.00     0.074 A 
ATOM     45  C   UNL A   1      38.939  29.724  29.261  1.00  0.00     0.031 C 
ATOM     46  C   UNL A   1      37.803  33.884  34.637  1.00  0.00     0.029 A 
ATOM     47  C   UNL A   1      38.918  32.952  34.772  1.00  0.00     0.049 A 
ATOM     48  H   UNL A   1      39.656  31.647  33.323  1.00  0.00     0.167 HD
ATOM     49  C   UNL A   1      40.864  28.654  30.391  1.00  0.00     0.034 A 
ATOM     50  C   UNL A   1      39.670  32.795  35.878  1.00  0.00     0.034 A 
ATOM     51  C   UNL A   1      41.820  28.534  31.458  1.00  0.00     0.049 A 
ATOM     52  C   UNL A   1      40.813  31.814  35.861  1.00  0.00     0.074 A 
ATOM     53  C   UNL A   1      42.928  27.707  31.531  1.00  0.00     0.029 A 
ATOM     54  N   UNL A   1      41.786  29.258  32.639  1.00  0.00    -0.354 N 
ATOM     55  N   UNL A   1      41.214  31.031  34.890  1.00  0.00    -0.248 NA
ATOM     56  C   UNL A   1      41.632  31.724  37.079  1.00  0.00     0.031 C 
ATOM     57  C   UNL A   1      43.554  27.920  32.764  1.00  0.00     0.029 A 
ATOM     58  C   UNL A   1      42.848  28.894  33.450  1.00  0.00     0.049 A 
ATOM     59  H   UNL A   1      41.106  29.932  32.868  1.00  0.00     0.167 HD
ATOM     60  C   UNL A   1      42.347  30.380  35.366  1.00  0.00     0.074 A 
ATOM     61  C   UNL A   1      42.585  30.880  36.704  1.00  0.00     0.031 C 
ATOM     62  C   UNL A   1      43.111  29.440  34.757  1.00  0.00     0.034 A 
BRANCH  49  63
ATOM     63  C   UNL A   1      41.021  27.748  29.195  1.00  0.00     0.023 A 
ATOM     64  C   UNL A   1      40.339  26.515  29.166  1.00  0.00     0.012 A 
ATOM     65  C   UNL A   1      41.784  28.141  28.077  1.00  0.00     0.148 A 
ATOM     66  C   UNL A   1      40.440  25.671  28.061  1.00  0.00     0.002 A 
ATOM     67  C   UNL A   1      41.847  27.313  26.961  1.00  0.00     0.091 A 
ATOM     68  F   UNL A   1      42.442  29.308  28.128  1.00  0.00    -0.205 F 
ATOM     69  C   UNL A   1      41.185  26.074  26.955  1.00  0.00     0.022 A 
BRANCH  67  70
ATOM     70  S   UNL A   1      42.715  27.777  25.457  1.00  0.00     0.127 S 
ATOM     71  O   UNL A   1      42.547  26.577  24.639  1.00  0.00    -0.237 OA
ATOM     72  O   UNL A   1      41.947  28.936  25.002  1.00  0.00    -0.237 OA
ATOM     73  O   UNL A   1      44.082  28.075  25.860  1.00  0.00    -0.744 OA
ENDBRANCH  67  70
ENDBRANCH  49  63
BRANCH  50  74
ATOM     74  C   UNL A   1      39.414  33.644  37.076  1.00  0.00     0.023 A 
ATOM     75  C   UNL A   1      39.827  34.991  37.066  1.00  0.00     0.012 A 
ATOM     76  C   UNL A   1      38.735  33.143  38.205  1.00  0.00     0.148 A 
ATOM     77  C   UNL A   1      39.598  35.815  38.167  1.00  0.00     0.002 A 
ATOM     78  C   UNL A   1      38.459  33.985  39.277  1.00  0.00     0.091 A 
ATOM     79  F   UNL A   1      38.362  31.856  38.203  1.00  0.00    -0.205 F 
ATOM     80  C   UNL A   1      38.905  35.317  39.268  1.00  0.00     0.022 A 
BRANCH  78  81
ATOM     81  S   UNL A   1      37.457  33.468  40.675  1.00  0.00     0.127 S 
ATOM     82  O   UNL A   1      37.342  34.709  41.436  1.00  0.00    -0.237 OA
ATOM     83  O   UNL A   1      36.224  33.030  40.019  1.00  0.00    -0.237 OA
ATOM     84  O   UNL A   1      38.203  32.394  41.318  1.00  0.00    -0.744 OA
ENDBRANCH  78  81
ENDBRANCH  50  74
BRANCH  62  85
ATOM     85  C   UNL A   1      44.301  28.905  35.511  1.00  0.00     0.023 A 
ATOM     86  C   UNL A   1      45.566  29.495  35.329  1.00  0.00     0.012 A 
ATOM     87  C   UNL A   1      44.150  27.872  36.458  1.00  0.00     0.148 A 
ATOM     88  C   UNL A   1      46.670  29.044  36.052  1.00  0.00     0.002 A 
ATOM     89  C   UNL A   1      45.245  27.459  37.208  1.00  0.00     0.091 A 
ATOM     90  F   UNL A   1      42.942  27.309  36.605  1.00  0.00    -0.205 F 
ATOM     91  C   UNL A   1      46.507  28.036  36.999  1.00  0.00     0.022 A 
BRANCH  89  92
ATOM     92  S   UNL A   1      45.108  26.233  38.515  1.00  0.00     0.127 S 
ATOM     93  O   UNL A   1      44.372  25.163  37.844  1.00  0.00    -0.237 OA
ATOM     94  O   UNL A   1      46.509  25.924  38.803  1.00  0.00    -0.237 OA
ATOM     95  O   UNL A   1      44.401  26.891  39.607  1.00  0.00    -0.744 OA
ENDBRANCH  89  92
ENDBRANCH  62  85
ENDBRANCH  36  37
ENDBRANCH  28  31
ENDBRANCH  26  27
ENDBRANCH   1  26
TORSDOF 16
ENDMDL
MODEL 3
REMARK VINA RESULT:     -11.9      1.568      1.942
REMARK SMILES C[C@H](NC(=O)N1CC[C@@H](C(=O)NCCCNC(=O)c2ccc(-c3c4nc(c(-c5cccc(S(=O)(=O)[O-])c5F)c5ccc([nH]5)c(-c5cccc(S(=O)(=O)[O-])c5F)c5nc(c(-c6cccc(S(=O)(=O)[O-])c6F)c6ccc3[nH]6)C=C5)C=C4)cc2)[C@H]1C)c1ccc(Cl)cc1
REMARK SMILES IDX 14 1 13 2 12 3 10 4 11 5 9 7 6 8 7 9 82 10 8 11 83 12 4 13
REMARK SMILES IDX 3 14 5 16 2 17 1 18 84 19 85 20 90 21 86 22 89 23 87 24
REMARK SMILES IDX 88 25 15 26 16 27 17 28 18 30 19 31 20 32 81 33 21 34 80 35
REMARK SMILES IDX 22 36 23 37 24 38 74 39 25 40 79 41 73 42 75 43 26 44 78 45
REMARK SMILES IDX 72 46 71 47 27 49 59 50 39 51 58 52 40 53 43 54 57 55 76 56
REMARK SMILES IDX 41 57 42 58 56 60 77 61 44 62 28 63 29 64 37 65 30 66 32 67
REMARK SMILES IDX 38 68 31 69 33 70 34 71 35 72 36 73 60 74 61 75 69 76 62 77
REMARK SMILES IDX 64 78 70 79 63 80 65 81 66 82 67 83 68 84 45 85 46 86 54 87
REMARK SMILES IDX 47 88 49 89 55 90 48 91 50 92 51 93 52 94 53 95
REMARK H PARENT 12 6 3 15 16 29 75 48 43 59
REMARK Flexibility Score: inf
ROOT
ATOM      1  C   UNL A   1      37.555  19.569  24.978  1.00  0.00     0.042 C 
ENDROOT
BRANCH   1   2
ATOM      2  C   UNL A   1      36.168  20.206  25.036  1.00  0.00     0.117 C 
BRANCH   2   3
ATOM      3  N   UNL A   1      36.086  21.465  24.313  1.00  0.00    -0.356 N 
ATOM      4  C   UNL A   1      35.075  22.335  24.075  1.00  0.00     0.225 C 
ATOM      5  O   UNL A   1      35.376  23.350  23.433  1.00  0.00    -0.275 OA
ATOM      6  H   UNL A   1      36.942  21.744  23.916  1.00  0.00     0.163 HD
BRANCH   4   7
ATOM      7  C   UNL A   1      33.634  22.150  24.525  1.00  0.00     0.102 C 
ATOM      8  N   UNL A   1      31.988  23.560  25.511  1.00  0.00    -0.321 N 
ATOM      9  C   UNL A   1      31.377  22.941  24.355  1.00  0.00     0.122 C 
ATOM     10  C   UNL A   1      33.196  22.803  25.851  1.00  0.00     0.096 C 
ATOM     11  C   UNL A   1      32.551  22.504  23.499  1.00  0.00     0.037 C 
ATOM     12  C   UNL A   1      34.244  23.575  26.631  1.00  0.00     0.032 C 
BRANCH   8  13
ATOM     13  C   UNL A   1      31.160  23.990  26.524  1.00  0.00     0.318 C 
ATOM     14  N   UNL A   1      30.781  25.295  26.473  1.00  0.00    -0.331 N 
ATOM     15  H   UNL A   1      30.420  25.680  27.304  1.00  0.00     0.165 HD
ATOM     16  O   UNL A   1      30.746  23.248  27.410  1.00  0.00    -0.249 OA
BRANCH  14  17
ATOM     17  C   UNL A   1      30.851  26.184  25.321  1.00  0.00     0.111 C 
ATOM     18  C   UNL A   1      29.528  26.125  24.556  1.00  0.00     0.036 C 
BRANCH  17  19
ATOM     19  C   UNL A   1      31.270  27.605  25.659  1.00  0.00    -0.026 A 
ATOM     20  C   UNL A   1      31.667  27.892  26.979  1.00  0.00     0.007 A 
ATOM     21  C   UNL A   1      31.224  28.666  24.742  1.00  0.00     0.007 A 
ATOM     22  C   UNL A   1      31.915  29.202  27.394  1.00  0.00     0.021 A 
ATOM     23  C   UNL A   1      31.497  29.978  25.151  1.00  0.00     0.021 A 
ATOM     24  C   UNL A   1      31.814  30.243  26.480  1.00  0.00     0.041 A 
ATOM     25  Cl  UNL A   1      32.037  31.862  27.012  1.00  0.00    -0.084 Cl
ENDBRANCH  17  19
ENDBRANCH  14  17
ENDBRANCH   8  13
ENDBRANCH   4   7
ENDBRANCH   2   3
ENDBRANCH   1   2
BRANCH   1  26
ATOM     26  C   UNL A   1      38.687  20.357  25.624  1.00  0.00     0.118 C 
BRANCH  26  27
ATOM     27  N   UNL A   1      39.796  19.509  26.023  1.00  0.00    -0.352 N 
ATOM     28  C   UNL A   1      41.074  19.818  26.431  1.00  0.00     0.251 C 
ATOM     29  H   UNL A   1      39.600  18.545  25.998  1.00  0.00     0.163 HD
ATOM     30  O   UNL A   1      41.893  18.902  26.504  1.00  0.00    -0.269 OA
BRANCH  28  31
ATOM     31  C   UNL A   1      41.500  21.204  26.764  1.00  0.00     0.039 A 
ATOM     32  C   UNL A   1      41.503  22.160  25.740  1.00  0.00     0.014 A 
ATOM     33  C   UNL A   1      41.985  21.566  28.022  1.00  0.00     0.014 A 
ATOM     34  C   UNL A   1      41.952  23.465  25.984  1.00  0.00     0.010 A 
ATOM     35  C   UNL A   1      42.346  22.891  28.290  1.00  0.00     0.010 A 
ATOM     36  C   UNL A   1      42.360  23.852  27.270  1.00  0.00    -0.014 A 
BRANCH  36  37
ATOM     37  C   UNL A   1      42.829  25.239  27.555  1.00  0.00     0.031 A 
ATOM     38  C   UNL A   1      41.910  26.241  28.212  1.00  0.00     0.074 A 
ATOM     39  C   UNL A   1      44.060  25.627  27.162  1.00  0.00     0.049 A 
ATOM     40  N   UNL A   1      42.123  27.504  28.486  1.00  0.00    -0.248 NA
ATOM     41  C   UNL A   1      40.568  25.770  28.590  1.00  0.00     0.031 C 
ATOM     42  C   UNL A   1      45.025  24.785  26.453  1.00  0.00     0.029 A 
ATOM     43  N   UNL A   1      44.698  26.838  27.278  1.00  0.00    -0.354 N 
ATOM     44  C   UNL A   1      40.934  27.987  29.020  1.00  0.00     0.074 A 
ATOM     45  C   UNL A   1      39.994  26.888  29.010  1.00  0.00     0.031 C 
ATOM     46  C   UNL A   1      46.131  25.504  26.200  1.00  0.00     0.029 A 
ATOM     47  C   UNL A   1      45.947  26.862  26.701  1.00  0.00     0.049 A 
ATOM     48  H   UNL A   1      44.300  27.615  27.734  1.00  0.00     0.167 HD
ATOM     49  C   UNL A   1      40.655  29.221  29.506  1.00  0.00     0.034 A 
ATOM     50  C   UNL A   1      46.841  27.863  26.581  1.00  0.00     0.034 A 
ATOM     51  C   UNL A   1      41.605  30.299  29.574  1.00  0.00     0.049 A 
ATOM     52  C   UNL A   1      46.527  29.209  27.178  1.00  0.00     0.074 A 
ATOM     53  C   UNL A   1      41.444  31.554  30.135  1.00  0.00     0.029 A 
ATOM     54  N   UNL A   1      42.893  30.253  29.066  1.00  0.00    -0.354 N 
ATOM     55  N   UNL A   1      45.455  29.596  27.826  1.00  0.00    -0.248 NA
ATOM     56  C   UNL A   1      47.563  30.247  27.063  1.00  0.00     0.031 C 
ATOM     57  C   UNL A   1      42.630  32.273  29.953  1.00  0.00     0.029 A 
ATOM     58  C   UNL A   1      43.536  31.457  29.295  1.00  0.00     0.049 A 
ATOM     59  H   UNL A   1      43.292  29.478  28.609  1.00  0.00     0.167 HD
ATOM     60  C   UNL A   1      45.699  30.906  28.222  1.00  0.00     0.074 A 
ATOM     61  C   UNL A   1      47.031  31.240  27.763  1.00  0.00     0.031 C 
ATOM     62  C   UNL A   1      44.885  31.762  28.888  1.00  0.00     0.034 A 
BRANCH  49  63
ATOM     63  C   UNL A   1      39.274  29.461  30.064  1.00  0.00     0.023 A 
ATOM     64  C   UNL A   1      38.989  29.086  31.393  1.00  0.00     0.012 A 
ATOM     65  C   UNL A   1      38.282  30.114  29.304  1.00  0.00     0.148 A 
ATOM     66  C   UNL A   1      37.731  29.323  31.946  1.00  0.00     0.002 A 
ATOM     67  C   UNL A   1      37.044  30.385  29.876  1.00  0.00     0.091 A 
ATOM     68  F   UNL A   1      38.564  30.448  28.036  1.00  0.00    -0.205 F 
ATOM     69  C   UNL A   1      36.763  29.982  31.192  1.00  0.00     0.022 A 
BRANCH  67  70
ATOM     70  S   UNL A   1      35.758  31.299  29.015  1.00  0.00     0.127 S 
ATOM     71  O   UNL A   1      36.543  32.276  28.264  1.00  0.00    -0.237 OA
ATOM     72  O   UNL A   1      35.136  30.259  28.195  1.00  0.00    -0.237 OA
ATOM     73  O   UNL A   1      34.896  31.850  30.052  1.00  0.00    -0.744 OA
ENDBRANCH  67  70
ENDBRANCH  49  63
BRANCH  50  74
ATOM     74  C   UNL A   1      48.158  27.607  25.930  1.00  0.00     0.023 A 
ATOM     75  C   UNL A   1      49.257  27.228  26.726  1.00  0.00     0.012 A 
ATOM     76  C   UNL A   1      48.322  27.699  24.533  1.00  0.00     0.148 A 
ATOM     77  C   UNL A   1      50.501  26.975  26.149  1.00  0.00     0.002 A 
ATOM     78  C   UNL A   1      49.549  27.391  23.959  1.00  0.00     0.091 A 
ATOM     79  F   UNL A   1      47.269  28.074  23.794  1.00  0.00    -0.205 F 
ATOM     80  C   UNL A   1      50.646  27.046  24.766  1.00  0.00     0.022 A 
BRANCH  78  81
ATOM     81  S   UNL A   1      49.791  27.323  22.180  1.00  0.00     0.127 S 
ATOM     82  O   UNL A   1      48.775  26.354  21.776  1.00  0.00    -0.237 OA
ATOM     83  O   UNL A   1      49.517  28.705  21.783  1.00  0.00    -0.237 OA
ATOM     84  O   UNL A   1      51.175  26.911  21.986  1.00  0.00    -0.744 OA
ENDBRANCH  78  81
ENDBRANCH  50  74
BRANCH  62  85
ATOM     85  C   UNL A   1      45.415  33.138  29.198  1.00  0.00     0.023 A 
ATOM     86  C   UNL A   1      46.143  33.355  30.383  1.00  0.00     0.012 A 
ATOM     87  C   UNL A   1      45.261  34.195  28.278  1.00  0.00     0.148 A 
ATOM     88  C   UNL A   1      46.681  34.611  30.665  1.00  0.00     0.002 A 
ATOM     89  C   UNL A   1      45.839  35.430  28.544  1.00  0.00     0.091 A 
ATOM     90  F   UNL A   1      44.549  33.974  27.163  1.00  0.00    -0.205 F 
ATOM     91  C   UNL A   1      46.540  35.643  29.742  1.00  0.00     0.022 A 
BRANCH  89  92
ATOM     92  S   UNL A   1      45.788  36.789  27.368  1.00  0.00     0.127 S 
ATOM     93  O   UNL A   1      46.570  37.811  28.061  1.00  0.00    -0.237 OA
ATOM     94  O   UNL A   1      46.441  36.211  26.194  1.00  0.00    -0.237 OA
ATOM     95  O   UNL A   1      44.377  37.100  27.180  1.00  0.00    -0.744 OA
ENDBRANCH  89  92
ENDBRANCH  62  85
ENDBRANCH  36  37
ENDBRANCH  28  31
ENDBRANCH  26  27
ENDBRANCH   1  26
TORSDOF 16
ENDMDL
