MODEL 1
REMARK VINA RESULT:     -10.9      0.000      0.000
REMARK SMILES CN(CC(=O)NCCCNC(=O)c1ccc(-c2c3nc(c(-c4cccc(S(=O)(=O)[O-])c4F)c4ccc([nH]4)c(-c4cccc(S(=O)(=O)[O-])c4F)c4nc(c(-c5cccc(S(=O)(=O)[O-])c5F)c5ccc2[nH]5)C=C4)C=C3)cc1)c1nc2cc(N)ccc2[nH]1
REMARK SMILES IDX 8 1 7 2 6 3 4 4 5 5 3 7 2 8 1 9 76 10 77 11 85 12 78 13
REMARK SMILES IDX 84 14 79 16 83 17 80 18 82 19 81 20 9 23 10 24 11 25 12 27
REMARK SMILES IDX 13 28 14 29 75 30 15 31 74 32 16 33 17 34 18 35 68 36 19 37
REMARK SMILES IDX 73 38 67 39 69 40 20 41 72 42 66 43 65 44 21 46 53 47 33 48
REMARK SMILES IDX 52 49 34 50 37 51 51 52 70 53 35 54 36 55 50 57 71 58 38 59
REMARK SMILES IDX 22 60 23 61 31 62 24 63 26 64 32 65 25 66 27 67 28 68 29 69
REMARK SMILES IDX 30 70 54 71 55 72 63 73 56 74 58 75 64 76 57 77 59 78 60 79
REMARK SMILES IDX 61 80 62 81 39 82 40 83 48 84 41 85 43 86 49 87 42 88 44 89
REMARK SMILES IDX 45 90 46 91 47 92
REMARK H PARENT 6 6 85 15 81 21 81 22 10 26 69 45 37 56
REMARK Flexibility Score: inf
ROOT
ATOM      1  C   UNL A   1      40.837  20.714  27.353  1.00  0.00     0.042 C 
ENDROOT
BRANCH   1   2
ATOM      2  C   UNL A   1      42.251  20.296  27.735  1.00  0.00     0.117 C 
BRANCH   2   3
ATOM      3  N   UNL A   1      42.492  18.877  27.606  1.00  0.00    -0.354 N 
ATOM      4  C   UNL A   1      43.139  18.217  26.596  1.00  0.00     0.239 C 
ATOM      5  O   UNL A   1      43.463  17.042  26.790  1.00  0.00    -0.273 OA
ATOM      6  H   UNL A   1      42.148  18.314  28.337  1.00  0.00     0.163 HD
BRANCH   4   7
ATOM      7  C   UNL A   1      43.562  18.982  25.330  1.00  0.00     0.219 C 
BRANCH   7   8
ATOM      8  N   UNL A   1      44.887  19.626  25.414  1.00  0.00    -0.336 N 
ATOM      9  C   UNL A   1      46.077  18.802  25.357  1.00  0.00     0.147 C 
BRANCH   8  10
ATOM     10  C   UNL A   1      44.922  20.979  25.317  1.00  0.00     0.204 A 
ATOM     11  N   UNL A   1      45.930  21.757  25.632  1.00  0.00    -0.213 NA
ATOM     12  N   UNL A   1      43.844  21.733  24.916  1.00  0.00    -0.324 N 
ATOM     13  C   UNL A   1      45.488  23.042  25.474  1.00  0.00     0.093 A 
ATOM     14  C   UNL A   1      44.162  23.061  25.070  1.00  0.00     0.067 A 
ATOM     15  H   UNL A   1      42.990  21.381  24.576  1.00  0.00     0.170 HD
ATOM     16  C   UNL A   1      46.165  24.250  25.691  1.00  0.00     0.056 A 
ATOM     17  C   UNL A   1      43.434  24.241  24.915  1.00  0.00     0.030 A 
ATOM     18  C   UNL A   1      45.487  25.458  25.499  1.00  0.00     0.034 A 
ATOM     19  C   UNL A   1      44.127  25.437  25.162  1.00  0.00     0.028 A 
BRANCH  18  20
ATOM     20  N   UNL A   1      46.120  26.662  25.795  1.00  0.00    -0.399 N 
ATOM     21  H   UNL A   1      47.102  26.700  25.856  1.00  0.00     0.156 HD
ATOM     22  H   UNL A   1      45.585  27.476  25.943  1.00  0.00     0.156 HD
ENDBRANCH  18  20
ENDBRANCH   8  10
ENDBRANCH   7   8
ENDBRANCH   4   7
ENDBRANCH   2   3
ENDBRANCH   1   2
BRANCH   1  23
ATOM     23  C   UNL A   1      40.758  21.753  26.239  1.00  0.00     0.118 C 
BRANCH  23  24
ATOM     24  N   UNL A   1      39.391  22.031  25.818  1.00  0.00    -0.352 N 
ATOM     25  C   UNL A   1      38.565  23.096  26.075  1.00  0.00     0.251 C 
ATOM     26  H   UNL A   1      38.991  21.333  25.251  1.00  0.00     0.163 HD
ATOM     27  O   UNL A   1      37.383  23.017  25.749  1.00  0.00    -0.269 OA
BRANCH  25  28
ATOM     28  C   UNL A   1      39.064  24.323  26.738  1.00  0.00     0.039 A 
ATOM     29  C   UNL A   1      39.794  25.243  25.976  1.00  0.00     0.014 A 
ATOM     30  C   UNL A   1      38.882  24.552  28.103  1.00  0.00     0.014 A 
ATOM     31  C   UNL A   1      40.296  26.404  26.571  1.00  0.00     0.010 A 
ATOM     32  C   UNL A   1      39.312  25.748  28.677  1.00  0.00     0.010 A 
ATOM     33  C   UNL A   1      40.038  26.680  27.922  1.00  0.00    -0.014 A 
BRANCH  33  34
ATOM     34  C   UNL A   1      40.523  27.936  28.555  1.00  0.00     0.031 A 
ATOM     35  C   UNL A   1      41.998  28.180  28.740  1.00  0.00     0.074 A 
ATOM     36  C   UNL A   1      39.631  28.833  29.021  1.00  0.00     0.049 A 
ATOM     37  N   UNL A   1      42.602  29.205  29.282  1.00  0.00    -0.248 NA
ATOM     38  C   UNL A   1      42.914  27.123  28.281  1.00  0.00     0.031 C 
ATOM     39  C   UNL A   1      38.176  28.679  28.974  1.00  0.00     0.029 A 
ATOM     40  N   UNL A   1      39.816  30.042  29.644  1.00  0.00    -0.354 N 
ATOM     41  C   UNL A   1      43.960  28.906  29.260  1.00  0.00     0.074 A 
ATOM     42  C   UNL A   1      44.089  27.585  28.684  1.00  0.00     0.031 C 
ATOM     43  C   UNL A   1      37.601  29.757  29.532  1.00  0.00     0.029 A 
ATOM     44  C   UNL A   1      38.643  30.665  29.999  1.00  0.00     0.049 A 
ATOM     45  H   UNL A   1      40.706  30.427  29.819  1.00  0.00     0.167 HD
ATOM     46  C   UNL A   1      45.007  29.672  29.650  1.00  0.00     0.034 A 
ATOM     47  C   UNL A   1      38.428  31.836  30.631  1.00  0.00     0.034 A 
ATOM     48  C   UNL A   1      44.878  31.001  30.184  1.00  0.00     0.049 A 
ATOM     49  C   UNL A   1      39.608  32.687  31.014  1.00  0.00     0.074 A 
ATOM     50  C   UNL A   1      45.880  31.889  30.533  1.00  0.00     0.029 A 
ATOM     51  N   UNL A   1      43.674  31.633  30.451  1.00  0.00    -0.354 N 
ATOM     52  N   UNL A   1      40.887  32.453  30.839  1.00  0.00    -0.248 NA
ATOM     53  C   UNL A   1      39.318  33.982  31.646  1.00  0.00     0.031 C 
ATOM     54  C   UNL A   1      45.281  33.050  31.033  1.00  0.00     0.029 A 
ATOM     55  C   UNL A   1      43.906  32.897  30.967  1.00  0.00     0.049 A 
ATOM     56  H   UNL A   1      42.784  31.240  30.298  1.00  0.00     0.167 HD
ATOM     57  C   UNL A   1      41.549  33.586  31.297  1.00  0.00     0.074 A 
ATOM     58  C   UNL A   1      40.529  34.513  31.744  1.00  0.00     0.031 C 
ATOM     59  C   UNL A   1      42.880  33.833  31.354  1.00  0.00     0.034 A 
BRANCH  46  60
ATOM     60  C   UNL A   1      46.395  29.109  29.463  1.00  0.00     0.023 A 
ATOM     61  C   UNL A   1      46.958  28.301  30.472  1.00  0.00     0.012 A 
ATOM     62  C   UNL A   1      47.115  29.330  28.273  1.00  0.00     0.148 A 
ATOM     63  C   UNL A   1      48.233  27.755  30.318  1.00  0.00     0.002 A 
ATOM     64  C   UNL A   1      48.366  28.744  28.108  1.00  0.00     0.091 A 
ATOM     65  F   UNL A   1      46.574  30.115  27.331  1.00  0.00    -0.205 F 
ATOM     66  C   UNL A   1      48.931  27.968  29.133  1.00  0.00     0.022 A 
BRANCH  64  67
ATOM     67  S   UNL A   1      49.311  28.888  26.586  1.00  0.00     0.127 S 
ATOM     68  O   UNL A   1      48.338  28.440  25.591  1.00  0.00    -0.237 OA
ATOM     69  O   UNL A   1      49.611  30.319  26.544  1.00  0.00    -0.237 OA
ATOM     70  O   UNL A   1      50.475  28.030  26.754  1.00  0.00    -0.744 OA
ENDBRANCH  64  67
ENDBRANCH  46  60
BRANCH  47  71
ATOM     71  C   UNL A   1      37.034  32.310  30.864  1.00  0.00     0.023 A 
ATOM     72  C   UNL A   1      36.483  32.218  32.157  1.00  0.00     0.012 A 
ATOM     73  C   UNL A   1      36.266  32.876  29.829  1.00  0.00     0.148 A 
ATOM     74  C   UNL A   1      35.180  32.653  32.408  1.00  0.00     0.002 A 
ATOM     75  C   UNL A   1      34.990  33.359  30.097  1.00  0.00     0.091 A 
ATOM     76  F   UNL A   1      36.805  32.945  28.603  1.00  0.00    -0.205 F 
ATOM     77  C   UNL A   1      34.439  33.232  31.382  1.00  0.00     0.022 A 
BRANCH  75  78
ATOM     78  S   UNL A   1      34.015  34.240  28.872  1.00  0.00     0.127 S 
ATOM     79  O   UNL A   1      33.771  33.199  27.878  1.00  0.00    -0.237 OA
ATOM     80  O   UNL A   1      32.842  34.639  29.650  1.00  0.00    -0.237 OA
ATOM     81  O   UNL A   1      34.847  35.353  28.433  1.00  0.00    -0.744 OA
ENDBRANCH  75  78
ENDBRANCH  47  71
BRANCH  59  82
ATOM     82  C   UNL A   1      43.323  35.176  31.875  1.00  0.00     0.023 A 
ATOM     83  C   UNL A   1      43.538  35.359  33.256  1.00  0.00     0.012 A 
ATOM     84  C   UNL A   1      43.597  36.233  30.985  1.00  0.00     0.148 A 
ATOM     85  C   UNL A   1      43.985  36.586  33.744  1.00  0.00     0.002 A 
ATOM     86  C   UNL A   1      44.090  37.436  31.475  1.00  0.00     0.091 A 
ATOM     87  F   UNL A   1      43.367  36.045  29.677  1.00  0.00    -0.205 F 
ATOM     88  C   UNL A   1      44.273  37.619  32.855  1.00  0.00     0.022 A 
BRANCH  86  89
ATOM     89  S   UNL A   1      44.580  38.786  30.395  1.00  0.00     0.127 S 
ATOM     90  O   UNL A   1      45.099  39.761  31.354  1.00  0.00    -0.237 OA
ATOM     91  O   UNL A   1      45.599  38.157  29.554  1.00  0.00    -0.237 OA
ATOM     92  O   UNL A   1      43.374  39.188  29.684  1.00  0.00    -0.744 OA
ENDBRANCH  86  89
ENDBRANCH  59  82
ENDBRANCH  33  34
ENDBRANCH  25  28
ENDBRANCH  23  24
ENDBRANCH   1  23
TORSDOF 16
ENDMDL
MODEL 2
REMARK VINA RESULT:     -10.8      4.865     12.426
REMARK SMILES CN(CC(=O)NCCCNC(=O)c1ccc(-c2c3nc(c(-c4cccc(S(=O)(=O)[O-])c4F)c4ccc([nH]4)c(-c4cccc(S(=O)(=O)[O-])c4F)c4nc(c(-c5cccc(S(=O)(=O)[O-])c5F)c5ccc2[nH]5)C=C4)C=C3)cc1)c1nc2cc(N)ccc2[nH]1
REMARK SMILES IDX 8 1 7 2 6 3 4 4 5 5 3 7 2 8 1 9 76 10 77 11 85 12 78 13
REMARK SMILES IDX 84 14 79 16 83 17 80 18 82 19 81 20 9 23 10 24 11 25 12 27
REMARK SMILES IDX 13 28 14 29 75 30 15 31 74 32 16 33 17 34 18 35 68 36 19 37
REMARK SMILES IDX 73 38 67 39 69 40 20 41 72 42 66 43 65 44 21 46 53 47 33 48
REMARK SMILES IDX 52 49 34 50 37 51 51 52 70 53 35 54 36 55 50 57 71 58 38 59
REMARK SMILES IDX 22 60 23 61 31 62 24 63 26 64 32 65 25 66 27 67 28 68 29 69
REMARK SMILES IDX 30 70 54 71 55 72 63 73 56 74 58 75 64 76 57 77 59 78 60 79
REMARK SMILES IDX 61 80 62 81 39 82 40 83 48 84 41 85 43 86 49 87 42 88 44 89
REMARK SMILES IDX 45 90 46 91 47 92
REMARK H PARENT 6 6 85 15 81 21 81 22 10 26 69 45 37 56
REMARK Flexibility Score: inf
ROOT
ATOM      1  C   UNL A   1      33.977  34.125  28.194  1.00  0.00     0.042 C 
ENDROOT
BRANCH   1   2
ATOM      2  C   UNL A   1      32.866  34.617  29.111  1.00  0.00     0.117 C 
BRANCH   2   3
ATOM      3  N   UNL A   1      32.898  36.042  29.350  1.00  0.00    -0.354 N 
ATOM      4  C   UNL A   1      32.824  36.700  30.549  1.00  0.00     0.239 C 
ATOM      5  O   UNL A   1      33.122  37.899  30.568  1.00  0.00    -0.273 OA
ATOM      6  H   UNL A   1      32.984  36.611  28.551  1.00  0.00     0.163 HD
BRANCH   4   7
ATOM      7  C   UNL A   1      32.517  35.916  31.836  1.00  0.00     0.219 C 
BRANCH   7   8
ATOM      8  N   UNL A   1      33.569  35.992  32.869  1.00  0.00    -0.336 N 
ATOM      9  C   UNL A   1      33.592  37.125  33.770  1.00  0.00     0.147 C 
BRANCH   8  10
ATOM     10  C   UNL A   1      34.327  34.883  33.059  1.00  0.00     0.204 A 
ATOM     11  N   UNL A   1      35.250  34.718  33.976  1.00  0.00    -0.213 NA
ATOM     12  N   UNL A   1      34.258  33.775  32.247  1.00  0.00    -0.324 N 
ATOM     13  C   UNL A   1      35.821  33.499  33.733  1.00  0.00     0.093 A 
ATOM     14  C   UNL A   1      35.251  32.902  32.619  1.00  0.00     0.067 A 
ATOM     15  H   UNL A   1      33.607  33.633  31.522  1.00  0.00     0.170 HD
ATOM     16  C   UNL A   1      36.863  32.852  34.411  1.00  0.00     0.056 A 
ATOM     17  C   UNL A   1      35.701  31.690  32.096  1.00  0.00     0.030 A 
ATOM     18  C   UNL A   1      37.313  31.611  33.949  1.00  0.00     0.034 A 
ATOM     19  C   UNL A   1      36.762  31.072  32.779  1.00  0.00     0.028 A 
BRANCH  18  20
ATOM     20  N   UNL A   1      38.404  30.999  34.560  1.00  0.00    -0.399 N 
ATOM     21  H   UNL A   1      39.235  30.853  34.052  1.00  0.00     0.156 HD
ATOM     22  H   UNL A   1      38.345  30.712  35.500  1.00  0.00     0.156 HD
ENDBRANCH  18  20
ENDBRANCH   8  10
ENDBRANCH   7   8
ENDBRANCH   4   7
ENDBRANCH   2   3
ENDBRANCH   1   2
BRANCH   1  23
ATOM     23  C   UNL A   1      34.596  32.791  28.600  1.00  0.00     0.118 C 
BRANCH  23  24
ATOM     24  N   UNL A   1      34.009  31.656  27.900  1.00  0.00    -0.352 N 
ATOM     25  C   UNL A   1      34.545  30.453  27.519  1.00  0.00     0.251 C 
ATOM     26  H   UNL A   1      33.062  31.775  27.659  1.00  0.00     0.163 HD
ATOM     27  O   UNL A   1      33.890  29.724  26.777  1.00  0.00    -0.269 OA
BRANCH  25  28
ATOM     28  C   UNL A   1      35.889  30.023  27.972  1.00  0.00     0.039 A 
ATOM     29  C   UNL A   1      36.005  29.408  29.224  1.00  0.00     0.014 A 
ATOM     30  C   UNL A   1      37.038  30.272  27.219  1.00  0.00     0.014 A 
ATOM     31  C   UNL A   1      37.258  29.005  29.693  1.00  0.00     0.010 A 
ATOM     32  C   UNL A   1      38.276  29.797  27.651  1.00  0.00     0.010 A 
ATOM     33  C   UNL A   1      38.403  29.172  28.899  1.00  0.00    -0.014 A 
BRANCH  33  34
ATOM     34  C   UNL A   1      39.735  28.702  29.366  1.00  0.00     0.031 A 
ATOM     35  C   UNL A   1      40.458  29.424  30.474  1.00  0.00     0.074 A 
ATOM     36  C   UNL A   1      40.326  27.661  28.747  1.00  0.00     0.049 A 
ATOM     37  N   UNL A   1      41.627  29.167  30.999  1.00  0.00    -0.248 NA
ATOM     38  C   UNL A   1      39.791  30.603  31.051  1.00  0.00     0.031 C 
ATOM     39  C   UNL A   1      39.767  26.926  27.610  1.00  0.00     0.029 A 
ATOM     40  N   UNL A   1      41.535  27.050  28.973  1.00  0.00    -0.354 N 
ATOM     41  C   UNL A   1      41.852  30.165  31.940  1.00  0.00     0.074 A 
ATOM     42  C   UNL A   1      40.713  31.055  31.888  1.00  0.00     0.031 C 
ATOM     43  C   UNL A   1      40.624  25.958  27.247  1.00  0.00     0.029 A 
ATOM     44  C   UNL A   1      41.803  26.019  28.105  1.00  0.00     0.049 A 
ATOM     45  H   UNL A   1      42.151  27.325  29.691  1.00  0.00     0.167 HD
ATOM     46  C   UNL A   1      42.894  30.312  32.794  1.00  0.00     0.034 A 
ATOM     47  C   UNL A   1      42.877  25.210  28.008  1.00  0.00     0.034 A 
ATOM     48  C   UNL A   1      44.006  29.402  32.872  1.00  0.00     0.049 A 
ATOM     49  C   UNL A   1      44.001  25.366  28.997  1.00  0.00     0.074 A 
ATOM     50  C   UNL A   1      45.069  29.416  33.757  1.00  0.00     0.029 A 
ATOM     51  N   UNL A   1      44.201  28.318  32.031  1.00  0.00    -0.354 N 
ATOM     52  N   UNL A   1      44.119  26.221  29.985  1.00  0.00    -0.248 NA
ATOM     53  C   UNL A   1      45.121  24.420  28.886  1.00  0.00     0.031 C 
ATOM     54  C   UNL A   1      45.920  28.354  33.435  1.00  0.00     0.029 A 
ATOM     55  C   UNL A   1      45.370  27.659  32.370  1.00  0.00     0.049 A 
ATOM     56  H   UNL A   1      43.597  28.056  31.298  1.00  0.00     0.167 HD
ATOM     57  C   UNL A   1      45.301  25.890  30.637  1.00  0.00     0.074 A 
ATOM     58  C   UNL A   1      45.854  24.746  29.942  1.00  0.00     0.031 C 
ATOM     59  C   UNL A   1      45.881  26.486  31.707  1.00  0.00     0.034 A 
BRANCH  46  60
ATOM     60  C   UNL A   1      42.854  31.474  33.756  1.00  0.00     0.023 A 
ATOM     61  C   UNL A   1      43.401  32.714  33.368  1.00  0.00     0.012 A 
ATOM     62  C   UNL A   1      42.229  31.358  35.013  1.00  0.00     0.148 A 
ATOM     63  C   UNL A   1      43.363  33.810  34.231  1.00  0.00     0.002 A 
ATOM     64  C   UNL A   1      42.154  32.467  35.849  1.00  0.00     0.091 A 
ATOM     65  F   UNL A   1      41.730  30.167  35.374  1.00  0.00    -0.205 F 
ATOM     66  C   UNL A   1      42.732  33.689  35.465  1.00  0.00     0.022 A 
BRANCH  64  67
ATOM     67  S   UNL A   1      41.289  32.438  37.423  1.00  0.00     0.127 S 
ATOM     68  O   UNL A   1      41.338  33.847  37.813  1.00  0.00    -0.237 OA
ATOM     69  O   UNL A   1      39.963  31.958  37.037  1.00  0.00    -0.237 OA
ATOM     70  O   UNL A   1      42.039  31.526  38.276  1.00  0.00    -0.744 OA
ENDBRANCH  64  67
ENDBRANCH  46  60
BRANCH  47  71
ATOM     71  C   UNL A   1      42.902  24.126  26.985  1.00  0.00     0.023 A 
ATOM     72  C   UNL A   1      43.637  24.314  25.799  1.00  0.00     0.012 A 
ATOM     73  C   UNL A   1      42.233  22.904  27.192  1.00  0.00     0.148 A 
ATOM     74  C   UNL A   1      43.680  23.319  24.822  1.00  0.00     0.002 A 
ATOM     75  C   UNL A   1      42.325  21.895  26.240  1.00  0.00     0.091 A 
ATOM     76  F   UNL A   1      41.530  22.748  28.323  1.00  0.00    -0.205 F 
ATOM     77  C   UNL A   1      43.033  22.106  25.047  1.00  0.00     0.022 A 
BRANCH  75  78
ATOM     78  S   UNL A   1      41.639  20.255  26.504  1.00  0.00     0.127 S 
ATOM     79  O   UNL A   1      40.205  20.527  26.504  1.00  0.00    -0.237 OA
ATOM     80  O   UNL A   1      42.130  19.530  25.333  1.00  0.00    -0.237 OA
ATOM     81  O   UNL A   1      42.196  19.794  27.769  1.00  0.00    -0.744 OA
ENDBRANCH  75  78
ENDBRANCH  47  71
BRANCH  59  82
ATOM     82  C   UNL A   1      47.162  25.890  32.232  1.00  0.00     0.023 A 
ATOM     83  C   UNL A   1      48.394  26.236  31.640  1.00  0.00     0.012 A 
ATOM     84  C   UNL A   1      47.148  25.046  33.359  1.00  0.00     0.148 A 
ATOM     85  C   UNL A   1      49.588  25.722  32.143  1.00  0.00     0.002 A 
ATOM     86  C   UNL A   1      48.347  24.578  33.885  1.00  0.00     0.091 A 
ATOM     87  F   UNL A   1      45.965  24.714  33.896  1.00  0.00    -0.205 F 
ATOM     88  C   UNL A   1      49.567  24.904  33.270  1.00  0.00     0.022 A 
BRANCH  86  89
ATOM     89  S   UNL A   1      48.421  23.601  35.390  1.00  0.00     0.127 S 
ATOM     90  O   UNL A   1      47.763  24.485  36.352  1.00  0.00    -0.237 OA
ATOM     91  O   UNL A   1      47.648  22.413  35.029  1.00  0.00    -0.237 OA
ATOM     92  O   UNL A   1      49.834  23.350  35.636  1.00  0.00    -0.744 OA
ENDBRANCH  86  89
ENDBRANCH  59  82
ENDBRANCH  33  34
ENDBRANCH  25  28
ENDBRANCH  23  24
ENDBRANCH   1  23
TORSDOF 16
ENDMDL
MODEL 3
REMARK VINA RESULT:     -10.6      5.694     11.007
REMARK SMILES CN(CC(=O)NCCCNC(=O)c1ccc(-c2c3nc(c(-c4cccc(S(=O)(=O)[O-])c4F)c4ccc([nH]4)c(-c4cccc(S(=O)(=O)[O-])c4F)c4nc(c(-c5cccc(S(=O)(=O)[O-])c5F)c5ccc2[nH]5)C=C4)C=C3)cc1)c1nc2cc(N)ccc2[nH]1
REMARK SMILES IDX 8 1 7 2 6 3 4 4 5 5 3 7 2 8 1 9 76 10 77 11 85 12 78 13
REMARK SMILES IDX 84 14 79 16 83 17 80 18 82 19 81 20 9 23 10 24 11 25 12 27
REMARK SMILES IDX 13 28 14 29 75 30 15 31 74 32 16 33 17 34 18 35 68 36 19 37
REMARK SMILES IDX 73 38 67 39 69 40 20 41 72 42 66 43 65 44 21 46 53 47 33 48
REMARK SMILES IDX 52 49 34 50 37 51 51 52 70 53 35 54 36 55 50 57 71 58 38 59
REMARK SMILES IDX 22 60 23 61 31 62 24 63 26 64 32 65 25 66 27 67 28 68 29 69
REMARK SMILES IDX 30 70 54 71 55 72 63 73 56 74 58 75 64 76 57 77 59 78 60 79
REMARK SMILES IDX 61 80 62 81 39 82 40 83 48 84 41 85 43 86 49 87 42 88 44 89
REMARK SMILES IDX 45 90 46 91 47 92
REMARK H PARENT 6 6 85 15 81 21 81 22 10 26 69 45 37 56
REMARK Flexibility Score: inf
ROOT
ATOM      1  C   UNL A   1      33.302  29.204  24.040  1.00  0.00     0.042 C 
ENDROOT
BRANCH   1   2
ATOM      2  C   UNL A   1      32.328  28.617  23.028  1.00  0.00     0.117 C 
BRANCH   2   3
ATOM      3  N   UNL A   1      32.951  27.738  22.064  1.00  0.00    -0.354 N 
ATOM      4  C   UNL A   1      32.890  26.372  22.002  1.00  0.00     0.239 C 
ATOM      5  O   UNL A   1      33.277  25.824  20.966  1.00  0.00    -0.273 OA
ATOM      6  H   UNL A   1      33.487  28.178  21.365  1.00  0.00     0.163 HD
BRANCH   4   7
ATOM      7  C   UNL A   1      32.224  25.583  23.143  1.00  0.00     0.219 C 
BRANCH   7   8
ATOM      8  N   UNL A   1      33.167  24.888  24.042  1.00  0.00    -0.336 N 
ATOM      9  C   UNL A   1      34.086  25.672  24.841  1.00  0.00     0.147 C 
BRANCH   8  10
ATOM     10  C   UNL A   1      32.968  23.560  24.236  1.00  0.00     0.204 A 
ATOM     11  N   UNL A   1      33.120  22.906  25.363  1.00  0.00    -0.213 NA
ATOM     12  N   UNL A   1      32.624  22.695  23.225  1.00  0.00    -0.324 N 
ATOM     13  C   UNL A   1      32.914  21.585  25.073  1.00  0.00     0.093 A 
ATOM     14  C   UNL A   1      32.648  21.414  23.723  1.00  0.00     0.067 A 
ATOM     15  H   UNL A   1      32.400  22.949  22.300  1.00  0.00     0.170 HD
ATOM     16  C   UNL A   1      32.972  20.468  25.917  1.00  0.00     0.056 A 
ATOM     17  C   UNL A   1      32.481  20.159  23.138  1.00  0.00     0.030 A 
ATOM     18  C   UNL A   1      32.762  19.194  25.380  1.00  0.00     0.034 A 
ATOM     19  C   UNL A   1      32.568  19.053  23.999  1.00  0.00     0.028 A 
BRANCH  18  20
ATOM     20  N   UNL A   1      32.903  18.070  26.188  1.00  0.00    -0.399 N 
ATOM     21  H   UNL A   1      32.341  17.966  26.990  1.00  0.00     0.156 HD
ATOM     22  H   UNL A   1      33.565  17.378  25.958  1.00  0.00     0.156 HD
ENDBRANCH  18  20
ENDBRANCH   8  10
ENDBRANCH   7   8
ENDBRANCH   4   7
ENDBRANCH   2   3
ENDBRANCH   1   2
BRANCH   1  23
ATOM     23  C   UNL A   1      32.769  29.282  25.468  1.00  0.00     0.118 C 
BRANCH  23  24
ATOM     24  N   UNL A   1      32.494  30.647  25.897  1.00  0.00    -0.352 N 
ATOM     25  C   UNL A   1      33.065  31.418  26.877  1.00  0.00     0.251 C 
ATOM     26  H   UNL A   1      31.774  31.093  25.396  1.00  0.00     0.163 HD
ATOM     27  O   UNL A   1      32.537  32.489  27.168  1.00  0.00    -0.269 OA
BRANCH  25  28
ATOM     28  C   UNL A   1      34.289  30.986  27.591  1.00  0.00     0.039 A 
ATOM     29  C   UNL A   1      35.312  31.922  27.788  1.00  0.00     0.014 A 
ATOM     30  C   UNL A   1      34.474  29.668  28.011  1.00  0.00     0.014 A 
ATOM     31  C   UNL A   1      36.489  31.547  28.441  1.00  0.00     0.010 A 
ATOM     32  C   UNL A   1      35.613  29.315  28.735  1.00  0.00     0.010 A 
ATOM     33  C   UNL A   1      36.641  30.245  28.944  1.00  0.00    -0.014 A 
BRANCH  33  34
ATOM     34  C   UNL A   1      37.867  29.847  29.686  1.00  0.00     0.031 A 
ATOM     35  C   UNL A   1      38.145  30.400  31.060  1.00  0.00     0.074 A 
ATOM     36  C   UNL A   1      38.766  29.035  29.096  1.00  0.00     0.049 A 
ATOM     37  N   UNL A   1      39.165  30.178  31.847  1.00  0.00    -0.248 NA
ATOM     38  C   UNL A   1      37.160  31.345  31.612  1.00  0.00     0.031 C 
ATOM     39  C   UNL A   1      38.654  28.495  27.739  1.00  0.00     0.029 A 
ATOM     40  N   UNL A   1      39.962  28.537  29.552  1.00  0.00    -0.354 N 
ATOM     41  C   UNL A   1      38.965  30.976  32.968  1.00  0.00     0.074 A 
ATOM     42  C   UNL A   1      37.743  31.717  32.743  1.00  0.00     0.031 C 
ATOM     43  C   UNL A   1      39.728  27.733  27.478  1.00  0.00     0.029 A 
ATOM     44  C   UNL A   1      40.617  27.750  28.635  1.00  0.00     0.049 A 
ATOM     45  H   UNL A   1      40.316  28.726  30.452  1.00  0.00     0.167 HD
ATOM     46  C   UNL A   1      39.710  31.062  34.096  1.00  0.00     0.034 A 
ATOM     47  C   UNL A   1      41.801  27.111  28.715  1.00  0.00     0.034 A 
ATOM     48  C   UNL A   1      40.903  30.293  34.334  1.00  0.00     0.049 A 
ATOM     49  C   UNL A   1      42.588  27.187  29.996  1.00  0.00     0.074 A 
ATOM     50  C   UNL A   1      41.682  30.246  35.476  1.00  0.00     0.029 A 
ATOM     51  N   UNL A   1      41.491  29.440  33.413  1.00  0.00    -0.354 N 
ATOM     52  N   UNL A   1      42.299  27.824  31.106  1.00  0.00    -0.248 NA
ATOM     53  C   UNL A   1      43.843  26.424  30.053  1.00  0.00     0.031 C 
ATOM     54  C   UNL A   1      42.756  29.382  35.237  1.00  0.00     0.029 A 
ATOM     55  C   UNL A   1      42.628  28.867  33.957  1.00  0.00     0.049 A 
ATOM     56  H   UNL A   1      41.151  29.268  32.506  1.00  0.00     0.167 HD
ATOM     57  C   UNL A   1      43.311  27.505  32.004  1.00  0.00     0.074 A 
ATOM     58  C   UNL A   1      44.212  26.605  31.313  1.00  0.00     0.031 C 
ATOM     59  C   UNL A   1      43.485  27.927  33.280  1.00  0.00     0.034 A 
BRANCH  46  60
ATOM     60  C   UNL A   1      39.225  31.983  35.188  1.00  0.00     0.023 A 
ATOM     61  C   UNL A   1      38.251  31.527  36.100  1.00  0.00     0.012 A 
ATOM     62  C   UNL A   1      39.768  33.273  35.347  1.00  0.00     0.148 A 
ATOM     63  C   UNL A   1      37.796  32.351  37.128  1.00  0.00     0.002 A 
ATOM     64  C   UNL A   1      39.342  34.073  36.403  1.00  0.00     0.091 A 
ATOM     65  F   UNL A   1      40.679  33.700  34.462  1.00  0.00    -0.205 F 
ATOM     66  C   UNL A   1      38.348  33.619  37.285  1.00  0.00     0.022 A 
BRANCH  64  67
ATOM     67  S   UNL A   1      40.052  35.688  36.743  1.00  0.00     0.127 S 
ATOM     68  O   UNL A   1      39.647  36.443  35.557  1.00  0.00    -0.237 OA
ATOM     69  O   UNL A   1      39.364  36.074  37.975  1.00  0.00    -0.237 OA
ATOM     70  O   UNL A   1      41.485  35.474  36.890  1.00  0.00    -0.744 OA
ENDBRANCH  64  67
ENDBRANCH  46  60
BRANCH  47  71
ATOM     71  C   UNL A   1      42.274  26.276  27.574  1.00  0.00     0.023 A 
ATOM     72  C   UNL A   1      43.132  26.845  26.613  1.00  0.00     0.012 A 
ATOM     73  C   UNL A   1      41.909  24.922  27.453  1.00  0.00     0.148 A 
ATOM     74  C   UNL A   1      43.592  26.090  25.533  1.00  0.00     0.002 A 
ATOM     75  C   UNL A   1      42.415  24.160  26.406  1.00  0.00     0.091 A 
ATOM     76  F   UNL A   1      41.083  24.402  28.372  1.00  0.00    -0.205 F 
ATOM     77  C   UNL A   1      43.243  24.746  25.436  1.00  0.00     0.022 A 
BRANCH  75  78
ATOM     78  S   UNL A   1      42.128  22.391  26.275  1.00  0.00     0.127 S 
ATOM     79  O   UNL A   1      40.674  22.331  26.160  1.00  0.00    -0.237 OA
ATOM     80  O   UNL A   1      42.860  22.056  25.053  1.00  0.00    -0.237 OA
ATOM     81  O   UNL A   1      42.692  21.810  27.487  1.00  0.00    -0.744 OA
ENDBRANCH  75  78
ENDBRANCH  47  71
BRANCH  59  82
ATOM     82  C   UNL A   1      44.669  27.390  34.041  1.00  0.00     0.023 A 
ATOM     83  C   UNL A   1      45.889  28.095  34.035  1.00  0.00     0.012 A 
ATOM     84  C   UNL A   1      44.548  26.224  34.822  1.00  0.00     0.148 A 
ATOM     85  C   UNL A   1      46.980  27.628  34.768  1.00  0.00     0.002 A 
ATOM     86  C   UNL A   1      45.623  25.792  35.588  1.00  0.00     0.091 A 
ATOM     87  F   UNL A   1      43.385  25.556  34.798  1.00  0.00    -0.205 F 
ATOM     88  C   UNL A   1      46.844  26.485  35.553  1.00  0.00     0.022 A 
BRANCH  86  89
ATOM     89  S   UNL A   1      45.507  24.388  36.703  1.00  0.00     0.127 S 
ATOM     90  O   UNL A   1      44.547  24.873  37.695  1.00  0.00    -0.237 OA
ATOM     91  O   UNL A   1      44.997  23.334  35.826  1.00  0.00    -0.237 OA
ATOM     92  O   UNL A   1      46.858  24.158  37.200  1.00  0.00    -0.744 OA
ENDBRANCH  86  89
ENDBRANCH  59  82
ENDBRANCH  33  34
ENDBRANCH  25  28
ENDBRANCH  23  24
ENDBRANCH   1  23
TORSDOF 16
ENDMDL
