MODEL 1
REMARK VINA RESULT:     -14.6      0.000      0.000
REMARK SMILES Cc1ccc(S(=O)(=O)n2cc(C(=O)C(=O)N[C@H](Cc3c[nH]c4ccccc34)C(=O)NCC(=O)NCCCNC(=O)c3ccc(-c4c5nc(c(-c6cccc(S(=O)(=O)[O-])c6F)c6ccc([nH]6)c(-c6cccc(S(=O)(=O)[O-])c6F)c6nc(c(-c7cccc(S(=O)(=O)[O-])c7F)c7ccc4[nH]7)C=C6)C=C5)cc3)c3ccccc32)cc1
REMARK SMILES IDX 32 1 33 2 34 3 31 5 30 6 28 7 29 8 17 10 16 11 14 12 15 13
REMARK SMILES IDX 12 15 13 16 11 17 9 18 10 19 109 20 104 21 108 22 105 23
REMARK SMILES IDX 107 24 106 25 6 26 7 27 8 28 5 29 1 30 2 31 3 32 111 33 4 34
REMARK SMILES IDX 110 35 18 36 19 37 20 38 27 39 21 40 22 41 26 42 23 44 25 45
REMARK SMILES IDX 24 46 35 47 36 48 37 49 38 50 39 51 40 53 41 54 42 55 103 56
REMARK SMILES IDX 43 57 102 58 44 59 45 60 46 61 96 62 47 63 101 64 95 65
REMARK SMILES IDX 97 66 48 67 100 68 94 69 93 70 49 72 81 73 61 74 80 75 62 76
REMARK SMILES IDX 65 77 79 78 98 79 63 80 64 81 78 83 99 84 66 85 50 86 51 87
REMARK SMILES IDX 59 88 52 89 54 90 60 91 53 92 55 93 56 94 57 95 58 96 82 97
REMARK SMILES IDX 83 98 91 99 84 100 86 101 92 102 85 103 87 104 88 105 89 106
REMARK SMILES IDX 90 107 67 108 68 109 76 110 69 111 71 112 77 113 70 114
REMARK SMILES IDX 72 115 73 116 74 117 75 118
REMARK H PARENT 34 4 30 9 16 14 21 43 38 52 97 71 65 82
REMARK Flexibility Score: inf
ROOT
ATOM      1  C   UNL A   1      32.830  28.622  26.890  1.00  0.00     0.239 C 
ATOM      2  O   UNL A   1      33.754  27.821  26.734  1.00  0.00    -0.273 OA
ATOM      3  N   UNL A   1      33.061  29.939  26.624  1.00  0.00    -0.355 N 
ATOM      4  H   UNL A   1      33.997  30.182  26.438  1.00  0.00     0.163 HD
ENDROOT
BRANCH   1   5
ATOM      5  C   UNL A   1      31.409  28.121  27.180  1.00  0.00     0.216 C 
BRANCH   5   6
ATOM      6  N   UNL A   1      31.275  26.681  27.220  1.00  0.00    -0.345 N 
ATOM      7  C   UNL A   1      31.181  25.697  26.299  1.00  0.00     0.243 C 
ATOM      8  O   UNL A   1      31.036  24.577  26.806  1.00  0.00    -0.273 OA
ATOM      9  H   UNL A   1      31.246  26.335  28.140  1.00  0.00     0.164 HD
BRANCH   7  10
ATOM     10  C   UNL A   1      31.267  25.843  24.742  1.00  0.00     0.176 C 
BRANCH  10  11
ATOM     11  N   UNL A   1      32.327  26.750  24.154  1.00  0.00    -0.337 N 
ATOM     12  C   UNL A   1      33.377  26.614  23.247  1.00  0.00     0.293 C 
ATOM     13  O   UNL A   1      34.084  27.582  22.981  1.00  0.00    -0.265 OA
ATOM     14  H   UNL A   1      32.258  27.668  24.501  1.00  0.00     0.164 HD
BRANCH  12  15
ATOM     15  C   UNL A   1      33.636  25.287  22.552  1.00  0.00     0.252 C 
ATOM     16  O   UNL A   1      33.592  25.356  21.325  1.00  0.00    -0.283 OA
BRANCH  15  17
ATOM     17  C   UNL A   1      33.895  23.963  23.131  1.00  0.00     0.054 A 
ATOM     18  N   UNL A   1      34.557  21.837  23.454  1.00  0.00    -0.240 N 
ATOM     19  C   UNL A   1      33.509  22.633  22.918  1.00  0.00     0.117 A 
ATOM     20  C   UNL A   1      35.608  22.750  23.715  1.00  0.00     0.065 A 
ATOM     21  C   UNL A   1      34.865  23.833  24.151  1.00  0.00     0.012 A 
ATOM     22  C   UNL A   1      36.924  22.543  24.151  1.00  0.00     0.028 A 
ATOM     23  C   UNL A   1      35.283  24.540  25.284  1.00  0.00     0.011 A 
ATOM     24  C   UNL A   1      37.276  23.205  25.334  1.00  0.00     0.002 A 
ATOM     25  C   UNL A   1      36.459  24.164  25.920  1.00  0.00     0.001 A 
BRANCH  18  26
ATOM     26  S   UNL A   1      34.435  20.734  24.830  1.00  0.00     0.268 S 
ATOM     27  O   UNL A   1      33.400  21.298  25.667  1.00  0.00    -0.201 OA
ATOM     28  O   UNL A   1      35.832  20.667  25.264  1.00  0.00    -0.201 OA
BRANCH  26  29
ATOM     29  C   UNL A   1      34.083  19.029  24.728  1.00  0.00     0.088 A 
ATOM     30  C   UNL A   1      32.631  15.057  25.462  1.00  0.00     0.044 C 
ATOM     31  C   UNL A   1      33.123  16.427  25.102  1.00  0.00    -0.051 A 
ATOM     32  C   UNL A   1      32.344  17.497  25.514  1.00  0.00     0.005 A 
ATOM     33  C   UNL A   1      34.352  16.673  24.445  1.00  0.00     0.005 A 
ATOM     34  C   UNL A   1      32.812  18.774  25.303  1.00  0.00     0.022 A 
ATOM     35  C   UNL A   1      34.850  17.982  24.259  1.00  0.00     0.022 A 
ENDBRANCH  26  29
ENDBRANCH  18  26
ENDBRANCH  15  17
ENDBRANCH  12  15
ENDBRANCH  10  11
BRANCH  10  36
ATOM     36  C   UNL A   1      29.986  25.606  23.859  1.00  0.00     0.072 C 
BRANCH  36  37
ATOM     37  C   UNL A   1      28.970  26.706  23.640  1.00  0.00    -0.020 A 
ATOM     38  C   UNL A   1      27.648  26.660  24.060  1.00  0.00     0.087 A 
ATOM     39  C   UNL A   1      29.146  28.016  23.063  1.00  0.00     0.003 A 
ATOM     40  N   UNL A   1      27.021  27.823  23.685  1.00  0.00    -0.361 N 
ATOM     41  C   UNL A   1      27.888  28.614  22.977  1.00  0.00     0.046 A 
ATOM     42  C   UNL A   1      30.239  28.741  22.550  1.00  0.00     0.010 A 
ATOM     43  H   UNL A   1      26.086  28.054  23.895  1.00  0.00     0.166 HD
ATOM     44  C   UNL A   1      27.638  29.804  22.281  1.00  0.00     0.026 A 
ATOM     45  C   UNL A   1      30.020  29.958  21.890  1.00  0.00     0.001 A 
ATOM     46  C   UNL A   1      28.733  30.463  21.726  1.00  0.00     0.002 A 
ENDBRANCH  36  37
ENDBRANCH  10  36
ENDBRANCH   7  10
ENDBRANCH   5   6
ENDBRANCH   1   5
BRANCH   3  47
ATOM     47  C   UNL A   1      32.104  31.029  26.583  1.00  0.00     0.117 C 
BRANCH  47  48
ATOM     48  C   UNL A   1      32.699  32.255  27.229  1.00  0.00     0.042 C 
BRANCH  48  49
ATOM     49  C   UNL A   1      33.731  31.877  28.261  1.00  0.00     0.118 C 
BRANCH  49  50
ATOM     50  N   UNL A   1      35.048  32.403  27.951  1.00  0.00    -0.352 N 
ATOM     51  C   UNL A   1      36.280  31.945  28.387  1.00  0.00     0.251 C 
ATOM     52  H   UNL A   1      35.067  33.186  27.355  1.00  0.00     0.163 HD
ATOM     53  O   UNL A   1      37.184  32.759  28.561  1.00  0.00    -0.269 OA
BRANCH  51  54
ATOM     54  C   UNL A   1      36.544  30.473  28.373  1.00  0.00     0.039 A 
ATOM     55  C   UNL A   1      36.694  29.970  29.673  1.00  0.00     0.014 A 
ATOM     56  C   UNL A   1      37.346  29.976  27.358  1.00  0.00     0.014 A 
ATOM     57  C   UNL A   1      37.897  29.388  30.028  1.00  0.00     0.010 A 
ATOM     58  C   UNL A   1      38.604  29.575  27.714  1.00  0.00     0.010 A 
ATOM     59  C   UNL A   1      38.890  29.354  29.065  1.00  0.00    -0.014 A 
BRANCH  59  60
ATOM     60  C   UNL A   1      40.242  28.910  29.276  1.00  0.00     0.031 A 
ATOM     61  C   UNL A   1      40.461  27.469  29.103  1.00  0.00     0.074 A 
ATOM     62  C   UNL A   1      41.207  29.851  29.262  1.00  0.00     0.049 A 
ATOM     63  N   UNL A   1      41.564  26.861  29.335  1.00  0.00    -0.248 NA
ATOM     64  C   UNL A   1      39.391  26.574  28.656  1.00  0.00     0.031 C 
ATOM     65  C   UNL A   1      42.605  29.713  28.883  1.00  0.00     0.029 A 
ATOM     66  N   UNL A   1      41.139  31.165  29.682  1.00  0.00    -0.354 N 
ATOM     67  C   UNL A   1      41.462  25.620  28.742  1.00  0.00     0.074 A 
ATOM     68  C   UNL A   1      40.060  25.436  28.485  1.00  0.00     0.031 C 
ATOM     69  C   UNL A   1      43.288  30.784  29.332  1.00  0.00     0.029 A 
ATOM     70  C   UNL A   1      42.383  31.542  30.186  1.00  0.00     0.049 A 
ATOM     71  H   UNL A   1      40.343  31.741  29.634  1.00  0.00     0.167 HD
ATOM     72  C   UNL A   1      42.616  25.004  28.367  1.00  0.00     0.034 A 
ATOM     73  C   UNL A   1      42.556  31.697  31.539  1.00  0.00     0.034 A 
ATOM     74  C   UNL A   1      43.765  25.759  28.908  1.00  0.00     0.049 A 
ATOM     75  C   UNL A   1      43.420  30.597  32.151  1.00  0.00     0.074 A 
ATOM     76  C   UNL A   1      44.628  26.689  28.350  1.00  0.00     0.029 A 
ATOM     77  N   UNL A   1      43.887  25.904  30.291  1.00  0.00    -0.354 N 
ATOM     78  N   UNL A   1      43.759  29.496  31.533  1.00  0.00    -0.248 NA
ATOM     79  C   UNL A   1      44.005  30.671  33.487  1.00  0.00     0.031 C 
ATOM     80  C   UNL A   1      45.164  27.481  29.411  1.00  0.00     0.029 A 
ATOM     81  C   UNL A   1      44.658  27.014  30.615  1.00  0.00     0.049 A 
ATOM     82  H   UNL A   1      43.479  25.298  30.951  1.00  0.00     0.167 HD
ATOM     83  C   UNL A   1      44.489  28.685  32.357  1.00  0.00     0.074 A 
ATOM     84  C   UNL A   1      44.676  29.505  33.548  1.00  0.00     0.031 C 
ATOM     85  C   UNL A   1      44.842  27.403  32.016  1.00  0.00     0.034 A 
BRANCH  72  86
ATOM     86  C   UNL A   1      42.744  23.920  27.299  1.00  0.00     0.023 A 
ATOM     87  C   UNL A   1      43.316  24.317  26.069  1.00  0.00     0.012 A 
ATOM     88  C   UNL A   1      42.295  22.574  27.352  1.00  0.00     0.148 A 
ATOM     89  C   UNL A   1      43.396  23.467  24.959  1.00  0.00     0.002 A 
ATOM     90  C   UNL A   1      42.370  21.721  26.245  1.00  0.00     0.091 A 
ATOM     91  F   UNL A   1      41.796  22.070  28.476  1.00  0.00    -0.205 F 
ATOM     92  C   UNL A   1      42.916  22.169  25.042  1.00  0.00     0.022 A 
BRANCH  90  93
ATOM     93  S   UNL A   1      41.761  20.020  26.273  1.00  0.00     0.127 S 
ATOM     94  O   UNL A   1      42.425  19.435  25.106  1.00  0.00    -0.237 OA
ATOM     95  O   UNL A   1      42.258  19.534  27.559  1.00  0.00    -0.237 OA
ATOM     96  O   UNL A   1      40.310  20.094  26.162  1.00  0.00    -0.744 OA
ENDBRANCH  90  93
ENDBRANCH  72  86
BRANCH  73  97
ATOM     97  C   UNL A   1      41.369  32.362  32.182  1.00  0.00     0.023 A 
ATOM     98  C   UNL A   1      41.004  33.621  31.644  1.00  0.00     0.012 A 
ATOM     99  C   UNL A   1      40.392  31.640  32.883  1.00  0.00     0.148 A 
ATOM    100  C   UNL A   1      39.671  34.021  31.558  1.00  0.00     0.002 A 
ATOM    101  C   UNL A   1      39.062  32.072  32.845  1.00  0.00     0.091 A 
ATOM    102  F   UNL A   1      40.759  30.526  33.530  1.00  0.00    -0.205 F 
ATOM    103  C   UNL A   1      38.692  33.215  32.115  1.00  0.00     0.022 A 
BRANCH 101 104
ATOM    104  S   UNL A   1      37.747  31.147  33.646  1.00  0.00     0.127 S 
ATOM    105  O   UNL A   1      36.572  31.622  32.918  1.00  0.00    -0.237 OA
ATOM    106  O   UNL A   1      38.111  29.758  33.365  1.00  0.00    -0.237 OA
ATOM    107  O   UNL A   1      37.823  31.513  35.049  1.00  0.00    -0.744 OA
ENDBRANCH 101 104
ENDBRANCH  73  97
BRANCH  85 108
ATOM    108  C   UNL A   1      45.405  26.379  32.992  1.00  0.00     0.023 A 
ATOM    109  C   UNL A   1      46.778  26.073  33.051  1.00  0.00     0.012 A 
ATOM    110  C   UNL A   1      44.585  25.792  33.993  1.00  0.00     0.148 A 
ATOM    111  C   UNL A   1      47.298  25.161  33.975  1.00  0.00     0.002 A 
ATOM    112  C   UNL A   1      45.132  25.001  34.998  1.00  0.00     0.091 A 
ATOM    113  F   UNL A   1      43.258  25.977  33.969  1.00  0.00    -0.205 F 
ATOM    114  C   UNL A   1      46.480  24.643  34.964  1.00  0.00     0.022 A 
BRANCH 112 115
ATOM    115  S   UNL A   1      44.183  24.557  36.459  1.00  0.00     0.127 S 
ATOM    116  O   UNL A   1      43.090  23.774  35.884  1.00  0.00    -0.237 OA
ATOM    117  O   UNL A   1      45.151  23.776  37.232  1.00  0.00    -0.237 OA
ATOM    118  O   UNL A   1      43.810  25.822  37.077  1.00  0.00    -0.744 OA
ENDBRANCH 112 115
ENDBRANCH  85 108
ENDBRANCH  59  60
ENDBRANCH  51  54
ENDBRANCH  49  50
ENDBRANCH  48  49
ENDBRANCH  47  48
ENDBRANCH   3  47
TORSDOF 22
ENDMDL
MODEL 2
REMARK VINA RESULT:     -13.4      5.764     10.622
REMARK SMILES Cc1ccc(S(=O)(=O)n2cc(C(=O)C(=O)N[C@H](Cc3c[nH]c4ccccc34)C(=O)NCC(=O)NCCCNC(=O)c3ccc(-c4c5nc(c(-c6cccc(S(=O)(=O)[O-])c6F)c6ccc([nH]6)c(-c6cccc(S(=O)(=O)[O-])c6F)c6nc(c(-c7cccc(S(=O)(=O)[O-])c7F)c7ccc4[nH]7)C=C6)C=C5)cc3)c3ccccc32)cc1
REMARK SMILES IDX 32 1 33 2 34 3 31 5 30 6 28 7 29 8 17 10 16 11 14 12 15 13
REMARK SMILES IDX 12 15 13 16 11 17 9 18 10 19 109 20 104 21 108 22 105 23
REMARK SMILES IDX 107 24 106 25 6 26 7 27 8 28 5 29 1 30 2 31 3 32 111 33 4 34
REMARK SMILES IDX 110 35 18 36 19 37 20 38 27 39 21 40 22 41 26 42 23 44 25 45
REMARK SMILES IDX 24 46 35 47 36 48 37 49 38 50 39 51 40 53 41 54 42 55 103 56
REMARK SMILES IDX 43 57 102 58 44 59 45 60 46 61 96 62 47 63 101 64 95 65
REMARK SMILES IDX 97 66 48 67 100 68 94 69 93 70 49 72 81 73 61 74 80 75 62 76
REMARK SMILES IDX 65 77 79 78 98 79 63 80 64 81 78 83 99 84 66 85 50 86 51 87
REMARK SMILES IDX 59 88 52 89 54 90 60 91 53 92 55 93 56 94 57 95 58 96 82 97
REMARK SMILES IDX 83 98 91 99 84 100 86 101 92 102 85 103 87 104 88 105 89 106
REMARK SMILES IDX 90 107 67 108 68 109 76 110 69 111 71 112 77 113 70 114
REMARK SMILES IDX 72 115 73 116 74 117 75 118
REMARK H PARENT 34 4 30 9 16 14 21 43 38 52 97 71 65 82
REMARK Flexibility Score: inf
ROOT
ATOM      1  C   UNL A   1      32.920  32.982  27.577  1.00  0.00     0.239 C 
ATOM      2  O   UNL A   1      31.738  32.952  27.226  1.00  0.00    -0.273 OA
ATOM      3  N   UNL A   1      33.364  34.072  28.266  1.00  0.00    -0.355 N 
ATOM      4  H   UNL A   1      32.732  34.824  28.334  1.00  0.00     0.163 HD
ENDROOT
BRANCH   1   5
ATOM      5  C   UNL A   1      33.810  31.742  27.418  1.00  0.00     0.216 C 
BRANCH   5   6
ATOM      6  N   UNL A   1      33.139  30.485  27.668  1.00  0.00    -0.345 N 
ATOM      7  C   UNL A   1      32.373  29.642  26.941  1.00  0.00     0.243 C 
ATOM      8  O   UNL A   1      31.968  28.674  27.598  1.00  0.00    -0.273 OA
ATOM      9  H   UNL A   1      33.273  30.168  28.589  1.00  0.00     0.164 HD
BRANCH   7  10
ATOM     10  C   UNL A   1      32.004  29.765  25.424  1.00  0.00     0.176 C 
BRANCH  10  11
ATOM     11  N   UNL A   1      33.098  29.584  24.393  1.00  0.00    -0.337 N 
ATOM     12  C   UNL A   1      33.402  28.652  23.402  1.00  0.00     0.293 C 
ATOM     13  O   UNL A   1      34.409  28.798  22.714  1.00  0.00    -0.265 OA
ATOM     14  H   UNL A   1      33.762  30.309  24.432  1.00  0.00     0.164 HD
BRANCH  12  15
ATOM     15  C   UNL A   1      32.481  27.473  23.136  1.00  0.00     0.252 C 
ATOM     16  O   UNL A   1      31.907  27.531  22.050  1.00  0.00    -0.283 OA
BRANCH  15  17
ATOM     17  C   UNL A   1      32.168  26.320  23.988  1.00  0.00     0.054 A 
ATOM     18  N   UNL A   1      31.108  24.655  25.070  1.00  0.00    -0.240 N 
ATOM     19  C   UNL A   1      31.420  26.040  25.139  1.00  0.00     0.117 A 
ATOM     20  C   UNL A   1      31.472  24.268  23.758  1.00  0.00     0.065 A 
ATOM     21  C   UNL A   1      32.614  25.034  23.602  1.00  0.00     0.012 A 
ATOM     22  C   UNL A   1      31.306  23.056  23.074  1.00  0.00     0.028 A 
ATOM     23  C   UNL A   1      33.755  24.456  23.038  1.00  0.00     0.011 A 
ATOM     24  C   UNL A   1      32.485  22.469  22.596  1.00  0.00     0.002 A 
ATOM     25  C   UNL A   1      33.704  23.137  22.607  1.00  0.00     0.001 A 
BRANCH  18  26
ATOM     26  S   UNL A   1      31.661  23.400  26.185  1.00  0.00     0.268 S 
ATOM     27  O   UNL A   1      30.673  22.351  26.082  1.00  0.00    -0.201 OA
ATOM     28  O   UNL A   1      31.844  24.174  27.415  1.00  0.00    -0.201 OA
BRANCH  26  29
ATOM     29  C   UNL A   1      33.209  22.600  26.116  1.00  0.00     0.088 A 
ATOM     30  C   UNL A   1      37.362  21.675  25.548  1.00  0.00     0.044 C 
ATOM     31  C   UNL A   1      35.913  21.938  25.833  1.00  0.00    -0.051 A 
ATOM     32  C   UNL A   1      35.571  23.236  26.179  1.00  0.00     0.005 A 
ATOM     33  C   UNL A   1      34.897  20.964  25.695  1.00  0.00     0.005 A 
ATOM     34  C   UNL A   1      34.241  23.546  26.341  1.00  0.00     0.022 A 
ATOM     35  C   UNL A   1      33.528  21.289  25.827  1.00  0.00     0.022 A 
ENDBRANCH  26  29
ENDBRANCH  18  26
ENDBRANCH  15  17
ENDBRANCH  12  15
ENDBRANCH  10  11
BRANCH  10  36
ATOM     36  C   UNL A   1      30.768  30.634  24.984  1.00  0.00     0.072 C 
BRANCH  36  37
ATOM     37  C   UNL A   1      29.872  30.202  23.843  1.00  0.00    -0.020 A 
ATOM     38  C   UNL A   1      29.544  28.886  23.546  1.00  0.00     0.087 A 
ATOM     39  C   UNL A   1      29.121  31.006  22.912  1.00  0.00     0.003 A 
ATOM     40  N   UNL A   1      28.721  28.870  22.447  1.00  0.00    -0.361 N 
ATOM     41  C   UNL A   1      28.543  30.146  21.978  1.00  0.00     0.046 A 
ATOM     42  C   UNL A   1      28.913  32.388  22.729  1.00  0.00     0.010 A 
ATOM     43  H   UNL A   1      28.318  28.061  22.054  1.00  0.00     0.166 HD
ATOM     44  C   UNL A   1      27.913  30.580  20.805  1.00  0.00     0.026 A 
ATOM     45  C   UNL A   1      28.244  32.846  21.585  1.00  0.00     0.001 A 
ATOM     46  C   UNL A   1      27.784  31.955  20.619  1.00  0.00     0.002 A 
ENDBRANCH  36  37
ENDBRANCH  10  36
ENDBRANCH   7  10
ENDBRANCH   5   6
ENDBRANCH   1   5
BRANCH   3  47
ATOM     47  C   UNL A   1      34.649  34.265  28.912  1.00  0.00     0.117 C 
BRANCH  47  48
ATOM     48  C   UNL A   1      34.531  33.960  30.383  1.00  0.00     0.042 C 
BRANCH  48  49
ATOM     49  C   UNL A   1      34.920  32.532  30.674  1.00  0.00     0.118 C 
BRANCH  49  50
ATOM     50  N   UNL A   1      35.496  32.369  31.995  1.00  0.00    -0.352 N 
ATOM     51  C   UNL A   1      36.705  31.786  32.338  1.00  0.00     0.251 C 
ATOM     52  H   UNL A   1      34.960  32.718  32.743  1.00  0.00     0.163 HD
ATOM     53  O   UNL A   1      36.790  31.194  33.413  1.00  0.00    -0.269 OA
BRANCH  51  54
ATOM     54  C   UNL A   1      37.918  32.119  31.530  1.00  0.00     0.039 A 
ATOM     55  C   UNL A   1      39.027  31.367  31.944  1.00  0.00     0.014 A 
ATOM     56  C   UNL A   1      38.096  33.442  31.159  1.00  0.00     0.014 A 
ATOM     57  C   UNL A   1      40.136  32.032  32.435  1.00  0.00     0.010 A 
ATOM     58  C   UNL A   1      39.091  34.128  31.799  1.00  0.00     0.010 A 
ATOM     59  C   UNL A   1      40.068  33.412  32.499  1.00  0.00    -0.014 A 
BRANCH  59  60
ATOM     60  C   UNL A   1      41.059  34.269  33.093  1.00  0.00     0.031 A 
ATOM     61  C   UNL A   1      40.619  34.999  34.288  1.00  0.00     0.074 A 
ATOM     62  C   UNL A   1      42.342  34.064  32.735  1.00  0.00     0.049 A 
ATOM     63  N   UNL A   1      41.314  35.878  34.908  1.00  0.00    -0.248 NA
ATOM     64  C   UNL A   1      39.294  34.790  34.876  1.00  0.00     0.031 C 
ATOM     65  C   UNL A   1      43.552  34.316  33.504  1.00  0.00     0.029 A 
ATOM     66  N   UNL A   1      42.843  33.643  31.519  1.00  0.00    -0.354 N 
ATOM     67  C   UNL A   1      40.705  36.070  36.131  1.00  0.00     0.074 A 
ATOM     68  C   UNL A   1      39.391  35.506  35.994  1.00  0.00     0.031 C 
ATOM     69  C   UNL A   1      44.612  34.302  32.671  1.00  0.00     0.029 A 
ATOM     70  C   UNL A   1      44.088  34.238  31.313  1.00  0.00     0.049 A 
ATOM     71  H   UNL A   1      42.396  33.025  30.898  1.00  0.00     0.167 HD
ATOM     72  C   UNL A   1      41.483  36.506  37.160  1.00  0.00     0.034 A 
ATOM     73  C   UNL A   1      44.220  35.249  30.393  1.00  0.00     0.034 A 
ATOM     74  C   UNL A   1      42.810  36.890  36.635  1.00  0.00     0.049 A 
ATOM     75  C   UNL A   1      44.456  36.609  31.044  1.00  0.00     0.074 A 
ATOM     76  C   UNL A   1      44.034  36.240  36.600  1.00  0.00     0.029 A 
ATOM     77  N   UNL A   1      42.890  37.912  35.687  1.00  0.00    -0.354 N 
ATOM     78  N   UNL A   1      44.305  36.852  32.320  1.00  0.00    -0.248 NA
ATOM     79  C   UNL A   1      44.920  37.789  30.319  1.00  0.00     0.031 C 
ATOM     80  C   UNL A   1      44.794  36.799  35.528  1.00  0.00     0.029 A 
ATOM     81  C   UNL A   1      44.054  37.809  34.934  1.00  0.00     0.049 A 
ATOM     82  H   UNL A   1      42.211  38.614  35.567  1.00  0.00     0.167 HD
ATOM     83  C   UNL A   1      44.537  38.172  32.590  1.00  0.00     0.074 A 
ATOM     84  C   UNL A   1      44.991  38.698  31.309  1.00  0.00     0.031 C 
ATOM     85  C   UNL A   1      44.298  38.732  33.822  1.00  0.00     0.034 A 
BRANCH  72  86
ATOM     86  C   UNL A   1      41.182  36.324  38.645  1.00  0.00     0.023 A 
ATOM     87  C   UNL A   1      40.960  34.998  39.081  1.00  0.00     0.012 A 
ATOM     88  C   UNL A   1      41.023  37.324  39.641  1.00  0.00     0.148 A 
ATOM     89  C   UNL A   1      40.564  34.685  40.388  1.00  0.00     0.002 A 
ATOM     90  C   UNL A   1      40.625  37.016  40.947  1.00  0.00     0.091 A 
ATOM     91  F   UNL A   1      41.266  38.601  39.364  1.00  0.00    -0.205 F 
ATOM     92  C   UNL A   1      40.388  35.694  41.322  1.00  0.00     0.022 A 
BRANCH  90  93
ATOM     93  S   UNL A   1      40.368  38.275  42.218  1.00  0.00     0.127 S 
ATOM     94  O   UNL A   1      39.360  39.137  41.599  1.00  0.00    -0.237 OA
ATOM     95  O   UNL A   1      39.879  37.483  43.345  1.00  0.00    -0.237 OA
ATOM     96  O   UNL A   1      41.658  38.920  42.432  1.00  0.00    -0.744 OA
ENDBRANCH  90  93
ENDBRANCH  72  86
BRANCH  73  97
ATOM     97  C   UNL A   1      43.418  34.980  29.148  1.00  0.00     0.023 A 
ATOM     98  C   UNL A   1      42.381  35.904  28.874  1.00  0.00     0.012 A 
ATOM     99  C   UNL A   1      43.921  34.222  28.081  1.00  0.00     0.148 A 
ATOM    100  C   UNL A   1      42.049  36.266  27.569  1.00  0.00     0.002 A 
ATOM    101  C   UNL A   1      43.545  34.548  26.773  1.00  0.00     0.091 A 
ATOM    102  F   UNL A   1      44.789  33.236  28.345  1.00  0.00    -0.205 F 
ATOM    103  C   UNL A   1      42.675  35.621  26.515  1.00  0.00     0.022 A 
BRANCH 101 104
ATOM    104  S   UNL A   1      44.218  33.676  25.354  1.00  0.00     0.127 S 
ATOM    105  O   UNL A   1      43.296  34.087  24.296  1.00  0.00    -0.237 OA
ATOM    106  O   UNL A   1      45.562  34.242  25.236  1.00  0.00    -0.237 OA
ATOM    107  O   UNL A   1      44.190  32.272  25.720  1.00  0.00    -0.744 OA
ENDBRANCH 101 104
ENDBRANCH  73  97
BRANCH  85 108
ATOM    108  C   UNL A   1      44.275  40.229  34.094  1.00  0.00     0.023 A 
ATOM    109  C   UNL A   1      45.139  40.837  35.025  1.00  0.00     0.012 A 
ATOM    110  C   UNL A   1      43.478  41.105  33.310  1.00  0.00     0.148 A 
ATOM    111  C   UNL A   1      45.143  42.218  35.245  1.00  0.00     0.002 A 
ATOM    112  C   UNL A   1      43.592  42.486  33.432  1.00  0.00     0.091 A 
ATOM    113  F   UNL A   1      42.579  40.607  32.448  1.00  0.00    -0.205 F 
ATOM    114  C   UNL A   1      44.387  43.046  34.432  1.00  0.00     0.022 A 
BRANCH 112 115
ATOM    115  S   UNL A   1      42.872  43.596  32.213  1.00  0.00     0.127 S 
ATOM    116  O   UNL A   1      42.088  44.500  33.053  1.00  0.00    -0.237 OA
ATOM    117  O   UNL A   1      44.059  44.202  31.608  1.00  0.00    -0.237 OA
ATOM    118  O   UNL A   1      42.115  42.739  31.310  1.00  0.00    -0.744 OA
ENDBRANCH 112 115
ENDBRANCH  85 108
ENDBRANCH  59  60
ENDBRANCH  51  54
ENDBRANCH  49  50
ENDBRANCH  48  49
ENDBRANCH  47  48
ENDBRANCH   3  47
TORSDOF 22
ENDMDL
MODEL 3
REMARK VINA RESULT:     -13.3      4.751      8.925
REMARK SMILES Cc1ccc(S(=O)(=O)n2cc(C(=O)C(=O)N[C@H](Cc3c[nH]c4ccccc34)C(=O)NCC(=O)NCCCNC(=O)c3ccc(-c4c5nc(c(-c6cccc(S(=O)(=O)[O-])c6F)c6ccc([nH]6)c(-c6cccc(S(=O)(=O)[O-])c6F)c6nc(c(-c7cccc(S(=O)(=O)[O-])c7F)c7ccc4[nH]7)C=C6)C=C5)cc3)c3ccccc32)cc1
REMARK SMILES IDX 32 1 33 2 34 3 31 5 30 6 28 7 29 8 17 10 16 11 14 12 15 13
REMARK SMILES IDX 12 15 13 16 11 17 9 18 10 19 109 20 104 21 108 22 105 23
REMARK SMILES IDX 107 24 106 25 6 26 7 27 8 28 5 29 1 30 2 31 3 32 111 33 4 34
REMARK SMILES IDX 110 35 18 36 19 37 20 38 27 39 21 40 22 41 26 42 23 44 25 45
REMARK SMILES IDX 24 46 35 47 36 48 37 49 38 50 39 51 40 53 41 54 42 55 103 56
REMARK SMILES IDX 43 57 102 58 44 59 45 60 46 61 96 62 47 63 101 64 95 65
REMARK SMILES IDX 97 66 48 67 100 68 94 69 93 70 49 72 81 73 61 74 80 75 62 76
REMARK SMILES IDX 65 77 79 78 98 79 63 80 64 81 78 83 99 84 66 85 50 86 51 87
REMARK SMILES IDX 59 88 52 89 54 90 60 91 53 92 55 93 56 94 57 95 58 96 82 97
REMARK SMILES IDX 83 98 91 99 84 100 86 101 92 102 85 103 87 104 88 105 89 106
REMARK SMILES IDX 90 107 67 108 68 109 76 110 69 111 71 112 77 113 70 114
REMARK SMILES IDX 72 115 73 116 74 117 75 118
REMARK H PARENT 34 4 30 9 16 14 21 43 38 52 97 71 65 82
REMARK Flexibility Score: inf
ROOT
ATOM      1  C   UNL A   1      35.241  22.986  26.455  1.00  0.00     0.239 C 
ATOM      2  O   UNL A   1      34.639  22.045  26.977  1.00  0.00    -0.273 OA
ATOM      3  N   UNL A   1      36.589  22.876  26.277  1.00  0.00    -0.355 N 
ATOM      4  H   UNL A   1      37.014  22.092  26.693  1.00  0.00     0.163 HD
ENDROOT
BRANCH   1   5
ATOM      5  C   UNL A   1      34.465  24.158  25.839  1.00  0.00     0.216 C 
BRANCH   5   6
ATOM      6  N   UNL A   1      33.123  24.327  26.354  1.00  0.00    -0.345 N 
ATOM      7  C   UNL A   1      32.192  25.305  26.314  1.00  0.00     0.243 C 
ATOM      8  O   UNL A   1      31.168  25.021  26.948  1.00  0.00    -0.273 OA
ATOM      9  H   UNL A   1      32.814  23.538  26.854  1.00  0.00     0.164 HD
BRANCH   7  10
ATOM     10  C   UNL A   1      32.285  26.672  25.554  1.00  0.00     0.176 C 
BRANCH  10  11
ATOM     11  N   UNL A   1      31.778  27.922  26.241  1.00  0.00    -0.337 N 
ATOM     12  C   UNL A   1      32.346  29.082  26.767  1.00  0.00     0.293 C 
ATOM     13  O   UNL A   1      31.628  29.933  27.284  1.00  0.00    -0.265 OA
ATOM     14  H   UNL A   1      30.799  27.914  26.342  1.00  0.00     0.164 HD
BRANCH  12  15
ATOM     15  C   UNL A   1      33.844  29.324  26.675  1.00  0.00     0.252 C 
ATOM     16  O   UNL A   1      34.320  29.054  25.575  1.00  0.00    -0.283 OA
BRANCH  15  17
ATOM     17  C   UNL A   1      34.779  29.796  27.703  1.00  0.00     0.054 A 
ATOM     18  N   UNL A   1      36.630  30.439  28.811  1.00  0.00    -0.240 N 
ATOM     19  C   UNL A   1      35.865  29.301  28.438  1.00  0.00     0.117 A 
ATOM     20  C   UNL A   1      36.086  31.504  28.053  1.00  0.00     0.065 A 
ATOM     21  C   UNL A   1      34.748  31.154  28.095  1.00  0.00     0.012 A 
ATOM     22  C   UNL A   1      36.488  32.840  27.917  1.00  0.00     0.028 A 
ATOM     23  C   UNL A   1      33.789  32.140  28.349  1.00  0.00     0.011 A 
ATOM     24  C   UNL A   1      35.523  33.796  28.259  1.00  0.00     0.002 A 
ATOM     25  C   UNL A   1      34.199  33.457  28.509  1.00  0.00     0.001 A 
BRANCH  18  26
ATOM     26  S   UNL A   1      36.906  31.023  30.456  1.00  0.00     0.268 S 
ATOM     27  O   UNL A   1      38.278  31.477  30.463  1.00  0.00    -0.201 OA
ATOM     28  O   UNL A   1      36.468  29.869  31.244  1.00  0.00    -0.201 OA
BRANCH  26  29
ATOM     29  C   UNL A   1      35.990  32.278  31.248  1.00  0.00     0.088 A 
ATOM     30  C   UNL A   1      34.779  35.622  33.649  1.00  0.00     0.044 C 
ATOM     31  C   UNL A   1      35.133  34.487  32.737  1.00  0.00    -0.051 A 
ATOM     32  C   UNL A   1      36.415  34.487  32.209  1.00  0.00     0.005 A 
ATOM     33  C   UNL A   1      34.266  33.404  32.459  1.00  0.00     0.005 A 
ATOM     34  C   UNL A   1      36.819  33.409  31.457  1.00  0.00     0.022 A 
ATOM     35  C   UNL A   1      34.691  32.279  31.715  1.00  0.00     0.022 A 
ENDBRANCH  26  29
ENDBRANCH  18  26
ENDBRANCH  15  17
ENDBRANCH  12  15
ENDBRANCH  10  11
BRANCH  10  36
ATOM     36  C   UNL A   1      32.295  26.697  23.981  1.00  0.00     0.072 C 
BRANCH  36  37
ATOM     37  C   UNL A   1      31.694  27.853  23.211  1.00  0.00    -0.020 A 
ATOM     38  C   UNL A   1      32.421  28.791  22.491  1.00  0.00     0.087 A 
ATOM     39  C   UNL A   1      30.309  28.181  22.981  1.00  0.00     0.003 A 
ATOM     40  N   UNL A   1      31.552  29.694  21.930  1.00  0.00    -0.361 N 
ATOM     41  C   UNL A   1      30.267  29.405  22.312  1.00  0.00     0.046 A 
ATOM     42  C   UNL A   1      29.075  27.593  23.322  1.00  0.00     0.010 A 
ATOM     43  H   UNL A   1      31.814  30.439  21.341  1.00  0.00     0.166 HD
ATOM     44  C   UNL A   1      29.093  30.139  22.103  1.00  0.00     0.026 A 
ATOM     45  C   UNL A   1      27.881  28.287  23.081  1.00  0.00     0.001 A 
ATOM     46  C   UNL A   1      27.894  29.559  22.514  1.00  0.00     0.002 A 
ENDBRANCH  36  37
ENDBRANCH  10  36
ENDBRANCH   7  10
ENDBRANCH   5   6
ENDBRANCH   1   5
BRANCH   3  47
ATOM     47  C   UNL A   1      37.476  23.769  25.555  1.00  0.00     0.117 C 
BRANCH  47  48
ATOM     48  C   UNL A   1      38.625  24.173  26.443  1.00  0.00     0.042 C 
BRANCH  48  49
ATOM     49  C   UNL A   1      39.462  22.979  26.826  1.00  0.00     0.118 C 
BRANCH  49  50
ATOM     50  N   UNL A   1      40.820  23.065  26.322  1.00  0.00    -0.352 N 
ATOM     51  C   UNL A   1      41.740  24.083  26.504  1.00  0.00     0.251 C 
ATOM     52  H   UNL A   1      41.126  22.300  25.782  1.00  0.00     0.163 HD
ATOM     53  O   UNL A   1      42.544  24.319  25.604  1.00  0.00    -0.269 OA
BRANCH  51  54
ATOM     54  C   UNL A   1      41.898  24.673  27.869  1.00  0.00     0.039 A 
ATOM     55  C   UNL A   1      42.208  26.039  27.801  1.00  0.00     0.014 A 
ATOM     56  C   UNL A   1      42.502  23.889  28.839  1.00  0.00     0.014 A 
ATOM     57  C   UNL A   1      43.409  26.477  28.329  1.00  0.00     0.010 A 
ATOM     58  C   UNL A   1      43.769  24.245  29.211  1.00  0.00     0.010 A 
ATOM     59  C   UNL A   1      44.240  25.520  28.885  1.00  0.00    -0.014 A 
BRANCH  59  60
ATOM     60  C   UNL A   1      45.575  25.755  29.367  1.00  0.00     0.031 A 
ATOM     61  C   UNL A   1      46.649  25.247  28.505  1.00  0.00     0.074 A 
ATOM     62  C   UNL A   1      45.725  26.684  30.332  1.00  0.00     0.049 A 
ATOM     63  N   UNL A   1      47.896  25.270  28.796  1.00  0.00    -0.248 NA
ATOM     64  C   UNL A   1      46.370  24.631  27.206  1.00  0.00     0.031 C 
ATOM     65  C   UNL A   1      46.878  27.527  30.611  1.00  0.00     0.029 A 
ATOM     66  N   UNL A   1      44.858  27.016  31.354  1.00  0.00    -0.354 N 
ATOM     67  C   UNL A   1      48.579  25.024  27.623  1.00  0.00     0.074 A 
ATOM     68  C   UNL A   1      47.601  24.481  26.721  1.00  0.00     0.031 C 
ATOM     69  C   UNL A   1      46.746  28.055  31.844  1.00  0.00     0.029 A 
ATOM     70  C   UNL A   1      45.601  27.406  32.467  1.00  0.00     0.049 A 
ATOM     71  H   UNL A   1      43.875  26.982  31.306  1.00  0.00     0.167 HD
ATOM     72  C   UNL A   1      49.846  25.510  27.518  1.00  0.00     0.034 A 
ATOM     73  C   UNL A   1      45.691  26.575  33.557  1.00  0.00     0.034 A 
ATOM     74  C   UNL A   1      50.278  26.023  28.835  1.00  0.00     0.049 A 
ATOM     75  C   UNL A   1      47.080  25.962  33.715  1.00  0.00     0.074 A 
ATOM     76  C   UNL A   1      50.334  27.297  29.378  1.00  0.00     0.029 A 
ATOM     77  N   UNL A   1      50.337  25.141  29.916  1.00  0.00    -0.354 N 
ATOM     78  N   UNL A   1      48.014  26.006  32.801  1.00  0.00    -0.248 NA
ATOM     79  C   UNL A   1      47.540  25.289  34.927  1.00  0.00     0.031 C 
ATOM     80  C   UNL A   1      50.290  27.169  30.799  1.00  0.00     0.029 A 
ATOM     81  C   UNL A   1      50.243  25.821  31.125  1.00  0.00     0.049 A 
ATOM     82  H   UNL A   1      50.431  24.165  29.833  1.00  0.00     0.167 HD
ATOM     83  C   UNL A   1      49.125  25.324  33.213  1.00  0.00     0.074 A 
ATOM     84  C   UNL A   1      48.798  24.956  34.585  1.00  0.00     0.031 C 
ATOM     85  C   UNL A   1      50.196  25.080  32.388  1.00  0.00     0.034 A 
BRANCH  72  86
ATOM     86  C   UNL A   1      50.588  25.796  26.215  1.00  0.00     0.023 A 
ATOM     87  C   UNL A   1      51.888  25.255  26.103  1.00  0.00     0.012 A 
ATOM     88  C   UNL A   1      50.170  26.600  25.122  1.00  0.00     0.148 A 
ATOM     89  C   UNL A   1      52.732  25.524  25.017  1.00  0.00     0.002 A 
ATOM     90  C   UNL A   1      51.011  26.875  24.036  1.00  0.00     0.091 A 
ATOM     91  F   UNL A   1      48.944  27.112  25.087  1.00  0.00    -0.205 F 
ATOM     92  C   UNL A   1      52.298  26.341  23.986  1.00  0.00     0.022 A 
BRANCH  90  93
ATOM     93  S   UNL A   1      50.519  27.934  22.657  1.00  0.00     0.127 S 
ATOM     94  O   UNL A   1      51.066  27.215  21.506  1.00  0.00    -0.237 OA
ATOM     95  O   UNL A   1      49.060  27.908  22.751  1.00  0.00    -0.237 OA
ATOM     96  O   UNL A   1      51.128  29.237  22.895  1.00  0.00    -0.744 OA
ENDBRANCH  90  93
ENDBRANCH  72  86
BRANCH  73  97
ATOM     97  C   UNL A   1      44.378  25.905  33.859  1.00  0.00     0.023 A 
ATOM     98  C   UNL A   1      44.284  24.542  33.486  1.00  0.00     0.012 A 
ATOM     99  C   UNL A   1      43.506  26.376  34.851  1.00  0.00     0.148 A 
ATOM    100  C   UNL A   1      43.562  23.623  34.248  1.00  0.00     0.002 A 
ATOM    101  C   UNL A   1      42.738  25.460  35.578  1.00  0.00     0.091 A 
ATOM    102  F   UNL A   1      43.472  27.691  35.105  1.00  0.00    -0.205 F 
ATOM    103  C   UNL A   1      42.829  24.080  35.331  1.00  0.00     0.022 A 
BRANCH 101 104
ATOM    104  S   UNL A   1      41.666  25.985  36.921  1.00  0.00     0.127 S 
ATOM    105  O   UNL A   1      40.972  27.119  36.313  1.00  0.00    -0.237 OA
ATOM    106  O   UNL A   1      40.824  24.809  37.140  1.00  0.00    -0.237 OA
ATOM    107  O   UNL A   1      42.559  26.296  38.023  1.00  0.00    -0.744 OA
ENDBRANCH 101 104
ENDBRANCH  73  97
BRANCH  85 108
ATOM    108  C   UNL A   1      51.318  24.102  32.705  1.00  0.00     0.023 A 
ATOM    109  C   UNL A   1      51.122  22.707  32.706  1.00  0.00     0.012 A 
ATOM    110  C   UNL A   1      52.656  24.549  32.871  1.00  0.00     0.148 A 
ATOM    111  C   UNL A   1      52.163  21.809  32.960  1.00  0.00     0.002 A 
ATOM    112  C   UNL A   1      53.709  23.646  32.977  1.00  0.00     0.091 A 
ATOM    113  F   UNL A   1      52.922  25.861  32.950  1.00  0.00    -0.205 F 
ATOM    114  C   UNL A   1      53.462  22.276  33.072  1.00  0.00     0.022 A 
BRANCH 112 115
ATOM    115  S   UNL A   1      55.419  24.180  32.821  1.00  0.00     0.127 S 
ATOM    116  O   UNL A   1      56.093  22.935  32.458  1.00  0.00    -0.237 OA
ATOM    117  O   UNL A   1      55.338  25.166  31.743  1.00  0.00    -0.237 OA
ATOM    118  O   UNL A   1      55.767  24.745  34.118  1.00  0.00    -0.744 OA
ENDBRANCH 112 115
ENDBRANCH  85 108
ENDBRANCH  59  60
ENDBRANCH  51  54
ENDBRANCH  49  50
ENDBRANCH  48  49
ENDBRANCH  47  48
ENDBRANCH   3  47
TORSDOF 22
ENDMDL
