MODEL 1
REMARK VINA RESULT:     -12.3      0.000      0.000
REMARK SMILES O=C(Cc1ccn(C(F)F)c(=O)c1)NCCCNC(=O)c1ccc(-c2c3nc(c(-c4cccc(S(=O)(=O)[O-])c4F)c4ccc([nH]4)c(-c4cccc(S(=O)(=O)[O-])c4F)c4nc(c(-c5cccc(S(=O)(=O)[O-])c5F)c5ccc2[nH]5)C=C4)C=C3)cc1
REMARK SMILES IDX 16 1 15 2 14 3 1 4 2 5 3 7 4 8 5 9 13 10 6 11 11 12 7 13
REMARK SMILES IDX 12 14 8 15 9 16 10 17 17 18 18 19 19 20 20 22 21 23 22 24
REMARK SMILES IDX 83 25 23 26 82 27 24 28 25 29 26 30 76 31 27 32 81 33 75 34
REMARK SMILES IDX 77 35 28 36 80 37 74 38 73 39 29 41 61 42 41 43 60 44 42 45
REMARK SMILES IDX 45 46 59 47 78 48 43 49 44 50 58 52 79 53 46 54 30 55 31 56
REMARK SMILES IDX 39 57 32 58 34 59 40 60 33 61 35 62 36 63 37 64 38 65 62 66
REMARK SMILES IDX 63 67 71 68 64 69 66 70 72 71 65 72 67 73 68 74 69 75 70 76
REMARK SMILES IDX 47 77 48 78 56 79 49 80 51 81 57 82 50 83 52 84 53 85 54 86
REMARK SMILES IDX 55 87
REMARK H PARENT 14 6 18 21 77 40 45 51
REMARK Flexibility Score: inf
ROOT
ATOM      1  C   UNL A   1      36.863  22.227  23.889  1.00  0.00     0.042 C 
ENDROOT
BRANCH   1   2
ATOM      2  C   UNL A   1      35.717  23.207  23.679  1.00  0.00     0.117 C 
BRANCH   2   3
ATOM      3  N   UNL A   1      34.427  22.550  23.630  1.00  0.00    -0.356 N 
ATOM      4  O   UNL A   1      33.630  23.361  25.630  1.00  0.00    -0.275 OA
ATOM      5  C   UNL A   1      33.462  22.712  24.602  1.00  0.00     0.224 C 
ATOM      6  H   UNL A   1      34.230  21.960  22.867  1.00  0.00     0.163 HD
BRANCH   5   7
ATOM      7  C   UNL A   1      32.149  21.988  24.310  1.00  0.00     0.135 C 
BRANCH   7   8
ATOM      8  C   UNL A   1      32.354  20.497  24.185  1.00  0.00    -0.032 A 
ATOM      9  C   UNL A   1      32.832  19.773  25.345  1.00  0.00     0.022 A 
ATOM     10  C   UNL A   1      32.155  19.834  23.032  1.00  0.00     0.076 A 
ATOM     11  C   UNL A   1      33.132  18.471  25.250  1.00  0.00     0.095 A 
ATOM     12  C   UNL A   1      32.469  18.382  22.916  1.00  0.00     0.255 A 
ATOM     13  N   UNL A   1      32.973  17.785  24.061  1.00  0.00    -0.258 N 
ATOM     14  O   UNL A   1      32.283  17.824  21.839  1.00  0.00    -0.269 OA
BRANCH  13  15
ATOM     15  C   UNL A   1      33.338  16.395  23.962  1.00  0.00     0.451 C 
ATOM     16  F   UNL A   1      34.379  16.220  23.113  1.00  0.00    -0.185 F 
ATOM     17  F   UNL A   1      33.694  15.900  25.173  1.00  0.00    -0.185 F 
ENDBRANCH  13  15
ENDBRANCH   7   8
ENDBRANCH   5   7
ENDBRANCH   2   3
ENDBRANCH   1   2
BRANCH   1  18
ATOM     18  C   UNL A   1      37.036  21.755  25.329  1.00  0.00     0.118 C 
BRANCH  18  19
ATOM     19  N   UNL A   1      38.097  20.770  25.501  1.00  0.00    -0.352 N 
ATOM     20  C   UNL A   1      39.346  20.915  26.061  1.00  0.00     0.251 C 
ATOM     21  H   UNL A   1      37.888  19.867  25.168  1.00  0.00     0.163 HD
ATOM     22  O   UNL A   1      40.140  19.980  26.026  1.00  0.00    -0.269 OA
BRANCH  20  23
ATOM     23  C   UNL A   1      39.739  22.208  26.661  1.00  0.00     0.039 A 
ATOM     24  C   UNL A   1      39.124  23.398  26.265  1.00  0.00     0.014 A 
ATOM     25  C   UNL A   1      40.770  22.231  27.605  1.00  0.00     0.014 A 
ATOM     26  C   UNL A   1      39.657  24.617  26.671  1.00  0.00     0.010 A 
ATOM     27  C   UNL A   1      41.255  23.457  28.070  1.00  0.00     0.010 A 
ATOM     28  C   UNL A   1      40.745  24.661  27.560  1.00  0.00    -0.014 A 
BRANCH  28  29
ATOM     29  C   UNL A   1      41.351  25.969  27.919  1.00  0.00     0.031 A 
ATOM     30  C   UNL A   1      42.747  26.317  27.472  1.00  0.00     0.074 A 
ATOM     31  C   UNL A   1      40.629  26.866  28.618  1.00  0.00     0.049 A 
ATOM     32  N   UNL A   1      43.428  27.412  27.689  1.00  0.00    -0.248 NA
ATOM     33  C   UNL A   1      43.473  25.310  26.679  1.00  0.00     0.031 C 
ATOM     34  C   UNL A   1      39.270  26.647  29.118  1.00  0.00     0.029 A 
ATOM     35  N   UNL A   1      40.930  28.143  29.021  1.00  0.00    -0.354 N 
ATOM     36  C   UNL A   1      44.672  27.212  27.102  1.00  0.00     0.074 A 
ATOM     37  C   UNL A   1      44.655  25.891  26.515  1.00  0.00     0.031 C 
ATOM     38  C   UNL A   1      38.842  27.763  29.727  1.00  0.00     0.029 A 
ATOM     39  C   UNL A   1      39.909  28.760  29.702  1.00  0.00     0.049 A 
ATOM     40  H   UNL A   1      41.796  28.575  28.838  1.00  0.00     0.167 HD
ATOM     41  C   UNL A   1      45.726  28.060  27.037  1.00  0.00     0.034 A 
ATOM     42  C   UNL A   1      39.834  29.988  30.249  1.00  0.00     0.034 A 
ATOM     43  C   UNL A   1      45.727  29.397  27.564  1.00  0.00     0.049 A 
ATOM     44  C   UNL A   1      41.008  30.917  30.142  1.00  0.00     0.074 A 
ATOM     45  C   UNL A   1      46.742  30.337  27.513  1.00  0.00     0.029 A 
ATOM     46  N   UNL A   1      44.663  29.989  28.222  1.00  0.00    -0.354 N 
ATOM     47  N   UNL A   1      42.150  30.728  29.528  1.00  0.00    -0.248 NA
ATOM     48  C   UNL A   1      40.880  32.233  30.785  1.00  0.00     0.031 C 
ATOM     49  C   UNL A   1      46.288  31.503  28.136  1.00  0.00     0.029 A 
ATOM     50  C   UNL A   1      44.992  31.286  28.575  1.00  0.00     0.049 A 
ATOM     51  H   UNL A   1      43.802  29.553  28.412  1.00  0.00     0.167 HD
ATOM     52  C   UNL A   1      42.873  31.902  29.699  1.00  0.00     0.074 A 
ATOM     53  C   UNL A   1      42.032  32.806  30.457  1.00  0.00     0.031 C 
ATOM     54  C   UNL A   1      44.127  32.194  29.281  1.00  0.00     0.034 A 
BRANCH  41  55
ATOM     55  C   UNL A   1      46.962  27.598  26.317  1.00  0.00     0.023 A 
ATOM     56  C   UNL A   1      47.884  26.778  26.996  1.00  0.00     0.012 A 
ATOM     57  C   UNL A   1      47.156  27.882  24.951  1.00  0.00     0.148 A 
ATOM     58  C   UNL A   1      48.987  26.251  26.327  1.00  0.00     0.002 A 
ATOM     59  C   UNL A   1      48.244  27.332  24.284  1.00  0.00     0.091 A 
ATOM     60  F   UNL A   1      46.271  28.677  24.333  1.00  0.00    -0.205 F 
ATOM     61  C   UNL A   1      49.162  26.519  24.971  1.00  0.00     0.022 A 
BRANCH  59  62
ATOM     62  S   UNL A   1      48.531  27.569  22.527  1.00  0.00     0.127 S 
ATOM     63  O   UNL A   1      47.329  28.303  22.130  1.00  0.00    -0.237 OA
ATOM     64  O   UNL A   1      49.760  28.362  22.520  1.00  0.00    -0.237 OA
ATOM     65  O   UNL A   1      48.661  26.235  21.957  1.00  0.00    -0.744 OA
ENDBRANCH  59  62
ENDBRANCH  41  55
BRANCH  42  66
ATOM     66  C   UNL A   1      38.564  30.418  30.893  1.00  0.00     0.023 A 
ATOM     67  C   UNL A   1      38.398  30.224  32.278  1.00  0.00     0.012 A 
ATOM     68  C   UNL A   1      37.568  31.093  30.163  1.00  0.00     0.148 A 
ATOM     69  C   UNL A   1      37.257  30.697  32.926  1.00  0.00     0.002 A 
ATOM     70  C   UNL A   1      36.456  31.602  30.824  1.00  0.00     0.091 A 
ATOM     71  F   UNL A   1      37.748  31.254  28.845  1.00  0.00    -0.205 F 
ATOM     72  C   UNL A   1      36.294  31.396  32.202  1.00  0.00     0.022 A 
BRANCH  70  73
ATOM     73  S   UNL A   1      35.228  32.623  30.002  1.00  0.00     0.127 S 
ATOM     74  O   UNL A   1      34.279  32.875  31.083  1.00  0.00    -0.237 OA
ATOM     75  O   UNL A   1      36.025  33.782  29.598  1.00  0.00    -0.237 OA
ATOM     76  O   UNL A   1      34.724  31.821  28.895  1.00  0.00    -0.744 OA
ENDBRANCH  70  73
ENDBRANCH  42  66
BRANCH  54  77
ATOM     77  C   UNL A   1      44.685  33.547  29.617  1.00  0.00     0.023 A 
ATOM     78  C   UNL A   1      45.452  33.701  30.788  1.00  0.00     0.012 A 
ATOM     79  C   UNL A   1      44.556  34.625  28.721  1.00  0.00     0.148 A 
ATOM     80  C   UNL A   1      46.079  34.914  31.067  1.00  0.00     0.002 A 
ATOM     81  C   UNL A   1      45.207  35.823  28.991  1.00  0.00     0.091 A 
ATOM     82  F   UNL A   1      43.810  34.453  27.621  1.00  0.00    -0.205 F 
ATOM     83  C   UNL A   1      45.966  35.970  30.164  1.00  0.00     0.022 A 
BRANCH  81  84
ATOM     84  S   UNL A   1      45.179  37.214  27.854  1.00  0.00     0.127 S 
ATOM     85  O   UNL A   1      45.478  38.333  28.748  1.00  0.00    -0.237 OA
ATOM     86  O   UNL A   1      46.254  36.875  26.921  1.00  0.00    -0.237 OA
ATOM     87  O   UNL A   1      43.847  37.226  27.265  1.00  0.00    -0.744 OA
ENDBRANCH  81  84
ENDBRANCH  54  77
ENDBRANCH  28  29
ENDBRANCH  20  23
ENDBRANCH  18  19
ENDBRANCH   1  18
TORSDOF 15
ENDMDL
MODEL 2
REMARK VINA RESULT:     -12.2      6.233     10.926
REMARK SMILES O=C(Cc1ccn(C(F)F)c(=O)c1)NCCCNC(=O)c1ccc(-c2c3nc(c(-c4cccc(S(=O)(=O)[O-])c4F)c4ccc([nH]4)c(-c4cccc(S(=O)(=O)[O-])c4F)c4nc(c(-c5cccc(S(=O)(=O)[O-])c5F)c5ccc2[nH]5)C=C4)C=C3)cc1
REMARK SMILES IDX 16 1 15 2 14 3 1 4 2 5 3 7 4 8 5 9 13 10 6 11 11 12 7 13
REMARK SMILES IDX 12 14 8 15 9 16 10 17 17 18 18 19 19 20 20 22 21 23 22 24
REMARK SMILES IDX 83 25 23 26 82 27 24 28 25 29 26 30 76 31 27 32 81 33 75 34
REMARK SMILES IDX 77 35 28 36 80 37 74 38 73 39 29 41 61 42 41 43 60 44 42 45
REMARK SMILES IDX 45 46 59 47 78 48 43 49 44 50 58 52 79 53 46 54 30 55 31 56
REMARK SMILES IDX 39 57 32 58 34 59 40 60 33 61 35 62 36 63 37 64 38 65 62 66
REMARK SMILES IDX 63 67 71 68 64 69 66 70 72 71 65 72 67 73 68 74 69 75 70 76
REMARK SMILES IDX 47 77 48 78 56 79 49 80 51 81 57 82 50 83 52 84 53 85 54 86
REMARK SMILES IDX 55 87
REMARK H PARENT 14 6 18 21 77 40 45 51
REMARK Flexibility Score: inf
ROOT
ATOM      1  C   UNL A   1      31.768  29.069  27.342  1.00  0.00     0.042 C 
ENDROOT
BRANCH   1   2
ATOM      2  C   UNL A   1      32.050  27.597  27.075  1.00  0.00     0.117 C 
BRANCH   2   3
ATOM      3  N   UNL A   1      31.651  27.189  25.743  1.00  0.00    -0.356 N 
ATOM      4  O   UNL A   1      30.062  25.657  26.390  1.00  0.00    -0.275 OA
ATOM      5  C   UNL A   1      30.651  26.270  25.505  1.00  0.00     0.224 C 
ATOM      6  H   UNL A   1      32.115  27.588  24.971  1.00  0.00     0.163 HD
BRANCH   5   7
ATOM      7  C   UNL A   1      30.342  26.047  24.026  1.00  0.00     0.135 C 
BRANCH   7   8
ATOM      8  C   UNL A   1      29.629  27.234  23.423  1.00  0.00    -0.032 A 
ATOM      9  C   UNL A   1      30.415  28.203  22.688  1.00  0.00     0.022 A 
ATOM     10  C   UNL A   1      28.310  27.444  23.583  1.00  0.00     0.076 A 
ATOM     11  C   UNL A   1      29.846  29.326  22.230  1.00  0.00     0.095 A 
ATOM     12  C   UNL A   1      27.659  28.679  23.065  1.00  0.00     0.255 A 
ATOM     13  N   UNL A   1      28.500  29.576  22.424  1.00  0.00    -0.258 N 
ATOM     14  O   UNL A   1      26.455  28.832  23.248  1.00  0.00    -0.269 OA
BRANCH  13  15
ATOM     15  C   UNL A   1      27.910  30.805  21.961  1.00  0.00     0.451 C 
ATOM     16  F   UNL A   1      27.639  31.638  22.995  1.00  0.00    -0.185 F 
ATOM     17  F   UNL A   1      28.740  31.451  21.106  1.00  0.00    -0.185 F 
ENDBRANCH  13  15
ENDBRANCH   7   8
ENDBRANCH   5   7
ENDBRANCH   2   3
ENDBRANCH   1   2
BRANCH   1  18
ATOM     18  C   UNL A   1      32.440  30.030  26.366  1.00  0.00     0.118 C 
BRANCH  18  19
ATOM     19  N   UNL A   1      32.290  31.434  26.727  1.00  0.00    -0.352 N 
ATOM     20  C   UNL A   1      33.155  32.262  27.407  1.00  0.00     0.251 C 
ATOM     21  H   UNL A   1      31.446  31.852  26.442  1.00  0.00     0.163 HD
ATOM     22  O   UNL A   1      32.803  33.401  27.700  1.00  0.00    -0.269 OA
BRANCH  20  23
ATOM     23  C   UNL A   1      34.484  31.762  27.818  1.00  0.00     0.039 A 
ATOM     24  C   UNL A   1      34.683  30.408  28.102  1.00  0.00     0.014 A 
ATOM     25  C   UNL A   1      35.536  32.671  27.962  1.00  0.00     0.014 A 
ATOM     26  C   UNL A   1      35.871  29.999  28.699  1.00  0.00     0.010 A 
ATOM     27  C   UNL A   1      36.755  32.241  28.494  1.00  0.00     0.010 A 
ATOM     28  C   UNL A   1      36.912  30.914  28.924  1.00  0.00    -0.014 A 
BRANCH  28  29
ATOM     29  C   UNL A   1      38.140  30.475  29.635  1.00  0.00     0.031 A 
ATOM     30  C   UNL A   1      38.411  30.923  31.048  1.00  0.00     0.074 A 
ATOM     31  C   UNL A   1      38.999  29.637  29.022  1.00  0.00     0.049 A 
ATOM     32  N   UNL A   1      39.426  30.632  31.820  1.00  0.00    -0.248 NA
ATOM     33  C   UNL A   1      37.417  31.809  31.679  1.00  0.00     0.031 C 
ATOM     34  C   UNL A   1      38.856  29.138  27.654  1.00  0.00     0.029 A 
ATOM     35  N   UNL A   1      40.155  29.050  29.472  1.00  0.00    -0.354 N 
ATOM     36  C   UNL A   1      39.219  31.329  33.005  1.00  0.00     0.074 A 
ATOM     37  C   UNL A   1      37.979  32.058  32.855  1.00  0.00     0.031 C 
ATOM     38  C   UNL A   1      39.862  28.293  27.388  1.00  0.00     0.029 A 
ATOM     39  C   UNL A   1      40.746  28.223  28.548  1.00  0.00     0.049 A 
ATOM     40  H   UNL A   1      40.524  29.205  30.372  1.00  0.00     0.167 HD
ATOM     41  C   UNL A   1      39.980  31.344  34.124  1.00  0.00     0.034 A 
ATOM     42  C   UNL A   1      41.874  27.491  28.619  1.00  0.00     0.034 A 
ATOM     43  C   UNL A   1      41.179  30.573  34.302  1.00  0.00     0.049 A 
ATOM     44  C   UNL A   1      42.686  27.506  29.882  1.00  0.00     0.074 A 
ATOM     45  C   UNL A   1      41.995  30.503  35.419  1.00  0.00     0.029 A 
ATOM     46  N   UNL A   1      41.727  29.731  33.351  1.00  0.00    -0.354 N 
ATOM     47  N   UNL A   1      42.437  28.124  31.009  1.00  0.00    -0.248 NA
ATOM     48  C   UNL A   1      43.924  26.712  29.890  1.00  0.00     0.031 C 
ATOM     49  C   UNL A   1      43.035  29.611  35.144  1.00  0.00     0.029 A 
ATOM     50  C   UNL A   1      42.866  29.128  33.856  1.00  0.00     0.049 A 
ATOM     51  H   UNL A   1      41.362  29.582  32.449  1.00  0.00     0.167 HD
ATOM     52  C   UNL A   1      43.477  27.786  31.867  1.00  0.00     0.074 A 
ATOM     53  C   UNL A   1      44.350  26.892  31.135  1.00  0.00     0.031 C 
ATOM     54  C   UNL A   1      43.696  28.198  33.137  1.00  0.00     0.034 A 
BRANCH  41  55
ATOM     55  C   UNL A   1      39.513  32.177  35.285  1.00  0.00     0.023 A 
ATOM     56  C   UNL A   1      38.713  31.581  36.279  1.00  0.00     0.012 A 
ATOM     57  C   UNL A   1      39.949  33.507  35.447  1.00  0.00     0.148 A 
ATOM     58  C   UNL A   1      38.348  32.297  37.417  1.00  0.00     0.002 A 
ATOM     59  C   UNL A   1      39.602  34.207  36.596  1.00  0.00     0.091 A 
ATOM     60  F   UNL A   1      40.696  34.055  34.479  1.00  0.00    -0.205 F 
ATOM     61  C   UNL A   1      38.800  33.605  37.581  1.00  0.00     0.022 A 
BRANCH  59  62
ATOM     62  S   UNL A   1      40.177  35.876  36.931  1.00  0.00     0.127 S 
ATOM     63  O   UNL A   1      41.624  35.676  37.014  1.00  0.00    -0.237 OA
ATOM     64  O   UNL A   1      39.728  36.599  35.741  1.00  0.00    -0.237 OA
ATOM     65  O   UNL A   1      39.533  36.282  38.172  1.00  0.00    -0.744 OA
ENDBRANCH  59  62
ENDBRANCH  41  55
BRANCH  42  66
ATOM     66  C   UNL A   1      42.255  26.633  27.465  1.00  0.00     0.023 A 
ATOM     67  C   UNL A   1      43.075  27.169  26.454  1.00  0.00     0.012 A 
ATOM     68  C   UNL A   1      41.887  25.275  27.412  1.00  0.00     0.148 A 
ATOM     69  C   UNL A   1      43.523  26.365  25.406  1.00  0.00     0.002 A 
ATOM     70  C   UNL A   1      42.374  24.470  26.390  1.00  0.00     0.091 A 
ATOM     71  F   UNL A   1      41.097  24.795  28.382  1.00  0.00    -0.205 F 
ATOM     72  C   UNL A   1      43.183  25.015  25.381  1.00  0.00     0.022 A 
BRANCH  70  73
ATOM     73  S   UNL A   1      42.096  22.696  26.343  1.00  0.00     0.127 S 
ATOM     74  O   UNL A   1      40.637  22.624  26.319  1.00  0.00    -0.237 OA
ATOM     75  O   UNL A   1      42.752  22.324  25.089  1.00  0.00    -0.237 OA
ATOM     76  O   UNL A   1      42.734  22.163  27.539  1.00  0.00    -0.744 OA
ENDBRANCH  70  73
ENDBRANCH  42  66
BRANCH  54  77
ATOM     77  C   UNL A   1      44.921  27.688  33.842  1.00  0.00     0.023 A 
ATOM     78  C   UNL A   1      46.103  28.452  33.800  1.00  0.00     0.012 A 
ATOM     79  C   UNL A   1      44.866  26.530  34.640  1.00  0.00     0.148 A 
ATOM     80  C   UNL A   1      47.219  28.065  34.538  1.00  0.00     0.002 A 
ATOM     81  C   UNL A   1      45.973  26.165  35.396  1.00  0.00     0.091 A 
ATOM     82  F   UNL A   1      43.731  25.816  34.651  1.00  0.00    -0.205 F 
ATOM     83  C   UNL A   1      47.151  26.930  35.344  1.00  0.00     0.022 A 
BRANCH  81  84
ATOM     84  S   UNL A   1      45.958  24.762  36.517  1.00  0.00     0.127 S 
ATOM     85  O   UNL A   1      44.798  25.065  37.355  1.00  0.00    -0.237 OA
ATOM     86  O   UNL A   1      45.772  23.635  35.603  1.00  0.00    -0.237 OA
ATOM     87  O   UNL A   1      47.243  24.780  37.203  1.00  0.00    -0.744 OA
ENDBRANCH  81  84
ENDBRANCH  54  77
ENDBRANCH  28  29
ENDBRANCH  20  23
ENDBRANCH  18  19
ENDBRANCH   1  18
TORSDOF 15
ENDMDL
MODEL 3
REMARK VINA RESULT:     -11.9      3.957      6.183
REMARK SMILES O=C(Cc1ccn(C(F)F)c(=O)c1)NCCCNC(=O)c1ccc(-c2c3nc(c(-c4cccc(S(=O)(=O)[O-])c4F)c4ccc([nH]4)c(-c4cccc(S(=O)(=O)[O-])c4F)c4nc(c(-c5cccc(S(=O)(=O)[O-])c5F)c5ccc2[nH]5)C=C4)C=C3)cc1
REMARK SMILES IDX 16 1 15 2 14 3 1 4 2 5 3 7 4 8 5 9 13 10 6 11 11 12 7 13
REMARK SMILES IDX 12 14 8 15 9 16 10 17 17 18 18 19 19 20 20 22 21 23 22 24
REMARK SMILES IDX 83 25 23 26 82 27 24 28 25 29 26 30 76 31 27 32 81 33 75 34
REMARK SMILES IDX 77 35 28 36 80 37 74 38 73 39 29 41 61 42 41 43 60 44 42 45
REMARK SMILES IDX 45 46 59 47 78 48 43 49 44 50 58 52 79 53 46 54 30 55 31 56
REMARK SMILES IDX 39 57 32 58 34 59 40 60 33 61 35 62 36 63 37 64 38 65 62 66
REMARK SMILES IDX 63 67 71 68 64 69 66 70 72 71 65 72 67 73 68 74 69 75 70 76
REMARK SMILES IDX 47 77 48 78 56 79 49 80 51 81 57 82 50 83 52 84 53 85 54 86
REMARK SMILES IDX 55 87
REMARK H PARENT 14 6 18 21 77 40 45 51
REMARK Flexibility Score: inf
ROOT
ATOM      1  C   UNL A   1      42.295  18.916  26.648  1.00  0.00     0.042 C 
ENDROOT
BRANCH   1   2
ATOM      2  C   UNL A   1      42.946  19.281  25.321  1.00  0.00     0.117 C 
BRANCH   2   3
ATOM      3  N   UNL A   1      44.193  19.998  25.494  1.00  0.00    -0.356 N 
ATOM      4  O   UNL A   1      43.407  22.068  24.869  1.00  0.00    -0.275 OA
ATOM      5  C   UNL A   1      44.314  21.357  25.288  1.00  0.00     0.224 C 
ATOM      6  H   UNL A   1      44.991  19.492  25.771  1.00  0.00     0.163 HD
BRANCH   5   7
ATOM      7  C   UNL A   1      45.700  21.918  25.604  1.00  0.00     0.135 C 
BRANCH   7   8
ATOM      8  C   UNL A   1      45.655  22.893  26.756  1.00  0.00    -0.032 A 
ATOM      9  C   UNL A   1      46.692  23.901  26.840  1.00  0.00     0.022 A 
ATOM     10  C   UNL A   1      44.721  22.829  27.721  1.00  0.00     0.076 A 
ATOM     11  C   UNL A   1      46.755  24.717  27.900  1.00  0.00     0.095 A 
ATOM     12  C   UNL A   1      44.768  23.741  28.899  1.00  0.00     0.255 A 
ATOM     13  N   UNL A   1      45.827  24.636  28.922  1.00  0.00    -0.258 N 
ATOM     14  O   UNL A   1      43.900  23.635  29.760  1.00  0.00    -0.269 OA
BRANCH  13  15
ATOM     15  C   UNL A   1      45.930  25.492  30.075  1.00  0.00     0.451 C 
ATOM     16  F   UNL A   1      47.193  25.959  30.227  1.00  0.00    -0.185 F 
ATOM     17  F   UNL A   1      45.097  26.556  29.965  1.00  0.00    -0.185 F 
ENDBRANCH  13  15
ENDBRANCH   7   8
ENDBRANCH   5   7
ENDBRANCH   2   3
ENDBRANCH   1   2
BRANCH   1  18
ATOM     18  C   UNL A   1      41.298  19.946  27.169  1.00  0.00     0.118 C 
BRANCH  18  19
ATOM     19  N   UNL A   1      40.088  20.052  26.363  1.00  0.00    -0.352 N 
ATOM     20  C   UNL A   1      39.288  21.146  26.121  1.00  0.00     0.251 C 
ATOM     21  H   UNL A   1      39.800  19.217  25.928  1.00  0.00     0.163 HD
ATOM     22  O   UNL A   1      38.247  21.009  25.486  1.00  0.00    -0.269 OA
BRANCH  20  23
ATOM     23  C   UNL A   1      39.665  22.469  26.662  1.00  0.00     0.039 A 
ATOM     24  C   UNL A   1      39.093  23.639  26.157  1.00  0.00     0.014 A 
ATOM     25  C   UNL A   1      40.639  22.539  27.663  1.00  0.00     0.014 A 
ATOM     26  C   UNL A   1      39.621  24.875  26.518  1.00  0.00     0.010 A 
ATOM     27  C   UNL A   1      41.116  23.786  28.078  1.00  0.00     0.010 A 
ATOM     28  C   UNL A   1      40.655  24.961  27.466  1.00  0.00    -0.014 A 
BRANCH  28  29
ATOM     29  C   UNL A   1      41.259  26.282  27.779  1.00  0.00     0.031 A 
ATOM     30  C   UNL A   1      42.583  26.681  27.181  1.00  0.00     0.074 A 
ATOM     31  C   UNL A   1      40.597  27.144  28.574  1.00  0.00     0.049 A 
ATOM     32  N   UNL A   1      43.253  27.793  27.340  1.00  0.00    -0.248 NA
ATOM     33  C   UNL A   1      43.243  25.711  26.289  1.00  0.00     0.031 C 
ATOM     34  C   UNL A   1      39.312  26.874  29.222  1.00  0.00     0.029 A 
ATOM     35  N   UNL A   1      40.905  28.423  28.965  1.00  0.00    -0.354 N 
ATOM     36  C   UNL A   1      44.425  27.643  26.610  1.00  0.00     0.074 A 
ATOM     37  C   UNL A   1      44.380  26.331  26.002  1.00  0.00     0.031 C 
ATOM     38  C   UNL A   1      38.924  27.965  29.899  1.00  0.00     0.029 A 
ATOM     39  C   UNL A   1      39.951  28.996  29.771  1.00  0.00     0.049 A 
ATOM     40  H   UNL A   1      41.730  28.886  28.692  1.00  0.00     0.167 HD
ATOM     41  C   UNL A   1      45.439  28.525  26.441  1.00  0.00     0.034 A 
ATOM     42  C   UNL A   1      39.904  30.212  30.347  1.00  0.00     0.034 A 
ATOM     43  C   UNL A   1      45.462  29.852  26.991  1.00  0.00     0.049 A 
ATOM     44  C   UNL A   1      41.030  31.180  30.124  1.00  0.00     0.074 A 
ATOM     45  C   UNL A   1      46.436  30.824  26.842  1.00  0.00     0.029 A 
ATOM     46  N   UNL A   1      44.464  30.399  27.779  1.00  0.00    -0.354 N 
ATOM     47  N   UNL A   1      42.098  31.037  29.380  1.00  0.00    -0.248 NA
ATOM     48  C   UNL A   1      40.938  32.481  30.804  1.00  0.00     0.031 C 
ATOM     49  C   UNL A   1      46.023  31.965  27.536  1.00  0.00     0.029 A 
ATOM     50  C   UNL A   1      44.793  31.701  28.117  1.00  0.00     0.049 A 
ATOM     51  H   UNL A   1      43.643  29.933  28.057  1.00  0.00     0.167 HD
ATOM     52  C   UNL A   1      42.801  32.231  29.489  1.00  0.00     0.074 A 
ATOM     53  C   UNL A   1      42.027  33.095  30.357  1.00  0.00     0.031 C 
ATOM     54  C   UNL A   1      43.989  32.569  28.936  1.00  0.00     0.034 A 
BRANCH  41  55
ATOM     55  C   UNL A   1      46.597  28.114  25.574  1.00  0.00     0.023 A 
ATOM     56  C   UNL A   1      46.466  28.190  24.174  1.00  0.00     0.012 A 
ATOM     57  C   UNL A   1      47.837  27.757  26.140  1.00  0.00     0.148 A 
ATOM     58  C   UNL A   1      47.552  27.913  23.347  1.00  0.00     0.002 A 
ATOM     59  C   UNL A   1      48.922  27.507  25.308  1.00  0.00     0.091 A 
ATOM     60  F   UNL A   1      47.930  27.676  27.474  1.00  0.00    -0.205 F 
ATOM     61  C   UNL A   1      48.781  27.582  23.912  1.00  0.00     0.022 A 
BRANCH  59  62
ATOM     62  S   UNL A   1      50.562  27.126  25.936  1.00  0.00     0.127 S 
ATOM     63  O   UNL A   1      50.868  28.331  26.708  1.00  0.00    -0.237 OA
ATOM     64  O   UNL A   1      50.312  25.932  26.743  1.00  0.00    -0.237 OA
ATOM     65  O   UNL A   1      51.400  26.909  24.766  1.00  0.00    -0.744 OA
ENDBRANCH  59  62
ENDBRANCH  41  55
BRANCH  42  66
ATOM     66  C   UNL A   1      38.704  30.591  31.141  1.00  0.00     0.023 A 
ATOM     67  C   UNL A   1      38.716  30.396  32.536  1.00  0.00     0.012 A 
ATOM     68  C   UNL A   1      37.599  31.221  30.539  1.00  0.00     0.148 A 
ATOM     69  C   UNL A   1      37.644  30.824  33.319  1.00  0.00     0.002 A 
ATOM     70  C   UNL A   1      36.556  31.685  31.330  1.00  0.00     0.091 A 
ATOM     71  F   UNL A   1      37.611  31.384  29.208  1.00  0.00    -0.205 F 
ATOM     72  C   UNL A   1      36.571  31.478  32.718  1.00  0.00     0.022 A 
BRANCH  70  73
ATOM     73  S   UNL A   1      35.194  32.650  30.665  1.00  0.00     0.127 S 
ATOM     74  O   UNL A   1      34.269  32.678  31.795  1.00  0.00    -0.237 OA
ATOM     75  O   UNL A   1      35.848  33.925  30.371  1.00  0.00    -0.237 OA
ATOM     76  O   UNL A   1      34.732  31.924  29.490  1.00  0.00    -0.744 OA
ENDBRANCH  70  73
ENDBRANCH  42  66
BRANCH  54  77
ATOM     77  C   UNL A   1      44.542  33.934  29.233  1.00  0.00     0.023 A 
ATOM     78  C   UNL A   1      45.461  34.086  30.288  1.00  0.00     0.012 A 
ATOM     79  C   UNL A   1      44.250  35.028  28.398  1.00  0.00     0.148 A 
ATOM     80  C   UNL A   1      46.079  35.314  30.514  1.00  0.00     0.002 A 
ATOM     81  C   UNL A   1      44.890  36.243  28.611  1.00  0.00     0.091 A 
ATOM     82  F   UNL A   1      43.361  34.857  27.409  1.00  0.00    -0.205 F 
ATOM     83  C   UNL A   1      45.802  36.389  29.669  1.00  0.00     0.022 A 
BRANCH  81  84
ATOM     84  S   UNL A   1      44.653  37.661  27.534  1.00  0.00     0.127 S 
ATOM     85  O   UNL A   1      44.671  38.767  28.491  1.00  0.00    -0.237 OA
ATOM     86  O   UNL A   1      45.827  37.590  26.662  1.00  0.00    -0.237 OA
ATOM     87  O   UNL A   1      43.382  37.445  26.856  1.00  0.00    -0.744 OA
ENDBRANCH  81  84
ENDBRANCH  54  77
ENDBRANCH  28  29
ENDBRANCH  20  23
ENDBRANCH  18  19
ENDBRANCH   1  18
TORSDOF 15
ENDMDL
