MODEL 1
REMARK VINA RESULT:     -13.0      0.000      0.000
REMARK SMILES Cn1c(C[NH+](C)C)nnc1[C@@H]1CCC[N@@H+](Cc2ccccc2C(=O)NCCCNC(=O)c2ccc(-c3c4nc(c(-c5cccc(S(=O)(=O)[O-])c5F)c5ccc([nH]5)c(-c5cccc(S(=O)(=O)[O-])c5F)c5nc(c(-c6cccc(S(=O)(=O)[O-])c6F)c6ccc3[nH]6)C=C5)C=C4)cc2)C1
REMARK SMILES IDX 26 1 25 2 23 3 24 4 22 6 17 7 18 8 19 9 21 10 20 11 16 12
REMARK SMILES IDX 15 13 11 14 12 15 95 16 13 17 14 18 10 20 3 21 8 22 2 23
REMARK SMILES IDX 9 24 1 25 4 26 5 27 6 28 7 29 27 31 28 32 29 33 30 34 31 36
REMARK SMILES IDX 32 37 33 38 94 39 34 40 93 41 35 42 36 43 37 44 87 45 38 46
REMARK SMILES IDX 92 47 86 48 88 49 39 50 91 51 85 52 84 53 40 55 72 56 52 57
REMARK SMILES IDX 71 58 53 59 56 60 70 61 89 62 54 63 55 64 69 66 90 67 57 68
REMARK SMILES IDX 41 69 42 70 50 71 43 72 45 73 51 74 44 75 46 76 47 77 48 78
REMARK SMILES IDX 49 79 73 80 74 81 82 82 75 83 77 84 83 85 76 86 78 87 79 88
REMARK SMILES IDX 80 89 81 90 58 91 59 92 67 93 60 94 62 95 68 96 61 97 63 98
REMARK SMILES IDX 64 99 65 100 66 101
REMARK H PARENT 25 5 15 19 5 30 29 35 88 54 56 65
REMARK Flexibility Score: inf
ROOT
ATOM      1  C   UNL A   1      37.221  22.582  25.042  1.00  0.00     0.118 C 
ENDROOT
BRANCH   1   2
ATOM      2  N   UNL A   1      36.241  22.908  26.063  1.00  0.00    -0.352 N 
ATOM      3  C   UNL A   1      34.880  22.759  26.138  1.00  0.00     0.251 C 
ATOM      4  O   UNL A   1      34.367  22.957  27.245  1.00  0.00    -0.269 OA
ATOM      5  H   UNL A   1      36.635  23.320  26.866  1.00  0.00     0.163 HD
BRANCH   3   6
ATOM      6  C   UNL A   1      33.967  22.458  24.993  1.00  0.00     0.048 A 
ATOM      7  C   UNL A   1      33.459  23.319  24.001  1.00  0.00     0.019 A 
ATOM      8  C   UNL A   1      32.543  22.783  23.059  1.00  0.00     0.010 A 
ATOM      9  C   UNL A   1      32.231  21.428  23.011  1.00  0.00     0.001 A 
ATOM     10  C   UNL A   1      33.683  21.074  24.884  1.00  0.00     0.014 A 
ATOM     11  C   UNL A   1      32.839  20.561  23.900  1.00  0.00     0.001 A 
BRANCH   7  12
ATOM     12  C   UNL A   1      33.797  24.774  23.799  1.00  0.00     0.299 C 
BRANCH  12  13
ATOM     13  N   UNL A   1      33.137  25.777  24.629  1.00  0.00    -0.331 N 
ATOM     14  C   UNL A   1      31.032  26.842  25.298  1.00  0.00     0.113 C 
ATOM     15  C   UNL A   1      31.734  27.548  26.454  1.00  0.00     0.023 C 
ATOM     16  C   UNL A   1      31.739  25.538  24.957  1.00  0.00     0.274 C 
ATOM     17  C   UNL A   1      33.263  27.542  26.376  1.00  0.00     0.062 C 
ATOM     18  C   UNL A   1      33.887  26.264  25.781  1.00  0.00     0.262 C 
ATOM     19  H   UNL A   1      33.127  26.551  23.964  1.00  0.00     0.348 HD
BRANCH  14  20
ATOM     20  C   UNL A   1      30.695  27.672  24.077  1.00  0.00     0.141 A 
ATOM     21  C   UNL A   1      29.675  29.014  22.639  1.00  0.00     0.187 A 
ATOM     22  N   UNL A   1      30.972  29.217  22.558  1.00  0.00    -0.129 NA
ATOM     23  N   UNL A   1      29.476  27.949  23.491  1.00  0.00    -0.313 N 
ATOM     24  N   UNL A   1      31.602  28.413  23.468  1.00  0.00    -0.135 NA
ATOM     25  C   UNL A   1      28.227  27.260  23.605  1.00  0.00     0.153 C 
BRANCH  21  26
ATOM     26  C   UNL A   1      28.625  29.729  21.830  1.00  0.00     0.340 C 
BRANCH  26  27
ATOM     27  N   UNL A   1      28.189  31.022  22.333  1.00  0.00    -0.333 N 
ATOM     28  C   UNL A   1      27.620  31.187  23.641  1.00  0.00     0.332 C 
ATOM     29  C   UNL A   1      28.305  32.202  21.520  1.00  0.00     0.332 C 
ATOM     30  H   UNL A   1      28.537  30.064  22.355  1.00  0.00     0.348 HD
ENDBRANCH  26  27
ENDBRANCH  21  26
ENDBRANCH  14  20
ENDBRANCH  12  13
ENDBRANCH   7  12
ENDBRANCH   3   6
ENDBRANCH   1   2
BRANCH   1  31
ATOM     31  C   UNL A   1      37.758  21.160  25.087  1.00  0.00     0.042 C 
BRANCH  31  32
ATOM     32  C   UNL A   1      38.953  20.915  26.013  1.00  0.00     0.118 C 
BRANCH  32  33
ATOM     33  N   UNL A   1      40.000  19.981  25.599  1.00  0.00    -0.352 N 
ATOM     34  C   UNL A   1      41.320  19.892  26.020  1.00  0.00     0.251 C 
ATOM     35  H   UNL A   1      39.730  19.318  24.922  1.00  0.00     0.163 HD
ATOM     36  O   UNL A   1      41.951  18.847  25.986  1.00  0.00    -0.269 OA
BRANCH  34  37
ATOM     37  C   UNL A   1      42.040  21.104  26.429  1.00  0.00     0.039 A 
ATOM     38  C   UNL A   1      42.374  22.052  25.450  1.00  0.00     0.014 A 
ATOM     39  C   UNL A   1      42.360  21.318  27.759  1.00  0.00     0.014 A 
ATOM     40  C   UNL A   1      42.872  23.296  25.827  1.00  0.00     0.010 A 
ATOM     41  C   UNL A   1      42.776  22.572  28.150  1.00  0.00     0.010 A 
ATOM     42  C   UNL A   1      43.033  23.561  27.185  1.00  0.00    -0.014 A 
BRANCH  42  43
ATOM     43  C   UNL A   1      43.688  24.777  27.687  1.00  0.00     0.031 A 
ATOM     44  C   UNL A   1      42.770  25.834  28.215  1.00  0.00     0.074 A 
ATOM     45  C   UNL A   1      44.989  24.989  27.434  1.00  0.00     0.049 A 
ATOM     46  N   UNL A   1      42.984  27.105  28.381  1.00  0.00    -0.248 NA
ATOM     47  C   UNL A   1      41.390  25.401  28.512  1.00  0.00     0.031 C 
ATOM     48  C   UNL A   1      45.921  24.004  26.881  1.00  0.00     0.029 A 
ATOM     49  N   UNL A   1      45.733  26.131  27.545  1.00  0.00    -0.354 N 
ATOM     50  C   UNL A   1      41.748  27.639  28.720  1.00  0.00     0.074 A 
ATOM     51  C   UNL A   1      40.788  26.560  28.713  1.00  0.00     0.031 C 
ATOM     52  C   UNL A   1      47.109  24.596  26.673  1.00  0.00     0.029 A 
ATOM     53  C   UNL A   1      47.005  26.006  27.035  1.00  0.00     0.049 A 
ATOM     54  H   UNL A   1      45.392  26.961  27.950  1.00  0.00     0.167 HD
ATOM     55  C   UNL A   1      41.450  28.924  29.012  1.00  0.00     0.034 A 
ATOM     56  C   UNL A   1      47.953  26.946  26.864  1.00  0.00     0.034 A 
ATOM     57  C   UNL A   1      42.447  29.954  29.037  1.00  0.00     0.049 A 
ATOM     58  C   UNL A   1      47.615  28.362  27.262  1.00  0.00     0.074 A 
ATOM     59  C   UNL A   1      42.319  31.273  29.422  1.00  0.00     0.029 A 
ATOM     60  N   UNL A   1      43.768  29.769  28.648  1.00  0.00    -0.354 N 
ATOM     61  N   UNL A   1      46.483  28.842  27.723  1.00  0.00    -0.248 NA
ATOM     62  C   UNL A   1      48.685  29.359  27.141  1.00  0.00     0.031 C 
ATOM     63  C   UNL A   1      43.560  31.892  29.240  1.00  0.00     0.029 A 
ATOM     64  C   UNL A   1      44.468  30.951  28.772  1.00  0.00     0.049 A 
ATOM     65  H   UNL A   1      44.149  28.918  28.332  1.00  0.00     0.167 HD
ATOM     66  C   UNL A   1      46.713  30.187  27.988  1.00  0.00     0.074 A 
ATOM     67  C   UNL A   1      48.100  30.439  27.644  1.00  0.00     0.031 C 
ATOM     68  C   UNL A   1      45.865  31.135  28.460  1.00  0.00     0.034 A 
BRANCH  55  69
ATOM     69  C   UNL A   1      40.015  29.250  29.329  1.00  0.00     0.023 A 
ATOM     70  C   UNL A   1      39.112  29.545  28.285  1.00  0.00     0.012 A 
ATOM     71  C   UNL A   1      39.562  29.287  30.661  1.00  0.00     0.148 A 
ATOM     72  C   UNL A   1      37.801  29.929  28.565  1.00  0.00     0.002 A 
ATOM     73  C   UNL A   1      38.239  29.614  30.929  1.00  0.00     0.091 A 
ATOM     74  F   UNL A   1      40.441  29.035  31.643  1.00  0.00    -0.205 F 
ATOM     75  C   UNL A   1      37.363  29.954  29.886  1.00  0.00     0.022 A 
BRANCH  73  76
ATOM     76  S   UNL A   1      37.554  29.596  32.589  1.00  0.00     0.127 S 
ATOM     77  O   UNL A   1      37.557  28.168  32.897  1.00  0.00    -0.237 OA
ATOM     78  O   UNL A   1      38.539  30.382  33.333  1.00  0.00    -0.237 OA
ATOM     79  O   UNL A   1      36.238  30.211  32.488  1.00  0.00    -0.744 OA
ENDBRANCH  73  76
ENDBRANCH  55  69
BRANCH  56  80
ATOM     80  C   UNL A   1      49.312  26.570  26.381  1.00  0.00     0.023 A 
ATOM     81  C   UNL A   1      50.077  25.673  27.153  1.00  0.00     0.012 A 
ATOM     82  C   UNL A   1      49.836  27.039  25.161  1.00  0.00     0.148 A 
ATOM     83  C   UNL A   1      51.347  25.272  26.736  1.00  0.00     0.002 A 
ATOM     84  C   UNL A   1      51.084  26.597  24.727  1.00  0.00     0.091 A 
ATOM     85  F   UNL A   1      49.098  27.894  24.439  1.00  0.00    -0.205 F 
ATOM     86  C   UNL A   1      51.847  25.727  25.520  1.00  0.00     0.022 A 
BRANCH  84  87
ATOM     87  S   UNL A   1      51.764  27.026  23.118  1.00  0.00     0.127 S 
ATOM     88  O   UNL A   1      52.880  26.090  23.005  1.00  0.00    -0.237 OA
ATOM     89  O   UNL A   1      50.634  26.749  22.230  1.00  0.00    -0.237 OA
ATOM     90  O   UNL A   1      52.129  28.433  23.206  1.00  0.00    -0.744 OA
ENDBRANCH  84  87
ENDBRANCH  56  80
BRANCH  68  91
ATOM     91  C   UNL A   1      46.422  32.515  28.670  1.00  0.00     0.023 A 
ATOM     92  C   UNL A   1      46.963  32.871  29.918  1.00  0.00     0.012 A 
ATOM     93  C   UNL A   1      46.504  33.415  27.590  1.00  0.00     0.148 A 
ATOM     94  C   UNL A   1      47.556  34.119  30.098  1.00  0.00     0.002 A 
ATOM     95  C   UNL A   1      47.146  34.633  27.760  1.00  0.00     0.091 A 
ATOM     96  F   UNL A   1      45.966  33.056  26.414  1.00  0.00    -0.205 F 
ATOM     97  C   UNL A   1      47.661  34.992  29.017  1.00  0.00     0.022 A 
BRANCH  95  98
ATOM     98  S   UNL A   1      47.427  35.769  26.399  1.00  0.00     0.127 S 
ATOM     99  O   UNL A   1      46.060  36.063  25.971  1.00  0.00    -0.237 OA
ATOM    100  O   UNL A   1      48.113  36.879  27.061  1.00  0.00    -0.237 OA
ATOM    101  O   UNL A   1      48.240  35.045  25.431  1.00  0.00    -0.744 OA
ENDBRANCH  95  98
ENDBRANCH  68  91
ENDBRANCH  42  43
ENDBRANCH  34  37
ENDBRANCH  32  33
ENDBRANCH  31  32
ENDBRANCH   1  31
TORSDOF 18
ENDMDL
MODEL 2
REMARK VINA RESULT:     -12.7      2.052      7.922
REMARK SMILES Cn1c(C[NH+](C)C)nnc1[C@@H]1CCC[N@@H+](Cc2ccccc2C(=O)NCCCNC(=O)c2ccc(-c3c4nc(c(-c5cccc(S(=O)(=O)[O-])c5F)c5ccc([nH]5)c(-c5cccc(S(=O)(=O)[O-])c5F)c5nc(c(-c6cccc(S(=O)(=O)[O-])c6F)c6ccc3[nH]6)C=C5)C=C4)cc2)C1
REMARK SMILES IDX 26 1 25 2 23 3 24 4 22 6 17 7 18 8 19 9 21 10 20 11 16 12
REMARK SMILES IDX 15 13 11 14 12 15 95 16 13 17 14 18 10 20 3 21 8 22 2 23
REMARK SMILES IDX 9 24 1 25 4 26 5 27 6 28 7 29 27 31 28 32 29 33 30 34 31 36
REMARK SMILES IDX 32 37 33 38 94 39 34 40 93 41 35 42 36 43 37 44 87 45 38 46
REMARK SMILES IDX 92 47 86 48 88 49 39 50 91 51 85 52 84 53 40 55 72 56 52 57
REMARK SMILES IDX 71 58 53 59 56 60 70 61 89 62 54 63 55 64 69 66 90 67 57 68
REMARK SMILES IDX 41 69 42 70 50 71 43 72 45 73 51 74 44 75 46 76 47 77 48 78
REMARK SMILES IDX 49 79 73 80 74 81 82 82 75 83 77 84 83 85 76 86 78 87 79 88
REMARK SMILES IDX 80 89 81 90 58 91 59 92 67 93 60 94 62 95 68 96 61 97 63 98
REMARK SMILES IDX 64 99 65 100 66 101
REMARK H PARENT 25 5 15 19 5 30 29 35 88 54 56 65
REMARK Flexibility Score: inf
ROOT
ATOM      1  C   UNL A   1      37.040  21.413  24.354  1.00  0.00     0.118 C 
ENDROOT
BRANCH   1   2
ATOM      2  N   UNL A   1      36.052  21.778  25.354  1.00  0.00    -0.352 N 
ATOM      3  C   UNL A   1      34.812  21.285  25.670  1.00  0.00     0.251 C 
ATOM      4  O   UNL A   1      34.311  21.695  26.722  1.00  0.00    -0.269 OA
ATOM      5  H   UNL A   1      36.329  22.533  25.921  1.00  0.00     0.163 HD
BRANCH   3   6
ATOM      6  C   UNL A   1      33.992  20.365  24.823  1.00  0.00     0.048 A 
ATOM      7  C   UNL A   1      33.050  20.670  23.821  1.00  0.00     0.019 A 
ATOM      8  C   UNL A   1      32.353  19.594  23.213  1.00  0.00     0.010 A 
ATOM      9  C   UNL A   1      32.655  18.262  23.483  1.00  0.00     0.001 A 
ATOM     10  C   UNL A   1      34.325  19.003  25.034  1.00  0.00     0.014 A 
ATOM     11  C   UNL A   1      33.677  17.965  24.365  1.00  0.00     0.001 A 
BRANCH   7  12
ATOM     12  C   UNL A   1      32.699  22.034  23.287  1.00  0.00     0.299 C 
BRANCH  12  13
ATOM     13  N   UNL A   1      31.944  22.954  24.132  1.00  0.00    -0.331 N 
ATOM     14  C   UNL A   1      30.701  25.062  24.292  1.00  0.00     0.113 C 
ATOM     15  C   UNL A   1      30.195  24.681  25.679  1.00  0.00     0.023 C 
ATOM     16  C   UNL A   1      30.981  23.816  23.462  1.00  0.00     0.274 C 
ATOM     17  C   UNL A   1      30.939  23.516  26.337  1.00  0.00     0.062 C 
ATOM     18  C   UNL A   1      31.408  22.407  25.373  1.00  0.00     0.262 C 
ATOM     19  H   UNL A   1      32.705  23.572  24.414  1.00  0.00     0.348 HD
BRANCH  14  20
ATOM     20  C   UNL A   1      31.810  26.090  24.212  1.00  0.00     0.141 A 
ATOM     21  C   UNL A   1      33.062  27.889  24.535  1.00  0.00     0.187 A 
ATOM     22  N   UNL A   1      33.851  26.857  24.328  1.00  0.00    -0.129 NA
ATOM     23  N   UNL A   1      31.767  27.465  24.334  1.00  0.00    -0.313 N 
ATOM     24  N   UNL A   1      33.081  25.740  24.161  1.00  0.00    -0.135 NA
ATOM     25  C   UNL A   1      30.662  28.364  24.192  1.00  0.00     0.153 C 
BRANCH  21  26
ATOM     26  C   UNL A   1      33.517  29.300  24.800  1.00  0.00     0.340 C 
BRANCH  26  27
ATOM     27  N   UNL A   1      33.667  29.681  26.196  1.00  0.00    -0.333 N 
ATOM     28  C   UNL A   1      32.715  30.517  26.872  1.00  0.00     0.332 C 
ATOM     29  C   UNL A   1      34.801  29.235  26.960  1.00  0.00     0.332 C 
ATOM     30  H   UNL A   1      33.199  29.467  25.316  1.00  0.00     0.348 HD
ENDBRANCH  26  27
ENDBRANCH  21  26
ENDBRANCH  14  20
ENDBRANCH  12  13
ENDBRANCH   7  12
ENDBRANCH   3   6
ENDBRANCH   1   2
BRANCH   1  31
ATOM     31  C   UNL A   1      37.957  20.261  24.735  1.00  0.00     0.042 C 
BRANCH  31  32
ATOM     32  C   UNL A   1      38.722  20.411  26.054  1.00  0.00     0.118 C 
BRANCH  32  33
ATOM     33  N   UNL A   1      40.000  19.717  26.223  1.00  0.00    -0.352 N 
ATOM     34  C   UNL A   1      41.153  20.139  26.869  1.00  0.00     0.251 C 
ATOM     35  H   UNL A   1      40.048  18.820  25.820  1.00  0.00     0.163 HD
ATOM     36  O   UNL A   1      41.957  19.357  27.353  1.00  0.00    -0.269 OA
BRANCH  34  37
ATOM     37  C   UNL A   1      41.497  21.565  26.895  1.00  0.00     0.039 A 
ATOM     38  C   UNL A   1      41.686  22.236  25.677  1.00  0.00     0.014 A 
ATOM     39  C   UNL A   1      41.607  22.241  28.099  1.00  0.00     0.014 A 
ATOM     40  C   UNL A   1      41.811  23.622  25.658  1.00  0.00     0.010 A 
ATOM     41  C   UNL A   1      41.649  23.618  28.088  1.00  0.00     0.010 A 
ATOM     42  C   UNL A   1      41.753  24.309  26.869  1.00  0.00    -0.014 A 
BRANCH  42  43
ATOM     43  C   UNL A   1      42.023  25.749  26.980  1.00  0.00     0.031 A 
ATOM     44  C   UNL A   1      43.372  26.192  26.509  1.00  0.00     0.074 A 
ATOM     45  C   UNL A   1      41.197  26.532  27.692  1.00  0.00     0.049 A 
ATOM     46  N   UNL A   1      44.032  27.274  26.795  1.00  0.00    -0.248 NA
ATOM     47  C   UNL A   1      44.111  25.229  25.669  1.00  0.00     0.031 C 
ATOM     48  C   UNL A   1      39.885  26.137  28.209  1.00  0.00     0.029 A 
ATOM     49  N   UNL A   1      41.376  27.804  28.162  1.00  0.00    -0.354 N 
ATOM     50  C   UNL A   1      45.292  27.088  26.241  1.00  0.00     0.074 A 
ATOM     51  C   UNL A   1      45.310  25.782  25.625  1.00  0.00     0.031 C 
ATOM     52  C   UNL A   1      39.390  27.141  28.954  1.00  0.00     0.029 A 
ATOM     53  C   UNL A   1      40.367  28.223  28.999  1.00  0.00     0.049 A 
ATOM     54  H   UNL A   1      42.150  28.364  27.925  1.00  0.00     0.167 HD
ATOM     55  C   UNL A   1      46.338  27.942  26.251  1.00  0.00     0.034 A 
ATOM     56  C   UNL A   1      40.279  29.349  29.732  1.00  0.00     0.034 A 
ATOM     57  C   UNL A   1      46.258  29.243  26.848  1.00  0.00     0.049 A 
ATOM     58  C   UNL A   1      41.434  30.318  29.670  1.00  0.00     0.074 A 
ATOM     59  C   UNL A   1      47.193  30.258  26.839  1.00  0.00     0.029 A 
ATOM     60  N   UNL A   1      45.166  29.701  27.575  1.00  0.00    -0.354 N 
ATOM     61  N   UNL A   1      42.572  30.205  29.025  1.00  0.00    -0.248 NA
ATOM     62  C   UNL A   1      41.286  31.574  30.414  1.00  0.00     0.031 C 
ATOM     63  C   UNL A   1      46.674  31.322  27.585  1.00  0.00     0.029 A 
ATOM     64  C   UNL A   1      45.403  30.981  28.031  1.00  0.00     0.049 A 
ATOM     65  H   UNL A   1      44.342  29.187  27.739  1.00  0.00     0.167 HD
ATOM     66  C   UNL A   1      43.261  31.391  29.248  1.00  0.00     0.074 A 
ATOM     67  C   UNL A   1      42.402  32.212  30.082  1.00  0.00     0.031 C 
ATOM     68  C   UNL A   1      44.490  31.773  28.819  1.00  0.00     0.034 A 
BRANCH  55  69
ATOM     69  C   UNL A   1      47.613  27.487  25.593  1.00  0.00     0.023 A 
ATOM     70  C   UNL A   1      48.622  26.871  26.362  1.00  0.00     0.012 A 
ATOM     71  C   UNL A   1      47.823  27.689  24.216  1.00  0.00     0.148 A 
ATOM     72  C   UNL A   1      49.842  26.517  25.785  1.00  0.00     0.002 A 
ATOM     73  C   UNL A   1      49.019  27.282  23.636  1.00  0.00     0.091 A 
ATOM     74  F   UNL A   1      46.868  28.305  23.505  1.00  0.00    -0.205 F 
ATOM     75  C   UNL A   1      50.035  26.715  24.421  1.00  0.00     0.022 A 
BRANCH  73  76
ATOM     76  S   UNL A   1      49.336  27.417  21.874  1.00  0.00     0.127 S 
ATOM     77  O   UNL A   1      50.710  26.928  21.780  1.00  0.00    -0.237 OA
ATOM     78  O   UNL A   1      48.328  26.515  21.314  1.00  0.00    -0.237 OA
ATOM     79  O   UNL A   1      49.148  28.820  21.537  1.00  0.00    -0.744 OA
ENDBRANCH  73  76
ENDBRANCH  55  69
BRANCH  56  80
ATOM     80  C   UNL A   1      39.038  29.655  30.500  1.00  0.00     0.023 A 
ATOM     81  C   UNL A   1      38.831  29.002  31.732  1.00  0.00     0.012 A 
ATOM     82  C   UNL A   1      38.096  30.606  30.065  1.00  0.00     0.148 A 
ATOM     83  C   UNL A   1      37.697  29.268  32.501  1.00  0.00     0.002 A 
ATOM     84  C   UNL A   1      36.991  30.903  30.860  1.00  0.00     0.091 A 
ATOM     85  F   UNL A   1      38.306  31.217  28.890  1.00  0.00    -0.205 F 
ATOM     86  C   UNL A   1      36.781  30.223  32.070  1.00  0.00     0.022 A 
BRANCH  84  87
ATOM     87  S   UNL A   1      35.820  32.205  30.455  1.00  0.00     0.127 S 
ATOM     88  O   UNL A   1      35.144  31.649  29.285  1.00  0.00    -0.237 OA
ATOM     89  O   UNL A   1      35.004  32.264  31.668  1.00  0.00    -0.237 OA
ATOM     90  O   UNL A   1      36.622  33.397  30.211  1.00  0.00    -0.744 OA
ENDBRANCH  84  87
ENDBRANCH  56  80
BRANCH  68  91
ATOM     91  C   UNL A   1      44.960  33.147  29.208  1.00  0.00     0.023 A 
ATOM     92  C   UNL A   1      45.735  33.321  30.369  1.00  0.00     0.012 A 
ATOM     93  C   UNL A   1      44.719  34.243  28.357  1.00  0.00     0.148 A 
ATOM     94  C   UNL A   1      46.244  34.577  30.694  1.00  0.00     0.002 A 
ATOM     95  C   UNL A   1      45.277  35.478  28.657  1.00  0.00     0.091 A 
ATOM     96  F   UNL A   1      43.965  34.052  27.265  1.00  0.00    -0.205 F 
ATOM     97  C   UNL A   1      46.028  35.650  29.831  1.00  0.00     0.022 A 
BRANCH  95  98
ATOM     98  S   UNL A   1      45.146  36.884  27.548  1.00  0.00     0.127 S 
ATOM     99  O   UNL A   1      45.792  37.938  28.329  1.00  0.00    -0.237 OA
ATOM    100  O   UNL A   1      45.909  36.430  26.384  1.00  0.00    -0.237 OA
ATOM    101  O   UNL A   1      43.723  37.073  27.302  1.00  0.00    -0.744 OA
ENDBRANCH  95  98
ENDBRANCH  68  91
ENDBRANCH  42  43
ENDBRANCH  34  37
ENDBRANCH  32  33
ENDBRANCH  31  32
ENDBRANCH   1  31
TORSDOF 18
ENDMDL
MODEL 3
REMARK VINA RESULT:     -12.6      5.584     11.486
REMARK SMILES Cn1c(C[NH+](C)C)nnc1[C@@H]1CCC[N@@H+](Cc2ccccc2C(=O)NCCCNC(=O)c2ccc(-c3c4nc(c(-c5cccc(S(=O)(=O)[O-])c5F)c5ccc([nH]5)c(-c5cccc(S(=O)(=O)[O-])c5F)c5nc(c(-c6cccc(S(=O)(=O)[O-])c6F)c6ccc3[nH]6)C=C5)C=C4)cc2)C1
REMARK SMILES IDX 26 1 25 2 23 3 24 4 22 6 17 7 18 8 19 9 21 10 20 11 16 12
REMARK SMILES IDX 15 13 11 14 12 15 95 16 13 17 14 18 10 20 3 21 8 22 2 23
REMARK SMILES IDX 9 24 1 25 4 26 5 27 6 28 7 29 27 31 28 32 29 33 30 34 31 36
REMARK SMILES IDX 32 37 33 38 94 39 34 40 93 41 35 42 36 43 37 44 87 45 38 46
REMARK SMILES IDX 92 47 86 48 88 49 39 50 91 51 85 52 84 53 40 55 72 56 52 57
REMARK SMILES IDX 71 58 53 59 56 60 70 61 89 62 54 63 55 64 69 66 90 67 57 68
REMARK SMILES IDX 41 69 42 70 50 71 43 72 45 73 51 74 44 75 46 76 47 77 48 78
REMARK SMILES IDX 49 79 73 80 74 81 82 82 75 83 77 84 83 85 76 86 78 87 79 88
REMARK SMILES IDX 80 89 81 90 58 91 59 92 67 93 60 94 62 95 68 96 61 97 63 98
REMARK SMILES IDX 64 99 65 100 66 101
REMARK H PARENT 25 5 15 19 5 30 29 35 88 54 56 65
REMARK Flexibility Score: inf
ROOT
ATOM      1  C   UNL A   1      33.844  29.752  27.053  1.00  0.00     0.118 C 
ENDROOT
BRANCH   1   2
ATOM      2  N   UNL A   1      32.723  29.005  27.597  1.00  0.00    -0.352 N 
ATOM      3  C   UNL A   1      31.776  28.192  27.031  1.00  0.00     0.251 C 
ATOM      4  O   UNL A   1      31.075  27.540  27.813  1.00  0.00    -0.269 OA
ATOM      5  H   UNL A   1      32.623  29.103  28.572  1.00  0.00     0.163 HD
BRANCH   3   6
ATOM      6  C   UNL A   1      31.471  28.085  25.571  1.00  0.00     0.048 A 
ATOM      7  C   UNL A   1      31.404  26.942  24.751  1.00  0.00     0.019 A 
ATOM      8  C   UNL A   1      31.161  27.130  23.365  1.00  0.00     0.010 A 
ATOM      9  C   UNL A   1      30.868  28.378  22.822  1.00  0.00     0.001 A 
ATOM     10  C   UNL A   1      31.108  29.334  25.007  1.00  0.00     0.014 A 
ATOM     11  C   UNL A   1      30.797  29.479  23.656  1.00  0.00     0.001 A 
BRANCH   7  12
ATOM     12  C   UNL A   1      31.542  25.504  25.180  1.00  0.00     0.299 C 
BRANCH  12  13
ATOM     13  N   UNL A   1      32.796  24.803  24.922  1.00  0.00    -0.331 N 
ATOM     14  C   UNL A   1      33.961  23.057  23.656  1.00  0.00     0.113 C 
ATOM     15  C   UNL A   1      35.309  23.566  24.156  1.00  0.00     0.023 C 
ATOM     16  C   UNL A   1      32.943  24.188  23.612  1.00  0.00     0.274 C 
ATOM     17  C   UNL A   1      35.231  24.529  25.344  1.00  0.00     0.062 C 
ATOM     18  C   UNL A   1      34.017  25.480  25.342  1.00  0.00     0.262 C 
ATOM     19  H   UNL A   1      32.679  24.025  25.571  1.00  0.00     0.348 HD
BRANCH  14  20
ATOM     20  C   UNL A   1      33.418  21.792  24.287  1.00  0.00     0.141 A 
ATOM     21  C   UNL A   1      32.803  19.694  24.643  1.00  0.00     0.187 A 
ATOM     22  N   UNL A   1      33.246  20.201  25.773  1.00  0.00    -0.129 NA
ATOM     23  N   UNL A   1      32.771  20.713  23.717  1.00  0.00    -0.313 N 
ATOM     24  N   UNL A   1      33.655  21.486  25.549  1.00  0.00    -0.135 NA
ATOM     25  C   UNL A   1      32.086  20.612  22.465  1.00  0.00     0.153 C 
BRANCH  21  26
ATOM     26  C   UNL A   1      32.293  18.289  24.455  1.00  0.00     0.340 C 
BRANCH  26  27
ATOM     27  N   UNL A   1      33.220  17.215  24.777  1.00  0.00    -0.333 N 
ATOM     28  C   UNL A   1      32.868  16.130  25.649  1.00  0.00     0.332 C 
ATOM     29  C   UNL A   1      34.550  17.207  24.232  1.00  0.00     0.332 C 
ATOM     30  H   UNL A   1      32.328  17.684  24.624  1.00  0.00     0.348 HD
ENDBRANCH  26  27
ENDBRANCH  21  26
ENDBRANCH  14  20
ENDBRANCH  12  13
ENDBRANCH   7  12
ENDBRANCH   3   6
ENDBRANCH   1   2
BRANCH   1  31
ATOM     31  C   UNL A   1      34.095  31.107  27.694  1.00  0.00     0.042 C 
BRANCH  31  32
ATOM     32  C   UNL A   1      33.372  32.301  27.062  1.00  0.00     0.118 C 
BRANCH  32  33
ATOM     33  N   UNL A   1      32.710  33.277  27.928  1.00  0.00    -0.352 N 
ATOM     34  C   UNL A   1      33.264  34.172  28.833  1.00  0.00     0.251 C 
ATOM     35  H   UNL A   1      31.728  33.303  27.860  1.00  0.00     0.163 HD
ATOM     36  O   UNL A   1      32.714  35.219  29.139  1.00  0.00    -0.269 OA
BRANCH  34  37
ATOM     37  C   UNL A   1      34.502  33.825  29.540  1.00  0.00     0.039 A 
ATOM     38  C   UNL A   1      34.426  32.984  30.660  1.00  0.00     0.014 A 
ATOM     39  C   UNL A   1      35.724  34.299  29.093  1.00  0.00     0.014 A 
ATOM     40  C   UNL A   1      35.590  32.474  31.228  1.00  0.00     0.010 A 
ATOM     41  C   UNL A   1      36.879  33.739  29.594  1.00  0.00     0.010 A 
ATOM     42  C   UNL A   1      36.813  32.828  30.662  1.00  0.00    -0.014 A 
BRANCH  42  43
ATOM     43  C   UNL A   1      38.103  32.471  31.268  1.00  0.00     0.031 A 
ATOM     44  C   UNL A   1      38.842  31.352  30.605  1.00  0.00     0.074 A 
ATOM     45  C   UNL A   1      38.435  32.962  32.472  1.00  0.00     0.049 A 
ATOM     46  N   UNL A   1      39.778  30.585  31.078  1.00  0.00    -0.248 NA
ATOM     47  C   UNL A   1      38.389  30.996  29.245  1.00  0.00     0.031 C 
ATOM     48  C   UNL A   1      37.726  34.028  33.183  1.00  0.00     0.029 A 
ATOM     49  N   UNL A   1      39.417  32.573  33.342  1.00  0.00    -0.354 N 
ATOM     50  C   UNL A   1      39.970  29.607  30.112  1.00  0.00     0.074 A 
ATOM     51  C   UNL A   1      39.038  29.864  29.039  1.00  0.00     0.031 C 
ATOM     52  C   UNL A   1      38.280  34.187  34.397  1.00  0.00     0.029 A 
ATOM     53  C   UNL A   1      39.348  33.207  34.561  1.00  0.00     0.049 A 
ATOM     54  H   UNL A   1      40.104  31.905  33.118  1.00  0.00     0.167 HD
ATOM     55  C   UNL A   1      40.853  28.585  30.128  1.00  0.00     0.034 A 
ATOM     56  C   UNL A   1      40.062  32.984  35.681  1.00  0.00     0.034 A 
ATOM     57  C   UNL A   1      41.782  28.393  31.204  1.00  0.00     0.049 A 
ATOM     58  C   UNL A   1      41.089  31.880  35.648  1.00  0.00     0.074 A 
ATOM     59  C   UNL A   1      42.806  27.475  31.308  1.00  0.00     0.029 A 
ATOM     60  N   UNL A   1      41.784  29.142  32.374  1.00  0.00    -0.354 N 
ATOM     61  N   UNL A   1      41.372  31.044  34.676  1.00  0.00    -0.248 NA
ATOM     62  C   UNL A   1      41.911  31.702  36.852  1.00  0.00     0.031 C 
ATOM     63  C   UNL A   1      43.412  27.653  32.556  1.00  0.00     0.029 A 
ATOM     64  C   UNL A   1      42.785  28.703  33.215  1.00  0.00     0.049 A 
ATOM     65  H   UNL A   1      41.162  29.879  32.573  1.00  0.00     0.167 HD
ATOM     66  C   UNL A   1      42.431  30.267  35.130  1.00  0.00     0.074 A 
ATOM     67  C   UNL A   1      42.745  30.744  36.465  1.00  0.00     0.031 C 
ATOM     68  C   UNL A   1      43.084  29.248  34.517  1.00  0.00     0.034 A 
BRANCH  55  69
ATOM     69  C   UNL A   1      40.845  27.641  28.956  1.00  0.00     0.023 A 
ATOM     70  C   UNL A   1      39.932  26.567  28.922  1.00  0.00     0.012 A 
ATOM     71  C   UNL A   1      41.756  27.802  27.895  1.00  0.00     0.148 A 
ATOM     72  C   UNL A   1      39.964  25.636  27.884  1.00  0.00     0.002 A 
ATOM     73  C   UNL A   1      41.745  26.904  26.836  1.00  0.00     0.091 A 
ATOM     74  F   UNL A   1      42.640  28.810  27.958  1.00  0.00    -0.205 F 
ATOM     75  C   UNL A   1      40.865  25.810  26.838  1.00  0.00     0.022 A 
BRANCH  73  76
ATOM     76  S   UNL A   1      42.809  27.085  25.401  1.00  0.00     0.127 S 
ATOM     77  O   UNL A   1      42.241  28.268  24.757  1.00  0.00    -0.237 OA
ATOM     78  O   UNL A   1      44.119  27.296  26.018  1.00  0.00    -0.237 OA
ATOM     79  O   UNL A   1      42.685  25.844  24.648  1.00  0.00    -0.744 OA
ENDBRANCH  73  76
ENDBRANCH  55  69
BRANCH  56  80
ATOM     80  C   UNL A   1      39.893  33.864  36.873  1.00  0.00     0.023 A 
ATOM     81  C   UNL A   1      38.839  33.592  37.768  1.00  0.00     0.012 A 
ATOM     82  C   UNL A   1      40.777  34.922  37.161  1.00  0.00     0.148 A 
ATOM     83  C   UNL A   1      38.650  34.372  38.909  1.00  0.00     0.002 A 
ATOM     84  C   UNL A   1      40.612  35.666  38.326  1.00  0.00     0.091 A 
ATOM     85  F   UNL A   1      41.774  35.170  36.299  1.00  0.00    -0.205 F 
ATOM     86  C   UNL A   1      39.540  35.403  39.194  1.00  0.00     0.022 A 
BRANCH  84  87
ATOM     87  S   UNL A   1      41.776  36.933  38.847  1.00  0.00     0.127 S 
ATOM     88  O   UNL A   1      40.883  37.965  39.369  1.00  0.00    -0.237 OA
ATOM     89  O   UNL A   1      42.559  36.225  39.860  1.00  0.00    -0.237 OA
ATOM     90  O   UNL A   1      42.526  37.296  37.652  1.00  0.00    -0.744 OA
ENDBRANCH  84  87
ENDBRANCH  56  80
BRANCH  68  91
ATOM     91  C   UNL A   1      44.222  28.611  35.264  1.00  0.00     0.023 A 
ATOM     92  C   UNL A   1      45.513  29.163  35.180  1.00  0.00     0.012 A 
ATOM     93  C   UNL A   1      43.980  27.530  36.133  1.00  0.00     0.148 A 
ATOM     94  C   UNL A   1      46.557  28.630  35.933  1.00  0.00     0.002 A 
ATOM     95  C   UNL A   1      45.011  27.041  36.923  1.00  0.00     0.091 A 
ATOM     96  F   UNL A   1      42.743  27.013  36.183  1.00  0.00    -0.205 F 
ATOM     97  C   UNL A   1      46.303  27.580  36.814  1.00  0.00     0.022 A 
BRANCH  95  98
ATOM     98  S   UNL A   1      44.749  25.770  38.164  1.00  0.00     0.127 S 
ATOM     99  O   UNL A   1      44.069  26.521  39.218  1.00  0.00    -0.237 OA
ATOM    100  O   UNL A   1      43.902  24.813  37.451  1.00  0.00    -0.237 OA
ATOM    101  O   UNL A   1      46.072  25.267  38.511  1.00  0.00    -0.744 OA
ENDBRANCH  95  98
ENDBRANCH  68  91
ENDBRANCH  42  43
ENDBRANCH  34  37
ENDBRANCH  32  33
ENDBRANCH  31  32
ENDBRANCH   1  31
TORSDOF 18
ENDMDL
