MODEL 1
REMARK VINA RESULT:     -11.9      0.000      0.000
REMARK SMILES O=C(NCCCNC(=O)[C@H]1CSCN1C(=O)c1cccc2cccnc12)c1ccc(-c2c3nc(c(-c4cccc(S(=O)(=O)[O-])c4F)c4ccc([nH]4)c(-c4cccc(S(=O)(=O)[O-])c4F)c4nc(c(-c5cccc(S(=O)(=O)[O-])c5F)c5ccc2[nH]5)C=C4)C=C3)cc1
REMARK SMILES IDX 4 1 3 2 1 3 2 4 27 6 28 7 89 8 29 9 88 10 30 11 31 12 32 13
REMARK SMILES IDX 82 14 33 15 87 16 81 17 83 18 34 19 86 20 80 21 79 22 35 24
REMARK SMILES IDX 67 25 47 26 66 27 48 28 51 29 65 30 84 31 49 32 50 33 64 35
REMARK SMILES IDX 85 36 52 37 36 38 37 39 45 40 38 41 40 42 46 43 39 44 41 45
REMARK SMILES IDX 42 46 43 47 44 48 68 49 69 50 77 51 70 52 72 53 78 54 71 55
REMARK SMILES IDX 73 56 74 57 75 58 76 59 53 60 54 61 62 62 55 63 57 64 63 65
REMARK SMILES IDX 56 66 58 67 59 68 60 69 61 70 5 71 6 72 7 73 8 74 9 76 10 77
REMARK SMILES IDX 11 78 14 79 12 80 13 81 15 82 16 83 17 84 18 85 26 86 19 87
REMARK SMILES IDX 21 88 25 89 20 90 22 91 24 92 23 93
REMARK H PARENT 3 5 83 23 51 34 7 75
REMARK Flexibility Score: inf
ROOT
ATOM      1  C   UNL A   1      33.063  29.284  25.608  1.00  0.00     0.118 C 
ENDROOT
BRANCH   1   2
ATOM      2  N   UNL A   1      32.640  30.637  25.944  1.00  0.00    -0.352 N 
ATOM      3  O   UNL A   1      32.413  32.454  27.251  1.00  0.00    -0.269 OA
ATOM      4  C   UNL A   1      33.078  31.465  26.947  1.00  0.00     0.251 C 
ATOM      5  H   UNL A   1      31.936  31.013  25.368  1.00  0.00     0.163 HD
BRANCH   4   6
ATOM      6  C   UNL A   1      34.330  31.150  27.665  1.00  0.00     0.039 A 
ATOM      7  C   UNL A   1      35.328  32.120  27.806  1.00  0.00     0.014 A 
ATOM      8  C   UNL A   1      34.502  29.881  28.220  1.00  0.00     0.014 A 
ATOM      9  C   UNL A   1      36.555  31.778  28.354  1.00  0.00     0.010 A 
ATOM     10  C   UNL A   1      35.698  29.571  28.868  1.00  0.00     0.010 A 
ATOM     11  C   UNL A   1      36.743  30.507  28.914  1.00  0.00    -0.014 A 
BRANCH  11  12
ATOM     12  C   UNL A   1      38.005  30.198  29.627  1.00  0.00     0.031 A 
ATOM     13  C   UNL A   1      39.001  29.239  29.046  1.00  0.00     0.074 A 
ATOM     14  C   UNL A   1      38.213  30.751  30.837  1.00  0.00     0.049 A 
ATOM     15  N   UNL A   1      40.104  28.779  29.576  1.00  0.00    -0.248 NA
ATOM     16  C   UNL A   1      38.717  28.716  27.700  1.00  0.00     0.031 C 
ATOM     17  C   UNL A   1      37.293  31.671  31.510  1.00  0.00     0.029 A 
ATOM     18  N   UNL A   1      39.241  30.594  31.731  1.00  0.00    -0.354 N 
ATOM     19  C   UNL A   1      40.619  27.874  28.658  1.00  0.00     0.074 A 
ATOM     20  C   UNL A   1      39.706  27.849  27.535  1.00  0.00     0.031 C 
ATOM     21  C   UNL A   1      37.788  31.986  32.713  1.00  0.00     0.029 A 
ATOM     22  C   UNL A   1      39.022  31.240  32.925  1.00  0.00     0.049 A 
ATOM     23  H   UNL A   1      40.053  30.073  31.537  1.00  0.00     0.167 HD
ATOM     24  C   UNL A   1      41.751  27.135  28.745  1.00  0.00     0.034 A 
ATOM     25  C   UNL A   1      39.704  31.197  34.084  1.00  0.00     0.034 A 
ATOM     26  C   UNL A   1      42.655  27.185  29.863  1.00  0.00     0.049 A 
ATOM     27  C   UNL A   1      40.953  30.373  34.159  1.00  0.00     0.074 A 
ATOM     28  C   UNL A   1      43.867  26.537  30.018  1.00  0.00     0.029 A 
ATOM     29  N   UNL A   1      42.434  27.903  31.030  1.00  0.00    -0.354 N 
ATOM     30  N   UNL A   1      41.494  29.617  33.234  1.00  0.00    -0.248 NA
ATOM     31  C   UNL A   1      41.703  30.414  35.420  1.00  0.00     0.031 C 
ATOM     32  C   UNL A   1      44.357  26.829  31.295  1.00  0.00     0.029 A 
ATOM     33  C   UNL A   1      43.476  27.699  31.918  1.00  0.00     0.049 A 
ATOM     34  H   UNL A   1      41.651  28.475  31.201  1.00  0.00     0.167 HD
ATOM     35  C   UNL A   1      42.666  29.119  33.786  1.00  0.00     0.074 A 
ATOM     36  C   UNL A   1      42.760  29.664  35.127  1.00  0.00     0.031 C 
ATOM     37  C   UNL A   1      43.578  28.284  33.232  1.00  0.00     0.034 A 
BRANCH  24  38
ATOM     38  C   UNL A   1      42.072  26.208  27.600  1.00  0.00     0.023 A 
ATOM     39  C   UNL A   1      42.790  26.684  26.485  1.00  0.00     0.012 A 
ATOM     40  C   UNL A   1      41.684  24.854  27.642  1.00  0.00     0.148 A 
ATOM     41  C   UNL A   1      43.075  25.842  25.410  1.00  0.00     0.002 A 
ATOM     42  C   UNL A   1      42.014  24.009  26.588  1.00  0.00     0.091 A 
ATOM     43  F   UNL A   1      40.984  24.419  28.700  1.00  0.00    -0.205 F 
ATOM     44  C   UNL A   1      42.694  24.505  25.465  1.00  0.00     0.022 A 
BRANCH  42  45
ATOM     45  S   UNL A   1      41.636  22.253  26.609  1.00  0.00     0.127 S 
ATOM     46  O   UNL A   1      42.277  21.800  25.376  1.00  0.00    -0.237 OA
ATOM     47  O   UNL A   1      42.296  21.809  27.837  1.00  0.00    -0.237 OA
ATOM     48  O   UNL A   1      40.183  22.158  26.636  1.00  0.00    -0.744 OA
ENDBRANCH  42  45
ENDBRANCH  24  38
BRANCH  25  49
ATOM     49  C   UNL A   1      39.202  31.979  35.245  1.00  0.00     0.023 A 
ATOM     50  C   UNL A   1      38.348  31.369  36.181  1.00  0.00     0.012 A 
ATOM     51  C   UNL A   1      39.653  33.295  35.475  1.00  0.00     0.148 A 
ATOM     52  C   UNL A   1      37.940  32.060  37.322  1.00  0.00     0.002 A 
ATOM     53  C   UNL A   1      39.290  33.956  36.641  1.00  0.00     0.091 A 
ATOM     54  F   UNL A   1      40.467  33.853  34.568  1.00  0.00    -0.205 F 
ATOM     55  C   UNL A   1      38.420  33.346  37.559  1.00  0.00     0.022 A 
BRANCH  53  56
ATOM     56  S   UNL A   1      39.972  35.553  37.101  1.00  0.00     0.127 S 
ATOM     57  O   UNL A   1      39.278  35.823  38.357  1.00  0.00    -0.237 OA
ATOM     58  O   UNL A   1      41.395  35.240  37.237  1.00  0.00    -0.237 OA
ATOM     59  O   UNL A   1      39.653  36.453  36.001  1.00  0.00    -0.744 OA
ENDBRANCH  53  56
ENDBRANCH  25  49
BRANCH  37  60
ATOM     60  C   UNL A   1      44.800  27.939  34.042  1.00  0.00     0.023 A 
ATOM     61  C   UNL A   1      45.917  28.795  34.037  1.00  0.00     0.012 A 
ATOM     62  C   UNL A   1      44.784  26.821  34.898  1.00  0.00     0.148 A 
ATOM     63  C   UNL A   1      47.009  28.534  34.865  1.00  0.00     0.002 A 
ATOM     64  C   UNL A   1      45.850  26.596  35.757  1.00  0.00     0.091 A 
ATOM     65  F   UNL A   1      43.716  26.009  34.869  1.00  0.00    -0.205 F 
ATOM     66  C   UNL A   1      46.969  27.445  35.735  1.00  0.00     0.022 A 
BRANCH  64  67
ATOM     67  S   UNL A   1      45.843  25.285  36.984  1.00  0.00     0.127 S 
ATOM     68  O   UNL A   1      46.041  24.098  36.154  1.00  0.00    -0.237 OA
ATOM     69  O   UNL A   1      46.987  25.642  37.823  1.00  0.00    -0.237 OA
ATOM     70  O   UNL A   1      44.551  25.362  37.653  1.00  0.00    -0.744 OA
ENDBRANCH  64  67
ENDBRANCH  37  60
ENDBRANCH  11  12
ENDBRANCH   4   6
ENDBRANCH   1   2
BRANCH   1  71
ATOM     71  C   UNL A   1      32.057  28.245  26.070  1.00  0.00     0.042 C 
BRANCH  71  72
ATOM     72  C   UNL A   1      32.680  26.880  26.289  1.00  0.00     0.117 C 
BRANCH  72  73
ATOM     73  N   UNL A   1      31.716  25.919  26.786  1.00  0.00    -0.354 N 
ATOM     74  C   UNL A   1      31.685  24.562  26.671  1.00  0.00     0.243 C 
ATOM     75  H   UNL A   1      30.964  26.311  27.288  1.00  0.00     0.163 HD
ATOM     76  O   UNL A   1      30.646  23.995  27.031  1.00  0.00    -0.273 OA
BRANCH  74  77
ATOM     77  C   UNL A   1      32.778  23.776  25.920  1.00  0.00     0.185 C 
ATOM     78  C   UNL A   1      33.513  22.925  26.961  1.00  0.00     0.106 C 
ATOM     79  N   UNL A   1      32.343  22.939  24.796  1.00  0.00    -0.316 N 
ATOM     80  S   UNL A   1      33.657  21.246  26.303  1.00  0.00    -0.138 SA
ATOM     81  C   UNL A   1      33.040  21.680  24.674  1.00  0.00     0.190 C 
BRANCH  79  82
ATOM     82  C   UNL A   1      31.594  23.532  23.782  1.00  0.00     0.257 C 
ATOM     83  O   UNL A   1      30.653  22.955  23.242  1.00  0.00    -0.269 OA
BRANCH  82  84
ATOM     84  C   UNL A   1      32.018  24.842  23.238  1.00  0.00     0.066 A 
ATOM     85  C   UNL A   1      33.264  24.937  22.592  1.00  0.00     0.016 A 
ATOM     86  C   UNL A   1      31.116  25.911  23.270  1.00  0.00     0.083 A 
ATOM     87  C   UNL A   1      33.653  26.133  22.003  1.00  0.00     0.002 A 
ATOM     88  C   UNL A   1      31.519  27.108  22.637  1.00  0.00     0.001 A 
ATOM     89  N   UNL A   1      29.908  25.820  23.876  1.00  0.00    -0.255 NA
ATOM     90  C   UNL A   1      32.783  27.216  22.027  1.00  0.00     0.010 A 
ATOM     91  C   UNL A   1      30.624  28.186  22.615  1.00  0.00     0.012 A 
ATOM     92  C   UNL A   1      29.059  26.865  23.807  1.00  0.00     0.112 A 
ATOM     93  C   UNL A   1      29.368  28.060  23.195  1.00  0.00     0.021 A 
ENDBRANCH  82  84
ENDBRANCH  79  82
ENDBRANCH  74  77
ENDBRANCH  72  73
ENDBRANCH  71  72
ENDBRANCH   1  71
TORSDOF 15
ENDMDL
MODEL 2
REMARK VINA RESULT:     -11.8      2.834      8.474
REMARK SMILES O=C(NCCCNC(=O)[C@H]1CSCN1C(=O)c1cccc2cccnc12)c1ccc(-c2c3nc(c(-c4cccc(S(=O)(=O)[O-])c4F)c4ccc([nH]4)c(-c4cccc(S(=O)(=O)[O-])c4F)c4nc(c(-c5cccc(S(=O)(=O)[O-])c5F)c5ccc2[nH]5)C=C4)C=C3)cc1
REMARK SMILES IDX 4 1 3 2 1 3 2 4 27 6 28 7 89 8 29 9 88 10 30 11 31 12 32 13
REMARK SMILES IDX 82 14 33 15 87 16 81 17 83 18 34 19 86 20 80 21 79 22 35 24
REMARK SMILES IDX 67 25 47 26 66 27 48 28 51 29 65 30 84 31 49 32 50 33 64 35
REMARK SMILES IDX 85 36 52 37 36 38 37 39 45 40 38 41 40 42 46 43 39 44 41 45
REMARK SMILES IDX 42 46 43 47 44 48 68 49 69 50 77 51 70 52 72 53 78 54 71 55
REMARK SMILES IDX 73 56 74 57 75 58 76 59 53 60 54 61 62 62 55 63 57 64 63 65
REMARK SMILES IDX 56 66 58 67 59 68 60 69 61 70 5 71 6 72 7 73 8 74 9 76 10 77
REMARK SMILES IDX 11 78 14 79 12 80 13 81 15 82 16 83 17 84 18 85 26 86 19 87
REMARK SMILES IDX 21 88 25 89 20 90 22 91 24 92 23 93
REMARK H PARENT 3 5 83 23 51 34 7 75
REMARK Flexibility Score: inf
ROOT
ATOM      1  C   UNL A   1      34.118  28.899  26.246  1.00  0.00     0.118 C 
ENDROOT
BRANCH   1   2
ATOM      2  N   UNL A   1      33.946  30.276  26.688  1.00  0.00    -0.352 N 
ATOM      3  O   UNL A   1      34.149  32.025  28.088  1.00  0.00    -0.269 OA
ATOM      4  C   UNL A   1      34.617  30.970  27.664  1.00  0.00     0.251 C 
ATOM      5  H   UNL A   1      33.245  30.784  26.219  1.00  0.00     0.163 HD
BRANCH   4   6
ATOM      6  C   UNL A   1      35.882  30.434  28.207  1.00  0.00     0.039 A 
ATOM      7  C   UNL A   1      37.091  30.671  27.547  1.00  0.00     0.014 A 
ATOM      8  C   UNL A   1      35.863  29.707  29.398  1.00  0.00     0.014 A 
ATOM      9  C   UNL A   1      38.252  30.049  27.982  1.00  0.00     0.010 A 
ATOM     10  C   UNL A   1      37.052  29.172  29.895  1.00  0.00     0.010 A 
ATOM     11  C   UNL A   1      38.249  29.315  29.176  1.00  0.00    -0.014 A 
BRANCH  11  12
ATOM     12  C   UNL A   1      39.522  28.776  29.711  1.00  0.00     0.031 A 
ATOM     13  C   UNL A   1      40.247  29.477  30.821  1.00  0.00     0.074 A 
ATOM     14  C   UNL A   1      40.046  27.676  29.138  1.00  0.00     0.049 A 
ATOM     15  N   UNL A   1      41.415  29.203  31.339  1.00  0.00    -0.248 NA
ATOM     16  C   UNL A   1      39.582  30.645  31.419  1.00  0.00     0.031 C 
ATOM     17  C   UNL A   1      39.440  26.936  28.029  1.00  0.00     0.029 A 
ATOM     18  N   UNL A   1      41.219  27.010  29.381  1.00  0.00    -0.354 N 
ATOM     19  C   UNL A   1      41.653  30.191  32.284  1.00  0.00     0.074 A 
ATOM     20  C   UNL A   1      40.506  31.074  32.268  1.00  0.00     0.031 C 
ATOM     21  C   UNL A   1      40.249  25.928  27.677  1.00  0.00     0.029 A 
ATOM     22  C   UNL A   1      41.458  25.992  28.488  1.00  0.00     0.049 A 
ATOM     23  H   UNL A   1      41.828  27.236  30.121  1.00  0.00     0.167 HD
ATOM     24  C   UNL A   1      42.730  30.345  33.093  1.00  0.00     0.034 A 
ATOM     25  C   UNL A   1      42.550  25.227  28.300  1.00  0.00     0.034 A 
ATOM     26  C   UNL A   1      43.854  29.448  33.106  1.00  0.00     0.049 A 
ATOM     27  C   UNL A   1      43.730  25.415  29.204  1.00  0.00     0.074 A 
ATOM     28  C   UNL A   1      44.959  29.468  33.938  1.00  0.00     0.029 A 
ATOM     29  N   UNL A   1      44.033  28.386  32.231  1.00  0.00    -0.354 N 
ATOM     30  N   UNL A   1      43.888  26.278  30.179  1.00  0.00    -0.248 NA
ATOM     31  C   UNL A   1      44.869  24.510  29.009  1.00  0.00     0.031 C 
ATOM     32  C   UNL A   1      45.825  28.445  33.537  1.00  0.00     0.029 A 
ATOM     33  C   UNL A   1      45.238  27.756  32.487  1.00  0.00     0.049 A 
ATOM     34  H   UNL A   1      43.395  28.120  31.530  1.00  0.00     0.167 HD
ATOM     35  C   UNL A   1      45.128  26.000  30.737  1.00  0.00     0.074 A 
ATOM     36  C   UNL A   1      45.678  24.882  29.994  1.00  0.00     0.031 C 
ATOM     37  C   UNL A   1      45.752  26.616  31.769  1.00  0.00     0.034 A 
BRANCH  24  38
ATOM     38  C   UNL A   1      42.741  31.529  34.026  1.00  0.00     0.023 A 
ATOM     39  C   UNL A   1      43.269  32.763  33.597  1.00  0.00     0.012 A 
ATOM     40  C   UNL A   1      42.199  31.426  35.324  1.00  0.00     0.148 A 
ATOM     41  C   UNL A   1      43.304  33.859  34.459  1.00  0.00     0.002 A 
ATOM     42  C   UNL A   1      42.194  32.536  36.160  1.00  0.00     0.091 A 
ATOM     43  F   UNL A   1      41.718  30.240  35.725  1.00  0.00    -0.205 F 
ATOM     44  C   UNL A   1      42.761  33.749  35.734  1.00  0.00     0.022 A 
BRANCH  42  45
ATOM     45  S   UNL A   1      41.442  32.509  37.790  1.00  0.00     0.127 S 
ATOM     46  O   UNL A   1      42.267  31.518  38.478  1.00  0.00    -0.237 OA
ATOM     47  O   UNL A   1      41.640  33.887  38.245  1.00  0.00    -0.237 OA
ATOM     48  O   UNL A   1      40.050  32.137  37.582  1.00  0.00    -0.744 OA
ENDBRANCH  42  45
ENDBRANCH  24  38
BRANCH  25  49
ATOM     49  C   UNL A   1      42.542  24.216  27.209  1.00  0.00     0.023 A 
ATOM     50  C   UNL A   1      43.203  24.489  25.999  1.00  0.00     0.012 A 
ATOM     51  C   UNL A   1      41.966  22.945  27.412  1.00  0.00     0.148 A 
ATOM     52  C   UNL A   1      43.281  23.518  25.001  1.00  0.00     0.002 A 
ATOM     53  C   UNL A   1      42.098  21.964  26.438  1.00  0.00     0.091 A 
ATOM     54  F   UNL A   1      41.342  22.710  28.575  1.00  0.00    -0.205 F 
ATOM     55  C   UNL A   1      42.742  22.253  25.225  1.00  0.00     0.022 A 
BRANCH  53  56
ATOM     56  S   UNL A   1      41.564  20.268  26.695  1.00  0.00     0.127 S 
ATOM     57  O   UNL A   1      40.125  20.432  26.878  1.00  0.00    -0.237 OA
ATOM     58  O   UNL A   1      41.959  19.638  25.434  1.00  0.00    -0.237 OA
ATOM     59  O   UNL A   1      42.295  19.794  27.862  1.00  0.00    -0.744 OA
ENDBRANCH  53  56
ENDBRANCH  25  49
BRANCH  37  60
ATOM     60  C   UNL A   1      47.086  26.074  32.210  1.00  0.00     0.023 A 
ATOM     61  C   UNL A   1      47.164  25.191  33.304  1.00  0.00     0.012 A 
ATOM     62  C   UNL A   1      48.244  26.354  31.458  1.00  0.00     0.148 A 
ATOM     63  C   UNL A   1      48.381  24.605  33.651  1.00  0.00     0.002 A 
ATOM     64  C   UNL A   1      49.440  25.727  31.777  1.00  0.00     0.091 A 
ATOM     65  F   UNL A   1      48.147  27.214  30.434  1.00  0.00    -0.205 F 
ATOM     66  C   UNL A   1      49.514  24.860  32.880  1.00  0.00     0.022 A 
BRANCH  64  67
ATOM     67  S   UNL A   1      50.922  25.911  30.781  1.00  0.00     0.127 S 
ATOM     68  O   UNL A   1      51.908  25.180  31.575  1.00  0.00    -0.237 OA
ATOM     69  O   UNL A   1      50.536  25.255  29.531  1.00  0.00    -0.237 OA
ATOM     70  O   UNL A   1      51.160  27.344  30.667  1.00  0.00    -0.744 OA
ENDBRANCH  64  67
ENDBRANCH  37  60
ENDBRANCH  11  12
ENDBRANCH   4   6
ENDBRANCH   1   2
BRANCH   1  71
ATOM     71  C   UNL A   1      33.161  27.954  26.950  1.00  0.00     0.042 C 
BRANCH  71  72
ATOM     72  C   UNL A   1      32.873  26.701  26.146  1.00  0.00     0.117 C 
BRANCH  72  73
ATOM     73  N   UNL A   1      31.624  26.080  26.541  1.00  0.00    -0.354 N 
ATOM     74  C   UNL A   1      30.519  25.779  25.804  1.00  0.00     0.243 C 
ATOM     75  H   UNL A   1      31.567  25.837  27.493  1.00  0.00     0.163 HD
ATOM     76  O   UNL A   1      29.513  25.419  26.428  1.00  0.00    -0.273 OA
BRANCH  74  77
ATOM     77  C   UNL A   1      30.427  26.087  24.296  1.00  0.00     0.185 C 
ATOM     78  C   UNL A   1      30.442  27.613  24.149  1.00  0.00     0.106 C 
ATOM     79  N   UNL A   1      31.447  25.484  23.430  1.00  0.00    -0.316 N 
ATOM     80  S   UNL A   1      31.635  28.034  22.856  1.00  0.00    -0.138 SA
ATOM     81  C   UNL A   1      31.903  26.330  22.353  1.00  0.00     0.190 C 
BRANCH  79  82
ATOM     82  C   UNL A   1      31.625  24.104  23.483  1.00  0.00     0.257 C 
ATOM     83  O   UNL A   1      30.688  23.319  23.359  1.00  0.00    -0.269 OA
BRANCH  82  84
ATOM     84  C   UNL A   1      32.955  23.556  23.833  1.00  0.00     0.066 A 
ATOM     85  C   UNL A   1      33.982  23.607  22.873  1.00  0.00     0.016 A 
ATOM     86  C   UNL A   1      33.185  23.122  25.142  1.00  0.00     0.083 A 
ATOM     87  C   UNL A   1      35.261  23.174  23.198  1.00  0.00     0.002 A 
ATOM     88  C   UNL A   1      34.500  22.714  25.460  1.00  0.00     0.001 A 
ATOM     89  N   UNL A   1      32.204  23.085  26.074  1.00  0.00    -0.255 NA
ATOM     90  C   UNL A   1      35.519  22.727  24.488  1.00  0.00     0.010 A 
ATOM     91  C   UNL A   1      34.776  22.311  26.773  1.00  0.00     0.012 A 
ATOM     92  C   UNL A   1      32.511  22.723  27.336  1.00  0.00     0.112 A 
ATOM     93  C   UNL A   1      33.771  22.330  27.733  1.00  0.00     0.021 A 
ENDBRANCH  82  84
ENDBRANCH  79  82
ENDBRANCH  74  77
ENDBRANCH  72  73
ENDBRANCH  71  72
ENDBRANCH   1  71
TORSDOF 15
ENDMDL
MODEL 3
REMARK VINA RESULT:     -11.8      2.340      8.445
REMARK SMILES O=C(NCCCNC(=O)[C@H]1CSCN1C(=O)c1cccc2cccnc12)c1ccc(-c2c3nc(c(-c4cccc(S(=O)(=O)[O-])c4F)c4ccc([nH]4)c(-c4cccc(S(=O)(=O)[O-])c4F)c4nc(c(-c5cccc(S(=O)(=O)[O-])c5F)c5ccc2[nH]5)C=C4)C=C3)cc1
REMARK SMILES IDX 4 1 3 2 1 3 2 4 27 6 28 7 89 8 29 9 88 10 30 11 31 12 32 13
REMARK SMILES IDX 82 14 33 15 87 16 81 17 83 18 34 19 86 20 80 21 79 22 35 24
REMARK SMILES IDX 67 25 47 26 66 27 48 28 51 29 65 30 84 31 49 32 50 33 64 35
REMARK SMILES IDX 85 36 52 37 36 38 37 39 45 40 38 41 40 42 46 43 39 44 41 45
REMARK SMILES IDX 42 46 43 47 44 48 68 49 69 50 77 51 70 52 72 53 78 54 71 55
REMARK SMILES IDX 73 56 74 57 75 58 76 59 53 60 54 61 62 62 55 63 57 64 63 65
REMARK SMILES IDX 56 66 58 67 59 68 60 69 61 70 5 71 6 72 7 73 8 74 9 76 10 77
REMARK SMILES IDX 11 78 14 79 12 80 13 81 15 82 16 83 17 84 18 85 26 86 19 87
REMARK SMILES IDX 21 88 25 89 20 90 22 91 24 92 23 93
REMARK H PARENT 3 5 83 23 51 34 7 75
REMARK Flexibility Score: inf
ROOT
ATOM      1  C   UNL A   1      34.012  28.717  26.341  1.00  0.00     0.118 C 
ENDROOT
BRANCH   1   2
ATOM      2  N   UNL A   1      33.911  30.134  26.661  1.00  0.00    -0.352 N 
ATOM      3  O   UNL A   1      34.231  31.991  27.892  1.00  0.00    -0.269 OA
ATOM      4  C   UNL A   1      34.641  30.882  27.551  1.00  0.00     0.251 C 
ATOM      5  H   UNL A   1      33.217  30.629  26.169  1.00  0.00     0.163 HD
BRANCH   4   6
ATOM      6  C   UNL A   1      35.900  30.342  28.104  1.00  0.00     0.039 A 
ATOM      7  C   UNL A   1      37.101  30.492  27.405  1.00  0.00     0.014 A 
ATOM      8  C   UNL A   1      35.884  29.699  29.343  1.00  0.00     0.014 A 
ATOM      9  C   UNL A   1      38.251  29.863  27.859  1.00  0.00     0.010 A 
ATOM     10  C   UNL A   1      37.067  29.159  29.851  1.00  0.00     0.010 A 
ATOM     11  C   UNL A   1      38.251  29.211  29.100  1.00  0.00    -0.014 A 
BRANCH  11  12
ATOM     12  C   UNL A   1      39.517  28.668  29.644  1.00  0.00     0.031 A 
ATOM     13  C   UNL A   1      40.240  29.369  30.755  1.00  0.00     0.074 A 
ATOM     14  C   UNL A   1      40.038  27.562  29.080  1.00  0.00     0.049 A 
ATOM     15  N   UNL A   1      41.404  29.091  31.282  1.00  0.00    -0.248 NA
ATOM     16  C   UNL A   1      39.580  30.545  31.343  1.00  0.00     0.031 C 
ATOM     17  C   UNL A   1      39.433  26.819  27.971  1.00  0.00     0.029 A 
ATOM     18  N   UNL A   1      41.205  26.889  29.333  1.00  0.00    -0.354 N 
ATOM     19  C   UNL A   1      41.643  30.082  32.223  1.00  0.00     0.074 A 
ATOM     20  C   UNL A   1      40.501  30.972  32.196  1.00  0.00     0.031 C 
ATOM     21  C   UNL A   1      40.238  25.806  27.629  1.00  0.00     0.029 A 
ATOM     22  C   UNL A   1      41.443  25.866  28.446  1.00  0.00     0.049 A 
ATOM     23  H   UNL A   1      41.811  27.115  30.075  1.00  0.00     0.167 HD
ATOM     24  C   UNL A   1      42.715  30.233  33.037  1.00  0.00     0.034 A 
ATOM     25  C   UNL A   1      42.531  25.093  28.268  1.00  0.00     0.034 A 
ATOM     26  C   UNL A   1      43.834  29.330  33.061  1.00  0.00     0.049 A 
ATOM     27  C   UNL A   1      43.707  25.278  29.178  1.00  0.00     0.074 A 
ATOM     28  C   UNL A   1      44.934  29.346  33.900  1.00  0.00     0.029 A 
ATOM     29  N   UNL A   1      44.011  28.262  32.192  1.00  0.00    -0.354 N 
ATOM     30  N   UNL A   1      43.865  26.144  30.150  1.00  0.00    -0.248 NA
ATOM     31  C   UNL A   1      44.841  24.365  28.993  1.00  0.00     0.031 C 
ATOM     32  C   UNL A   1      45.797  28.316  33.508  1.00  0.00     0.029 A 
ATOM     33  C   UNL A   1      45.211  27.626  32.459  1.00  0.00     0.049 A 
ATOM     34  H   UNL A   1      43.375  27.996  31.489  1.00  0.00     0.167 HD
ATOM     35  C   UNL A   1      45.100  25.861  30.716  1.00  0.00     0.074 A 
ATOM     36  C   UNL A   1      45.648  24.737  29.981  1.00  0.00     0.031 C 
ATOM     37  C   UNL A   1      45.722  26.479  31.748  1.00  0.00     0.034 A 
BRANCH  24  38
ATOM     38  C   UNL A   1      42.728  31.421  33.965  1.00  0.00     0.023 A 
ATOM     39  C   UNL A   1      43.278  32.647  33.537  1.00  0.00     0.012 A 
ATOM     40  C   UNL A   1      42.168  31.332  35.255  1.00  0.00     0.148 A 
ATOM     41  C   UNL A   1      43.315  33.747  34.394  1.00  0.00     0.002 A 
ATOM     42  C   UNL A   1      42.165  32.446  36.085  1.00  0.00     0.091 A 
ATOM     43  F   UNL A   1      41.667  30.154  35.656  1.00  0.00    -0.205 F 
ATOM     44  C   UNL A   1      42.753  33.650  35.662  1.00  0.00     0.022 A 
BRANCH  42  45
ATOM     45  S   UNL A   1      41.391  32.437  37.706  1.00  0.00     0.127 S 
ATOM     46  O   UNL A   1      40.032  32.009  37.380  1.00  0.00    -0.237 OA
ATOM     47  O   UNL A   1      42.187  31.440  38.423  1.00  0.00    -0.237 OA
ATOM     48  O   UNL A   1      41.520  33.794  38.217  1.00  0.00    -0.744 OA
ENDBRANCH  42  45
ENDBRANCH  24  38
BRANCH  25  49
ATOM     49  C   UNL A   1      42.523  24.077  27.182  1.00  0.00     0.023 A 
ATOM     50  C   UNL A   1      43.177  24.348  25.967  1.00  0.00     0.012 A 
ATOM     51  C   UNL A   1      41.955  22.803  27.394  1.00  0.00     0.148 A 
ATOM     52  C   UNL A   1      43.255  23.372  24.974  1.00  0.00     0.002 A 
ATOM     53  C   UNL A   1      42.087  21.819  26.424  1.00  0.00     0.091 A 
ATOM     54  F   UNL A   1      41.339  22.571  28.562  1.00  0.00    -0.205 F 
ATOM     55  C   UNL A   1      42.723  22.106  25.206  1.00  0.00     0.022 A 
BRANCH  53  56
ATOM     56  S   UNL A   1      41.564  20.121  26.692  1.00  0.00     0.127 S 
ATOM     57  O   UNL A   1      40.134  20.284  26.937  1.00  0.00    -0.237 OA
ATOM     58  O   UNL A   1      41.905  19.500  25.411  1.00  0.00    -0.237 OA
ATOM     59  O   UNL A   1      42.344  19.639  27.824  1.00  0.00    -0.744 OA
ENDBRANCH  53  56
ENDBRANCH  25  49
BRANCH  37  60
ATOM     60  C   UNL A   1      47.050  25.931  32.200  1.00  0.00     0.023 A 
ATOM     61  C   UNL A   1      48.245  26.413  31.633  1.00  0.00     0.012 A 
ATOM     62  C   UNL A   1      47.107  25.020  33.273  1.00  0.00     0.148 A 
ATOM     63  C   UNL A   1      49.479  25.985  32.121  1.00  0.00     0.002 A 
ATOM     64  C   UNL A   1      48.338  24.638  33.788  1.00  0.00     0.091 A 
ATOM     65  F   UNL A   1      45.954  24.560  33.782  1.00  0.00    -0.205 F 
ATOM     66  C   UNL A   1      49.526  25.112  33.207  1.00  0.00     0.022 A 
BRANCH  64  67
ATOM     67  S   UNL A   1      48.496  23.604  35.247  1.00  0.00     0.127 S 
ATOM     68  O   UNL A   1      49.948  23.502  35.384  1.00  0.00    -0.237 OA
ATOM     69  O   UNL A   1      47.841  24.415  36.272  1.00  0.00    -0.237 OA
ATOM     70  O   UNL A   1      47.816  22.354  34.933  1.00  0.00    -0.744 OA
ENDBRANCH  64  67
ENDBRANCH  37  60
ENDBRANCH  11  12
ENDBRANCH   4   6
ENDBRANCH   1   2
BRANCH   1  71
ATOM     71  C   UNL A   1      32.930  27.903  27.026  1.00  0.00     0.042 C 
BRANCH  71  72
ATOM     72  C   UNL A   1      32.517  26.682  26.226  1.00  0.00     0.117 C 
BRANCH  72  73
ATOM     73  N   UNL A   1      31.227  26.173  26.645  1.00  0.00    -0.354 N 
ATOM     74  C   UNL A   1      30.428  25.224  26.080  1.00  0.00     0.243 C 
ATOM     75  H   UNL A   1      30.871  26.577  27.470  1.00  0.00     0.163 HD
ATOM     76  O   UNL A   1      29.286  25.110  26.541  1.00  0.00    -0.273 OA
BRANCH  74  77
ATOM     77  C   UNL A   1      30.821  24.485  24.785  1.00  0.00     0.185 C 
ATOM     78  C   UNL A   1      30.709  25.497  23.640  1.00  0.00     0.106 C 
ATOM     79  N   UNL A   1      32.137  23.835  24.762  1.00  0.00    -0.316 N 
ATOM     80  S   UNL A   1      32.214  25.375  22.644  1.00  0.00    -0.138 SA
ATOM     81  C   UNL A   1      32.832  23.922  23.500  1.00  0.00     0.190 C 
BRANCH  79  82
ATOM     82  C   UNL A   1      32.444  22.931  25.776  1.00  0.00     0.257 C 
ATOM     83  O   UNL A   1      32.307  23.211  26.964  1.00  0.00    -0.269 OA
BRANCH  82  84
ATOM     84  C   UNL A   1      33.080  21.640  25.429  1.00  0.00     0.066 A 
ATOM     85  C   UNL A   1      32.264  20.575  25.005  1.00  0.00     0.016 A 
ATOM     86  C   UNL A   1      34.476  21.557  25.413  1.00  0.00     0.083 A 
ATOM     87  C   UNL A   1      32.838  19.378  24.598  1.00  0.00     0.002 A 
ATOM     88  C   UNL A   1      35.039  20.340  24.966  1.00  0.00     0.001 A 
ATOM     89  N   UNL A   1      35.266  22.583  25.805  1.00  0.00    -0.255 NA
ATOM     90  C   UNL A   1      34.223  19.260  24.580  1.00  0.00     0.010 A 
ATOM     91  C   UNL A   1      36.435  20.236  24.898  1.00  0.00     0.012 A 
ATOM     92  C   UNL A   1      36.604  22.461  25.696  1.00  0.00     0.112 A 
ATOM     93  C   UNL A   1      37.232  21.316  25.254  1.00  0.00     0.021 A 
ENDBRANCH  82  84
ENDBRANCH  79  82
ENDBRANCH  74  77
ENDBRANCH  72  73
ENDBRANCH  71  72
ENDBRANCH   1  71
TORSDOF 15
ENDMDL
