MODEL 1
REMARK VINA RESULT:     -11.3      0.000      0.000
REMARK SMILES CC[N@H+](CC(C)(C)C(=O)NCCCNC(=O)c1ccc(-c2c3nc(c(-c4cccc(S(=O)(=O)[O-])c4F)c4ccc([nH]4)c(-c4cccc(S(=O)(=O)[O-])c4F)c4nc(c(-c5cccc(S(=O)(=O)[O-])c5F)c5ccc2[nH]5)C=C4)C=C3)cc1)[C@H]1CCC[NH2+]C1
REMARK SMILES IDX 12 1 11 2 10 3 8 4 9 5 5 7 6 8 7 9 4 10 3 11 2 13 1 14 80 15
REMARK SMILES IDX 81 16 85 17 82 18 84 19 83 20 13 23 14 24 15 25 16 27 17 28
REMARK SMILES IDX 18 29 79 30 19 31 78 32 20 33 21 34 22 35 72 36 23 37 77 38
REMARK SMILES IDX 71 39 73 40 24 41 76 42 70 43 69 44 25 46 57 47 37 48 56 49
REMARK SMILES IDX 38 50 41 51 55 52 74 53 39 54 40 55 54 57 75 58 42 59 26 60
REMARK SMILES IDX 27 61 35 62 28 63 30 64 36 65 29 66 31 67 32 68 33 69 34 70
REMARK SMILES IDX 58 71 59 72 67 73 60 74 62 75 68 76 61 77 63 78 64 79 65 80
REMARK SMILES IDX 66 81 43 82 44 83 52 84 45 85 47 86 53 87 46 88 48 89 49 90
REMARK SMILES IDX 50 91 51 92
REMARK H PARENT 10 6 3 12 84 21 84 22 14 26 73 45 41 56
REMARK Flexibility Score: inf
ROOT
ATOM      1  C   UNL A   1      31.409  31.984  26.480  1.00  0.00     0.042 C 
ENDROOT
BRANCH   1   2
ATOM      2  C   UNL A   1      31.551  30.558  25.968  1.00  0.00     0.117 C 
BRANCH   2   3
ATOM      3  N   UNL A   1      31.758  29.642  27.071  1.00  0.00    -0.355 N 
ATOM      4  C   UNL A   1      31.768  28.286  27.092  1.00  0.00     0.231 C 
ATOM      5  O   UNL A   1      31.346  27.770  28.132  1.00  0.00    -0.274 OA
ATOM      6  H   UNL A   1      31.919  30.072  27.943  1.00  0.00     0.163 HD
BRANCH   4   7
ATOM      7  C   UNL A   1      32.247  27.449  25.899  1.00  0.00     0.092 C 
ATOM      8  C   UNL A   1      32.807  26.064  26.269  1.00  0.00     0.027 C 
ATOM      9  C   UNL A   1      33.313  28.284  25.156  1.00  0.00     0.027 C 
BRANCH   7  10
ATOM     10  C   UNL A   1      31.052  27.233  24.903  1.00  0.00     0.279 C 
BRANCH  10  11
ATOM     11  N   UNL A   1      31.319  27.196  23.440  1.00  0.00    -0.327 N 
ATOM     12  H   UNL A   1      32.255  27.588  23.335  1.00  0.00     0.348 HD
BRANCH  11  13
ATOM     13  C   UNL A   1      31.355  25.821  22.903  1.00  0.00     0.259 C 
ATOM     14  C   UNL A   1      30.546  24.788  23.687  1.00  0.00     0.071 C 
ENDBRANCH  11  13
BRANCH  11  15
ATOM     15  C   UNL A   1      30.407  28.068  22.646  1.00  0.00     0.239 C 
ATOM     16  C   UNL A   1      29.047  28.454  23.268  1.00  0.00     0.077 C 
ATOM     17  C   UNL A   1      31.181  29.357  22.269  1.00  0.00     0.326 C 
ATOM     18  C   UNL A   1      28.291  29.405  22.344  1.00  0.00     0.068 C 
ATOM     19  N   UNL A   1      30.410  30.255  21.396  1.00  0.00    -0.341 N 
ATOM     20  C   UNL A   1      29.138  30.630  22.012  1.00  0.00     0.260 C 
ATOM     21  H   UNL A   1      30.956  31.097  21.220  1.00  0.00     0.346 HD
ATOM     22  H   UNL A   1      30.212  29.764  20.524  1.00  0.00     0.346 HD
ENDBRANCH  11  15
ENDBRANCH  10  11
ENDBRANCH   7  10
ENDBRANCH   4   7
ENDBRANCH   2   3
ENDBRANCH   1   2
BRANCH   1  23
ATOM     23  C   UNL A   1      32.671  32.518  27.142  1.00  0.00     0.118 C 
BRANCH  23  24
ATOM     24  N   UNL A   1      32.529  33.906  27.563  1.00  0.00    -0.352 N 
ATOM     25  C   UNL A   1      33.156  34.571  28.584  1.00  0.00     0.251 C 
ATOM     26  H   UNL A   1      31.891  34.443  27.039  1.00  0.00     0.163 HD
ATOM     27  O   UNL A   1      32.742  35.671  28.945  1.00  0.00    -0.269 OA
BRANCH  25  28
ATOM     28  C   UNL A   1      34.320  33.954  29.250  1.00  0.00     0.039 A 
ATOM     29  C   UNL A   1      35.607  34.368  28.901  1.00  0.00     0.014 A 
ATOM     30  C   UNL A   1      34.137  32.964  30.219  1.00  0.00     0.014 A 
ATOM     31  C   UNL A   1      36.708  33.819  29.561  1.00  0.00     0.010 A 
ATOM     32  C   UNL A   1      35.224  32.498  30.946  1.00  0.00     0.010 A 
ATOM     33  C   UNL A   1      36.524  32.898  30.606  1.00  0.00    -0.014 A 
BRANCH  33  34
ATOM     34  C   UNL A   1      37.675  32.307  31.333  1.00  0.00     0.031 A 
ATOM     35  C   UNL A   1      38.449  31.174  30.710  1.00  0.00     0.074 A 
ATOM     36  C   UNL A   1      37.972  32.733  32.576  1.00  0.00     0.049 A 
ATOM     37  N   UNL A   1      39.440  30.482  31.209  1.00  0.00    -0.248 NA
ATOM     38  C   UNL A   1      38.036  30.741  29.364  1.00  0.00     0.031 C 
ATOM     39  C   UNL A   1      37.246  33.768  33.316  1.00  0.00     0.029 A 
ATOM     40  N   UNL A   1      38.949  32.326  33.450  1.00  0.00    -0.354 N 
ATOM     41  C   UNL A   1      39.737  29.509  30.262  1.00  0.00     0.074 A 
ATOM     42  C   UNL A   1      38.796  29.672  29.177  1.00  0.00     0.031 C 
ATOM     43  C   UNL A   1      37.808  33.920  34.526  1.00  0.00     0.029 A 
ATOM     44  C   UNL A   1      38.910  32.972  34.663  1.00  0.00     0.049 A 
ATOM     45  H   UNL A   1      39.616  31.635  33.228  1.00  0.00     0.167 HD
ATOM     46  C   UNL A   1      40.723  28.583  30.276  1.00  0.00     0.034 A 
ATOM     47  C   UNL A   1      39.669  32.812  35.764  1.00  0.00     0.034 A 
ATOM     48  C   UNL A   1      41.686  28.457  31.335  1.00  0.00     0.049 A 
ATOM     49  C   UNL A   1      40.787  31.805  35.736  1.00  0.00     0.074 A 
ATOM     50  C   UNL A   1      42.779  27.612  31.408  1.00  0.00     0.029 A 
ATOM     51  N   UNL A   1      41.669  29.193  32.509  1.00  0.00    -0.354 N 
ATOM     52  N   UNL A   1      41.147  30.996  34.769  1.00  0.00    -0.248 NA
ATOM     53  C   UNL A   1      41.632  31.716  36.936  1.00  0.00     0.031 C 
ATOM     54  C   UNL A   1      43.405  27.815  32.641  1.00  0.00     0.029 A 
ATOM     55  C   UNL A   1      42.727  28.818  33.317  1.00  0.00     0.049 A 
ATOM     56  H   UNL A   1      41.002  29.881  32.735  1.00  0.00     0.167 HD
ATOM     57  C   UNL A   1      42.283  30.337  35.224  1.00  0.00     0.074 A 
ATOM     58  C   UNL A   1      42.562  30.854  36.548  1.00  0.00     0.031 C 
ATOM     59  C   UNL A   1      43.025  29.385  34.607  1.00  0.00     0.034 A 
BRANCH  46  60
ATOM     60  C   UNL A   1      40.842  27.662  29.089  1.00  0.00     0.023 A 
ATOM     61  C   UNL A   1      40.025  26.515  29.008  1.00  0.00     0.012 A 
ATOM     62  C   UNL A   1      41.717  27.962  28.027  1.00  0.00     0.148 A 
ATOM     63  C   UNL A   1      40.102  25.663  27.908  1.00  0.00     0.002 A 
ATOM     64  C   UNL A   1      41.752  27.136  26.910  1.00  0.00     0.091 A 
ATOM     65  F   UNL A   1      42.501  29.044  28.131  1.00  0.00    -0.205 F 
ATOM     66  C   UNL A   1      40.956  25.979  26.856  1.00  0.00     0.022 A 
BRANCH  64  67
ATOM     67  S   UNL A   1      42.752  27.500  25.464  1.00  0.00     0.127 S 
ATOM     68  O   UNL A   1      42.119  28.722  24.968  1.00  0.00    -0.237 OA
ATOM     69  O   UNL A   1      44.078  27.695  26.049  1.00  0.00    -0.237 OA
ATOM     70  O   UNL A   1      42.635  26.341  24.590  1.00  0.00    -0.744 OA
ENDBRANCH  64  67
ENDBRANCH  46  60
BRANCH  47  71
ATOM     71  C   UNL A   1      39.439  33.665  36.964  1.00  0.00     0.023 A 
ATOM     72  C   UNL A   1      39.884  35.002  36.962  1.00  0.00     0.012 A 
ATOM     73  C   UNL A   1      38.775  33.166  38.102  1.00  0.00     0.148 A 
ATOM     74  C   UNL A   1      39.712  35.812  38.085  1.00  0.00     0.002 A 
ATOM     75  C   UNL A   1      38.554  33.995  39.194  1.00  0.00     0.091 A 
ATOM     76  F   UNL A   1      38.364  31.890  38.087  1.00  0.00    -0.205 F 
ATOM     77  C   UNL A   1      39.039  35.312  39.197  1.00  0.00     0.022 A 
BRANCH  75  78
ATOM     78  S   UNL A   1      37.587  33.478  40.616  1.00  0.00     0.127 S 
ATOM     79  O   UNL A   1      37.509  34.713  41.391  1.00  0.00    -0.237 OA
ATOM     80  O   UNL A   1      36.331  33.062  39.991  1.00  0.00    -0.237 OA
ATOM     81  O   UNL A   1      38.339  32.392  41.230  1.00  0.00    -0.744 OA
ENDBRANCH  75  78
ENDBRANCH  47  71
BRANCH  59  82
ATOM     82  C   UNL A   1      44.249  28.878  35.322  1.00  0.00     0.023 A 
ATOM     83  C   UNL A   1      45.498  29.494  35.117  1.00  0.00     0.012 A 
ATOM     84  C   UNL A   1      44.138  27.831  36.259  1.00  0.00     0.148 A 
ATOM     85  C   UNL A   1      46.626  29.053  35.806  1.00  0.00     0.002 A 
ATOM     86  C   UNL A   1      45.255  27.434  36.983  1.00  0.00     0.091 A 
ATOM     87  F   UNL A   1      42.944  27.246  36.427  1.00  0.00    -0.205 F 
ATOM     88  C   UNL A   1      46.503  28.033  36.747  1.00  0.00     0.022 A 
BRANCH  86  89
ATOM     89  S   UNL A   1      45.167  26.202  38.287  1.00  0.00     0.127 S 
ATOM     90  O   UNL A   1      44.185  26.796  39.192  1.00  0.00    -0.237 OA
ATOM     91  O   UNL A   1      44.694  25.021  37.565  1.00  0.00    -0.237 OA
ATOM     92  O   UNL A   1      46.517  26.084  38.821  1.00  0.00    -0.744 OA
ENDBRANCH  86  89
ENDBRANCH  59  82
ENDBRANCH  33  34
ENDBRANCH  25  28
ENDBRANCH  23  24
ENDBRANCH   1  23
TORSDOF 17
ENDMDL
MODEL 2
REMARK VINA RESULT:     -11.1      6.345     12.269
REMARK SMILES CC[N@H+](CC(C)(C)C(=O)NCCCNC(=O)c1ccc(-c2c3nc(c(-c4cccc(S(=O)(=O)[O-])c4F)c4ccc([nH]4)c(-c4cccc(S(=O)(=O)[O-])c4F)c4nc(c(-c5cccc(S(=O)(=O)[O-])c5F)c5ccc2[nH]5)C=C4)C=C3)cc1)[C@H]1CCC[NH2+]C1
REMARK SMILES IDX 12 1 11 2 10 3 8 4 9 5 5 7 6 8 7 9 4 10 3 11 2 13 1 14 80 15
REMARK SMILES IDX 81 16 85 17 82 18 84 19 83 20 13 23 14 24 15 25 16 27 17 28
REMARK SMILES IDX 18 29 79 30 19 31 78 32 20 33 21 34 22 35 72 36 23 37 77 38
REMARK SMILES IDX 71 39 73 40 24 41 76 42 70 43 69 44 25 46 57 47 37 48 56 49
REMARK SMILES IDX 38 50 41 51 55 52 74 53 39 54 40 55 54 57 75 58 42 59 26 60
REMARK SMILES IDX 27 61 35 62 28 63 30 64 36 65 29 66 31 67 32 68 33 69 34 70
REMARK SMILES IDX 58 71 59 72 67 73 60 74 62 75 68 76 61 77 63 78 64 79 65 80
REMARK SMILES IDX 66 81 43 82 44 83 52 84 45 85 47 86 53 87 46 88 48 89 49 90
REMARK SMILES IDX 50 91 51 92
REMARK H PARENT 10 6 3 12 84 21 84 22 14 26 73 45 41 56
REMARK Flexibility Score: inf
ROOT
ATOM      1  C   UNL A   1      37.968  19.617  25.004  1.00  0.00     0.042 C 
ENDROOT
BRANCH   1   2
ATOM      2  C   UNL A   1      36.760  20.542  24.940  1.00  0.00     0.117 C 
BRANCH   2   3
ATOM      3  N   UNL A   1      37.096  21.766  24.241  1.00  0.00    -0.355 N 
ATOM      4  C   UNL A   1      36.294  22.760  23.784  1.00  0.00     0.231 C 
ATOM      5  O   UNL A   1      36.677  23.316  22.749  1.00  0.00    -0.274 OA
ATOM      6  H   UNL A   1      38.057  21.896  24.072  1.00  0.00     0.163 HD
BRANCH   4   7
ATOM      7  C   UNL A   1      34.988  23.152  24.488  1.00  0.00     0.092 C 
ATOM      8  C   UNL A   1      34.547  24.609  24.259  1.00  0.00     0.027 C 
ATOM      9  C   UNL A   1      35.184  22.875  25.995  1.00  0.00     0.027 C 
BRANCH   7  10
ATOM     10  C   UNL A   1      33.829  22.216  23.992  1.00  0.00     0.279 C 
BRANCH  10  11
ATOM     11  N   UNL A   1      32.690  21.921  24.902  1.00  0.00    -0.327 N 
ATOM     12  H   UNL A   1      33.012  22.208  25.827  1.00  0.00     0.348 HD
BRANCH  11  13
ATOM     13  C   UNL A   1      31.489  22.720  24.587  1.00  0.00     0.259 C 
ATOM     14  C   UNL A   1      31.451  23.323  23.183  1.00  0.00     0.071 C 
ENDBRANCH  11  13
BRANCH  11  15
ATOM     15  C   UNL A   1      32.367  20.469  25.002  1.00  0.00     0.239 C 
ATOM     16  C   UNL A   1      32.539  19.598  23.738  1.00  0.00     0.077 C 
ATOM     17  C   UNL A   1      33.211  19.867  26.155  1.00  0.00     0.326 C 
ATOM     18  C   UNL A   1      32.235  18.136  24.054  1.00  0.00     0.068 C 
ATOM     19  N   UNL A   1      32.903  18.452  26.413  1.00  0.00    -0.341 N 
ATOM     20  C   UNL A   1      33.096  17.640  25.214  1.00  0.00     0.260 C 
ATOM     21  H   UNL A   1      33.517  18.108  27.150  1.00  0.00     0.346 HD
ATOM     22  H   UNL A   1      31.925  18.382  26.695  1.00  0.00     0.346 HD
ENDBRANCH  11  15
ENDBRANCH  10  11
ENDBRANCH   7  10
ENDBRANCH   4   7
ENDBRANCH   2   3
ENDBRANCH   1   2
BRANCH   1  23
ATOM     23  C   UNL A   1      39.094  20.153  25.877  1.00  0.00     0.118 C 
BRANCH  23  24
ATOM     24  N   UNL A   1      40.195  19.205  26.000  1.00  0.00    -0.352 N 
ATOM     25  C   UNL A   1      41.538  19.448  26.120  1.00  0.00     0.251 C 
ATOM     26  H   UNL A   1      39.936  18.255  25.998  1.00  0.00     0.163 HD
ATOM     27  O   UNL A   1      42.342  18.530  25.975  1.00  0.00    -0.269 OA
BRANCH  25  28
ATOM     28  C   UNL A   1      42.009  20.816  26.412  1.00  0.00     0.039 A 
ATOM     29  C   UNL A   1      42.275  21.181  27.733  1.00  0.00     0.014 A 
ATOM     30  C   UNL A   1      42.187  21.738  25.376  1.00  0.00     0.014 A 
ATOM     31  C   UNL A   1      42.763  22.460  28.007  1.00  0.00     0.010 A 
ATOM     32  C   UNL A   1      42.771  22.969  25.639  1.00  0.00     0.010 A 
ATOM     33  C   UNL A   1      43.039  23.355  26.960  1.00  0.00    -0.014 A 
BRANCH  33  34
ATOM     34  C   UNL A   1      43.570  24.716  27.221  1.00  0.00     0.031 A 
ATOM     35  C   UNL A   1      42.648  25.792  27.733  1.00  0.00     0.074 A 
ATOM     36  C   UNL A   1      44.853  25.003  26.926  1.00  0.00     0.049 A 
ATOM     37  N   UNL A   1      42.901  27.055  27.959  1.00  0.00    -0.248 NA
ATOM     38  C   UNL A   1      41.249  25.408  27.993  1.00  0.00     0.031 C 
ATOM     39  C   UNL A   1      45.822  24.067  26.352  1.00  0.00     0.029 A 
ATOM     40  N   UNL A   1      45.555  26.176  27.043  1.00  0.00    -0.354 N 
ATOM     41  C   UNL A   1      41.690  27.621  28.344  1.00  0.00     0.074 A 
ATOM     42  C   UNL A   1      40.694  26.576  28.280  1.00  0.00     0.031 C 
ATOM     43  C   UNL A   1      46.993  24.699  26.175  1.00  0.00     0.029 A 
ATOM     44  C   UNL A   1      46.852  26.092  26.590  1.00  0.00     0.049 A 
ATOM     45  H   UNL A   1      45.168  27.001  27.416  1.00  0.00     0.167 HD
ATOM     46  C   UNL A   1      41.435  28.888  28.746  1.00  0.00     0.034 A 
ATOM     47  C   UNL A   1      47.812  27.033  26.508  1.00  0.00     0.034 A 
ATOM     48  C   UNL A   1      42.439  29.910  28.854  1.00  0.00     0.049 A 
ATOM     49  C   UNL A   1      47.514  28.422  27.003  1.00  0.00     0.074 A 
ATOM     50  C   UNL A   1      42.304  31.200  29.333  1.00  0.00     0.029 A 
ATOM     51  N   UNL A   1      43.762  29.760  28.471  1.00  0.00    -0.354 N 
ATOM     52  N   UNL A   1      46.400  28.899  27.505  1.00  0.00    -0.248 NA
ATOM     53  C   UNL A   1      48.614  29.395  26.959  1.00  0.00     0.031 C 
ATOM     54  C   UNL A   1      43.540  31.841  29.211  1.00  0.00     0.029 A 
ATOM     55  C   UNL A   1      44.455  30.935  28.697  1.00  0.00     0.049 A 
ATOM     56  H   UNL A   1      44.152  28.938  28.094  1.00  0.00     0.167 HD
ATOM     57  C   UNL A   1      46.679  30.208  27.878  1.00  0.00     0.074 A 
ATOM     58  C   UNL A   1      48.072  30.445  27.559  1.00  0.00     0.031 C 
ATOM     59  C   UNL A   1      45.856  31.135  28.428  1.00  0.00     0.034 A 
BRANCH  46  60
ATOM     60  C   UNL A   1      40.022  29.229  29.145  1.00  0.00     0.023 A 
ATOM     61  C   UNL A   1      39.073  29.550  28.153  1.00  0.00     0.012 A 
ATOM     62  C   UNL A   1      39.619  29.173  30.493  1.00  0.00     0.148 A 
ATOM     63  C   UNL A   1      37.755  29.844  28.498  1.00  0.00     0.002 A 
ATOM     64  C   UNL A   1      38.293  29.418  30.825  1.00  0.00     0.091 A 
ATOM     65  F   UNL A   1      40.540  28.887  31.424  1.00  0.00    -0.205 F 
ATOM     66  C   UNL A   1      37.363  29.768  29.831  1.00  0.00     0.022 A 
BRANCH  64  67
ATOM     67  S   UNL A   1      37.666  29.261  32.500  1.00  0.00     0.127 S 
ATOM     68  O   UNL A   1      38.529  30.192  33.227  1.00  0.00    -0.237 OA
ATOM     69  O   UNL A   1      36.280  29.705  32.352  1.00  0.00    -0.237 OA
ATOM     70  O   UNL A   1      37.823  27.859  32.860  1.00  0.00    -0.744 OA
ENDBRANCH  64  67
ENDBRANCH  46  60
BRANCH  47  71
ATOM     71  C   UNL A   1      49.166  26.679  25.993  1.00  0.00     0.023 A 
ATOM     72  C   UNL A   1      50.026  25.893  26.784  1.00  0.00     0.012 A 
ATOM     73  C   UNL A   1      49.601  27.108  24.724  1.00  0.00     0.148 A 
ATOM     74  C   UNL A   1      51.310  25.576  26.340  1.00  0.00     0.002 A 
ATOM     75  C   UNL A   1      50.859  26.740  24.263  1.00  0.00     0.091 A 
ATOM     76  F   UNL A   1      48.770  27.860  23.989  1.00  0.00    -0.205 F 
ATOM     77  C   UNL A   1      51.724  25.992  25.077  1.00  0.00     0.022 A 
BRANCH  75  78
ATOM     78  S   UNL A   1      51.425  27.120  22.602  1.00  0.00     0.127 S 
ATOM     79  O   UNL A   1      51.637  28.562  22.680  1.00  0.00    -0.237 OA
ATOM     80  O   UNL A   1      52.648  26.321  22.510  1.00  0.00    -0.237 OA
ATOM     81  O   UNL A   1      50.357  26.684  21.712  1.00  0.00    -0.744 OA
ENDBRANCH  75  78
ENDBRANCH  47  71
BRANCH  59  82
ATOM     82  C   UNL A   1      46.446  32.475  28.781  1.00  0.00     0.023 A 
ATOM     83  C   UNL A   1      47.034  32.681  30.044  1.00  0.00     0.012 A 
ATOM     84  C   UNL A   1      46.482  33.507  27.823  1.00  0.00     0.148 A 
ATOM     85  C   UNL A   1      47.616  33.907  30.361  1.00  0.00     0.002 A 
ATOM     86  C   UNL A   1      47.113  34.706  28.126  1.00  0.00     0.091 A 
ATOM     87  F   UNL A   1      45.902  33.296  26.633  1.00  0.00    -0.205 F 
ATOM     88  C   UNL A   1      47.667  34.915  29.400  1.00  0.00     0.022 A 
BRANCH  86  89
ATOM     89  S   UNL A   1      47.317  36.018  26.917  1.00  0.00     0.127 S 
ATOM     90  O   UNL A   1      45.928  36.379  26.632  1.00  0.00    -0.237 OA
ATOM     91  O   UNL A   1      48.064  37.023  27.673  1.00  0.00    -0.237 OA
ATOM     92  O   UNL A   1      48.049  35.431  25.804  1.00  0.00    -0.744 OA
ENDBRANCH  86  89
ENDBRANCH  59  82
ENDBRANCH  33  34
ENDBRANCH  25  28
ENDBRANCH  23  24
ENDBRANCH   1  23
TORSDOF 17
ENDMDL
MODEL 3
REMARK VINA RESULT:     -10.9      5.795      8.657
REMARK SMILES CC[N@H+](CC(C)(C)C(=O)NCCCNC(=O)c1ccc(-c2c3nc(c(-c4cccc(S(=O)(=O)[O-])c4F)c4ccc([nH]4)c(-c4cccc(S(=O)(=O)[O-])c4F)c4nc(c(-c5cccc(S(=O)(=O)[O-])c5F)c5ccc2[nH]5)C=C4)C=C3)cc1)[C@H]1CCC[NH2+]C1
REMARK SMILES IDX 12 1 11 2 10 3 8 4 9 5 5 7 6 8 7 9 4 10 3 11 2 13 1 14 80 15
REMARK SMILES IDX 81 16 85 17 82 18 84 19 83 20 13 23 14 24 15 25 16 27 17 28
REMARK SMILES IDX 18 29 79 30 19 31 78 32 20 33 21 34 22 35 72 36 23 37 77 38
REMARK SMILES IDX 71 39 73 40 24 41 76 42 70 43 69 44 25 46 57 47 37 48 56 49
REMARK SMILES IDX 38 50 41 51 55 52 74 53 39 54 40 55 54 57 75 58 42 59 26 60
REMARK SMILES IDX 27 61 35 62 28 63 30 64 36 65 29 66 31 67 32 68 33 69 34 70
REMARK SMILES IDX 58 71 59 72 67 73 60 74 62 75 68 76 61 77 63 78 64 79 65 80
REMARK SMILES IDX 66 81 43 82 44 83 52 84 45 85 47 86 53 87 46 88 48 89 49 90
REMARK SMILES IDX 50 91 51 92
REMARK H PARENT 10 6 3 12 84 21 84 22 14 26 73 45 41 56
REMARK Flexibility Score: inf
ROOT
ATOM      1  C   UNL A   1      34.697  21.568  26.769  1.00  0.00     0.042 C 
ENDROOT
BRANCH   1   2
ATOM      2  C   UNL A   1      33.446  21.465  25.909  1.00  0.00     0.117 C 
BRANCH   2   3
ATOM      3  N   UNL A   1      32.312  22.058  26.591  1.00  0.00    -0.355 N 
ATOM      4  C   UNL A   1      31.774  23.297  26.477  1.00  0.00     0.231 C 
ATOM      5  O   UNL A   1      31.286  23.759  27.513  1.00  0.00    -0.274 OA
ATOM      6  H   UNL A   1      31.862  21.466  27.237  1.00  0.00     0.163 HD
BRANCH   4   7
ATOM      7  C   UNL A   1      31.788  24.081  25.158  1.00  0.00     0.092 C 
ATOM      8  C   UNL A   1      31.205  23.322  23.953  1.00  0.00     0.027 C 
ATOM      9  C   UNL A   1      33.254  24.486  24.886  1.00  0.00     0.027 C 
BRANCH   7  10
ATOM     10  C   UNL A   1      30.966  25.408  25.333  1.00  0.00     0.279 C 
BRANCH  10  11
ATOM     11  N   UNL A   1      31.305  26.591  24.498  1.00  0.00    -0.327 N 
ATOM     12  H   UNL A   1      31.965  26.241  23.803  1.00  0.00     0.348 HD
BRANCH  11  13
ATOM     13  C   UNL A   1      30.137  27.122  23.765  1.00  0.00     0.259 C 
ATOM     14  C   UNL A   1      28.839  26.332  23.936  1.00  0.00     0.071 C 
ENDBRANCH  11  13
BRANCH  11  15
ATOM     15  C   UNL A   1      32.013  27.667  25.248  1.00  0.00     0.239 C 
ATOM     16  C   UNL A   1      31.718  29.135  24.864  1.00  0.00     0.077 C 
ATOM     17  C   UNL A   1      31.729  27.467  26.758  1.00  0.00     0.326 C 
ATOM     18  C   UNL A   1      32.474  30.087  25.787  1.00  0.00     0.068 C 
ATOM     19  N   UNL A   1      32.460  28.417  27.610  1.00  0.00    -0.341 N 
ATOM     20  C   UNL A   1      32.149  29.800  27.251  1.00  0.00     0.260 C 
ATOM     21  H   UNL A   1      32.199  28.260  28.583  1.00  0.00     0.346 HD
ATOM     22  H   UNL A   1      33.460  28.267  27.475  1.00  0.00     0.346 HD
ENDBRANCH  11  15
ENDBRANCH  10  11
ENDBRANCH   7  10
ENDBRANCH   4   7
ENDBRANCH   2   3
ENDBRANCH   1   2
BRANCH   1  23
ATOM     23  C   UNL A   1      35.913  22.080  26.009  1.00  0.00     0.118 C 
BRANCH  23  24
ATOM     24  N   UNL A   1      36.921  21.044  25.820  1.00  0.00    -0.352 N 
ATOM     25  C   UNL A   1      38.286  21.161  25.774  1.00  0.00     0.251 C 
ATOM     26  H   UNL A   1      36.572  20.130  25.710  1.00  0.00     0.163 HD
ATOM     27  O   UNL A   1      38.968  20.221  25.373  1.00  0.00    -0.269 OA
BRANCH  25  28
ATOM     28  C   UNL A   1      38.925  22.422  26.199  1.00  0.00     0.039 A 
ATOM     29  C   UNL A   1      40.028  22.376  27.054  1.00  0.00     0.014 A 
ATOM     30  C   UNL A   1      38.430  23.650  25.752  1.00  0.00     0.014 A 
ATOM     31  C   UNL A   1      40.662  23.564  27.422  1.00  0.00     0.010 A 
ATOM     32  C   UNL A   1      39.125  24.819  26.032  1.00  0.00     0.010 A 
ATOM     33  C   UNL A   1      40.231  24.793  26.894  1.00  0.00    -0.014 A 
BRANCH  33  34
ATOM     34  C   UNL A   1      40.893  26.070  27.258  1.00  0.00     0.031 A 
ATOM     35  C   UNL A   1      42.321  26.315  26.843  1.00  0.00     0.074 A 
ATOM     36  C   UNL A   1      40.243  26.969  28.022  1.00  0.00     0.049 A 
ATOM     37  N   UNL A   1      43.095  27.332  27.118  1.00  0.00    -0.248 NA
ATOM     38  C   UNL A   1      42.975  25.265  26.042  1.00  0.00     0.031 C 
ATOM     39  C   UNL A   1      38.886  26.810  28.551  1.00  0.00     0.029 A 
ATOM     40  N   UNL A   1      40.648  28.186  28.510  1.00  0.00    -0.354 N 
ATOM     41  C   UNL A   1      44.333  27.025  26.564  1.00  0.00     0.074 A 
ATOM     42  C   UNL A   1      44.221  25.711  25.974  1.00  0.00     0.031 C 
ATOM     43  C   UNL A   1      38.570  27.890  29.282  1.00  0.00     0.029 A 
ATOM     44  C   UNL A   1      39.709  28.803  29.304  1.00  0.00     0.049 A 
ATOM     45  H   UNL A   1      41.528  28.579  28.312  1.00  0.00     0.167 HD
ATOM     46  C   UNL A   1      45.455  27.782  26.521  1.00  0.00     0.034 A 
ATOM     47  C   UNL A   1      39.765  29.967  29.980  1.00  0.00     0.034 A 
ATOM     48  C   UNL A   1      45.546  29.108  27.067  1.00  0.00     0.049 A 
ATOM     49  C   UNL A   1      41.008  30.808  29.878  1.00  0.00     0.074 A 
ATOM     50  C   UNL A   1      46.606  29.994  27.000  1.00  0.00     0.029 A 
ATOM     51  N   UNL A   1      44.542  29.737  27.785  1.00  0.00    -0.354 N 
ATOM     52  N   UNL A   1      42.118  30.567  29.222  1.00  0.00    -0.248 NA
ATOM     53  C   UNL A   1      40.995  32.102  30.575  1.00  0.00     0.031 C 
ATOM     54  C   UNL A   1      46.254  31.148  27.706  1.00  0.00     0.029 A 
ATOM     55  C   UNL A   1      44.957  30.997  28.174  1.00  0.00     0.049 A 
ATOM     56  H   UNL A   1      43.662  29.344  27.989  1.00  0.00     0.167 HD
ATOM     57  C   UNL A   1      42.913  31.694  29.389  1.00  0.00     0.074 A 
ATOM     58  C   UNL A   1      42.151  32.626  30.195  1.00  0.00     0.031 C 
ATOM     59  C   UNL A   1      44.164  31.935  28.925  1.00  0.00     0.034 A 
BRANCH  46  60
ATOM     60  C   UNL A   1      46.662  27.213  25.819  1.00  0.00     0.023 A 
ATOM     61  C   UNL A   1      47.417  26.197  26.439  1.00  0.00     0.012 A 
ATOM     62  C   UNL A   1      47.011  27.641  24.524  1.00  0.00     0.148 A 
ATOM     63  C   UNL A   1      48.522  25.639  25.797  1.00  0.00     0.002 A 
ATOM     64  C   UNL A   1      48.083  27.047  23.870  1.00  0.00     0.091 A 
ATOM     65  F   UNL A   1      46.295  28.623  23.960  1.00  0.00    -0.205 F 
ATOM     66  C   UNL A   1      48.848  26.056  24.510  1.00  0.00     0.022 A 
BRANCH  64  67
ATOM     67  S   UNL A   1      48.533  27.449  22.179  1.00  0.00     0.127 S 
ATOM     68  O   UNL A   1      49.771  28.202  22.374  1.00  0.00    -0.237 OA
ATOM     69  O   UNL A   1      48.713  26.123  21.586  1.00  0.00    -0.237 OA
ATOM     70  O   UNL A   1      47.419  28.213  21.636  1.00  0.00    -0.744 OA
ENDBRANCH  64  67
ENDBRANCH  46  60
BRANCH  47  71
ATOM     71  C   UNL A   1      38.586  30.436  30.762  1.00  0.00     0.023 A 
ATOM     72  C   UNL A   1      38.508  30.150  32.140  1.00  0.00     0.012 A 
ATOM     73  C   UNL A   1      37.549  31.170  30.154  1.00  0.00     0.148 A 
ATOM     74  C   UNL A   1      37.400  30.548  32.888  1.00  0.00     0.002 A 
ATOM     75  C   UNL A   1      36.476  31.614  30.918  1.00  0.00     0.091 A 
ATOM     76  F   UNL A   1      37.638  31.427  28.842  1.00  0.00    -0.205 F 
ATOM     77  C   UNL A   1      36.388  31.287  32.279  1.00  0.00     0.022 A 
BRANCH  75  78
ATOM     78  S   UNL A   1      35.194  32.679  30.249  1.00  0.00     0.127 S 
ATOM     79  O   UNL A   1      34.318  32.855  31.403  1.00  0.00    -0.237 OA
ATOM     80  O   UNL A   1      35.958  33.867  29.868  1.00  0.00    -0.237 OA
ATOM     81  O   UNL A   1      34.622  31.950  29.125  1.00  0.00    -0.744 OA
ENDBRANCH  75  78
ENDBRANCH  47  71
BRANCH  59  82
ATOM     82  C   UNL A   1      44.774  33.280  29.218  1.00  0.00     0.023 A 
ATOM     83  C   UNL A   1      45.508  33.484  30.402  1.00  0.00     0.012 A 
ATOM     84  C   UNL A   1      44.679  34.322  28.274  1.00  0.00     0.148 A 
ATOM     85  C   UNL A   1      46.107  34.716  30.660  1.00  0.00     0.002 A 
ATOM     86  C   UNL A   1      45.324  35.528  28.511  1.00  0.00     0.091 A 
ATOM     87  F   UNL A   1      43.961  34.113  27.161  1.00  0.00    -0.205 F 
ATOM     88  C   UNL A   1      46.026  35.733  29.710  1.00  0.00     0.022 A 
BRANCH  86  89
ATOM     89  S   UNL A   1      45.361  36.854  27.301  1.00  0.00     0.127 S 
ATOM     90  O   UNL A   1      46.110  37.887  28.014  1.00  0.00    -0.237 OA
ATOM     91  O   UNL A   1      46.084  36.237  26.188  1.00  0.00    -0.237 OA
ATOM     92  O   UNL A   1      43.971  37.177  27.013  1.00  0.00    -0.744 OA
ENDBRANCH  86  89
ENDBRANCH  59  82
ENDBRANCH  33  34
ENDBRANCH  25  28
ENDBRANCH  23  24
ENDBRANCH   1  23
TORSDOF 17
ENDMDL
