MODEL 1
REMARK VINA RESULT:     -13.0      0.000      0.000
REMARK SMILES O=C(CCc1nc(-c2ccccc2)c(-c2ccccc2)o1)NCCCNC(=O)c1ccc(-c2c3nc(c(-c4cccc(S(=O)(=O)[O-])c4F)c4ccc([nH]4)c(-c4cccc(S(=O)(=O)[O-])c4F)c4nc(c(-c5cccc(S(=O)(=O)[O-])c5F)c5ccc2[nH]5)C=C4)C=C3)cc1
REMARK SMILES IDX 24 1 23 2 22 3 1 4 2 5 3 7 4 8 5 9 6 10 21 11 7 12 14 13
REMARK SMILES IDX 8 14 9 15 13 16 10 17 12 18 11 19 15 20 16 21 20 22 17 23
REMARK SMILES IDX 19 24 18 25 25 26 26 27 27 28 28 30 29 31 30 32 91 33 31 34
REMARK SMILES IDX 90 35 32 36 33 37 34 38 84 39 35 40 89 41 83 42 85 43 36 44
REMARK SMILES IDX 88 45 82 46 81 47 37 49 69 50 49 51 68 52 50 53 53 54 67 55
REMARK SMILES IDX 86 56 51 57 52 58 66 60 87 61 54 62 38 63 39 64 47 65 40 66
REMARK SMILES IDX 42 67 48 68 41 69 43 70 44 71 45 72 46 73 70 74 71 75 79 76
REMARK SMILES IDX 72 77 74 78 80 79 73 80 75 81 76 82 77 83 78 84 55 85 56 86
REMARK SMILES IDX 64 87 57 88 59 89 65 90 58 91 60 92 61 93 62 94 63 95
REMARK H PARENT 22 6 26 29 85 48 53 59
REMARK Flexibility Score: inf
ROOT
ATOM      1  C   UNL A   1      35.908  21.691  25.713  1.00  0.00     0.042 C 
ENDROOT
BRANCH   1   2
ATOM      2  C   UNL A   1      34.884  20.830  24.985  1.00  0.00     0.117 C 
BRANCH   2   3
ATOM      3  N   UNL A   1      33.941  21.633  24.237  1.00  0.00    -0.356 N 
ATOM      4  O   UNL A   1      32.427  19.960  23.797  1.00  0.00    -0.275 OA
ATOM      5  C   UNL A   1      32.782  21.130  23.701  1.00  0.00     0.220 C 
ATOM      6  H   UNL A   1      34.140  22.589  24.107  1.00  0.00     0.163 HD
BRANCH   5   7
ATOM      7  C   UNL A   1      31.949  22.160  22.970  1.00  0.00     0.110 C 
BRANCH   7   8
ATOM      8  C   UNL A   1      32.783  23.359  22.538  1.00  0.00     0.107 C 
BRANCH   8   9
ATOM      9  C   UNL A   1      32.435  24.638  23.221  1.00  0.00     0.196 A 
ATOM     10  N   UNL A   1      32.990  25.151  24.302  1.00  0.00    -0.213 NA
ATOM     11  O   UNL A   1      31.432  25.405  22.673  1.00  0.00    -0.440 OA
ATOM     12  C   UNL A   1      32.289  26.314  24.504  1.00  0.00     0.117 A 
ATOM     13  C   UNL A   1      31.362  26.501  23.497  1.00  0.00     0.162 A 
BRANCH  12  14
ATOM     14  C   UNL A   1      32.517  27.240  25.592  1.00  0.00     0.004 A 
ATOM     15  C   UNL A   1      31.600  27.321  26.651  1.00  0.00     0.010 A 
ATOM     16  C   UNL A   1      33.575  28.150  25.523  1.00  0.00     0.010 A 
ATOM     17  C   UNL A   1      31.713  28.334  27.602  1.00  0.00     0.001 A 
ATOM     18  C   UNL A   1      33.683  29.165  26.476  1.00  0.00     0.001 A 
ATOM     19  C   UNL A   1      32.747  29.263  27.507  1.00  0.00     0.000 A 
ENDBRANCH  12  14
BRANCH  13  20
ATOM     20  C   UNL A   1      30.428  27.566  23.156  1.00  0.00     0.020 A 
ATOM     21  C   UNL A   1      30.843  28.728  22.499  1.00  0.00     0.012 A 
ATOM     22  C   UNL A   1      29.055  27.395  23.410  1.00  0.00     0.012 A 
ATOM     23  C   UNL A   1      29.901  29.677  22.079  1.00  0.00     0.001 A 
ATOM     24  C   UNL A   1      28.117  28.333  22.979  1.00  0.00     0.001 A 
ATOM     25  C   UNL A   1      28.541  29.475  22.313  1.00  0.00     0.000 A 
ENDBRANCH  13  20
ENDBRANCH   8   9
ENDBRANCH   7   8
ENDBRANCH   5   7
ENDBRANCH   2   3
ENDBRANCH   1   2
BRANCH   1  26
ATOM     26  C   UNL A   1      37.271  21.769  25.035  1.00  0.00     0.118 C 
BRANCH  26  27
ATOM     27  N   UNL A   1      38.160  20.672  25.385  1.00  0.00    -0.352 N 
ATOM     28  C   UNL A   1      39.362  20.704  26.050  1.00  0.00     0.251 C 
ATOM     29  H   UNL A   1      37.857  19.778  25.106  1.00  0.00     0.163 HD
ATOM     30  O   UNL A   1      40.010  19.664  26.179  1.00  0.00    -0.269 OA
BRANCH  28  31
ATOM     31  C   UNL A   1      39.893  21.974  26.600  1.00  0.00     0.039 A 
ATOM     32  C   UNL A   1      40.910  21.921  27.559  1.00  0.00     0.014 A 
ATOM     33  C   UNL A   1      39.387  23.211  26.193  1.00  0.00     0.014 A 
ATOM     34  C   UNL A   1      41.466  23.104  28.052  1.00  0.00     0.010 A 
ATOM     35  C   UNL A   1      39.969  24.387  26.646  1.00  0.00     0.010 A 
ATOM     36  C   UNL A   1      41.021  24.345  27.570  1.00  0.00    -0.014 A 
BRANCH  36  37
ATOM     37  C   UNL A   1      41.671  25.619  27.950  1.00  0.00     0.031 A 
ATOM     38  C   UNL A   1      40.886  26.687  28.655  1.00  0.00     0.074 A 
ATOM     39  C   UNL A   1      42.921  25.862  27.510  1.00  0.00     0.049 A 
ATOM     40  N   UNL A   1      41.239  27.911  28.946  1.00  0.00    -0.248 NA
ATOM     41  C   UNL A   1      39.513  26.344  29.059  1.00  0.00     0.031 C 
ATOM     42  C   UNL A   1      43.740  24.923  26.738  1.00  0.00     0.029 A 
ATOM     43  N   UNL A   1      43.699  26.988  27.598  1.00  0.00    -0.354 N 
ATOM     44  C   UNL A   1      40.127  28.496  29.540  1.00  0.00     0.074 A 
ATOM     45  C   UNL A   1      39.078  27.499  29.544  1.00  0.00     0.031 C 
ATOM     46  C   UNL A   1      44.895  25.519  26.406  1.00  0.00     0.029 A 
ATOM     47  C   UNL A   1      44.887  26.887  26.910  1.00  0.00     0.049 A 
ATOM     48  H   UNL A   1      43.434  27.790  28.104  1.00  0.00     0.167 HD
ATOM     49  C   UNL A   1      40.001  29.745  30.049  1.00  0.00     0.034 A 
ATOM     50  C   UNL A   1      45.851  27.803  26.694  1.00  0.00     0.034 A 
ATOM     51  C   UNL A   1      41.059  30.720  30.048  1.00  0.00     0.049 A 
ATOM     52  C   UNL A   1      45.697  29.172  27.294  1.00  0.00     0.074 A 
ATOM     53  C   UNL A   1      41.067  31.983  30.612  1.00  0.00     0.029 A 
ATOM     54  N   UNL A   1      42.293  30.547  29.437  1.00  0.00    -0.354 N 
ATOM     55  N   UNL A   1      44.700  29.658  27.994  1.00  0.00    -0.248 NA
ATOM     56  C   UNL A   1      46.815  30.107  27.111  1.00  0.00     0.031 C 
ATOM     57  C   UNL A   1      42.293  32.587  30.313  1.00  0.00     0.029 A 
ATOM     58  C   UNL A   1      43.066  31.684  29.601  1.00  0.00     0.049 A 
ATOM     59  H   UNL A   1      42.578  29.736  28.958  1.00  0.00     0.167 HD
ATOM     60  C   UNL A   1      45.090  30.936  28.377  1.00  0.00     0.074 A 
ATOM     61  C   UNL A   1      46.418  31.145  27.837  1.00  0.00     0.031 C 
ATOM     62  C   UNL A   1      44.408  31.853  29.106  1.00  0.00     0.034 A 
BRANCH  49  63
ATOM     63  C   UNL A   1      38.688  30.117  30.687  1.00  0.00     0.023 A 
ATOM     64  C   UNL A   1      38.419  29.718  32.013  1.00  0.00     0.012 A 
ATOM     65  C   UNL A   1      37.748  30.916  30.005  1.00  0.00     0.148 A 
ATOM     66  C   UNL A   1      37.225  30.077  32.636  1.00  0.00     0.002 A 
ATOM     67  C   UNL A   1      36.580  31.308  30.650  1.00  0.00     0.091 A 
ATOM     68  F   UNL A   1      38.010  31.270  28.739  1.00  0.00    -0.205 F 
ATOM     69  C   UNL A   1      36.312  30.880  31.959  1.00  0.00     0.022 A 
BRANCH  67  70
ATOM     70  S   UNL A   1      35.377  32.406  29.893  1.00  0.00     0.127 S 
ATOM     71  O   UNL A   1      34.386  32.536  30.961  1.00  0.00    -0.237 OA
ATOM     72  O   UNL A   1      36.170  33.610  29.648  1.00  0.00    -0.237 OA
ATOM     73  O   UNL A   1      34.911  31.728  28.691  1.00  0.00    -0.744 OA
ENDBRANCH  67  70
ENDBRANCH  49  63
BRANCH  50  74
ATOM     74  C   UNL A   1      47.071  27.428  25.927  1.00  0.00     0.023 A 
ATOM     75  C   UNL A   1      48.101  26.720  26.575  1.00  0.00     0.012 A 
ATOM     76  C   UNL A   1      47.203  27.737  24.559  1.00  0.00     0.148 A 
ATOM     77  C   UNL A   1      49.257  26.355  25.885  1.00  0.00     0.002 A 
ATOM     78  C   UNL A   1      48.334  27.322  23.864  1.00  0.00     0.091 A 
ATOM     79  F   UNL A   1      46.212  28.414  23.963  1.00  0.00    -0.205 F 
ATOM     80  C   UNL A   1      49.369  26.647  24.528  1.00  0.00     0.022 A 
BRANCH  78  81
ATOM     81  S   UNL A   1      48.506  27.539  22.089  1.00  0.00     0.127 S 
ATOM     82  O   UNL A   1      48.738  26.166  21.642  1.00  0.00    -0.237 OA
ATOM     83  O   UNL A   1      47.201  28.093  21.726  1.00  0.00    -0.237 OA
ATOM     84  O   UNL A   1      49.620  28.458  21.910  1.00  0.00    -0.744 OA
ENDBRANCH  78  81
ENDBRANCH  50  74
BRANCH  62  85
ATOM     85  C   UNL A   1      45.104  33.151  29.425  1.00  0.00     0.023 A 
ATOM     86  C   UNL A   1      45.885  33.270  30.590  1.00  0.00     0.012 A 
ATOM     87  C   UNL A   1      45.045  34.226  28.516  1.00  0.00     0.148 A 
ATOM     88  C   UNL A   1      46.575  34.450  30.861  1.00  0.00     0.002 A 
ATOM     89  C   UNL A   1      45.778  35.379  28.765  1.00  0.00     0.091 A 
ATOM     90  F   UNL A   1      44.280  34.098  27.422  1.00  0.00    -0.205 F 
ATOM     91  C   UNL A   1      46.532  35.499  29.944  1.00  0.00     0.022 A 
BRANCH  89  92
ATOM     92  S   UNL A   1      45.867  36.736  27.592  1.00  0.00     0.127 S 
ATOM     93  O   UNL A   1      44.544  37.340  27.736  1.00  0.00    -0.237 OA
ATOM     94  O   UNL A   1      46.966  37.537  28.129  1.00  0.00    -0.237 OA
ATOM     95  O   UNL A   1      46.138  36.130  26.295  1.00  0.00    -0.744 OA
ENDBRANCH  89  92
ENDBRANCH  62  85
ENDBRANCH  36  37
ENDBRANCH  28  31
ENDBRANCH  26  27
ENDBRANCH   1  26
TORSDOF 17
ENDMDL
MODEL 2
REMARK VINA RESULT:     -13.0      0.764      2.112
REMARK SMILES O=C(CCc1nc(-c2ccccc2)c(-c2ccccc2)o1)NCCCNC(=O)c1ccc(-c2c3nc(c(-c4cccc(S(=O)(=O)[O-])c4F)c4ccc([nH]4)c(-c4cccc(S(=O)(=O)[O-])c4F)c4nc(c(-c5cccc(S(=O)(=O)[O-])c5F)c5ccc2[nH]5)C=C4)C=C3)cc1
REMARK SMILES IDX 24 1 23 2 22 3 1 4 2 5 3 7 4 8 5 9 6 10 21 11 7 12 14 13
REMARK SMILES IDX 8 14 9 15 13 16 10 17 12 18 11 19 15 20 16 21 20 22 17 23
REMARK SMILES IDX 19 24 18 25 25 26 26 27 27 28 28 30 29 31 30 32 91 33 31 34
REMARK SMILES IDX 90 35 32 36 33 37 34 38 84 39 35 40 89 41 83 42 85 43 36 44
REMARK SMILES IDX 88 45 82 46 81 47 37 49 69 50 49 51 68 52 50 53 53 54 67 55
REMARK SMILES IDX 86 56 51 57 52 58 66 60 87 61 54 62 38 63 39 64 47 65 40 66
REMARK SMILES IDX 42 67 48 68 41 69 43 70 44 71 45 72 46 73 70 74 71 75 79 76
REMARK SMILES IDX 72 77 74 78 80 79 73 80 75 81 76 82 77 83 78 84 55 85 56 86
REMARK SMILES IDX 64 87 57 88 59 89 65 90 58 91 60 92 61 93 62 94 63 95
REMARK H PARENT 22 6 26 29 85 48 53 59
REMARK Flexibility Score: inf
ROOT
ATOM      1  C   UNL A   1      36.307  21.454  25.614  1.00  0.00     0.042 C 
ENDROOT
BRANCH   1   2
ATOM      2  C   UNL A   1      35.453  20.351  25.004  1.00  0.00     0.117 C 
BRANCH   2   3
ATOM      3  N   UNL A   1      34.095  20.791  24.766  1.00  0.00    -0.356 N 
ATOM      4  O   UNL A   1      33.353  20.615  26.934  1.00  0.00    -0.275 OA
ATOM      5  C   UNL A   1      33.150  20.888  25.756  1.00  0.00     0.220 C 
ATOM      6  H   UNL A   1      33.836  21.033  23.847  1.00  0.00     0.163 HD
BRANCH   5   7
ATOM      7  C   UNL A   1      31.804  21.379  25.271  1.00  0.00     0.110 C 
BRANCH   7   8
ATOM      8  C   UNL A   1      31.921  22.148  23.961  1.00  0.00     0.107 C 
BRANCH   8   9
ATOM      9  C   UNL A   1      31.597  23.601  24.061  1.00  0.00     0.196 A 
ATOM     10  N   UNL A   1      30.688  24.273  23.381  1.00  0.00    -0.213 NA
ATOM     11  O   UNL A   1      32.302  24.353  24.972  1.00  0.00    -0.440 OA
ATOM     12  C   UNL A   1      30.821  25.558  23.845  1.00  0.00     0.117 A 
ATOM     13  C   UNL A   1      31.774  25.615  24.844  1.00  0.00     0.162 A 
BRANCH  12  14
ATOM     14  C   UNL A   1      30.041  26.687  23.390  1.00  0.00     0.004 A 
ATOM     15  C   UNL A   1      30.667  27.751  22.721  1.00  0.00     0.010 A 
ATOM     16  C   UNL A   1      28.691  26.787  23.734  1.00  0.00     0.010 A 
ATOM     17  C   UNL A   1      29.961  28.921  22.446  1.00  0.00     0.001 A 
ATOM     18  C   UNL A   1      27.987  27.962  23.459  1.00  0.00     0.001 A 
ATOM     19  C   UNL A   1      28.625  29.031  22.826  1.00  0.00     0.000 A 
ENDBRANCH  12  14
BRANCH  13  20
ATOM     20  C   UNL A   1      32.260  26.663  25.732  1.00  0.00     0.020 A 
ATOM     21  C   UNL A   1      33.568  27.146  25.655  1.00  0.00     0.012 A 
ATOM     22  C   UNL A   1      31.372  27.273  26.637  1.00  0.00     0.012 A 
ATOM     23  C   UNL A   1      33.967  28.235  26.441  1.00  0.00     0.001 A 
ATOM     24  C   UNL A   1      31.765  28.366  27.409  1.00  0.00     0.001 A 
ATOM     25  C   UNL A   1      33.064  28.847  27.310  1.00  0.00     0.000 A 
ENDBRANCH  13  20
ENDBRANCH   8   9
ENDBRANCH   7   8
ENDBRANCH   5   7
ENDBRANCH   2   3
ENDBRANCH   1   2
BRANCH   1  26
ATOM     26  C   UNL A   1      37.718  21.553  25.046  1.00  0.00     0.118 C 
BRANCH  26  27
ATOM     27  N   UNL A   1      38.613  20.508  25.522  1.00  0.00    -0.352 N 
ATOM     28  C   UNL A   1      39.766  20.620  26.261  1.00  0.00     0.251 C 
ATOM     29  H   UNL A   1      38.355  19.590  25.280  1.00  0.00     0.163 HD
ATOM     30  O   UNL A   1      40.433  19.611  26.497  1.00  0.00    -0.269 OA
BRANCH  28  31
ATOM     31  C   UNL A   1      40.222  21.937  26.764  1.00  0.00     0.039 A 
ATOM     32  C   UNL A   1      41.111  21.975  27.844  1.00  0.00     0.014 A 
ATOM     33  C   UNL A   1      39.769  23.130  26.196  1.00  0.00     0.014 A 
ATOM     34  C   UNL A   1      41.599  23.202  28.301  1.00  0.00     0.010 A 
ATOM     35  C   UNL A   1      40.288  24.347  26.617  1.00  0.00     0.010 A 
ATOM     36  C   UNL A   1      41.216  24.393  27.666  1.00  0.00    -0.014 A 
BRANCH  36  37
ATOM     37  C   UNL A   1      41.812  25.702  28.016  1.00  0.00     0.031 A 
ATOM     38  C   UNL A   1      40.979  26.757  28.684  1.00  0.00     0.074 A 
ATOM     39  C   UNL A   1      43.055  25.983  27.579  1.00  0.00     0.049 A 
ATOM     40  N   UNL A   1      41.280  28.002  28.945  1.00  0.00    -0.248 NA
ATOM     41  C   UNL A   1      39.617  26.370  29.087  1.00  0.00     0.031 C 
ATOM     42  C   UNL A   1      43.917  25.057  26.840  1.00  0.00     0.029 A 
ATOM     43  N   UNL A   1      43.787  27.141  27.642  1.00  0.00    -0.354 N 
ATOM     44  C   UNL A   1      40.140  28.557  29.513  1.00  0.00     0.074 A 
ATOM     45  C   UNL A   1      39.132  27.520  29.537  1.00  0.00     0.031 C 
ATOM     46  C   UNL A   1      45.051  25.689  26.500  1.00  0.00     0.029 A 
ATOM     47  C   UNL A   1      44.984  27.068  26.967  1.00  0.00     0.049 A 
ATOM     48  H   UNL A   1      43.486  27.945  28.124  1.00  0.00     0.167 HD
ATOM     49  C   UNL A   1      39.961  29.814  29.987  1.00  0.00     0.034 A 
ATOM     50  C   UNL A   1      45.913  28.016  26.734  1.00  0.00     0.034 A 
ATOM     51  C   UNL A   1      40.980  30.830  29.967  1.00  0.00     0.049 A 
ATOM     52  C   UNL A   1      45.699  29.394  27.294  1.00  0.00     0.074 A 
ATOM     53  C   UNL A   1      40.932  32.107  30.496  1.00  0.00     0.029 A 
ATOM     54  N   UNL A   1      42.225  30.690  29.371  1.00  0.00    -0.354 N 
ATOM     55  N   UNL A   1      44.678  29.858  27.973  1.00  0.00    -0.248 NA
ATOM     56  C   UNL A   1      46.781  30.367  27.095  1.00  0.00     0.031 C 
ATOM     57  C   UNL A   1      42.136  32.751  30.191  1.00  0.00     0.029 A 
ATOM     58  C   UNL A   1      42.950  31.860  29.511  1.00  0.00     0.049 A 
ATOM     59  H   UNL A   1      42.546  29.878  28.917  1.00  0.00     0.167 HD
ATOM     60  C   UNL A   1      45.014  31.160  28.323  1.00  0.00     0.074 A 
ATOM     61  C   UNL A   1      46.337  31.407  27.788  1.00  0.00     0.031 C 
ATOM     62  C   UNL A   1      44.290  32.070  29.021  1.00  0.00     0.034 A 
BRANCH  49  63
ATOM     63  C   UNL A   1      38.628  30.150  30.604  1.00  0.00     0.023 A 
ATOM     64  C   UNL A   1      38.344  29.732  31.920  1.00  0.00     0.012 A 
ATOM     65  C   UNL A   1      37.684  30.937  29.913  1.00  0.00     0.148 A 
ATOM     66  C   UNL A   1      37.130  30.058  32.525  1.00  0.00     0.002 A 
ATOM     67  C   UNL A   1      36.496  31.296  30.539  1.00  0.00     0.091 A 
ATOM     68  F   UNL A   1      37.962  31.310  28.655  1.00  0.00    -0.205 F 
ATOM     69  C   UNL A   1      36.213  30.848  31.839  1.00  0.00     0.022 A 
BRANCH  67  70
ATOM     70  S   UNL A   1      35.283  32.376  29.771  1.00  0.00     0.127 S 
ATOM     71  O   UNL A   1      34.317  32.550  30.856  1.00  0.00    -0.237 OA
ATOM     72  O   UNL A   1      36.079  33.566  29.468  1.00  0.00    -0.237 OA
ATOM     73  O   UNL A   1      34.788  31.661  28.604  1.00  0.00    -0.744 OA
ENDBRANCH  67  70
ENDBRANCH  49  63
BRANCH  50  74
ATOM     74  C   UNL A   1      47.154  27.670  25.987  1.00  0.00     0.023 A 
ATOM     75  C   UNL A   1      48.246  27.118  26.685  1.00  0.00     0.012 A 
ATOM     76  C   UNL A   1      47.248  27.849  24.593  1.00  0.00     0.148 A 
ATOM     77  C   UNL A   1      49.423  26.784  26.014  1.00  0.00     0.002 A 
ATOM     78  C   UNL A   1      48.404  27.463  23.923  1.00  0.00     0.091 A 
ATOM     79  F   UNL A   1      46.198  28.378  23.949  1.00  0.00    -0.205 F 
ATOM     80  C   UNL A   1      49.498  26.947  24.634  1.00  0.00     0.022 A 
BRANCH  78  81
ATOM     81  S   UNL A   1      48.542  27.515  22.133  1.00  0.00     0.127 S 
ATOM     82  O   UNL A   1      49.755  28.312  21.952  1.00  0.00    -0.237 OA
ATOM     83  O   UNL A   1      48.683  26.097  21.801  1.00  0.00    -0.237 OA
ATOM     84  O   UNL A   1      47.309  28.124  21.659  1.00  0.00    -0.744 OA
ENDBRANCH  78  81
ENDBRANCH  50  74
BRANCH  62  85
ATOM     85  C   UNL A   1      44.930  33.402  29.310  1.00  0.00     0.023 A 
ATOM     86  C   UNL A   1      45.744  33.567  30.447  1.00  0.00     0.012 A 
ATOM     87  C   UNL A   1      44.787  34.467  28.399  1.00  0.00     0.148 A 
ATOM     88  C   UNL A   1      46.383  34.782  30.689  1.00  0.00     0.002 A 
ATOM     89  C   UNL A   1      45.469  35.657  28.617  1.00  0.00     0.091 A 
ATOM     90  F   UNL A   1      43.992  34.294  27.333  1.00  0.00    -0.205 F 
ATOM     91  C   UNL A   1      46.257  35.821  29.768  1.00  0.00     0.022 A 
BRANCH  89  92
ATOM     92  S   UNL A   1      45.451  37.009  27.436  1.00  0.00     0.127 S 
ATOM     93  O   UNL A   1      44.026  37.113  27.125  1.00  0.00    -0.237 OA
ATOM     94  O   UNL A   1      45.986  38.117  28.225  1.00  0.00    -0.237 OA
ATOM     95  O   UNL A   1      46.300  36.589  26.329  1.00  0.00    -0.744 OA
ENDBRANCH  89  92
ENDBRANCH  62  85
ENDBRANCH  36  37
ENDBRANCH  28  31
ENDBRANCH  26  27
ENDBRANCH   1  26
TORSDOF 17
ENDMDL
MODEL 3
REMARK VINA RESULT:     -12.9      1.659      7.876
REMARK SMILES O=C(CCc1nc(-c2ccccc2)c(-c2ccccc2)o1)NCCCNC(=O)c1ccc(-c2c3nc(c(-c4cccc(S(=O)(=O)[O-])c4F)c4ccc([nH]4)c(-c4cccc(S(=O)(=O)[O-])c4F)c4nc(c(-c5cccc(S(=O)(=O)[O-])c5F)c5ccc2[nH]5)C=C4)C=C3)cc1
REMARK SMILES IDX 24 1 23 2 22 3 1 4 2 5 3 7 4 8 5 9 6 10 21 11 7 12 14 13
REMARK SMILES IDX 8 14 9 15 13 16 10 17 12 18 11 19 15 20 16 21 20 22 17 23
REMARK SMILES IDX 19 24 18 25 25 26 26 27 27 28 28 30 29 31 30 32 91 33 31 34
REMARK SMILES IDX 90 35 32 36 33 37 34 38 84 39 35 40 89 41 83 42 85 43 36 44
REMARK SMILES IDX 88 45 82 46 81 47 37 49 69 50 49 51 68 52 50 53 53 54 67 55
REMARK SMILES IDX 86 56 51 57 52 58 66 60 87 61 54 62 38 63 39 64 47 65 40 66
REMARK SMILES IDX 42 67 48 68 41 69 43 70 44 71 45 72 46 73 70 74 71 75 79 76
REMARK SMILES IDX 72 77 74 78 80 79 73 80 75 81 76 82 77 83 78 84 55 85 56 86
REMARK SMILES IDX 64 87 57 88 59 89 65 90 58 91 60 92 61 93 62 94 63 95
REMARK H PARENT 22 6 26 29 85 48 53 59
REMARK Flexibility Score: inf
ROOT
ATOM      1  C   UNL A   1      35.736  21.515  25.216  1.00  0.00     0.042 C 
ENDROOT
BRANCH   1   2
ATOM      2  C   UNL A   1      34.992  22.809  25.516  1.00  0.00     0.117 C 
BRANCH   2   3
ATOM      3  N   UNL A   1      33.917  23.042  24.576  1.00  0.00    -0.356 N 
ATOM      4  O   UNL A   1      35.216  23.781  22.830  1.00  0.00    -0.275 OA
ATOM      5  C   UNL A   1      34.117  23.511  23.303  1.00  0.00     0.220 C 
ATOM      6  H   UNL A   1      32.994  22.853  24.866  1.00  0.00     0.163 HD
BRANCH   5   7
ATOM      7  C   UNL A   1      32.843  23.667  22.501  1.00  0.00     0.110 C 
BRANCH   7   8
ATOM      8  C   UNL A   1      32.857  24.934  21.656  1.00  0.00     0.107 C 
BRANCH   8   9
ATOM      9  C   UNL A   1      32.081  26.072  22.228  1.00  0.00     0.196 A 
ATOM     10  N   UNL A   1      31.041  26.685  21.698  1.00  0.00    -0.213 NA
ATOM     11  O   UNL A   1      32.461  26.552  23.460  1.00  0.00    -0.440 OA
ATOM     12  C   UNL A   1      30.731  27.654  22.619  1.00  0.00     0.117 A 
ATOM     13  C   UNL A   1      31.564  27.561  23.717  1.00  0.00     0.162 A 
BRANCH  12  14
ATOM     14  C   UNL A   1      29.655  28.611  22.485  1.00  0.00     0.004 A 
ATOM     15  C   UNL A   1      29.903  29.879  21.938  1.00  0.00     0.010 A 
ATOM     16  C   UNL A   1      28.397  28.327  23.025  1.00  0.00     0.010 A 
ATOM     17  C   UNL A   1      28.921  30.867  21.977  1.00  0.00     0.001 A 
ATOM     18  C   UNL A   1      27.416  29.320  23.065  1.00  0.00     0.001 A 
ATOM     19  C   UNL A   1      27.682  30.590  22.551  1.00  0.00     0.000 A 
ENDBRANCH  12  14
BRANCH  13  20
ATOM     20  C   UNL A   1      31.643  28.248  24.999  1.00  0.00     0.020 A 
ATOM     21  C   UNL A   1      31.448  27.576  26.209  1.00  0.00     0.012 A 
ATOM     22  C   UNL A   1      32.011  29.605  25.039  1.00  0.00     0.012 A 
ATOM     23  C   UNL A   1      31.648  28.240  27.427  1.00  0.00     0.001 A 
ATOM     24  C   UNL A   1      32.225  30.262  26.251  1.00  0.00     0.001 A 
ATOM     25  C   UNL A   1      32.043  29.578  27.446  1.00  0.00     0.000 A 
ENDBRANCH  13  20
ENDBRANCH   8   9
ENDBRANCH   7   8
ENDBRANCH   5   7
ENDBRANCH   2   3
ENDBRANCH   1   2
BRANCH   1  26
ATOM     26  C   UNL A   1      37.190  21.698  24.800  1.00  0.00     0.118 C 
BRANCH  26  27
ATOM     27  N   UNL A   1      38.084  20.683  25.339  1.00  0.00    -0.352 N 
ATOM     28  C   UNL A   1      39.242  20.839  26.061  1.00  0.00     0.251 C 
ATOM     29  H   UNL A   1      37.820  19.752  25.161  1.00  0.00     0.163 HD
ATOM     30  O   UNL A   1      39.906  19.845  26.360  1.00  0.00    -0.269 OA
BRANCH  28  31
ATOM     31  C   UNL A   1      39.707  22.184  26.472  1.00  0.00     0.039 A 
ATOM     32  C   UNL A   1      40.715  22.284  27.437  1.00  0.00     0.014 A 
ATOM     33  C   UNL A   1      39.149  23.344  25.930  1.00  0.00     0.014 A 
ATOM     34  C   UNL A   1      41.210  23.539  27.802  1.00  0.00     0.010 A 
ATOM     35  C   UNL A   1      39.670  24.589  26.255  1.00  0.00     0.010 A 
ATOM     36  C   UNL A   1      40.713  24.697  27.185  1.00  0.00    -0.014 A 
BRANCH  36  37
ATOM     37  C   UNL A   1      41.299  26.034  27.427  1.00  0.00     0.031 A 
ATOM     38  C   UNL A   1      42.729  26.309  27.066  1.00  0.00     0.074 A 
ATOM     39  C   UNL A   1      40.580  26.938  28.121  1.00  0.00     0.049 A 
ATOM     40  N   UNL A   1      43.455  27.366  27.322  1.00  0.00    -0.248 NA
ATOM     41  C   UNL A   1      43.448  25.245  26.346  1.00  0.00     0.031 C 
ATOM     42  C   UNL A   1      39.209  26.736  28.599  1.00  0.00     0.029 A 
ATOM     43  N   UNL A   1      40.917  28.180  28.594  1.00  0.00    -0.354 N 
ATOM     44  C   UNL A   1      44.723  27.085  26.825  1.00  0.00     0.074 A 
ATOM     45  C   UNL A   1      44.673  25.748  26.274  1.00  0.00     0.031 C 
ATOM     46  C   UNL A   1      38.832  27.808  29.314  1.00  0.00     0.029 A 
ATOM     47  C   UNL A   1      39.939  28.754  29.372  1.00  0.00     0.049 A 
ATOM     48  H   UNL A   1      41.777  28.619  28.395  1.00  0.00     0.167 HD
ATOM     49  C   UNL A   1      45.820  27.879  26.816  1.00  0.00     0.034 A 
ATOM     50  C   UNL A   1      39.943  29.905  30.072  1.00  0.00     0.034 A 
ATOM     51  C   UNL A   1      45.847  29.213  27.357  1.00  0.00     0.049 A 
ATOM     52  C   UNL A   1      41.164  30.779  30.021  1.00  0.00     0.074 A 
ATOM     53  C   UNL A   1      46.879  30.134  27.324  1.00  0.00     0.029 A 
ATOM     54  N   UNL A   1      44.800  29.808  28.046  1.00  0.00    -0.354 N 
ATOM     55  N   UNL A   1      42.304  30.568  29.408  1.00  0.00    -0.248 NA
ATOM     56  C   UNL A   1      41.089  32.068  30.722  1.00  0.00     0.031 C 
ATOM     57  C   UNL A   1      46.467  31.274  28.022  1.00  0.00     0.029 A 
ATOM     58  C   UNL A   1      45.164  31.081  28.452  1.00  0.00     0.049 A 
ATOM     59  H   UNL A   1      43.927  29.389  28.219  1.00  0.00     0.167 HD
ATOM     60  C   UNL A   1      43.063  31.715  29.608  1.00  0.00     0.074 A 
ATOM     61  C   UNL A   1      42.249  32.621  30.392  1.00  0.00     0.031 C 
ATOM     62  C   UNL A   1      44.320  31.991  29.183  1.00  0.00     0.034 A 
BRANCH  49  63
ATOM     63  C   UNL A   1      47.070  27.347  26.165  1.00  0.00     0.023 A 
ATOM     64  C   UNL A   1      47.325  27.631  24.808  1.00  0.00     0.012 A 
ATOM     65  C   UNL A   1      48.025  26.625  26.908  1.00  0.00     0.148 A 
ATOM     66  C   UNL A   1      48.490  27.176  24.191  1.00  0.00     0.002 A 
ATOM     67  C   UNL A   1      49.206  26.214  26.298  1.00  0.00     0.091 A 
ATOM     68  F   UNL A   1      47.758  26.346  28.192  1.00  0.00    -0.205 F 
ATOM     69  C   UNL A   1      49.434  26.478  24.939  1.00  0.00     0.022 A 
BRANCH  67  70
ATOM     70  S   UNL A   1      50.519  25.378  27.193  1.00  0.00     0.127 S 
ATOM     71  O   UNL A   1      51.420  24.997  26.105  1.00  0.00    -0.237 OA
ATOM     72  O   UNL A   1      51.027  26.441  28.060  1.00  0.00    -0.237 OA
ATOM     73  O   UNL A   1      49.888  24.269  27.895  1.00  0.00    -0.744 OA
ENDBRANCH  67  70
ENDBRANCH  49  63
BRANCH  50  74
ATOM     74  C   UNL A   1      38.726  30.321  30.824  1.00  0.00     0.023 A 
ATOM     75  C   UNL A   1      38.628  30.018  32.196  1.00  0.00     0.012 A 
ATOM     76  C   UNL A   1      37.687  31.040  30.202  1.00  0.00     0.148 A 
ATOM     77  C   UNL A   1      37.502  30.393  32.928  1.00  0.00     0.002 A 
ATOM     78  C   UNL A   1      36.593  31.459  30.951  1.00  0.00     0.091 A 
ATOM     79  F   UNL A   1      37.800  31.316  28.895  1.00  0.00    -0.205 F 
ATOM     80  C   UNL A   1      36.490  31.121  32.309  1.00  0.00     0.022 A 
BRANCH  78  81
ATOM     81  S   UNL A   1      35.305  32.510  30.270  1.00  0.00     0.127 S 
ATOM     82  O   UNL A   1      34.317  32.506  31.347  1.00  0.00    -0.237 OA
ATOM     83  O   UNL A   1      36.015  33.777  30.091  1.00  0.00    -0.237 OA
ATOM     84  O   UNL A   1      34.890  31.873  29.029  1.00  0.00    -0.744 OA
ENDBRANCH  78  81
ENDBRANCH  50  74
BRANCH  62  85
ATOM     85  C   UNL A   1      44.882  33.353  29.497  1.00  0.00     0.023 A 
ATOM     86  C   UNL A   1      45.552  33.582  30.715  1.00  0.00     0.012 A 
ATOM     87  C   UNL A   1      44.815  34.383  28.538  1.00  0.00     0.148 A 
ATOM     88  C   UNL A   1      46.121  34.825  30.985  1.00  0.00     0.002 A 
ATOM     89  C   UNL A   1      45.431  35.602  28.792  1.00  0.00     0.091 A 
ATOM     90  F   UNL A   1      44.156  34.150  27.394  1.00  0.00    -0.205 F 
ATOM     91  C   UNL A   1      46.073  35.830  30.020  1.00  0.00     0.022 A 
BRANCH  89  92
ATOM     92  S   UNL A   1      45.510  36.914  27.569  1.00  0.00     0.127 S 
ATOM     93  O   UNL A   1      46.131  36.228  26.437  1.00  0.00    -0.237 OA
ATOM     94  O   UNL A   1      44.099  37.248  27.381  1.00  0.00    -0.237 OA
ATOM     95  O   UNL A   1      46.309  37.975  28.168  1.00  0.00    -0.744 OA
ENDBRANCH  89  92
ENDBRANCH  62  85
ENDBRANCH  36  37
ENDBRANCH  28  31
ENDBRANCH  26  27
ENDBRANCH   1  26
TORSDOF 17
ENDMDL
