MODEL 1
REMARK VINA RESULT:     -11.1      0.000      0.000
REMARK SMILES C[C@@H](C(=O)NCCCNC(=O)c1ccc(-c2c3nc(c(-c4cccc(S(=O)(=O)[O-])c4F)c4ccc([nH]4)c(-c4cccc(S(=O)(=O)[O-])c4F)c4nc(c(-c5cccc(S(=O)(=O)[O-])c5F)c5ccc2[nH]5)C=C4)C=C3)cc1)c1ccc(O[C@H]2CCCC2=O)cc1F
REMARK SMILES IDX 7 1 6 2 5 3 3 4 4 5 2 7 1 8 75 9 76 10 87 11 77 12 86 13
REMARK SMILES IDX 88 14 78 15 79 16 80 17 81 18 84 19 82 20 83 21 85 22 8 23
REMARK SMILES IDX 9 24 10 25 11 27 12 28 13 29 74 30 14 31 73 32 15 33 16 34
REMARK SMILES IDX 17 35 67 36 18 37 72 38 66 39 68 40 19 41 71 42 65 43 64 44
REMARK SMILES IDX 20 46 52 47 32 48 51 49 33 50 36 51 50 52 69 53 34 54 35 55
REMARK SMILES IDX 49 57 70 58 37 59 21 60 22 61 30 62 23 63 25 64 31 65 24 66
REMARK SMILES IDX 26 67 27 68 28 69 29 70 53 71 54 72 62 73 55 74 57 75 63 76
REMARK SMILES IDX 56 77 58 78 59 79 60 80 61 81 38 82 39 83 47 84 40 85 42 86
REMARK SMILES IDX 48 87 41 88 43 89 44 90 45 91 46 92
REMARK H PARENT 5 6 9 26 68 45 36 56
REMARK Flexibility Score: inf
ROOT
ATOM      1  C   UNL A   1      34.638  34.709  28.262  1.00  0.00     0.042 C 
ENDROOT
BRANCH   1   2
ATOM      2  C   UNL A   1      33.270  35.085  28.829  1.00  0.00     0.117 C 
BRANCH   2   3
ATOM      3  N   UNL A   1      33.290  36.355  29.527  1.00  0.00    -0.356 N 
ATOM      4  C   UNL A   1      32.983  36.665  30.820  1.00  0.00     0.227 C 
ATOM      5  O   UNL A   1      33.232  37.821  31.174  1.00  0.00    -0.274 OA
ATOM      6  H   UNL A   1      33.571  37.122  28.977  1.00  0.00     0.163 HD
BRANCH   4   7
ATOM      7  C   UNL A   1      32.450  35.584  31.781  1.00  0.00     0.108 C 
ATOM      8  C   UNL A   1      31.404  36.099  32.774  1.00  0.00     0.023 C 
BRANCH   7   9
ATOM      9  C   UNL A   1      33.566  34.910  32.569  1.00  0.00     0.000 A 
ATOM     10  C   UNL A   1      33.937  33.588  32.307  1.00  0.00     0.011 A 
ATOM     11  C   UNL A   1      34.213  35.577  33.616  1.00  0.00     0.130 A 
ATOM     12  C   UNL A   1      34.922  32.968  33.084  1.00  0.00     0.047 A 
ATOM     13  C   UNL A   1      35.196  34.963  34.387  1.00  0.00     0.086 A 
ATOM     14  F   UNL A   1      33.869  36.836  33.924  1.00  0.00    -0.207 F 
ATOM     15  C   UNL A   1      35.563  33.650  34.124  1.00  0.00     0.123 A 
BRANCH  15  16
ATOM     16  O   UNL A   1      36.486  32.909  34.796  1.00  0.00    -0.483 OA
BRANCH  16  17
ATOM     17  C   UNL A   1      37.868  33.101  34.613  1.00  0.00     0.239 C 
ATOM     18  C   UNL A   1      38.289  33.224  33.141  1.00  0.00     0.054 C 
ATOM     19  C   UNL A   1      38.683  34.184  35.316  1.00  0.00     0.173 C 
ATOM     20  C   UNL A   1      39.093  34.516  33.013  1.00  0.00     0.012 C 
ATOM     21  C   UNL A   1      39.682  34.814  34.385  1.00  0.00     0.080 C 
ATOM     22  O   UNL A   1      38.590  34.471  36.503  1.00  0.00    -0.296 OA
ENDBRANCH  16  17
ENDBRANCH  15  16
ENDBRANCH   7   9
ENDBRANCH   4   7
ENDBRANCH   2   3
ENDBRANCH   1   2
BRANCH   1  23
ATOM     23  C   UNL A   1      35.149  33.332  28.679  1.00  0.00     0.118 C 
BRANCH  23  24
ATOM     24  N   UNL A   1      34.380  32.243  28.097  1.00  0.00    -0.352 N 
ATOM     25  C   UNL A   1      34.729  30.946  27.818  1.00  0.00     0.251 C 
ATOM     26  H   UNL A   1      33.452  32.477  27.862  1.00  0.00     0.163 HD
ATOM     27  O   UNL A   1      33.953  30.258  27.157  1.00  0.00    -0.269 OA
BRANCH  25  28
ATOM     28  C   UNL A   1      36.013  30.368  28.281  1.00  0.00     0.039 A 
ATOM     29  C   UNL A   1      37.120  30.455  27.431  1.00  0.00     0.014 A 
ATOM     30  C   UNL A   1      36.130  29.694  29.500  1.00  0.00     0.014 A 
ATOM     31  C   UNL A   1      38.348  29.914  27.824  1.00  0.00     0.010 A 
ATOM     32  C   UNL A   1      37.373  29.218  29.922  1.00  0.00     0.010 A 
ATOM     33  C   UNL A   1      38.495  29.317  29.087  1.00  0.00    -0.014 A 
BRANCH  33  34
ATOM     34  C   UNL A   1      39.825  28.831  29.541  1.00  0.00     0.031 A 
ATOM     35  C   UNL A   1      40.570  29.522  30.653  1.00  0.00     0.074 A 
ATOM     36  C   UNL A   1      40.391  27.784  28.909  1.00  0.00     0.049 A 
ATOM     37  N   UNL A   1      41.721  29.208  31.190  1.00  0.00    -0.248 NA
ATOM     38  C   UNL A   1      39.957  30.734  31.220  1.00  0.00     0.031 C 
ATOM     39  C   UNL A   1      39.819  27.087  27.754  1.00  0.00     0.029 A 
ATOM     40  N   UNL A   1      41.577  27.132  29.134  1.00  0.00    -0.354 N 
ATOM     41  C   UNL A   1      41.981  30.188  32.141  1.00  0.00     0.074 A 
ATOM     42  C   UNL A   1      40.885  31.131  32.079  1.00  0.00     0.031 C 
ATOM     43  C   UNL A   1      40.647  26.099  27.382  1.00  0.00     0.029 A 
ATOM     44  C   UNL A   1      41.818  26.103  28.254  1.00  0.00     0.049 A 
ATOM     45  H   UNL A   1      42.198  27.378  29.859  1.00  0.00     0.167 HD
ATOM     46  C   UNL A   1      43.018  30.280  33.008  1.00  0.00     0.034 A 
ATOM     47  C   UNL A   1      42.859  25.254  28.159  1.00  0.00     0.034 A 
ATOM     48  C   UNL A   1      44.091  29.323  33.091  1.00  0.00     0.049 A 
ATOM     49  C   UNL A   1      43.968  25.341  29.172  1.00  0.00     0.074 A 
ATOM     50  C   UNL A   1      45.142  29.283  33.990  1.00  0.00     0.029 A 
ATOM     51  N   UNL A   1      44.257  28.242  32.239  1.00  0.00    -0.354 N 
ATOM     52  N   UNL A   1      44.105  26.172  30.176  1.00  0.00    -0.248 NA
ATOM     53  C   UNL A   1      45.044  24.346  29.063  1.00  0.00     0.031 C 
ATOM     54  C   UNL A   1      45.954  28.188  33.670  1.00  0.00     0.029 A 
ATOM     55  C   UNL A   1      45.396  27.533  32.585  1.00  0.00     0.049 A 
ATOM     56  H   UNL A   1      43.654  28.012  31.495  1.00  0.00     0.167 HD
ATOM     57  C   UNL A   1      45.267  25.786  30.833  1.00  0.00     0.074 A 
ATOM     58  C   UNL A   1      45.776  24.624  30.133  1.00  0.00     0.031 C 
ATOM     59  C   UNL A   1      45.872  26.355  31.905  1.00  0.00     0.034 A 
BRANCH  46  60
ATOM     60  C   UNL A   1      43.011  31.424  33.990  1.00  0.00     0.023 A 
ATOM     61  C   UNL A   1      43.541  32.671  33.599  1.00  0.00     0.012 A 
ATOM     62  C   UNL A   1      42.427  31.294  35.265  1.00  0.00     0.148 A 
ATOM     63  C   UNL A   1      43.522  33.760  34.471  1.00  0.00     0.002 A 
ATOM     64  C   UNL A   1      42.373  32.394  36.114  1.00  0.00     0.091 A 
ATOM     65  F   UNL A   1      41.944  30.097  35.628  1.00  0.00    -0.205 F 
ATOM     66  C   UNL A   1      42.930  33.624  35.722  1.00  0.00     0.022 A 
BRANCH  64  67
ATOM     67  S   UNL A   1      41.563  32.347  37.718  1.00  0.00     0.127 S 
ATOM     68  O   UNL A   1      40.253  31.799  37.370  1.00  0.00    -0.237 OA
ATOM     69  O   UNL A   1      42.425  31.436  38.471  1.00  0.00    -0.237 OA
ATOM     70  O   UNL A   1      41.558  33.719  38.204  1.00  0.00    -0.744 OA
ENDBRANCH  64  67
ENDBRANCH  46  60
BRANCH  47  71
ATOM     71  C   UNL A   1      42.859  24.197  27.108  1.00  0.00     0.023 A 
ATOM     72  C   UNL A   1      43.580  24.404  25.917  1.00  0.00     0.012 A 
ATOM     73  C   UNL A   1      42.182  22.977  27.299  1.00  0.00     0.148 A 
ATOM     74  C   UNL A   1      43.602  23.428  24.920  1.00  0.00     0.002 A 
ATOM     75  C   UNL A   1      42.256  21.986  26.327  1.00  0.00     0.091 A 
ATOM     76  F   UNL A   1      41.490  22.806  28.434  1.00  0.00    -0.205 F 
ATOM     77  C   UNL A   1      42.950  22.216  25.130  1.00  0.00     0.022 A 
BRANCH  75  78
ATOM     78  S   UNL A   1      41.568  20.345  26.579  1.00  0.00     0.127 S 
ATOM     79  O   UNL A   1      40.133  20.621  26.591  1.00  0.00    -0.237 OA
ATOM     80  O   UNL A   1      42.047  19.631  25.396  1.00  0.00    -0.237 OA
ATOM     81  O   UNL A   1      42.136  19.873  27.833  1.00  0.00    -0.744 OA
ENDBRANCH  75  78
ENDBRANCH  47  71
BRANCH  59  82
ATOM     82  C   UNL A   1      47.149  25.723  32.395  1.00  0.00     0.023 A 
ATOM     83  C   UNL A   1      48.382  26.121  31.839  1.00  0.00     0.012 A 
ATOM     84  C   UNL A   1      47.137  24.768  33.431  1.00  0.00     0.148 A 
ATOM     85  C   UNL A   1      49.577  25.547  32.274  1.00  0.00     0.002 A 
ATOM     86  C   UNL A   1      48.335  24.236  33.893  1.00  0.00     0.091 A 
ATOM     87  F   UNL A   1      45.954  24.385  33.936  1.00  0.00    -0.205 F 
ATOM     88  C   UNL A   1      49.554  24.613  33.308  1.00  0.00     0.022 A 
BRANCH  86  89
ATOM     89  S   UNL A   1      48.405  23.097  35.281  1.00  0.00     0.127 S 
ATOM     90  O   UNL A   1      49.841  22.842  35.386  1.00  0.00    -0.237 OA
ATOM     91  O   UNL A   1      47.846  23.896  36.372  1.00  0.00    -0.237 OA
ATOM     92  O   UNL A   1      47.588  21.953  34.896  1.00  0.00    -0.744 OA
ENDBRANCH  86  89
ENDBRANCH  59  82
ENDBRANCH  33  34
ENDBRANCH  25  28
ENDBRANCH  23  24
ENDBRANCH   1  23
TORSDOF 16
ENDMDL
MODEL 2
REMARK VINA RESULT:     -11.1      4.555     10.757
REMARK SMILES C[C@@H](C(=O)NCCCNC(=O)c1ccc(-c2c3nc(c(-c4cccc(S(=O)(=O)[O-])c4F)c4ccc([nH]4)c(-c4cccc(S(=O)(=O)[O-])c4F)c4nc(c(-c5cccc(S(=O)(=O)[O-])c5F)c5ccc2[nH]5)C=C4)C=C3)cc1)c1ccc(O[C@H]2CCCC2=O)cc1F
REMARK SMILES IDX 7 1 6 2 5 3 3 4 4 5 2 7 1 8 75 9 76 10 87 11 77 12 86 13
REMARK SMILES IDX 88 14 78 15 79 16 80 17 81 18 84 19 82 20 83 21 85 22 8 23
REMARK SMILES IDX 9 24 10 25 11 27 12 28 13 29 74 30 14 31 73 32 15 33 16 34
REMARK SMILES IDX 17 35 67 36 18 37 72 38 66 39 68 40 19 41 71 42 65 43 64 44
REMARK SMILES IDX 20 46 52 47 32 48 51 49 33 50 36 51 50 52 69 53 34 54 35 55
REMARK SMILES IDX 49 57 70 58 37 59 21 60 22 61 30 62 23 63 25 64 31 65 24 66
REMARK SMILES IDX 26 67 27 68 28 69 29 70 53 71 54 72 62 73 55 74 57 75 63 76
REMARK SMILES IDX 56 77 58 78 59 79 60 80 61 81 38 82 39 83 47 84 40 85 42 86
REMARK SMILES IDX 48 87 41 88 43 89 44 90 45 91 46 92
REMARK H PARENT 5 6 9 26 68 45 36 56
REMARK Flexibility Score: inf
ROOT
ATOM      1  C   UNL A   1      31.384  32.347  26.473  1.00  0.00     0.042 C 
ENDROOT
BRANCH   1   2
ATOM      2  C   UNL A   1      31.229  30.829  26.390  1.00  0.00     0.117 C 
BRANCH   2   3
ATOM      3  N   UNL A   1      31.888  30.267  25.229  1.00  0.00    -0.356 N 
ATOM      4  C   UNL A   1      32.755  29.219  25.117  1.00  0.00     0.227 C 
ATOM      5  O   UNL A   1      33.046  28.875  23.968  1.00  0.00    -0.274 OA
ATOM      6  H   UNL A   1      31.675  30.715  24.378  1.00  0.00     0.163 HD
BRANCH   4   7
ATOM      7  C   UNL A   1      33.246  28.470  26.372  1.00  0.00     0.108 C 
ATOM      8  C   UNL A   1      34.707  28.756  26.734  1.00  0.00     0.023 C 
BRANCH   7   9
ATOM      9  C   UNL A   1      33.071  26.962  26.249  1.00  0.00     0.000 A 
ATOM     10  C   UNL A   1      34.127  26.145  25.831  1.00  0.00     0.011 A 
ATOM     11  C   UNL A   1      31.833  26.358  26.495  1.00  0.00     0.130 A 
ATOM     12  C   UNL A   1      33.926  24.769  25.666  1.00  0.00     0.047 A 
ATOM     13  C   UNL A   1      31.634  24.989  26.335  1.00  0.00     0.086 A 
ATOM     14  F   UNL A   1      30.783  27.105  26.868  1.00  0.00    -0.207 F 
ATOM     15  C   UNL A   1      32.682  24.181  25.922  1.00  0.00     0.123 A 
BRANCH  15  16
ATOM     16  O   UNL A   1      32.642  22.837  25.701  1.00  0.00    -0.483 OA
BRANCH  16  17
ATOM     17  C   UNL A   1      32.940  22.283  24.442  1.00  0.00     0.239 C 
ATOM     18  C   UNL A   1      33.295  20.790  24.488  1.00  0.00     0.054 C 
ATOM     19  C   UNL A   1      32.037  22.404  23.217  1.00  0.00     0.173 C 
ATOM     20  C   UNL A   1      32.386  20.083  23.485  1.00  0.00     0.012 C 
ATOM     21  C   UNL A   1      31.982  21.117  22.443  1.00  0.00     0.080 C 
ATOM     22  O   UNL A   1      31.472  23.432  22.863  1.00  0.00    -0.296 OA
ENDBRANCH  16  17
ENDBRANCH  15  16
ENDBRANCH   7   9
ENDBRANCH   4   7
ENDBRANCH   2   3
ENDBRANCH   1   2
BRANCH   1  23
ATOM     23  C   UNL A   1      32.629  32.825  27.218  1.00  0.00     0.118 C 
BRANCH  23  24
ATOM     24  N   UNL A   1      32.536  34.214  27.638  1.00  0.00    -0.352 N 
ATOM     25  C   UNL A   1      33.197  34.899  28.626  1.00  0.00     0.251 C 
ATOM     26  H   UNL A   1      31.891  34.755  27.127  1.00  0.00     0.163 HD
ATOM     27  O   UNL A   1      32.817  36.034  28.910  1.00  0.00    -0.269 OA
BRANCH  25  28
ATOM     28  C   UNL A   1      34.336  34.300  29.362  1.00  0.00     0.039 A 
ATOM     29  C   UNL A   1      34.056  33.456  30.441  1.00  0.00     0.014 A 
ATOM     30  C   UNL A   1      35.665  34.601  29.048  1.00  0.00     0.014 A 
ATOM     31  C   UNL A   1      35.100  32.878  31.167  1.00  0.00     0.010 A 
ATOM     32  C   UNL A   1      36.707  33.966  29.729  1.00  0.00     0.010 A 
ATOM     33  C   UNL A   1      36.437  33.104  30.800  1.00  0.00    -0.014 A 
BRANCH  33  34
ATOM     34  C   UNL A   1      37.543  32.409  31.513  1.00  0.00     0.031 A 
ATOM     35  C   UNL A   1      38.284  31.265  30.875  1.00  0.00     0.074 A 
ATOM     36  C   UNL A   1      37.848  32.784  32.771  1.00  0.00     0.049 A 
ATOM     37  N   UNL A   1      39.292  30.574  31.346  1.00  0.00    -0.248 NA
ATOM     38  C   UNL A   1      37.824  30.821  29.550  1.00  0.00     0.031 C 
ATOM     39  C   UNL A   1      37.142  33.813  33.538  1.00  0.00     0.029 A 
ATOM     40  N   UNL A   1      38.817  32.336  33.632  1.00  0.00    -0.354 N 
ATOM     41  C   UNL A   1      39.573  29.605  30.389  1.00  0.00     0.074 A 
ATOM     42  C   UNL A   1      38.603  29.772  29.328  1.00  0.00     0.031 C 
ATOM     43  C   UNL A   1      37.710  33.926  34.749  1.00  0.00     0.029 A 
ATOM     44  C   UNL A   1      38.803  32.965  34.855  1.00  0.00     0.049 A 
ATOM     45  H   UNL A   1      39.462  31.629  33.397  1.00  0.00     0.167 HD
ATOM     46  C   UNL A   1      40.566  28.684  30.378  1.00  0.00     0.034 A 
ATOM     47  C   UNL A   1      39.585  32.794  35.939  1.00  0.00     0.034 A 
ATOM     48  C   UNL A   1      41.551  28.541  31.418  1.00  0.00     0.049 A 
ATOM     49  C   UNL A   1      40.716  31.805  35.877  1.00  0.00     0.074 A 
ATOM     50  C   UNL A   1      42.644  27.693  31.460  1.00  0.00     0.029 A 
ATOM     51  N   UNL A   1      41.558  29.255  32.606  1.00  0.00    -0.354 N 
ATOM     52  N   UNL A   1      41.072  31.020  34.890  1.00  0.00    -0.248 NA
ATOM     53  C   UNL A   1      41.578  31.709  37.063  1.00  0.00     0.031 C 
ATOM     54  C   UNL A   1      43.302  27.883  32.681  1.00  0.00     0.029 A 
ATOM     55  C   UNL A   1      42.632  28.865  33.391  1.00  0.00     0.049 A 
ATOM     56  H   UNL A   1      40.897  29.941  32.856  1.00  0.00     0.167 HD
ATOM     57  C   UNL A   1      42.213  30.356  35.325  1.00  0.00     0.074 A 
ATOM     58  C   UNL A   1      42.508  30.858  36.651  1.00  0.00     0.031 C 
ATOM     59  C   UNL A   1      42.938  29.399  34.693  1.00  0.00     0.034 A 
BRANCH  46  60
ATOM     60  C   UNL A   1      40.681  27.794  29.165  1.00  0.00     0.023 A 
ATOM     61  C   UNL A   1      39.864  26.649  29.069  1.00  0.00     0.012 A 
ATOM     62  C   UNL A   1      41.541  28.117  28.097  1.00  0.00     0.148 A 
ATOM     63  C   UNL A   1      39.922  25.821  27.949  1.00  0.00     0.002 A 
ATOM     64  C   UNL A   1      41.563  27.311  26.963  1.00  0.00     0.091 A 
ATOM     65  F   UNL A   1      42.325  29.198  28.211  1.00  0.00    -0.205 F 
ATOM     66  C   UNL A   1      40.763  26.158  26.893  1.00  0.00     0.022 A 
BRANCH  64  67
ATOM     67  S   UNL A   1      42.554  27.698  25.514  1.00  0.00     0.127 S 
ATOM     68  O   UNL A   1      42.319  26.525  24.674  1.00  0.00    -0.237 OA
ATOM     69  O   UNL A   1      41.927  28.929  25.032  1.00  0.00    -0.237 OA
ATOM     70  O   UNL A   1      43.919  27.860  25.994  1.00  0.00    -0.744 OA
ENDBRANCH  64  67
ENDBRANCH  46  60
BRANCH  47  71
ATOM     71  C   UNL A   1      39.367  33.638  37.148  1.00  0.00     0.023 A 
ATOM     72  C   UNL A   1      39.832  34.967  37.159  1.00  0.00     0.012 A 
ATOM     73  C   UNL A   1      38.670  33.145  38.268  1.00  0.00     0.148 A 
ATOM     74  C   UNL A   1      39.634  35.780  38.276  1.00  0.00     0.002 A 
ATOM     75  C   UNL A   1      38.426  33.977  39.353  1.00  0.00     0.091 A 
ATOM     76  F   UNL A   1      38.248  31.872  38.243  1.00  0.00    -0.205 F 
ATOM     77  C   UNL A   1      38.922  35.289  39.367  1.00  0.00     0.022 A 
BRANCH  75  78
ATOM     78  S   UNL A   1      37.394  33.472  40.735  1.00  0.00     0.127 S 
ATOM     79  O   UNL A   1      38.201  32.416  41.340  1.00  0.00    -0.237 OA
ATOM     80  O   UNL A   1      37.309  34.706  41.517  1.00  0.00    -0.237 OA
ATOM     81  O   UNL A   1      36.132  33.050  40.145  1.00  0.00    -0.744 OA
ENDBRANCH  75  78
ENDBRANCH  47  71
BRANCH  59  82
ATOM     82  C   UNL A   1      44.129  28.839  35.426  1.00  0.00     0.023 A 
ATOM     83  C   UNL A   1      45.410  29.380  35.190  1.00  0.00     0.012 A 
ATOM     84  C   UNL A   1      43.981  27.809  36.375  1.00  0.00     0.148 A 
ATOM     85  C   UNL A   1      46.528  28.876  35.854  1.00  0.00     0.002 A 
ATOM     86  C   UNL A   1      45.093  27.345  37.069  1.00  0.00     0.091 A 
ATOM     87  F   UNL A   1      42.760  27.290  36.573  1.00  0.00    -0.205 F 
ATOM     88  C   UNL A   1      46.369  27.866  36.800  1.00  0.00     0.022 A 
BRANCH  86  89
ATOM     89  S   UNL A   1      44.965  26.111  38.368  1.00  0.00     0.127 S 
ATOM     90  O   UNL A   1      44.355  24.989  37.656  1.00  0.00    -0.237 OA
ATOM     91  O   UNL A   1      46.364  25.906  38.746  1.00  0.00    -0.237 OA
ATOM     92  O   UNL A   1      44.145  26.716  39.410  1.00  0.00    -0.744 OA
ENDBRANCH  86  89
ENDBRANCH  59  82
ENDBRANCH  33  34
ENDBRANCH  25  28
ENDBRANCH  23  24
ENDBRANCH   1  23
TORSDOF 16
ENDMDL
MODEL 3
REMARK VINA RESULT:     -11.0      4.581      8.178
REMARK SMILES C[C@@H](C(=O)NCCCNC(=O)c1ccc(-c2c3nc(c(-c4cccc(S(=O)(=O)[O-])c4F)c4ccc([nH]4)c(-c4cccc(S(=O)(=O)[O-])c4F)c4nc(c(-c5cccc(S(=O)(=O)[O-])c5F)c5ccc2[nH]5)C=C4)C=C3)cc1)c1ccc(O[C@H]2CCCC2=O)cc1F
REMARK SMILES IDX 7 1 6 2 5 3 3 4 4 5 2 7 1 8 75 9 76 10 87 11 77 12 86 13
REMARK SMILES IDX 88 14 78 15 79 16 80 17 81 18 84 19 82 20 83 21 85 22 8 23
REMARK SMILES IDX 9 24 10 25 11 27 12 28 13 29 74 30 14 31 73 32 15 33 16 34
REMARK SMILES IDX 17 35 67 36 18 37 72 38 66 39 68 40 19 41 71 42 65 43 64 44
REMARK SMILES IDX 20 46 52 47 32 48 51 49 33 50 36 51 50 52 69 53 34 54 35 55
REMARK SMILES IDX 49 57 70 58 37 59 21 60 22 61 30 62 23 63 25 64 31 65 24 66
REMARK SMILES IDX 26 67 27 68 28 69 29 70 53 71 54 72 62 73 55 74 57 75 63 76
REMARK SMILES IDX 56 77 58 78 59 79 60 80 61 81 38 82 39 83 47 84 40 85 42 86
REMARK SMILES IDX 48 87 41 88 43 89 44 90 45 91 46 92
REMARK H PARENT 5 6 9 26 68 45 36 56
REMARK Flexibility Score: inf
ROOT
ATOM      1  C   UNL A   1      31.786  28.764  27.049  1.00  0.00     0.042 C 
ENDROOT
BRANCH   1   2
ATOM      2  C   UNL A   1      31.849  27.253  26.831  1.00  0.00     0.117 C 
BRANCH   2   3
ATOM      3  N   UNL A   1      31.205  26.844  25.599  1.00  0.00    -0.356 N 
ATOM      4  C   UNL A   1      31.560  25.899  24.680  1.00  0.00     0.227 C 
ATOM      5  O   UNL A   1      30.734  25.668  23.792  1.00  0.00    -0.274 OA
ATOM      6  H   UNL A   1      30.374  27.328  25.389  1.00  0.00     0.163 HD
BRANCH   4   7
ATOM      7  C   UNL A   1      32.879  25.116  24.829  1.00  0.00     0.108 C 
ATOM      8  C   UNL A   1      33.979  25.562  23.861  1.00  0.00     0.023 C 
BRANCH   7   9
ATOM      9  C   UNL A   1      32.681  23.614  24.667  1.00  0.00     0.000 A 
ATOM     10  C   UNL A   1      32.991  22.971  23.465  1.00  0.00     0.011 A 
ATOM     11  C   UNL A   1      32.127  22.845  25.698  1.00  0.00     0.130 A 
ATOM     12  C   UNL A   1      32.743  21.601  23.318  1.00  0.00     0.047 A 
ATOM     13  C   UNL A   1      31.884  21.482  25.554  1.00  0.00     0.086 A 
ATOM     14  F   UNL A   1      31.785  23.425  26.858  1.00  0.00    -0.207 F 
ATOM     15  C   UNL A   1      32.194  20.846  24.360  1.00  0.00     0.123 A 
BRANCH  15  16
ATOM     16  O   UNL A   1      31.998  19.532  24.058  1.00  0.00    -0.483 OA
BRANCH  16  17
ATOM     17  C   UNL A   1      32.937  18.544  24.406  1.00  0.00     0.239 C 
ATOM     18  C   UNL A   1      32.758  17.987  25.826  1.00  0.00     0.054 C 
ATOM     19  C   UNL A   1      33.230  17.305  23.564  1.00  0.00     0.173 C 
ATOM     20  C   UNL A   1      32.676  16.467  25.703  1.00  0.00     0.012 C 
ATOM     21  C   UNL A   1      33.406  16.083  24.423  1.00  0.00     0.080 C 
ATOM     22  O   UNL A   1      33.367  17.302  22.347  1.00  0.00    -0.296 OA
ENDBRANCH  16  17
ENDBRANCH  15  16
ENDBRANCH   7   9
ENDBRANCH   4   7
ENDBRANCH   2   3
ENDBRANCH   1   2
BRANCH   1  23
ATOM     23  C   UNL A   1      32.834  29.567  26.280  1.00  0.00     0.118 C 
BRANCH  23  24
ATOM     24  N   UNL A   1      32.785  30.990  26.577  1.00  0.00    -0.352 N 
ATOM     25  C   UNL A   1      33.580  31.767  27.379  1.00  0.00     0.251 C 
ATOM     26  H   UNL A   1      32.058  31.478  26.125  1.00  0.00     0.163 HD
ATOM     27  O   UNL A   1      33.230  32.924  27.610  1.00  0.00    -0.269 OA
BRANCH  25  28
ATOM     28  C   UNL A   1      34.832  31.245  27.977  1.00  0.00     0.039 A 
ATOM     29  C   UNL A   1      35.934  32.102  28.057  1.00  0.00     0.014 A 
ATOM     30  C   UNL A   1      34.957  29.919  28.401  1.00  0.00     0.014 A 
ATOM     31  C   UNL A   1      37.136  31.648  28.606  1.00  0.00     0.010 A 
ATOM     32  C   UNL A   1      36.136  29.487  29.015  1.00  0.00     0.010 A 
ATOM     33  C   UNL A   1      37.240  30.344  29.118  1.00  0.00    -0.014 A 
BRANCH  33  34
ATOM     34  C   UNL A   1      38.490  29.895  29.790  1.00  0.00     0.031 A 
ATOM     35  C   UNL A   1      38.882  30.428  31.142  1.00  0.00     0.074 A 
ATOM     36  C   UNL A   1      39.305  29.034  29.149  1.00  0.00     0.049 A 
ATOM     37  N   UNL A   1      39.919  30.116  31.879  1.00  0.00    -0.248 NA
ATOM     38  C   UNL A   1      38.015  31.458  31.736  1.00  0.00     0.031 C 
ATOM     39  C   UNL A   1      39.089  28.517  27.795  1.00  0.00     0.029 A 
ATOM     40  N   UNL A   1      40.484  28.452  29.541  1.00  0.00    -0.354 N 
ATOM     41  C   UNL A   1      39.842  30.922  33.009  1.00  0.00     0.074 A 
ATOM     42  C   UNL A   1      38.677  31.766  32.842  1.00  0.00     0.031 C 
ATOM     43  C   UNL A   1      40.094  27.688  27.475  1.00  0.00     0.029 A 
ATOM     44  C   UNL A   1      41.037  27.628  28.588  1.00  0.00     0.049 A 
ATOM     45  H   UNL A   1      40.897  28.611  30.421  1.00  0.00     0.167 HD
ATOM     46  C   UNL A   1      40.645  30.938  34.100  1.00  0.00     0.034 A 
ATOM     47  C   UNL A   1      42.170  26.901  28.607  1.00  0.00     0.034 A 
ATOM     48  C   UNL A   1      41.784  30.075  34.279  1.00  0.00     0.049 A 
ATOM     49  C   UNL A   1      43.012  26.891  29.854  1.00  0.00     0.074 A 
ATOM     50  C   UNL A   1      42.610  29.957  35.384  1.00  0.00     0.029 A 
ATOM     51  N   UNL A   1      42.264  29.189  33.328  1.00  0.00    -0.354 N 
ATOM     52  N   UNL A   1      42.823  27.530  30.982  1.00  0.00    -0.248 NA
ATOM     53  C   UNL A   1      44.200  26.027  29.843  1.00  0.00     0.031 C 
ATOM     54  C   UNL A   1      43.601  29.012  35.092  1.00  0.00     0.029 A 
ATOM     55  C   UNL A   1      43.379  28.525  33.815  1.00  0.00     0.049 A 
ATOM     56  H   UNL A   1      41.870  29.050  32.436  1.00  0.00     0.167 HD
ATOM     57  C   UNL A   1      43.852  27.128  31.825  1.00  0.00     0.074 A 
ATOM     58  C   UNL A   1      44.641  26.162  31.087  1.00  0.00     0.031 C 
ATOM     59  C   UNL A   1      44.134  27.537  33.087  1.00  0.00     0.034 A 
BRANCH  46  60
ATOM     60  C   UNL A   1      40.282  31.876  35.223  1.00  0.00     0.023 A 
ATOM     61  C   UNL A   1      40.961  33.107  35.341  1.00  0.00     0.012 A 
ATOM     62  C   UNL A   1      39.236  31.579  36.119  1.00  0.00     0.148 A 
ATOM     63  C   UNL A   1      40.630  34.012  36.349  1.00  0.00     0.002 A 
ATOM     64  C   UNL A   1      38.881  32.504  37.095  1.00  0.00     0.091 A 
ATOM     65  F   UNL A   1      38.612  30.398  36.005  1.00  0.00    -0.205 F 
ATOM     66  C   UNL A   1      39.585  33.715  37.218  1.00  0.00     0.022 A 
BRANCH  64  67
ATOM     67  S   UNL A   1      37.499  32.254  38.217  1.00  0.00     0.127 S 
ATOM     68  O   UNL A   1      38.035  32.786  39.469  1.00  0.00    -0.237 OA
ATOM     69  O   UNL A   1      36.453  33.074  37.605  1.00  0.00    -0.237 OA
ATOM     70  O   UNL A   1      37.231  30.823  38.209  1.00  0.00    -0.744 OA
ENDBRANCH  64  67
ENDBRANCH  46  60
BRANCH  47  71
ATOM     71  C   UNL A   1      42.530  26.061  27.430  1.00  0.00     0.023 A 
ATOM     72  C   UNL A   1      43.337  26.604  26.412  1.00  0.00     0.012 A 
ATOM     73  C   UNL A   1      42.111  24.721  27.333  1.00  0.00     0.148 A 
ATOM     74  C   UNL A   1      43.694  25.836  25.302  1.00  0.00     0.002 A 
ATOM     75  C   UNL A   1      42.518  23.944  26.255  1.00  0.00     0.091 A 
ATOM     76  F   UNL A   1      41.331  24.227  28.306  1.00  0.00    -0.205 F 
ATOM     77  C   UNL A   1      43.294  24.504  25.230  1.00  0.00     0.022 A 
BRANCH  75  78
ATOM     78  S   UNL A   1      42.169  22.184  26.157  1.00  0.00     0.127 S 
ATOM     79  O   UNL A   1      40.713  22.174  26.030  1.00  0.00    -0.237 OA
ATOM     80  O   UNL A   1      42.895  21.799  24.945  1.00  0.00    -0.237 OA
ATOM     81  O   UNL A   1      42.706  21.611  27.382  1.00  0.00    -0.744 OA
ENDBRANCH  75  78
ENDBRANCH  47  71
BRANCH  59  82
ATOM     82  C   UNL A   1      45.341  26.933  33.756  1.00  0.00     0.023 A 
ATOM     83  C   UNL A   1      46.580  27.603  33.694  1.00  0.00     0.012 A 
ATOM     84  C   UNL A   1      45.244  25.729  34.481  1.00  0.00     0.148 A 
ATOM     85  C   UNL A   1      47.712  27.063  34.304  1.00  0.00     0.002 A 
ATOM     86  C   UNL A   1      46.366  25.221  35.127  1.00  0.00     0.091 A 
ATOM     87  F   UNL A   1      44.063  25.093  34.513  1.00  0.00    -0.205 F 
ATOM     88  C   UNL A   1      47.603  25.877  35.028  1.00  0.00     0.022 A 
BRANCH  86  89
ATOM     89  S   UNL A   1      46.293  23.750  36.156  1.00  0.00     0.127 S 
ATOM     90  O   UNL A   1      47.654  23.690  36.688  1.00  0.00    -0.237 OA
ATOM     91  O   UNL A   1      45.269  24.104  37.139  1.00  0.00    -0.237 OA
ATOM     92  O   UNL A   1      45.917  22.660  35.264  1.00  0.00    -0.744 OA
ENDBRANCH  86  89
ENDBRANCH  59  82
ENDBRANCH  33  34
ENDBRANCH  25  28
ENDBRANCH  23  24
ENDBRANCH   1  23
TORSDOF 16
ENDMDL
