MODEL 1
REMARK VINA RESULT:     -13.6      0.000      0.000
REMARK SMILES CN1C(=O)C[C@@H](C(=O)NCCCNC(=O)c2ccc(-c3c4nc(c(-c5cccc(S(=O)(=O)[O-])c5F)c5ccc([nH]5)c(-c5cccc(S(=O)(=O)[O-])c5F)c5nc(c(-c6cccc(S(=O)(=O)[O-])c6F)c6ccc3[nH]6)C=C5)C=C4)cc2)C12CCN(C(=O)c1ccccc1-n1cccn1)CC2
REMARK SMILES IDX 11 1 10 2 9 3 7 4 8 5 6 7 1 8 2 9 3 10 79 11 4 12 5 13 80 14
REMARK SMILES IDX 97 15 81 16 96 17 82 18 83 19 84 20 85 21 86 22 90 23 87 24
REMARK SMILES IDX 89 25 88 26 91 27 92 28 95 29 93 30 94 31 12 32 13 33 14 34
REMARK SMILES IDX 15 36 16 37 17 38 78 39 18 40 77 41 19 42 20 43 21 44 71 45
REMARK SMILES IDX 22 46 76 47 70 48 72 49 23 50 75 51 69 52 68 53 24 55 56 56
REMARK SMILES IDX 36 57 55 58 37 59 40 60 54 61 73 62 38 63 39 64 53 66 74 67
REMARK SMILES IDX 41 68 25 69 26 70 34 71 27 72 29 73 35 74 28 75 30 76 31 77
REMARK SMILES IDX 32 78 33 79 57 80 58 81 66 82 59 83 61 84 67 85 60 86 62 87
REMARK SMILES IDX 63 88 64 89 65 90 42 91 43 92 51 93 44 94 46 95 52 96 45 97
REMARK SMILES IDX 47 98 48 99 49 100 50 101
REMARK H PARENT 9 6 13 35 72 54 40 65
REMARK Flexibility Score: inf
ROOT
ATOM      1  C   UNL A   1      31.412  31.182  26.290  1.00  0.00     0.042 C 
ENDROOT
BRANCH   1   2
ATOM      2  C   UNL A   1      31.488  29.885  25.483  1.00  0.00     0.117 C 
BRANCH   2   3
ATOM      3  N   UNL A   1      32.681  29.752  24.654  1.00  0.00    -0.356 N 
ATOM      4  C   UNL A   1      32.940  29.190  23.447  1.00  0.00     0.226 C 
ATOM      5  O   UNL A   1      34.087  29.353  23.010  1.00  0.00    -0.275 OA
ATOM      6  H   UNL A   1      33.477  30.162  25.062  1.00  0.00     0.163 HD
BRANCH   4   7
ATOM      7  C   UNL A   1      31.959  28.357  22.618  1.00  0.00     0.113 C 
ATOM      8  C   UNL A   1      29.454  26.426  24.618  1.00  0.00     0.147 C 
ATOM      9  N   UNL A   1      30.208  27.303  23.739  1.00  0.00    -0.339 N 
ATOM     10  C   UNL A   1      29.634  28.428  23.161  1.00  0.00     0.223 C 
ATOM     11  C   UNL A   1      31.535  26.983  23.185  1.00  0.00     0.058 C 
ATOM     12  O   UNL A   1      28.495  28.840  23.322  1.00  0.00    -0.275 OA
ATOM     13  C   UNL A   1      30.667  29.109  22.310  1.00  0.00     0.116 C 
ATOM     14  C   UNL A   1      32.542  26.424  24.209  1.00  0.00     0.051 C 
ATOM     15  C   UNL A   1      31.340  25.920  22.057  1.00  0.00     0.051 C 
ATOM     16  C   UNL A   1      33.829  25.924  23.566  1.00  0.00     0.122 C 
ATOM     17  C   UNL A   1      32.640  25.310  21.522  1.00  0.00     0.122 C 
ATOM     18  N   UNL A   1      33.507  24.875  22.612  1.00  0.00    -0.338 N 
ATOM     19  C   UNL A   1      33.976  23.561  22.657  1.00  0.00     0.256 C 
ATOM     20  O   UNL A   1      33.752  22.733  21.776  1.00  0.00    -0.269 OA
BRANCH  19  21
ATOM     21  C   UNL A   1      34.838  23.134  23.789  1.00  0.00     0.065 A 
ATOM     22  C   UNL A   1      36.204  22.985  23.491  1.00  0.00     0.016 A 
ATOM     23  C   UNL A   1      34.400  22.983  25.113  1.00  0.00     0.077 A 
ATOM     24  C   UNL A   1      37.128  22.732  24.508  1.00  0.00     0.001 A 
ATOM     25  C   UNL A   1      35.348  22.786  26.136  1.00  0.00     0.029 A 
ATOM     26  C   UNL A   1      36.702  22.651  25.830  1.00  0.00     0.002 A 
BRANCH  23  27
ATOM     27  N   UNL A   1      33.034  23.004  25.486  1.00  0.00    -0.240 N 
ATOM     28  C   UNL A   1      31.989  22.273  24.967  1.00  0.00     0.115 A 
ATOM     29  N   UNL A   1      32.615  23.835  26.476  1.00  0.00    -0.177 NA
ATOM     30  C   UNL A   1      30.868  22.611  25.690  1.00  0.00     0.042 A 
ATOM     31  C   UNL A   1      31.315  23.570  26.612  1.00  0.00     0.135 A 
ENDBRANCH  23  27
ENDBRANCH  19  21
ENDBRANCH   4   7
ENDBRANCH   2   3
ENDBRANCH   1   2
BRANCH   1  32
ATOM     32  C   UNL A   1      32.648  31.454  27.137  1.00  0.00     0.118 C 
BRANCH  32  33
ATOM     33  N   UNL A   1      32.904  32.883  27.259  1.00  0.00    -0.352 N 
ATOM     34  C   UNL A   1      33.845  33.540  28.015  1.00  0.00     0.251 C 
ATOM     35  H   UNL A   1      32.316  33.463  26.723  1.00  0.00     0.163 HD
ATOM     36  O   UNL A   1      33.717  34.742  28.228  1.00  0.00    -0.269 OA
BRANCH  34  37
ATOM     37  C   UNL A   1      35.004  32.804  28.569  1.00  0.00     0.039 A 
ATOM     38  C   UNL A   1      36.297  33.257  28.292  1.00  0.00     0.014 A 
ATOM     39  C   UNL A   1      34.818  31.649  29.332  1.00  0.00     0.014 A 
ATOM     40  C   UNL A   1      37.397  32.584  28.831  1.00  0.00     0.010 A 
ATOM     41  C   UNL A   1      35.908  31.037  29.943  1.00  0.00     0.010 A 
ATOM     42  C   UNL A   1      37.211  31.487  29.689  1.00  0.00    -0.014 A 
BRANCH  42  43
ATOM     43  C   UNL A   1      38.364  30.798  30.327  1.00  0.00     0.031 A 
ATOM     44  C   UNL A   1      38.802  31.175  31.719  1.00  0.00     0.074 A 
ATOM     45  C   UNL A   1      39.071  29.892  29.622  1.00  0.00     0.049 A 
ATOM     46  N   UNL A   1      39.811  30.721  32.417  1.00  0.00    -0.248 NA
ATOM     47  C   UNL A   1      38.022  32.218  32.407  1.00  0.00     0.031 C 
ATOM     48  C   UNL A   1      38.800  29.499  28.237  1.00  0.00     0.029 A 
ATOM     49  N   UNL A   1      40.176  29.153  29.965  1.00  0.00    -0.354 N 
ATOM     50  C   UNL A   1      39.811  31.445  33.603  1.00  0.00     0.074 A 
ATOM     51  C   UNL A   1      38.725  32.396  33.516  1.00  0.00     0.031 C 
ATOM     52  C   UNL A   1      39.706  28.587  27.852  1.00  0.00     0.029 A 
ATOM     53  C   UNL A   1      40.643  28.353  28.947  1.00  0.00     0.049 A 
ATOM     54  H   UNL A   1      40.595  29.190  30.855  1.00  0.00     0.167 HD
ATOM     55  C   UNL A   1      40.619  31.313  34.682  1.00  0.00     0.034 A 
ATOM     56  C   UNL A   1      41.711  27.533  28.895  1.00  0.00     0.034 A 
ATOM     57  C   UNL A   1      41.673  30.339  34.781  1.00  0.00     0.049 A 
ATOM     58  C   UNL A   1      42.572  27.378  30.120  1.00  0.00     0.074 A 
ATOM     59  C   UNL A   1      42.489  30.064  35.863  1.00  0.00     0.029 A 
ATOM     60  N   UNL A   1      42.063  29.490  33.758  1.00  0.00    -0.354 N 
ATOM     61  N   UNL A   1      42.455  27.957  31.290  1.00  0.00    -0.248 NA
ATOM     62  C   UNL A   1      43.690  26.426  30.030  1.00  0.00     0.031 C 
ATOM     63  C   UNL A   1      43.397  29.071  35.483  1.00  0.00     0.029 A 
ATOM     64  C   UNL A   1      43.119  28.698  34.178  1.00  0.00     0.049 A 
ATOM     65  H   UNL A   1      41.651  29.454  32.864  1.00  0.00     0.167 HD
ATOM     66  C   UNL A   1      43.457  27.413  32.087  1.00  0.00     0.074 A 
ATOM     67  C   UNL A   1      44.158  26.443  31.271  1.00  0.00     0.031 C 
ATOM     68  C   UNL A   1      43.774  27.699  33.374  1.00  0.00     0.034 A 
BRANCH  55  69
ATOM     69  C   UNL A   1      40.369  32.214  35.863  1.00  0.00     0.023 A 
ATOM     70  C   UNL A   1      41.178  33.353  36.057  1.00  0.00     0.012 A 
ATOM     71  C   UNL A   1      39.298  31.972  36.746  1.00  0.00     0.148 A 
ATOM     72  C   UNL A   1      40.951  34.214  37.130  1.00  0.00     0.002 A 
ATOM     73  C   UNL A   1      39.047  32.860  37.785  1.00  0.00     0.091 A 
ATOM     74  F   UNL A   1      38.550  30.875  36.557  1.00  0.00    -0.205 F 
ATOM     75  C   UNL A   1      39.880  33.973  37.987  1.00  0.00     0.022 A 
BRANCH  73  76
ATOM     76  S   UNL A   1      37.643  32.688  38.892  1.00  0.00     0.127 S 
ATOM     77  O   UNL A   1      37.891  33.763  39.851  1.00  0.00    -0.237 OA
ATOM     78  O   UNL A   1      36.513  32.921  37.993  1.00  0.00    -0.237 OA
ATOM     79  O   UNL A   1      37.722  31.340  39.435  1.00  0.00    -0.744 OA
ENDBRANCH  73  76
ENDBRANCH  55  69
BRANCH  56  80
ATOM     80  C   UNL A   1      41.992  26.749  27.658  1.00  0.00     0.023 A 
ATOM     81  C   UNL A   1      42.568  27.390  26.545  1.00  0.00     0.012 A 
ATOM     82  C   UNL A   1      41.708  25.372  27.585  1.00  0.00     0.148 A 
ATOM     83  C   UNL A   1      42.820  26.684  25.368  1.00  0.00     0.002 A 
ATOM     84  C   UNL A   1      42.018  24.660  26.433  1.00  0.00     0.091 A 
ATOM     85  F   UNL A   1      41.152  24.779  28.652  1.00  0.00    -0.205 F 
ATOM     86  C   UNL A   1      42.554  25.318  25.314  1.00  0.00     0.022 A 
BRANCH  84  87
ATOM     87  S   UNL A   1      41.841  22.876  26.326  1.00  0.00     0.127 S 
ATOM     88  O   UNL A   1      42.459  22.590  25.034  1.00  0.00    -0.237 OA
ATOM     89  O   UNL A   1      42.606  22.426  27.489  1.00  0.00    -0.237 OA
ATOM     90  O   UNL A   1      40.410  22.615  26.418  1.00  0.00    -0.744 OA
ENDBRANCH  84  87
ENDBRANCH  56  80
BRANCH  68  91
ATOM     91  C   UNL A   1      44.898  26.922  34.007  1.00  0.00     0.023 A 
ATOM     92  C   UNL A   1      46.225  27.381  33.897  1.00  0.00     0.012 A 
ATOM     93  C   UNL A   1      44.624  25.777  34.781  1.00  0.00     0.148 A 
ATOM     94  C   UNL A   1      47.267  26.692  34.518  1.00  0.00     0.002 A 
ATOM     95  C   UNL A   1      45.659  25.126  35.441  1.00  0.00     0.091 A 
ATOM     96  F   UNL A   1      43.355  25.347  34.861  1.00  0.00    -0.205 F 
ATOM     97  C   UNL A   1      46.983  25.574  35.299  1.00  0.00     0.022 A 
BRANCH  95  98
ATOM     98  S   UNL A   1      45.376  23.742  36.550  1.00  0.00     0.127 S 
ATOM     99  O   UNL A   1      46.744  23.342  36.879  1.00  0.00    -0.237 OA
ATOM    100  O   UNL A   1      44.644  24.371  37.649  1.00  0.00    -0.237 OA
ATOM    101  O   UNL A   1      44.608  22.766  35.790  1.00  0.00    -0.744 OA
ENDBRANCH  95  98
ENDBRANCH  68  91
ENDBRANCH  42  43
ENDBRANCH  34  37
ENDBRANCH  32  33
ENDBRANCH   1  32
TORSDOF 15
ENDMDL
MODEL 2
REMARK VINA RESULT:     -13.4      4.960     10.377
REMARK SMILES CN1C(=O)C[C@@H](C(=O)NCCCNC(=O)c2ccc(-c3c4nc(c(-c5cccc(S(=O)(=O)[O-])c5F)c5ccc([nH]5)c(-c5cccc(S(=O)(=O)[O-])c5F)c5nc(c(-c6cccc(S(=O)(=O)[O-])c6F)c6ccc3[nH]6)C=C5)C=C4)cc2)C12CCN(C(=O)c1ccccc1-n1cccn1)CC2
REMARK SMILES IDX 11 1 10 2 9 3 7 4 8 5 6 7 1 8 2 9 3 10 79 11 4 12 5 13 80 14
REMARK SMILES IDX 97 15 81 16 96 17 82 18 83 19 84 20 85 21 86 22 90 23 87 24
REMARK SMILES IDX 89 25 88 26 91 27 92 28 95 29 93 30 94 31 12 32 13 33 14 34
REMARK SMILES IDX 15 36 16 37 17 38 78 39 18 40 77 41 19 42 20 43 21 44 71 45
REMARK SMILES IDX 22 46 76 47 70 48 72 49 23 50 75 51 69 52 68 53 24 55 56 56
REMARK SMILES IDX 36 57 55 58 37 59 40 60 54 61 73 62 38 63 39 64 53 66 74 67
REMARK SMILES IDX 41 68 25 69 26 70 34 71 27 72 29 73 35 74 28 75 30 76 31 77
REMARK SMILES IDX 32 78 33 79 57 80 58 81 66 82 59 83 61 84 67 85 60 86 62 87
REMARK SMILES IDX 63 88 64 89 65 90 42 91 43 92 51 93 44 94 46 95 52 96 45 97
REMARK SMILES IDX 47 98 48 99 49 100 50 101
REMARK H PARENT 9 6 13 35 72 54 40 65
REMARK Flexibility Score: inf
ROOT
ATOM      1  C   UNL A   1      37.186  21.045  24.311  1.00  0.00     0.042 C 
ENDROOT
BRANCH   1   2
ATOM      2  C   UNL A   1      35.817  20.599  24.828  1.00  0.00     0.117 C 
BRANCH   2   3
ATOM      3  N   UNL A   1      35.463  21.120  26.143  1.00  0.00    -0.356 N 
ATOM      4  C   UNL A   1      34.293  21.354  26.787  1.00  0.00     0.226 C 
ATOM      5  O   UNL A   1      34.389  21.733  27.962  1.00  0.00    -0.275 OA
ATOM      6  H   UNL A   1      36.250  21.357  26.685  1.00  0.00     0.163 HD
BRANCH   4   7
ATOM      7  C   UNL A   1      32.894  21.225  26.179  1.00  0.00     0.113 C 
ATOM      8  C   UNL A   1      32.687  22.029  22.529  1.00  0.00     0.147 C 
ATOM      9  N   UNL A   1      32.685  21.468  23.870  1.00  0.00    -0.339 N 
ATOM     10  C   UNL A   1      32.641  20.098  24.089  1.00  0.00     0.223 C 
ATOM     11  C   UNL A   1      32.489  22.255  25.100  1.00  0.00     0.058 C 
ATOM     12  O   UNL A   1      32.632  19.215  23.243  1.00  0.00    -0.275 OA
ATOM     13  C   UNL A   1      32.644  19.849  25.570  1.00  0.00     0.116 C 
ATOM     14  C   UNL A   1      33.318  23.552  25.172  1.00  0.00     0.051 C 
ATOM     15  C   UNL A   1      30.976  22.634  25.191  1.00  0.00     0.051 C 
ATOM     16  C   UNL A   1      32.945  24.432  26.359  1.00  0.00     0.122 C 
ATOM     17  C   UNL A   1      30.635  23.641  26.295  1.00  0.00     0.122 C 
ATOM     18  N   UNL A   1      31.538  24.785  26.263  1.00  0.00    -0.338 N 
ATOM     19  C   UNL A   1      31.028  26.083  26.179  1.00  0.00     0.256 C 
ATOM     20  O   UNL A   1      29.826  26.338  26.196  1.00  0.00    -0.269 OA
BRANCH  19  21
ATOM     21  C   UNL A   1      31.967  27.232  26.125  1.00  0.00     0.065 A 
ATOM     22  C   UNL A   1      32.149  27.927  27.333  1.00  0.00     0.016 A 
ATOM     23  C   UNL A   1      32.737  27.582  25.005  1.00  0.00     0.077 A 
ATOM     24  C   UNL A   1      33.117  28.929  27.436  1.00  0.00     0.001 A 
ATOM     25  C   UNL A   1      33.747  28.553  25.137  1.00  0.00     0.029 A 
ATOM     26  C   UNL A   1      33.927  29.229  26.345  1.00  0.00     0.002 A 
BRANCH  23  27
ATOM     27  N   UNL A   1      32.542  27.015  23.722  1.00  0.00    -0.240 N 
ATOM     28  C   UNL A   1      33.417  26.261  22.971  1.00  0.00     0.115 A 
ATOM     29  N   UNL A   1      31.362  27.199  23.073  1.00  0.00    -0.177 NA
ATOM     30  C   UNL A   1      32.751  25.906  21.821  1.00  0.00     0.042 A 
ATOM     31  C   UNL A   1      31.486  26.503  21.942  1.00  0.00     0.135 A 
ENDBRANCH  23  27
ENDBRANCH  19  21
ENDBRANCH   4   7
ENDBRANCH   2   3
ENDBRANCH   1   2
BRANCH   1  32
ATOM     32  C   UNL A   1      38.036  21.758  25.353  1.00  0.00     0.118 C 
BRANCH  32  33
ATOM     33  N   UNL A   1      38.891  20.823  26.072  1.00  0.00    -0.352 N 
ATOM     34  C   UNL A   1      40.079  21.051  26.724  1.00  0.00     0.251 C 
ATOM     35  H   UNL A   1      38.572  19.892  26.093  1.00  0.00     0.163 HD
ATOM     36  O   UNL A   1      40.805  20.102  27.007  1.00  0.00    -0.269 OA
BRANCH  34  37
ATOM     37  C   UNL A   1      40.483  22.429  27.081  1.00  0.00     0.039 A 
ATOM     38  C   UNL A   1      41.433  22.624  28.087  1.00  0.00     0.014 A 
ATOM     39  C   UNL A   1      39.900  23.530  26.450  1.00  0.00     0.014 A 
ATOM     40  C   UNL A   1      41.840  23.920  28.414  1.00  0.00     0.010 A 
ATOM     41  C   UNL A   1      40.373  24.813  26.711  1.00  0.00     0.010 A 
ATOM     42  C   UNL A   1      41.338  25.026  27.706  1.00  0.00    -0.014 A 
BRANCH  42  43
ATOM     43  C   UNL A   1      41.806  26.408  27.992  1.00  0.00     0.031 A 
ATOM     44  C   UNL A   1      43.212  26.822  27.646  1.00  0.00     0.074 A 
ATOM     45  C   UNL A   1      40.992  27.265  28.641  1.00  0.00     0.049 A 
ATOM     46  N   UNL A   1      43.812  27.964  27.863  1.00  0.00    -0.248 NA
ATOM     47  C   UNL A   1      44.067  25.815  26.995  1.00  0.00     0.031 C 
ATOM     48  C   UNL A   1      39.637  26.959  29.105  1.00  0.00     0.029 A 
ATOM     49  N   UNL A   1      41.194  28.562  29.044  1.00  0.00    -0.354 N 
ATOM     50  C   UNL A   1      45.117  27.801  27.415  1.00  0.00     0.074 A 
ATOM     51  C   UNL A   1      45.235  26.438  26.947  1.00  0.00     0.031 C 
ATOM     52  C   UNL A   1      39.126  28.038  29.719  1.00  0.00     0.029 A 
ATOM     53  C   UNL A   1      40.127  29.101  29.725  1.00  0.00     0.049 A 
ATOM     54  H   UNL A   1      42.024  29.060  28.863  1.00  0.00     0.167 HD
ATOM     55  C   UNL A   1      46.121  28.710  27.366  1.00  0.00     0.034 A 
ATOM     56  C   UNL A   1      39.973  30.310  30.300  1.00  0.00     0.034 A 
ATOM     57  C   UNL A   1      45.989  30.076  27.794  1.00  0.00     0.049 A 
ATOM     58  C   UNL A   1      41.091  31.314  30.199  1.00  0.00     0.074 A 
ATOM     59  C   UNL A   1      46.915  31.099  27.704  1.00  0.00     0.029 A 
ATOM     60  N   UNL A   1      44.864  30.608  28.404  1.00  0.00    -0.354 N 
ATOM     61  N   UNL A   1      42.263  31.189  29.626  1.00  0.00    -0.248 NA
ATOM     62  C   UNL A   1      40.850  32.638  30.792  1.00  0.00     0.031 C 
ATOM     63  C   UNL A   1      46.364  32.242  28.290  1.00  0.00     0.029 A 
ATOM     64  C   UNL A   1      45.077  31.942  28.709  1.00  0.00     0.049 A 
ATOM     65  H   UNL A   1      44.035  30.111  28.594  1.00  0.00     0.167 HD
ATOM     66  C   UNL A   1      42.884  32.427  29.752  1.00  0.00     0.074 A 
ATOM     67  C   UNL A   1      41.948  33.293  30.440  1.00  0.00     0.031 C 
ATOM     68  C   UNL A   1      44.119  32.808  29.346  1.00  0.00     0.034 A 
BRANCH  55  69
ATOM     69  C   UNL A   1      47.441  28.270  26.787  1.00  0.00     0.023 A 
ATOM     70  C   UNL A   1      48.524  27.992  27.648  1.00  0.00     0.012 A 
ATOM     71  C   UNL A   1      47.594  28.070  25.401  1.00  0.00     0.148 A 
ATOM     72  C   UNL A   1      49.747  27.561  27.137  1.00  0.00     0.002 A 
ATOM     73  C   UNL A   1      48.801  27.593  24.903  1.00  0.00     0.091 A 
ATOM     74  F   UNL A   1      46.561  28.356  24.596  1.00  0.00    -0.205 F 
ATOM     75  C   UNL A   1      49.882  27.352  25.767  1.00  0.00     0.022 A 
BRANCH  73  76
ATOM     76  S   UNL A   1      49.053  27.211  23.166  1.00  0.00     0.127 S 
ATOM     77  O   UNL A   1      50.504  27.056  23.106  1.00  0.00    -0.237 OA
ATOM     78  O   UNL A   1      48.299  25.965  23.015  1.00  0.00    -0.237 OA
ATOM     79  O   UNL A   1      48.516  28.341  22.423  1.00  0.00    -0.744 OA
ENDBRANCH  73  76
ENDBRANCH  55  69
BRANCH  56  80
ATOM     80  C   UNL A   1      38.689  30.661  30.970  1.00  0.00     0.023 A 
ATOM     81  C   UNL A   1      38.509  30.354  32.333  1.00  0.00     0.012 A 
ATOM     82  C   UNL A   1      37.653  31.311  30.273  1.00  0.00     0.148 A 
ATOM     83  C   UNL A   1      37.308  30.651  32.978  1.00  0.00     0.002 A 
ATOM     84  C   UNL A   1      36.483  31.660  30.935  1.00  0.00     0.091 A 
ATOM     85  F   UNL A   1      37.838  31.589  28.973  1.00  0.00    -0.205 F 
ATOM     86  C   UNL A   1      36.299  31.313  32.283  1.00  0.00     0.022 A 
BRANCH  84  87
ATOM     87  S   UNL A   1      35.191  32.636  30.158  1.00  0.00     0.127 S 
ATOM     88  O   UNL A   1      34.768  31.760  29.068  1.00  0.00    -0.237 OA
ATOM     89  O   UNL A   1      34.222  32.778  31.246  1.00  0.00    -0.237 OA
ATOM     90  O   UNL A   1      35.825  33.885  29.759  1.00  0.00    -0.744 OA
ENDBRANCH  84  87
ENDBRANCH  56  80
BRANCH  68  91
ATOM     91  C   UNL A   1      44.525  34.239  29.585  1.00  0.00     0.023 A 
ATOM     92  C   UNL A   1      45.081  34.620  30.821  1.00  0.00     0.012 A 
ATOM     93  C   UNL A   1      44.426  35.189  28.548  1.00  0.00     0.148 A 
ATOM     94  C   UNL A   1      45.500  35.933  31.035  1.00  0.00     0.002 A 
ATOM     95  C   UNL A   1      44.894  36.481  28.750  1.00  0.00     0.091 A 
ATOM     96  F   UNL A   1      43.878  34.810  27.384  1.00  0.00    -0.205 F 
ATOM     97  C   UNL A   1      45.419  36.859  29.998  1.00  0.00     0.022 A 
BRANCH  95  98
ATOM     98  S   UNL A   1      44.925  37.712  27.442  1.00  0.00     0.127 S 
ATOM     99  O   UNL A   1      45.443  38.882  28.149  1.00  0.00    -0.237 OA
ATOM    100  O   UNL A   1      45.856  37.118  26.481  1.00  0.00    -0.237 OA
ATOM    101  O   UNL A   1      43.554  37.828  26.965  1.00  0.00    -0.744 OA
ENDBRANCH  95  98
ENDBRANCH  68  91
ENDBRANCH  42  43
ENDBRANCH  34  37
ENDBRANCH  32  33
ENDBRANCH   1  32
TORSDOF 15
ENDMDL
MODEL 3
REMARK VINA RESULT:     -13.4      1.038      7.291
REMARK SMILES CN1C(=O)C[C@@H](C(=O)NCCCNC(=O)c2ccc(-c3c4nc(c(-c5cccc(S(=O)(=O)[O-])c5F)c5ccc([nH]5)c(-c5cccc(S(=O)(=O)[O-])c5F)c5nc(c(-c6cccc(S(=O)(=O)[O-])c6F)c6ccc3[nH]6)C=C5)C=C4)cc2)C12CCN(C(=O)c1ccccc1-n1cccn1)CC2
REMARK SMILES IDX 11 1 10 2 9 3 7 4 8 5 6 7 1 8 2 9 3 10 79 11 4 12 5 13 80 14
REMARK SMILES IDX 97 15 81 16 96 17 82 18 83 19 84 20 85 21 86 22 90 23 87 24
REMARK SMILES IDX 89 25 88 26 91 27 92 28 95 29 93 30 94 31 12 32 13 33 14 34
REMARK SMILES IDX 15 36 16 37 17 38 78 39 18 40 77 41 19 42 20 43 21 44 71 45
REMARK SMILES IDX 22 46 76 47 70 48 72 49 23 50 75 51 69 52 68 53 24 55 56 56
REMARK SMILES IDX 36 57 55 58 37 59 40 60 54 61 73 62 38 63 39 64 53 66 74 67
REMARK SMILES IDX 41 68 25 69 26 70 34 71 27 72 29 73 35 74 28 75 30 76 31 77
REMARK SMILES IDX 32 78 33 79 57 80 58 81 66 82 59 83 61 84 67 85 60 86 62 87
REMARK SMILES IDX 63 88 64 89 65 90 42 91 43 92 51 93 44 94 46 95 52 96 45 97
REMARK SMILES IDX 47 98 48 99 49 100 50 101
REMARK H PARENT 9 6 13 35 72 54 40 65
REMARK Flexibility Score: inf
ROOT
ATOM      1  C   UNL A   1      31.090  31.631  26.002  1.00  0.00     0.042 C 
ENDROOT
BRANCH   1   2
ATOM      2  C   UNL A   1      31.205  30.226  25.407  1.00  0.00     0.117 C 
BRANCH   2   3
ATOM      3  N   UNL A   1      32.475  29.945  24.747  1.00  0.00    -0.356 N 
ATOM      4  C   UNL A   1      32.832  29.277  23.623  1.00  0.00     0.226 C 
ATOM      5  O   UNL A   1      34.033  29.322  23.325  1.00  0.00    -0.275 OA
ATOM      6  H   UNL A   1      33.246  30.325  25.226  1.00  0.00     0.163 HD
BRANCH   4   7
ATOM      7  C   UNL A   1      31.894  28.458  22.732  1.00  0.00     0.113 C 
ATOM      8  C   UNL A   1      29.351  26.424  24.575  1.00  0.00     0.147 C 
ATOM      9  N   UNL A   1      30.122  27.341  23.752  1.00  0.00    -0.339 N 
ATOM     10  C   UNL A   1      29.552  28.476  23.192  1.00  0.00     0.223 C 
ATOM     11  C   UNL A   1      31.473  27.060  23.237  1.00  0.00     0.058 C 
ATOM     12  O   UNL A   1      28.401  28.865  23.325  1.00  0.00    -0.275 OA
ATOM     13  C   UNL A   1      30.603  29.200  22.402  1.00  0.00     0.116 C 
ATOM     14  C   UNL A   1      32.452  26.481  24.277  1.00  0.00     0.051 C 
ATOM     15  C   UNL A   1      31.335  26.032  22.067  1.00  0.00     0.051 C 
ATOM     16  C   UNL A   1      33.769  26.022  23.665  1.00  0.00     0.122 C 
ATOM     17  C   UNL A   1      32.663  25.459  21.561  1.00  0.00     0.122 C 
ATOM     18  N   UNL A   1      33.497  25.002  22.666  1.00  0.00    -0.338 N 
ATOM     19  C   UNL A   1      33.985  23.693  22.684  1.00  0.00     0.256 C 
ATOM     20  O   UNL A   1      33.807  22.893  21.769  1.00  0.00    -0.269 OA
BRANCH  19  21
ATOM     21  C   UNL A   1      34.813  23.241  23.831  1.00  0.00     0.065 A 
ATOM     22  C   UNL A   1      36.184  23.076  23.565  1.00  0.00     0.016 A 
ATOM     23  C   UNL A   1      34.341  23.082  25.143  1.00  0.00     0.077 A 
ATOM     24  C   UNL A   1      37.079  22.798  24.601  1.00  0.00     0.001 A 
ATOM     25  C   UNL A   1      35.261  22.859  26.186  1.00  0.00     0.029 A 
ATOM     26  C   UNL A   1      36.620  22.708  25.911  1.00  0.00     0.002 A 
BRANCH  23  27
ATOM     27  N   UNL A   1      32.967  23.118  25.483  1.00  0.00    -0.240 N 
ATOM     28  C   UNL A   1      31.909  22.496  24.858  1.00  0.00     0.115 A 
ATOM     29  N   UNL A   1      32.553  23.848  26.551  1.00  0.00    -0.177 NA
ATOM     30  C   UNL A   1      30.782  22.797  25.588  1.00  0.00     0.042 A 
ATOM     31  C   UNL A   1      31.240  23.624  26.625  1.00  0.00     0.135 A 
ENDBRANCH  23  27
ENDBRANCH  19  21
ENDBRANCH   4   7
ENDBRANCH   2   3
ENDBRANCH   1   2
BRANCH   1  32
ATOM     32  C   UNL A   1      32.237  32.000  26.934  1.00  0.00     0.118 C 
BRANCH  32  33
ATOM     33  N   UNL A   1      32.262  33.432  27.203  1.00  0.00    -0.352 N 
ATOM     34  C   UNL A   1      33.021  34.137  28.106  1.00  0.00     0.251 C 
ATOM     35  H   UNL A   1      31.645  33.973  26.660  1.00  0.00     0.163 HD
ATOM     36  O   UNL A   1      32.695  35.282  28.406  1.00  0.00    -0.269 OA
BRANCH  34  37
ATOM     37  C   UNL A   1      34.223  33.521  28.713  1.00  0.00     0.039 A 
ATOM     38  C   UNL A   1      35.460  34.157  28.575  1.00  0.00     0.014 A 
ATOM     39  C   UNL A   1      34.136  32.302  29.389  1.00  0.00     0.014 A 
ATOM     40  C   UNL A   1      36.596  33.597  29.167  1.00  0.00     0.010 A 
ATOM     41  C   UNL A   1      35.248  31.796  30.055  1.00  0.00     0.010 A 
ATOM     42  C   UNL A   1      36.494  32.428  29.941  1.00  0.00    -0.014 A 
BRANCH  42  43
ATOM     43  C   UNL A   1      37.677  31.852  30.634  1.00  0.00     0.031 A 
ATOM     44  C   UNL A   1      38.559  30.852  29.932  1.00  0.00     0.074 A 
ATOM     45  C   UNL A   1      37.910  32.165  31.924  1.00  0.00     0.049 A 
ATOM     46  N   UNL A   1      39.602  30.208  30.390  1.00  0.00    -0.248 NA
ATOM     47  C   UNL A   1      38.210  30.509  28.543  1.00  0.00     0.031 C 
ATOM     48  C   UNL A   1      37.082  33.056  32.741  1.00  0.00     0.029 A 
ATOM     49  N   UNL A   1      38.897  31.751  32.784  1.00  0.00    -0.354 N 
ATOM     50  C   UNL A   1      40.007  29.360  29.366  1.00  0.00     0.074 A 
ATOM     51  C   UNL A   1      39.076  29.543  28.275  1.00  0.00     0.031 C 
ATOM     52  C   UNL A   1      37.600  33.129  33.978  1.00  0.00     0.029 A 
ATOM     53  C   UNL A   1      38.775  32.266  34.054  1.00  0.00     0.049 A 
ATOM     54  H   UNL A   1      39.624  31.144  32.517  1.00  0.00     0.167 HD
ATOM     55  C   UNL A   1      41.074  28.528  29.323  1.00  0.00     0.034 A 
ATOM     56  C   UNL A   1      39.517  32.059  35.160  1.00  0.00     0.034 A 
ATOM     57  C   UNL A   1      42.021  28.379  30.394  1.00  0.00     0.049 A 
ATOM     58  C   UNL A   1      40.719  31.156  35.074  1.00  0.00     0.074 A 
ATOM     59  C   UNL A   1      43.184  27.630  30.416  1.00  0.00     0.029 A 
ATOM     60  N   UNL A   1      41.909  28.980  31.638  1.00  0.00    -0.354 N 
ATOM     61  N   UNL A   1      41.176  30.487  34.043  1.00  0.00    -0.248 NA
ATOM     62  C   UNL A   1      41.529  31.009  36.293  1.00  0.00     0.031 C 
ATOM     63  C   UNL A   1      43.758  27.751  31.685  1.00  0.00     0.029 A 
ATOM     64  C   UNL A   1      42.974  28.609  32.440  1.00  0.00     0.049 A 
ATOM     65  H   UNL A   1      41.179  29.582  31.911  1.00  0.00     0.167 HD
ATOM     66  C   UNL A   1      42.347  29.873  34.476  1.00  0.00     0.074 A 
ATOM     67  C   UNL A   1      42.537  30.267  35.857  1.00  0.00     0.031 C 
ATOM     68  C   UNL A   1      43.182  29.050  33.796  1.00  0.00     0.034 A 
BRANCH  55  69
ATOM     69  C   UNL A   1      41.303  27.743  28.056  1.00  0.00     0.023 A 
ATOM     70  C   UNL A   1      41.751  28.405  26.895  1.00  0.00     0.012 A 
ATOM     71  C   UNL A   1      41.135  26.344  28.031  1.00  0.00     0.148 A 
ATOM     72  C   UNL A   1      41.992  27.696  25.719  1.00  0.00     0.002 A 
ATOM     73  C   UNL A   1      41.424  25.637  26.870  1.00  0.00     0.091 A 
ATOM     74  F   UNL A   1      40.691  25.733  29.139  1.00  0.00    -0.205 F 
ATOM     75  C   UNL A   1      41.838  26.312  25.709  1.00  0.00     0.022 A 
BRANCH  73  76
ATOM     76  S   UNL A   1      41.339  23.845  26.777  1.00  0.00     0.127 S 
ATOM     77  O   UNL A   1      42.118  23.576  25.570  1.00  0.00    -0.237 OA
ATOM     78  O   UNL A   1      41.990  23.443  28.024  1.00  0.00    -0.237 OA
ATOM     79  O   UNL A   1      39.925  23.512  26.693  1.00  0.00    -0.744 OA
ENDBRANCH  73  76
ENDBRANCH  55  69
BRANCH  56  80
ATOM     80  C   UNL A   1      39.180  32.765  36.429  1.00  0.00     0.023 A 
ATOM     81  C   UNL A   1      39.700  34.052  36.667  1.00  0.00     0.012 A 
ATOM     82  C   UNL A   1      38.336  32.178  37.391  1.00  0.00     0.148 A 
ATOM     83  C   UNL A   1      39.418  34.725  37.856  1.00  0.00     0.002 A 
ATOM     84  C   UNL A   1      38.010  32.877  38.546  1.00  0.00     0.091 A 
ATOM     85  F   UNL A   1      37.858  30.948  37.152  1.00  0.00    -0.205 F 
ATOM     86  C   UNL A   1      38.566  34.142  38.792  1.00  0.00     0.022 A 
BRANCH  84  87
ATOM     87  S   UNL A   1      36.811  32.265  39.736  1.00  0.00     0.127 S 
ATOM     88  O   UNL A   1      35.599  32.181  38.925  1.00  0.00    -0.237 OA
ATOM     89  O   UNL A   1      37.391  30.975  40.113  1.00  0.00    -0.237 OA
ATOM     90  O   UNL A   1      36.788  33.245  40.813  1.00  0.00    -0.744 OA
ENDBRANCH  84  87
ENDBRANCH  56  80
BRANCH  68  91
ATOM     91  C   UNL A   1      44.410  28.552  34.510  1.00  0.00     0.023 A 
ATOM     92  C   UNL A   1      45.600  29.306  34.483  1.00  0.00     0.012 A 
ATOM     93  C   UNL A   1      44.358  27.369  35.275  1.00  0.00     0.148 A 
ATOM     94  C   UNL A   1      46.729  28.873  35.178  1.00  0.00     0.002 A 
ATOM     95  C   UNL A   1      45.469  26.972  36.008  1.00  0.00     0.091 A 
ATOM     96  F   UNL A   1      43.222  26.657  35.275  1.00  0.00    -0.205 F 
ATOM     97  C   UNL A   1      46.660  27.715  35.949  1.00  0.00     0.022 A 
BRANCH  95  98
ATOM     98  S   UNL A   1      45.442  25.554  37.109  1.00  0.00     0.127 S 
ATOM     99  O   UNL A   1      45.223  24.454  36.171  1.00  0.00    -0.237 OA
ATOM    100  O   UNL A   1      46.781  25.594  37.699  1.00  0.00    -0.237 OA
ATOM    101  O   UNL A   1      44.358  25.795  38.050  1.00  0.00    -0.744 OA
ENDBRANCH  95  98
ENDBRANCH  68  91
ENDBRANCH  42  43
ENDBRANCH  34  37
ENDBRANCH  32  33
ENDBRANCH   1  32
TORSDOF 15
ENDMDL
