MODEL 1
REMARK VINA RESULT:     -13.1      0.000      0.000
REMARK SMILES Cc1ccc2c(CC(=O)N3CCC(C(=O)NCCCNC(=O)c4ccc(-c5c6nc(c(-c7cccc(S(=O)(=O)[O-])c7F)c7ccc([nH]7)c(-c7cccc(S(=O)(=O)[O-])c7F)c7nc(c(-c8cccc(S(=O)(=O)[O-])c8F)c8ccc5[nH]8)C=C7)C=C6)cc4)CC3)coc2c1
REMARK SMILES IDX 18 1 17 2 16 3 14 4 15 5 13 7 8 8 9 9 10 10 11 11 87 12
REMARK SMILES IDX 12 13 86 14 7 15 6 16 1 17 2 18 3 19 91 20 4 21 90 22 5 23
REMARK SMILES IDX 89 24 88 25 19 26 20 27 21 28 22 30 23 31 24 32 85 33 25 34
REMARK SMILES IDX 84 35 26 36 27 37 28 38 78 39 29 40 83 41 77 42 79 43 30 44
REMARK SMILES IDX 82 45 76 46 75 47 31 49 63 50 43 51 62 52 44 53 47 54 61 55
REMARK SMILES IDX 80 56 45 57 46 58 60 60 81 61 48 62 32 63 33 64 41 65 34 66
REMARK SMILES IDX 36 67 42 68 35 69 37 70 38 71 39 72 40 73 64 74 65 75 73 76
REMARK SMILES IDX 66 77 68 78 74 79 67 80 69 81 70 82 71 83 72 84 49 85 50 86
REMARK SMILES IDX 58 87 51 88 53 89 59 90 52 91 54 92 55 93 56 94 57 95
REMARK H PARENT 16 6 20 29 79 48 47 59
REMARK Flexibility Score: inf
ROOT
ATOM      1  C   UNL A   1      37.102  21.608  24.618  1.00  0.00     0.042 C 
ENDROOT
BRANCH   1   2
ATOM      2  C   UNL A   1      35.955  20.843  25.279  1.00  0.00     0.117 C 
BRANCH   2   3
ATOM      3  N   UNL A   1      35.504  21.477  26.511  1.00  0.00    -0.356 N 
ATOM      4  C   UNL A   1      34.356  22.128  26.832  1.00  0.00     0.223 C 
ATOM      5  O   UNL A   1      34.255  22.577  27.978  1.00  0.00    -0.275 OA
ATOM      6  H   UNL A   1      36.153  21.424  27.249  1.00  0.00     0.163 HD
BRANCH   4   7
ATOM      7  C   UNL A   1      33.208  22.286  25.847  1.00  0.00     0.082 C 
ATOM      8  C   UNL A   1      30.479  25.089  25.322  1.00  0.00     0.227 C 
ATOM      9  O   UNL A   1      30.100  25.206  26.492  1.00  0.00    -0.275 OA
ATOM     10  N   UNL A   1      31.030  23.888  24.881  1.00  0.00    -0.342 N 
ATOM     11  C   UNL A   1      30.709  22.667  25.607  1.00  0.00     0.120 C 
ATOM     12  C   UNL A   1      32.219  23.777  24.050  1.00  0.00     0.120 C 
ATOM     13  C   UNL A   1      31.837  22.250  26.537  1.00  0.00     0.035 C 
ATOM     14  C   UNL A   1      33.439  23.485  24.918  1.00  0.00     0.035 C 
BRANCH   8  15
ATOM     15  C   UNL A   1      30.132  26.171  24.298  1.00  0.00     0.139 C 
BRANCH  15  16
ATOM     16  C   UNL A   1      30.790  27.491  24.483  1.00  0.00     0.008 A 
ATOM     17  C   UNL A   1      35.247  29.617  27.329  1.00  0.00     0.044 C 
ATOM     18  C   UNL A   1      34.133  28.983  26.546  1.00  0.00    -0.047 A 
ATOM     19  C   UNL A   1      34.041  27.585  26.490  1.00  0.00     0.004 A 
ATOM     20  C   UNL A   1      33.194  29.783  25.873  1.00  0.00     0.051 A 
ATOM     21  C   UNL A   1      32.998  26.949  25.800  1.00  0.00     0.012 A 
ATOM     22  C   UNL A   1      32.168  29.122  25.200  1.00  0.00     0.134 A 
ATOM     23  C   UNL A   1      32.030  27.741  25.156  1.00  0.00     0.024 A 
ATOM     24  O   UNL A   1      31.149  29.718  24.525  1.00  0.00    -0.464 OA
ATOM     25  C   UNL A   1      30.330  28.729  24.078  1.00  0.00     0.200 A 
ENDBRANCH  15  16
ENDBRANCH   8  15
ENDBRANCH   4   7
ENDBRANCH   2   3
ENDBRANCH   1   2
BRANCH   1  26
ATOM     26  C   UNL A   1      37.851  22.547  25.563  1.00  0.00     0.118 C 
BRANCH  26  27
ATOM     27  N   UNL A   1      38.939  21.917  26.281  1.00  0.00    -0.352 N 
ATOM     28  C   UNL A   1      39.903  22.352  27.145  1.00  0.00     0.251 C 
ATOM     29  H   UNL A   1      38.997  20.949  26.106  1.00  0.00     0.163 HD
ATOM     30  O   UNL A   1      40.576  21.466  27.679  1.00  0.00    -0.269 OA
BRANCH  28  31
ATOM     31  C   UNL A   1      40.240  23.776  27.413  1.00  0.00     0.039 A 
ATOM     32  C   UNL A   1      41.438  24.235  27.961  1.00  0.00     0.014 A 
ATOM     33  C   UNL A   1      39.201  24.698  27.192  1.00  0.00     0.014 A 
ATOM     34  C   UNL A   1      41.538  25.541  28.424  1.00  0.00     0.010 A 
ATOM     35  C   UNL A   1      39.304  26.012  27.627  1.00  0.00     0.010 A 
ATOM     36  C   UNL A   1      40.445  26.403  28.315  1.00  0.00    -0.014 A 
BRANCH  36  37
ATOM     37  C   UNL A   1      40.552  27.714  28.939  1.00  0.00     0.031 A 
ATOM     38  C   UNL A   1      41.592  28.612  28.363  1.00  0.00     0.074 A 
ATOM     39  C   UNL A   1      39.738  28.107  29.939  1.00  0.00     0.049 A 
ATOM     40  N   UNL A   1      42.665  29.059  28.932  1.00  0.00    -0.248 NA
ATOM     41  C   UNL A   1      41.480  28.954  26.938  1.00  0.00     0.031 C 
ATOM     42  C   UNL A   1      38.524  27.458  30.446  1.00  0.00     0.029 A 
ATOM     43  N   UNL A   1      39.779  29.265  30.649  1.00  0.00    -0.354 N 
ATOM     44  C   UNL A   1      43.272  29.896  27.995  1.00  0.00     0.074 A 
ATOM     45  C   UNL A   1      42.575  29.691  26.750  1.00  0.00     0.031 C 
ATOM     46  C   UNL A   1      37.822  28.346  31.189  1.00  0.00     0.029 A 
ATOM     47  C   UNL A   1      38.606  29.557  31.335  1.00  0.00     0.049 A 
ATOM     48  H   UNL A   1      40.573  29.847  30.676  1.00  0.00     0.167 HD
ATOM     49  C   UNL A   1      44.196  30.835  28.338  1.00  0.00     0.034 A 
ATOM     50  C   UNL A   1      38.296  30.746  31.908  1.00  0.00     0.034 A 
ATOM     51  C   UNL A   1      44.735  30.618  29.651  1.00  0.00     0.049 A 
ATOM     52  C   UNL A   1      39.581  31.446  32.148  1.00  0.00     0.074 A 
ATOM     53  C   UNL A   1      45.489  29.624  30.242  1.00  0.00     0.029 A 
ATOM     54  N   UNL A   1      44.196  31.343  30.684  1.00  0.00    -0.354 N 
ATOM     55  N   UNL A   1      40.490  31.019  32.981  1.00  0.00    -0.248 NA
ATOM     56  C   UNL A   1      40.040  32.391  31.143  1.00  0.00     0.031 C 
ATOM     57  C   UNL A   1      44.957  29.499  31.558  1.00  0.00     0.029 A 
ATOM     58  C   UNL A   1      43.950  30.457  31.700  1.00  0.00     0.049 A 
ATOM     59  H   UNL A   1      44.019  32.311  30.693  1.00  0.00     0.167 HD
ATOM     60  C   UNL A   1      41.696  31.294  32.351  1.00  0.00     0.074 A 
ATOM     61  C   UNL A   1      41.359  32.220  31.270  1.00  0.00     0.031 C 
ATOM     62  C   UNL A   1      42.805  30.532  32.579  1.00  0.00     0.034 A 
BRANCH  49  63
ATOM     63  C   UNL A   1      44.408  32.128  27.599  1.00  0.00     0.023 A 
ATOM     64  C   UNL A   1      45.508  32.231  26.720  1.00  0.00     0.012 A 
ATOM     65  C   UNL A   1      43.728  33.323  27.928  1.00  0.00     0.148 A 
ATOM     66  C   UNL A   1      45.917  33.466  26.204  1.00  0.00     0.002 A 
ATOM     67  C   UNL A   1      44.098  34.537  27.364  1.00  0.00     0.091 A 
ATOM     68  F   UNL A   1      42.797  33.309  28.889  1.00  0.00    -0.205 F 
ATOM     69  C   UNL A   1      45.204  34.618  26.516  1.00  0.00     0.022 A 
BRANCH  67  70
ATOM     70  S   UNL A   1      43.194  36.049  27.720  1.00  0.00     0.127 S 
ATOM     71  O   UNL A   1      41.856  35.707  27.229  1.00  0.00    -0.237 OA
ATOM     72  O   UNL A   1      43.311  36.131  29.179  1.00  0.00    -0.237 OA
ATOM     73  O   UNL A   1      43.893  37.098  27.005  1.00  0.00    -0.744 OA
ENDBRANCH  67  70
ENDBRANCH  49  63
BRANCH  50  74
ATOM     74  C   UNL A   1      36.996  31.461  31.974  1.00  0.00     0.023 A 
ATOM     75  C   UNL A   1      36.544  31.950  33.218  1.00  0.00     0.012 A 
ATOM     76  C   UNL A   1      36.355  31.933  30.806  1.00  0.00     0.148 A 
ATOM     77  C   UNL A   1      35.534  32.918  33.294  1.00  0.00     0.002 A 
ATOM     78  C   UNL A   1      35.345  32.888  30.887  1.00  0.00     0.091 A 
ATOM     79  F   UNL A   1      36.800  31.525  29.611  1.00  0.00    -0.205 F 
ATOM     80  C   UNL A   1      34.944  33.396  32.130  1.00  0.00     0.022 A 
BRANCH  78  81
ATOM     81  S   UNL A   1      34.548  33.564  29.423  1.00  0.00     0.127 S 
ATOM     82  O   UNL A   1      34.033  32.358  28.772  1.00  0.00    -0.237 OA
ATOM     83  O   UNL A   1      33.524  34.426  30.007  1.00  0.00    -0.237 OA
ATOM     84  O   UNL A   1      35.600  34.242  28.678  1.00  0.00    -0.744 OA
ENDBRANCH  78  81
ENDBRANCH  50  74
BRANCH  62  85
ATOM     85  C   UNL A   1      42.732  29.482  33.659  1.00  0.00     0.023 A 
ATOM     86  C   UNL A   1      42.194  28.200  33.409  1.00  0.00     0.012 A 
ATOM     87  C   UNL A   1      43.406  29.712  34.869  1.00  0.00     0.148 A 
ATOM     88  C   UNL A   1      42.324  27.172  34.347  1.00  0.00     0.002 A 
ATOM     89  C   UNL A   1      43.563  28.678  35.785  1.00  0.00     0.091 A 
ATOM     90  F   UNL A   1      43.927  30.931  35.077  1.00  0.00    -0.205 F 
ATOM     91  C   UNL A   1      43.022  27.407  35.529  1.00  0.00     0.022 A 
BRANCH  89  92
ATOM     92  S   UNL A   1      44.540  28.872  37.278  1.00  0.00     0.127 S 
ATOM     93  O   UNL A   1      44.279  27.617  37.980  1.00  0.00    -0.237 OA
ATOM     94  O   UNL A   1      45.897  29.004  36.747  1.00  0.00    -0.237 OA
ATOM     95  O   UNL A   1      44.036  30.070  37.940  1.00  0.00    -0.744 OA
ENDBRANCH  89  92
ENDBRANCH  62  85
ENDBRANCH  36  37
ENDBRANCH  28  31
ENDBRANCH  26  27
ENDBRANCH   1  26
TORSDOF 15
ENDMDL
MODEL 2
REMARK VINA RESULT:     -13.1      3.318      9.009
REMARK SMILES Cc1ccc2c(CC(=O)N3CCC(C(=O)NCCCNC(=O)c4ccc(-c5c6nc(c(-c7cccc(S(=O)(=O)[O-])c7F)c7ccc([nH]7)c(-c7cccc(S(=O)(=O)[O-])c7F)c7nc(c(-c8cccc(S(=O)(=O)[O-])c8F)c8ccc5[nH]8)C=C7)C=C6)cc4)CC3)coc2c1
REMARK SMILES IDX 18 1 17 2 16 3 14 4 15 5 13 7 8 8 9 9 10 10 11 11 87 12
REMARK SMILES IDX 12 13 86 14 7 15 6 16 1 17 2 18 3 19 91 20 4 21 90 22 5 23
REMARK SMILES IDX 89 24 88 25 19 26 20 27 21 28 22 30 23 31 24 32 85 33 25 34
REMARK SMILES IDX 84 35 26 36 27 37 28 38 78 39 29 40 83 41 77 42 79 43 30 44
REMARK SMILES IDX 82 45 76 46 75 47 31 49 63 50 43 51 62 52 44 53 47 54 61 55
REMARK SMILES IDX 80 56 45 57 46 58 60 60 81 61 48 62 32 63 33 64 41 65 34 66
REMARK SMILES IDX 36 67 42 68 35 69 37 70 38 71 39 72 40 73 64 74 65 75 73 76
REMARK SMILES IDX 66 77 68 78 74 79 67 80 69 81 70 82 71 83 72 84 49 85 50 86
REMARK SMILES IDX 58 87 51 88 53 89 59 90 52 91 54 92 55 93 56 94 57 95
REMARK H PARENT 16 6 20 29 79 48 47 59
REMARK Flexibility Score: inf
ROOT
ATOM      1  C   UNL A   1      34.246  30.110  27.290  1.00  0.00     0.042 C 
ENDROOT
BRANCH   1   2
ATOM      2  C   UNL A   1      33.191  30.095  26.183  1.00  0.00     0.117 C 
BRANCH   2   3
ATOM      3  N   UNL A   1      33.654  29.400  24.988  1.00  0.00    -0.356 N 
ATOM      4  C   UNL A   1      33.292  28.217  24.428  1.00  0.00     0.223 C 
ATOM      5  O   UNL A   1      33.876  27.872  23.396  1.00  0.00    -0.275 OA
ATOM      6  H   UNL A   1      34.359  29.877  24.496  1.00  0.00     0.163 HD
BRANCH   4   7
ATOM      7  C   UNL A   1      32.193  27.343  25.011  1.00  0.00     0.082 C 
ATOM      8  C   UNL A   1      31.257  23.535  24.556  1.00  0.00     0.227 C 
ATOM      9  O   UNL A   1      31.283  23.479  23.322  1.00  0.00    -0.275 OA
ATOM     10  N   UNL A   1      30.991  24.742  25.198  1.00  0.00    -0.342 N 
ATOM     11  C   UNL A   1      30.271  25.774  24.466  1.00  0.00     0.120 C 
ATOM     12  C   UNL A   1      31.717  25.245  26.354  1.00  0.00     0.120 C 
ATOM     13  C   UNL A   1      31.208  26.851  23.941  1.00  0.00     0.035 C 
ATOM     14  C   UNL A   1      32.779  26.246  25.910  1.00  0.00     0.035 C 
BRANCH   8  15
ATOM     15  C   UNL A   1      31.284  22.243  25.376  1.00  0.00     0.139 C 
BRANCH  15  16
ATOM     16  C   UNL A   1      32.551  21.468  25.347  1.00  0.00     0.008 A 
ATOM     17  C   UNL A   1      34.402  16.494  23.268  1.00  0.00     0.044 C 
ATOM     18  C   UNL A   1      33.874  17.824  23.725  1.00  0.00    -0.047 A 
ATOM     19  C   UNL A   1      32.614  18.252  23.283  1.00  0.00     0.004 A 
ATOM     20  C   UNL A   1      34.636  18.632  24.586  1.00  0.00     0.051 A 
ATOM     21  C   UNL A   1      32.065  19.469  23.711  1.00  0.00     0.012 A 
ATOM     22  C   UNL A   1      34.061  19.833  24.996  1.00  0.00     0.134 A 
ATOM     23  C   UNL A   1      32.803  20.268  24.604  1.00  0.00     0.024 A 
ATOM     24  O   UNL A   1      34.622  20.730  25.852  1.00  0.00    -0.464 OA
ATOM     25  C   UNL A   1      33.715  21.723  26.046  1.00  0.00     0.200 A 
ENDBRANCH  15  16
ENDBRANCH   8  15
ENDBRANCH   4   7
ENDBRANCH   2   3
ENDBRANCH   1   2
BRANCH   1  26
ATOM     26  C   UNL A   1      34.778  31.503  27.626  1.00  0.00     0.118 C 
BRANCH  26  27
ATOM     27  N   UNL A   1      34.446  31.956  28.960  1.00  0.00    -0.352 N 
ATOM     28  C   UNL A   1      35.108  32.002  30.155  1.00  0.00     0.251 C 
ATOM     29  H   UNL A   1      33.531  32.316  29.021  1.00  0.00     0.163 HD
ATOM     30  O   UNL A   1      34.530  32.613  31.058  1.00  0.00    -0.269 OA
BRANCH  28  31
ATOM     31  C   UNL A   1      36.394  31.317  30.453  1.00  0.00     0.039 A 
ATOM     32  C   UNL A   1      37.641  31.937  30.539  1.00  0.00     0.014 A 
ATOM     33  C   UNL A   1      36.331  29.913  30.534  1.00  0.00     0.014 A 
ATOM     34  C   UNL A   1      38.801  31.174  30.543  1.00  0.00     0.010 A 
ATOM     35  C   UNL A   1      37.486  29.145  30.567  1.00  0.00     0.010 A 
ATOM     36  C   UNL A   1      38.718  29.781  30.489  1.00  0.00    -0.014 A 
BRANCH  36  37
ATOM     37  C   UNL A   1      39.959  29.033  30.355  1.00  0.00     0.031 A 
ATOM     38  C   UNL A   1      40.662  28.729  31.633  1.00  0.00     0.074 A 
ATOM     39  C   UNL A   1      40.420  28.605  29.162  1.00  0.00     0.049 A 
ATOM     40  N   UNL A   1      41.815  29.160  32.032  1.00  0.00    -0.248 NA
ATOM     41  C   UNL A   1      39.933  27.943  32.639  1.00  0.00     0.031 C 
ATOM     42  C   UNL A   1      39.742  28.599  27.862  1.00  0.00     0.029 A 
ATOM     43  N   UNL A   1      41.589  27.966  28.894  1.00  0.00    -0.354 N 
ATOM     44  C   UNL A   1      42.044  28.548  33.265  1.00  0.00     0.074 A 
ATOM     45  C   UNL A   1      40.805  27.920  33.647  1.00  0.00     0.031 C 
ATOM     46  C   UNL A   1      40.400  27.769  27.020  1.00  0.00     0.029 A 
ATOM     47  C   UNL A   1      41.618  27.316  27.666  1.00  0.00     0.049 A 
ATOM     48  H   UNL A   1      42.352  27.964  29.518  1.00  0.00     0.167 HD
ATOM     49  C   UNL A   1      43.286  28.445  33.815  1.00  0.00     0.034 A 
ATOM     50  C   UNL A   1      42.548  26.416  27.265  1.00  0.00     0.034 A 
ATOM     51  C   UNL A   1      44.231  29.333  33.201  1.00  0.00     0.049 A 
ATOM     52  C   UNL A   1      43.757  26.663  28.089  1.00  0.00     0.074 A 
ATOM     53  C   UNL A   1      44.359  30.704  33.105  1.00  0.00     0.029 A 
ATOM     54  N   UNL A   1      45.051  28.812  32.231  1.00  0.00    -0.354 N 
ATOM     55  N   UNL A   1      44.458  27.761  28.028  1.00  0.00    -0.248 NA
ATOM     56  C   UNL A   1      43.937  25.865  29.290  1.00  0.00     0.031 C 
ATOM     57  C   UNL A   1      44.838  30.932  31.781  1.00  0.00     0.029 A 
ATOM     58  C   UNL A   1      45.018  29.687  31.176  1.00  0.00     0.049 A 
ATOM     59  H   UNL A   1      45.562  27.973  32.282  1.00  0.00     0.167 HD
ATOM     60  C   UNL A   1      44.827  28.011  29.343  1.00  0.00     0.074 A 
ATOM     61  C   UNL A   1      44.558  26.764  30.058  1.00  0.00     0.031 C 
ATOM     62  C   UNL A   1      45.047  29.282  29.789  1.00  0.00     0.034 A 
BRANCH  49  63
ATOM     63  C   UNL A   1      43.723  27.329  34.724  1.00  0.00     0.023 A 
ATOM     64  C   UNL A   1      44.328  27.658  35.955  1.00  0.00     0.012 A 
ATOM     65  C   UNL A   1      43.800  25.981  34.303  1.00  0.00     0.148 A 
ATOM     66  C   UNL A   1      44.987  26.693  36.725  1.00  0.00     0.002 A 
ATOM     67  C   UNL A   1      44.400  25.015  35.101  1.00  0.00     0.091 A 
ATOM     68  F   UNL A   1      43.403  25.651  33.069  1.00  0.00    -0.205 F 
ATOM     69  C   UNL A   1      45.013  25.369  36.304  1.00  0.00     0.022 A 
BRANCH  67  70
ATOM     70  S   UNL A   1      44.439  23.287  34.609  1.00  0.00     0.127 S 
ATOM     71  O   UNL A   1      45.407  23.323  33.509  1.00  0.00    -0.237 OA
ATOM     72  O   UNL A   1      44.921  22.638  35.831  1.00  0.00    -0.237 OA
ATOM     73  O   UNL A   1      43.074  22.953  34.254  1.00  0.00    -0.744 OA
ENDBRANCH  67  70
ENDBRANCH  49  63
BRANCH  50  74
ATOM     74  C   UNL A   1      42.388  25.171  26.471  1.00  0.00     0.023 A 
ATOM     75  C   UNL A   1      43.329  24.875  25.462  1.00  0.00     0.012 A 
ATOM     76  C   UNL A   1      41.522  24.136  26.892  1.00  0.00     0.148 A 
ATOM     77  C   UNL A   1      43.444  23.582  24.934  1.00  0.00     0.002 A 
ATOM     78  C   UNL A   1      41.634  22.855  26.357  1.00  0.00     0.091 A 
ATOM     79  F   UNL A   1      40.657  24.376  27.885  1.00  0.00    -0.205 F 
ATOM     80  C   UNL A   1      42.607  22.570  25.390  1.00  0.00     0.022 A 
BRANCH  78  81
ATOM     81  S   UNL A   1      40.596  21.493  26.909  1.00  0.00     0.127 S 
ATOM     82  O   UNL A   1      39.263  21.941  26.502  1.00  0.00    -0.237 OA
ATOM     83  O   UNL A   1      41.127  20.375  26.135  1.00  0.00    -0.237 OA
ATOM     84  O   UNL A   1      40.784  21.414  28.352  1.00  0.00    -0.744 OA
ENDBRANCH  78  81
ENDBRANCH  50  74
BRANCH  62  85
ATOM     85  C   UNL A   1      45.038  30.399  28.775  1.00  0.00     0.023 A 
ATOM     86  C   UNL A   1      43.846  31.070  28.425  1.00  0.00     0.012 A 
ATOM     87  C   UNL A   1      46.266  30.919  28.336  1.00  0.00     0.148 A 
ATOM     88  C   UNL A   1      43.878  32.235  27.652  1.00  0.00     0.002 A 
ATOM     89  C   UNL A   1      46.297  32.096  27.596  1.00  0.00     0.091 A 
ATOM     90  F   UNL A   1      47.387  30.277  28.697  1.00  0.00    -0.205 F 
ATOM     91  C   UNL A   1      45.105  32.755  27.250  1.00  0.00     0.022 A 
BRANCH  89  92
ATOM     92  S   UNL A   1      47.840  32.886  27.133  1.00  0.00     0.127 S 
ATOM     93  O   UNL A   1      48.370  33.306  28.430  1.00  0.00    -0.237 OA
ATOM     94  O   UNL A   1      48.574  31.789  26.501  1.00  0.00    -0.237 OA
ATOM     95  O   UNL A   1      47.486  33.972  26.227  1.00  0.00    -0.744 OA
ENDBRANCH  89  92
ENDBRANCH  62  85
ENDBRANCH  36  37
ENDBRANCH  28  31
ENDBRANCH  26  27
ENDBRANCH   1  26
TORSDOF 15
ENDMDL
MODEL 3
REMARK VINA RESULT:     -13.0      3.232      6.863
REMARK SMILES Cc1ccc2c(CC(=O)N3CCC(C(=O)NCCCNC(=O)c4ccc(-c5c6nc(c(-c7cccc(S(=O)(=O)[O-])c7F)c7ccc([nH]7)c(-c7cccc(S(=O)(=O)[O-])c7F)c7nc(c(-c8cccc(S(=O)(=O)[O-])c8F)c8ccc5[nH]8)C=C7)C=C6)cc4)CC3)coc2c1
REMARK SMILES IDX 18 1 17 2 16 3 14 4 15 5 13 7 8 8 9 9 10 10 11 11 87 12
REMARK SMILES IDX 12 13 86 14 7 15 6 16 1 17 2 18 3 19 91 20 4 21 90 22 5 23
REMARK SMILES IDX 89 24 88 25 19 26 20 27 21 28 22 30 23 31 24 32 85 33 25 34
REMARK SMILES IDX 84 35 26 36 27 37 28 38 78 39 29 40 83 41 77 42 79 43 30 44
REMARK SMILES IDX 82 45 76 46 75 47 31 49 63 50 43 51 62 52 44 53 47 54 61 55
REMARK SMILES IDX 80 56 45 57 46 58 60 60 81 61 48 62 32 63 33 64 41 65 34 66
REMARK SMILES IDX 36 67 42 68 35 69 37 70 38 71 39 72 40 73 64 74 65 75 73 76
REMARK SMILES IDX 66 77 68 78 74 79 67 80 69 81 70 82 71 83 72 84 49 85 50 86
REMARK SMILES IDX 58 87 51 88 53 89 59 90 52 91 54 92 55 93 56 94 57 95
REMARK H PARENT 16 6 20 29 79 48 47 59
REMARK Flexibility Score: inf
ROOT
ATOM      1  C   UNL A   1      37.412  19.447  24.937  1.00  0.00     0.042 C 
ENDROOT
BRANCH   1   2
ATOM      2  C   UNL A   1      36.126  20.274  24.987  1.00  0.00     0.117 C 
BRANCH   2   3
ATOM      3  N   UNL A   1      36.385  21.684  25.251  1.00  0.00    -0.356 N 
ATOM      4  C   UNL A   1      35.611  22.791  25.117  1.00  0.00     0.223 C 
ATOM      5  O   UNL A   1      36.112  23.879  25.418  1.00  0.00    -0.275 OA
ATOM      6  H   UNL A   1      37.290  21.867  25.591  1.00  0.00     0.163 HD
BRANCH   4   7
ATOM      7  C   UNL A   1      34.167  22.723  24.644  1.00  0.00     0.082 C 
ATOM      8  C   UNL A   1      30.836  24.421  25.909  1.00  0.00     0.227 C 
ATOM      9  O   UNL A   1      30.938  24.164  27.113  1.00  0.00    -0.275 OA
ATOM     10  N   UNL A   1      31.454  23.605  24.963  1.00  0.00    -0.342 N 
ATOM     11  C   UNL A   1      31.772  22.233  25.331  1.00  0.00     0.120 C 
ATOM     12  C   UNL A   1      32.199  24.090  23.811  1.00  0.00     0.120 C 
ATOM     13  C   UNL A   1      33.243  22.068  25.680  1.00  0.00     0.035 C 
ATOM     14  C   UNL A   1      33.694  24.084  24.115  1.00  0.00     0.035 C 
BRANCH   8  15
ATOM     15  C   UNL A   1      29.846  25.489  25.441  1.00  0.00     0.139 C 
BRANCH  15  16
ATOM     16  C   UNL A   1      30.429  26.783  25.002  1.00  0.00     0.008 A 
ATOM     17  C   UNL A   1      33.315  31.113  27.328  1.00  0.00     0.044 C 
ATOM     18  C   UNL A   1      32.620  29.909  26.759  1.00  0.00    -0.047 A 
ATOM     19  C   UNL A   1      32.486  28.756  27.547  1.00  0.00     0.004 A 
ATOM     20  C   UNL A   1      32.110  29.936  25.450  1.00  0.00     0.051 A 
ATOM     21  C   UNL A   1      31.813  27.621  27.072  1.00  0.00     0.012 A 
ATOM     22  C   UNL A   1      31.444  28.794  25.009  1.00  0.00     0.134 A 
ATOM     23  C   UNL A   1      31.265  27.652  25.777  1.00  0.00     0.024 A 
ATOM     24  O   UNL A   1      30.852  28.641  23.793  1.00  0.00    -0.464 OA
ATOM     25  C   UNL A   1      30.257  27.419  23.787  1.00  0.00     0.200 A 
ENDBRANCH  15  16
ENDBRANCH   8  15
ENDBRANCH   4   7
ENDBRANCH   2   3
ENDBRANCH   1   2
BRANCH   1  26
ATOM     26  C   UNL A   1      38.646  20.180  25.462  1.00  0.00     0.118 C 
BRANCH  26  27
ATOM     27  N   UNL A   1      39.877  19.431  25.328  1.00  0.00    -0.352 N 
ATOM     28  C   UNL A   1      41.126  19.524  25.875  1.00  0.00     0.251 C 
ATOM     29  H   UNL A   1      39.797  18.679  24.698  1.00  0.00     0.163 HD
ATOM     30  O   UNL A   1      41.888  18.587  25.622  1.00  0.00    -0.269 OA
BRANCH  28  31
ATOM     31  C   UNL A   1      41.638  20.681  26.658  1.00  0.00     0.039 A 
ATOM     32  C   UNL A   1      41.693  20.755  28.051  1.00  0.00     0.014 A 
ATOM     33  C   UNL A   1      41.979  21.821  25.907  1.00  0.00     0.014 A 
ATOM     34  C   UNL A   1      41.924  21.974  28.676  1.00  0.00     0.010 A 
ATOM     35  C   UNL A   1      42.238  23.035  26.526  1.00  0.00     0.010 A 
ATOM     36  C   UNL A   1      42.128  23.122  27.907  1.00  0.00    -0.014 A 
BRANCH  36  37
ATOM     37  C   UNL A   1      42.226  24.396  28.606  1.00  0.00     0.031 A 
ATOM     38  C   UNL A   1      41.120  25.357  28.336  1.00  0.00     0.074 A 
ATOM     39  C   UNL A   1      43.223  24.671  29.470  1.00  0.00     0.049 A 
ATOM     40  N   UNL A   1      41.187  26.506  27.744  1.00  0.00    -0.248 NA
ATOM     41  C   UNL A   1      39.752  24.928  28.663  1.00  0.00     0.031 C 
ATOM     42  C   UNL A   1      44.232  23.766  30.029  1.00  0.00     0.029 A 
ATOM     43  N   UNL A   1      43.468  25.836  30.125  1.00  0.00    -0.354 N 
ATOM     44  C   UNL A   1      39.896  27.033  27.789  1.00  0.00     0.074 A 
ATOM     45  C   UNL A   1      39.035  25.971  28.244  1.00  0.00     0.031 C 
ATOM     46  C   UNL A   1      44.802  24.348  31.110  1.00  0.00     0.029 A 
ATOM     47  C   UNL A   1      44.315  25.710  31.220  1.00  0.00     0.049 A 
ATOM     48  H   UNL A   1      43.079  26.697  29.847  1.00  0.00     0.167 HD
ATOM     49  C   UNL A   1      39.638  28.359  27.618  1.00  0.00     0.034 A 
ATOM     50  C   UNL A   1      44.523  26.648  32.176  1.00  0.00     0.034 A 
ATOM     51  C   UNL A   1      40.744  29.061  27.030  1.00  0.00     0.049 A 
ATOM     52  C   UNL A   1      44.150  27.952  31.575  1.00  0.00     0.074 A 
ATOM     53  C   UNL A   1      41.397  29.005  25.816  1.00  0.00     0.029 A 
ATOM     54  N   UNL A   1      41.585  29.739  27.877  1.00  0.00    -0.354 N 
ATOM     55  N   UNL A   1      44.791  28.495  30.576  1.00  0.00    -0.248 NA
ATOM     56  C   UNL A   1      42.804  28.448  31.805  1.00  0.00     0.031 C 
ATOM     57  C   UNL A   1      42.774  29.196  26.135  1.00  0.00     0.029 A 
ATOM     58  C   UNL A   1      42.863  29.405  27.513  1.00  0.00     0.049 A 
ATOM     59  H   UNL A   1      41.321  30.346  28.605  1.00  0.00     0.167 HD
ATOM     60  C   UNL A   1      43.797  29.072  29.798  1.00  0.00     0.074 A 
ATOM     61  C   UNL A   1      42.609  29.092  30.650  1.00  0.00     0.031 C 
ATOM     62  C   UNL A   1      43.948  29.220  28.450  1.00  0.00     0.034 A 
BRANCH  49  63
ATOM     63  C   UNL A   1      38.484  29.088  28.250  1.00  0.00     0.023 A 
ATOM     64  C   UNL A   1      37.628  29.846  27.421  1.00  0.00     0.012 A 
ATOM     65  C   UNL A   1      38.361  29.270  29.646  1.00  0.00     0.148 A 
ATOM     66  C   UNL A   1      36.703  30.749  27.958  1.00  0.00     0.002 A 
ATOM     67  C   UNL A   1      37.398  30.120  30.177  1.00  0.00     0.091 A 
ATOM     68  F   UNL A   1      39.261  28.715  30.466  1.00  0.00    -0.205 F 
ATOM     69  C   UNL A   1      36.579  30.877  29.337  1.00  0.00     0.022 A 
BRANCH  67  70
ATOM     70  S   UNL A   1      37.186  30.302  31.952  1.00  0.00     0.127 S 
ATOM     71  O   UNL A   1      35.997  31.156  32.014  1.00  0.00    -0.237 OA
ATOM     72  O   UNL A   1      36.968  28.915  32.371  1.00  0.00    -0.237 OA
ATOM     73  O   UNL A   1      38.423  30.885  32.434  1.00  0.00    -0.744 OA
ENDBRANCH  67  70
ENDBRANCH  49  63
BRANCH  50  74
ATOM     74  C   UNL A   1      44.706  26.490  33.641  1.00  0.00     0.023 A 
ATOM     75  C   UNL A   1      45.928  26.884  34.226  1.00  0.00     0.012 A 
ATOM     76  C   UNL A   1      43.608  26.255  34.499  1.00  0.00     0.148 A 
ATOM     77  C   UNL A   1      46.038  27.095  35.607  1.00  0.00     0.002 A 
ATOM     78  C   UNL A   1      43.724  26.457  35.873  1.00  0.00     0.091 A 
ATOM     79  F   UNL A   1      42.424  25.932  33.965  1.00  0.00    -0.205 F 
ATOM     80  C   UNL A   1      44.933  26.894  36.428  1.00  0.00     0.022 A 
BRANCH  78  81
ATOM     81  S   UNL A   1      42.335  26.232  36.993  1.00  0.00     0.127 S 
ATOM     82  O   UNL A   1      42.960  26.439  38.300  1.00  0.00    -0.237 OA
ATOM     83  O   UNL A   1      41.431  27.299  36.572  1.00  0.00    -0.237 OA
ATOM     84  O   UNL A   1      41.861  24.872  36.768  1.00  0.00    -0.744 OA
ENDBRANCH  78  81
ENDBRANCH  50  74
BRANCH  62  85
ATOM     85  C   UNL A   1      45.291  28.889  27.848  1.00  0.00     0.023 A 
ATOM     86  C   UNL A   1      46.360  29.812  27.871  1.00  0.00     0.012 A 
ATOM     87  C   UNL A   1      45.543  27.566  27.451  1.00  0.00     0.148 A 
ATOM     88  C   UNL A   1      47.652  29.423  27.505  1.00  0.00     0.002 A 
ATOM     89  C   UNL A   1      46.836  27.175  27.120  1.00  0.00     0.091 A 
ATOM     90  F   UNL A   1      44.518  26.701  27.455  1.00  0.00    -0.205 F 
ATOM     91  C   UNL A   1      47.892  28.101  27.143  1.00  0.00     0.022 A 
BRANCH  89  92
ATOM     92  S   UNL A   1      47.244  25.467  26.748  1.00  0.00     0.127 S 
ATOM     93  O   UNL A   1      46.119  25.058  25.911  1.00  0.00    -0.237 OA
ATOM     94  O   UNL A   1      48.517  25.600  26.038  1.00  0.00    -0.237 OA
ATOM     95  O   UNL A   1      47.343  24.784  28.033  1.00  0.00    -0.744 OA
ENDBRANCH  89  92
ENDBRANCH  62  85
ENDBRANCH  36  37
ENDBRANCH  28  31
ENDBRANCH  26  27
ENDBRANCH   1  26
TORSDOF 15
ENDMDL
