MODEL 1
REMARK VINA RESULT:     -10.9      0.000      0.000
REMARK SMILES CCCC[C@@](CC)(C[C@H]1CCOC1)C(=O)NCCCNC(=O)c1ccc(-c2c3nc(c(-c4cccc(S(=O)(=O)[O-])c4F)c4ccc([nH]4)c(-c4cccc(S(=O)(=O)[O-])c4F)c4nc(c(-c5cccc(S(=O)(=O)[O-])c5F)c5ccc2[nH]5)C=C4)C=C3)cc1
REMARK SMILES IDX 18 1 17 2 16 3 14 4 15 5 5 7 4 8 3 9 2 10 1 11 6 12 7 13
REMARK SMILES IDX 8 14 9 15 10 16 13 17 11 18 12 19 19 20 20 21 21 22 22 24
REMARK SMILES IDX 23 25 24 26 85 27 25 28 84 29 26 30 27 31 28 32 78 33 29 34
REMARK SMILES IDX 83 35 77 36 79 37 30 38 82 39 76 40 75 41 31 43 63 44 43 45
REMARK SMILES IDX 62 46 44 47 47 48 61 49 80 50 45 51 46 52 60 54 81 55 48 56
REMARK SMILES IDX 32 57 33 58 41 59 34 60 36 61 42 62 35 63 37 64 38 65 39 66
REMARK SMILES IDX 40 67 64 68 65 69 73 70 66 71 68 72 74 73 67 74 69 75 70 76
REMARK SMILES IDX 71 77 72 78 49 79 50 80 58 81 51 82 53 83 59 84 52 85 54 86
REMARK SMILES IDX 55 87 56 88 57 89
REMARK H PARENT 16 6 20 23 79 42 47 53
REMARK Flexibility Score: inf
ROOT
ATOM      1  C   UNL A   1      37.369  20.563  25.060  1.00  0.00     0.042 C 
ENDROOT
BRANCH   1   2
ATOM      2  C   UNL A   1      36.188  21.520  25.056  1.00  0.00     0.117 C 
BRANCH   2   3
ATOM      3  N   UNL A   1      35.312  21.336  26.206  1.00  0.00    -0.356 N 
ATOM      4  C   UNL A   1      33.968  21.333  26.402  1.00  0.00     0.226 C 
ATOM      5  O   UNL A   1      33.634  21.222  27.583  1.00  0.00    -0.274 OA
ATOM      6  H   UNL A   1      35.813  21.176  27.039  1.00  0.00     0.163 HD
BRANCH   4   7
ATOM      7  C   UNL A   1      32.938  21.488  25.260  1.00  0.00     0.049 C 
BRANCH   7   8
ATOM      8  C   UNL A   1      33.522  22.079  23.926  1.00  0.00     0.017 C 
BRANCH   8   9
ATOM      9  C   UNL A   1      32.609  22.504  22.760  1.00  0.00     0.001 C 
BRANCH   9  10
ATOM     10  C   UNL A   1      32.831  23.887  22.143  1.00  0.00    -0.003 C 
ATOM     11  C   UNL A   1      31.986  25.001  22.752  1.00  0.00     0.004 C 
ENDBRANCH   9  10
ENDBRANCH   8   9
ENDBRANCH   7   8
BRANCH   7  12
ATOM     12  C   UNL A   1      31.837  22.485  25.772  1.00  0.00     0.013 C 
ATOM     13  C   UNL A   1      32.308  23.848  26.262  1.00  0.00     0.005 C 
ENDBRANCH   7  12
BRANCH   7  14
ATOM     14  C   UNL A   1      32.384  20.050  24.933  1.00  0.00     0.023 C 
BRANCH  14  15
ATOM     15  C   UNL A   1      33.152  19.061  23.998  1.00  0.00     0.018 C 
ATOM     16  C   UNL A   1      33.895  17.839  24.511  1.00  0.00     0.034 C 
ATOM     17  C   UNL A   1      32.241  18.398  22.967  1.00  0.00     0.163 C 
ATOM     18  C   UNL A   1      34.022  16.948  23.289  1.00  0.00     0.160 C 
ATOM     19  O   UNL A   1      32.991  17.329  22.378  1.00  0.00    -0.381 OA
ENDBRANCH  14  15
ENDBRANCH   7  14
ENDBRANCH   4   7
ENDBRANCH   2   3
ENDBRANCH   1   2
BRANCH   1  20
ATOM     20  C   UNL A   1      38.705  21.214  25.376  1.00  0.00     0.118 C 
BRANCH  20  21
ATOM     21  N   UNL A   1      39.574  20.340  26.152  1.00  0.00    -0.352 N 
ATOM     22  C   UNL A   1      40.659  20.663  26.929  1.00  0.00     0.251 C 
ATOM     23  H   UNL A   1      39.353  19.382  26.114  1.00  0.00     0.163 HD
ATOM     24  O   UNL A   1      41.413  19.775  27.326  1.00  0.00    -0.269 OA
BRANCH  22  25
ATOM     25  C   UNL A   1      40.929  22.075  27.267  1.00  0.00     0.039 A 
ATOM     26  C   UNL A   1      41.721  22.373  28.378  1.00  0.00     0.014 A 
ATOM     27  C   UNL A   1      40.407  23.106  26.481  1.00  0.00     0.014 A 
ATOM     28  C   UNL A   1      42.044  23.702  28.659  1.00  0.00     0.010 A 
ATOM     29  C   UNL A   1      40.811  24.417  26.703  1.00  0.00     0.010 A 
ATOM     30  C   UNL A   1      41.623  24.733  27.801  1.00  0.00    -0.014 A 
BRANCH  30  31
ATOM     31  C   UNL A   1      42.022  26.145  28.032  1.00  0.00     0.031 A 
ATOM     32  C   UNL A   1      43.406  26.610  27.665  1.00  0.00     0.074 A 
ATOM     33  C   UNL A   1      41.170  26.987  28.652  1.00  0.00     0.049 A 
ATOM     34  N   UNL A   1      43.959  27.781  27.847  1.00  0.00    -0.248 NA
ATOM     35  C   UNL A   1      44.299  25.621  27.036  1.00  0.00     0.031 C 
ATOM     36  C   UNL A   1      39.830  26.635  29.128  1.00  0.00     0.029 A 
ATOM     37  N   UNL A   1      41.315  28.303  29.013  1.00  0.00    -0.354 N 
ATOM     38  C   UNL A   1      45.266  27.661  27.392  1.00  0.00     0.074 A 
ATOM     39  C   UNL A   1      45.439  26.292  26.961  1.00  0.00     0.031 C 
ATOM     40  C   UNL A   1      39.274  27.710  29.710  1.00  0.00     0.029 A 
ATOM     41  C   UNL A   1      40.228  28.814  29.684  1.00  0.00     0.049 A 
ATOM     42  H   UNL A   1      42.120  28.832  28.810  1.00  0.00     0.167 HD
ATOM     43  C   UNL A   1      46.229  28.610  27.311  1.00  0.00     0.034 A 
ATOM     44  C   UNL A   1      40.026  30.030  30.228  1.00  0.00     0.034 A 
ATOM     45  C   UNL A   1      46.041  29.979  27.708  1.00  0.00     0.049 A 
ATOM     46  C   UNL A   1      41.102  31.075  30.102  1.00  0.00     0.074 A 
ATOM     47  C   UNL A   1      46.924  31.037  27.587  1.00  0.00     0.029 A 
ATOM     48  N   UNL A   1      44.899  30.479  28.313  1.00  0.00    -0.354 N 
ATOM     49  N   UNL A   1      42.277  30.984  29.526  1.00  0.00    -0.248 NA
ATOM     50  C   UNL A   1      40.812  32.400  30.667  1.00  0.00     0.031 C 
ATOM     51  C   UNL A   1      46.328  32.170  28.150  1.00  0.00     0.029 A 
ATOM     52  C   UNL A   1      45.058  31.826  28.584  1.00  0.00     0.049 A 
ATOM     53  H   UNL A   1      44.093  29.952  28.520  1.00  0.00     0.167 HD
ATOM     54  C   UNL A   1      42.849  32.246  29.627  1.00  0.00     0.074 A 
ATOM     55  C   UNL A   1      41.883  33.089  30.301  1.00  0.00     0.031 C 
ATOM     56  C   UNL A   1      44.070  32.666  29.210  1.00  0.00     0.034 A 
BRANCH  43  57
ATOM     57  C   UNL A   1      47.560  28.210  26.728  1.00  0.00     0.023 A 
ATOM     58  C   UNL A   1      48.670  28.029  27.580  1.00  0.00     0.012 A 
ATOM     59  C   UNL A   1      47.701  27.957  25.349  1.00  0.00     0.148 A 
ATOM     60  C   UNL A   1      49.907  27.643  27.066  1.00  0.00     0.002 A 
ATOM     61  C   UNL A   1      48.925  27.524  24.851  1.00  0.00     0.091 A 
ATOM     62  F   UNL A   1      46.642  28.151  24.551  1.00  0.00    -0.205 F 
ATOM     63  C   UNL A   1      50.031  27.381  25.705  1.00  0.00     0.022 A 
BRANCH  61  64
ATOM     64  S   UNL A   1      49.169  27.078  23.128  1.00  0.00     0.127 S 
ATOM     65  O   UNL A   1      50.597  26.761  23.106  1.00  0.00    -0.237 OA
ATOM     66  O   UNL A   1      48.286  25.922  22.983  1.00  0.00    -0.237 OA
ATOM     67  O   UNL A   1      48.777  28.246  22.351  1.00  0.00    -0.744 OA
ENDBRANCH  61  64
ENDBRANCH  43  57
BRANCH  44  68
ATOM     68  C   UNL A   1      38.729  30.344  30.893  1.00  0.00     0.023 A 
ATOM     69  C   UNL A   1      38.517  29.939  32.225  1.00  0.00     0.012 A 
ATOM     70  C   UNL A   1      37.718  31.061  30.224  1.00  0.00     0.148 A 
ATOM     71  C   UNL A   1      37.308  30.210  32.867  1.00  0.00     0.002 A 
ATOM     72  C   UNL A   1      36.538  31.378  30.888  1.00  0.00     0.091 A 
ATOM     73  F   UNL A   1      37.936  31.432  28.954  1.00  0.00    -0.205 F 
ATOM     74  C   UNL A   1      36.323  30.936  32.203  1.00  0.00     0.022 A 
BRANCH  72  75
ATOM     75  S   UNL A   1      35.271  32.423  30.161  1.00  0.00     0.127 S 
ATOM     76  O   UNL A   1      36.046  33.592  29.751  1.00  0.00    -0.237 OA
ATOM     77  O   UNL A   1      34.788  31.586  29.062  1.00  0.00    -0.237 OA
ATOM     78  O   UNL A   1      34.294  32.650  31.216  1.00  0.00    -0.744 OA
ENDBRANCH  72  75
ENDBRANCH  44  68
BRANCH  56  79
ATOM     79  C   UNL A   1      44.423  34.115  29.427  1.00  0.00     0.023 A 
ATOM     80  C   UNL A   1      45.007  34.526  30.641  1.00  0.00     0.012 A 
ATOM     81  C   UNL A   1      44.245  35.056  28.392  1.00  0.00     0.148 A 
ATOM     82  C   UNL A   1      45.377  35.856  30.834  1.00  0.00     0.002 A 
ATOM     83  C   UNL A   1      44.666  36.367  28.572  1.00  0.00     0.091 A 
ATOM     84  F   UNL A   1      43.672  34.648  27.250  1.00  0.00    -0.205 F 
ATOM     85  C   UNL A   1      45.219  36.772  29.798  1.00  0.00     0.022 A 
BRANCH  83  86
ATOM     86  S   UNL A   1      44.594  37.592  27.260  1.00  0.00     0.127 S 
ATOM     87  O   UNL A   1      45.574  37.066  26.309  1.00  0.00    -0.237 OA
ATOM     88  O   UNL A   1      43.203  37.493  26.821  1.00  0.00    -0.237 OA
ATOM     89  O   UNL A   1      44.947  38.864  27.877  1.00  0.00    -0.744 OA
ENDBRANCH  83  86
ENDBRANCH  56  79
ENDBRANCH  30  31
ENDBRANCH  22  25
ENDBRANCH  20  21
ENDBRANCH   1  20
TORSDOF 19
ENDMDL
MODEL 2
REMARK VINA RESULT:     -10.9      5.438     10.470
REMARK SMILES CCCC[C@@](CC)(C[C@H]1CCOC1)C(=O)NCCCNC(=O)c1ccc(-c2c3nc(c(-c4cccc(S(=O)(=O)[O-])c4F)c4ccc([nH]4)c(-c4cccc(S(=O)(=O)[O-])c4F)c4nc(c(-c5cccc(S(=O)(=O)[O-])c5F)c5ccc2[nH]5)C=C4)C=C3)cc1
REMARK SMILES IDX 18 1 17 2 16 3 14 4 15 5 5 7 4 8 3 9 2 10 1 11 6 12 7 13
REMARK SMILES IDX 8 14 9 15 10 16 13 17 11 18 12 19 19 20 20 21 21 22 22 24
REMARK SMILES IDX 23 25 24 26 85 27 25 28 84 29 26 30 27 31 28 32 78 33 29 34
REMARK SMILES IDX 83 35 77 36 79 37 30 38 82 39 76 40 75 41 31 43 63 44 43 45
REMARK SMILES IDX 62 46 44 47 47 48 61 49 80 50 45 51 46 52 60 54 81 55 48 56
REMARK SMILES IDX 32 57 33 58 41 59 34 60 36 61 42 62 35 63 37 64 38 65 39 66
REMARK SMILES IDX 40 67 64 68 65 69 73 70 66 71 68 72 74 73 67 74 69 75 70 76
REMARK SMILES IDX 71 77 72 78 49 79 50 80 58 81 51 82 53 83 59 84 52 85 54 86
REMARK SMILES IDX 55 87 56 88 57 89
REMARK H PARENT 16 6 20 23 79 42 47 53
REMARK Flexibility Score: inf
ROOT
ATOM      1  C   UNL A   1      32.840  28.971  25.259  1.00  0.00     0.042 C 
ENDROOT
BRANCH   1   2
ATOM      2  C   UNL A   1      33.497  27.604  25.367  1.00  0.00     0.117 C 
BRANCH   2   3
ATOM      3  N   UNL A   1      33.672  26.961  24.070  1.00  0.00    -0.356 N 
ATOM      4  C   UNL A   1      33.652  25.679  23.622  1.00  0.00     0.226 C 
ATOM      5  O   UNL A   1      33.939  25.562  22.429  1.00  0.00    -0.274 OA
ATOM      6  H   UNL A   1      33.844  27.609  23.349  1.00  0.00     0.163 HD
BRANCH   4   7
ATOM      7  C   UNL A   1      33.334  24.463  24.522  1.00  0.00     0.049 C 
BRANCH   7   8
ATOM      8  C   UNL A   1      31.899  24.477  25.161  1.00  0.00     0.017 C 
BRANCH   8   9
ATOM      9  C   UNL A   1      30.657  24.906  24.356  1.00  0.00     0.001 C 
BRANCH   9  10
ATOM     10  C   UNL A   1      30.033  26.269  24.671  1.00  0.00    -0.003 C 
ATOM     11  C   UNL A   1      30.018  27.248  23.502  1.00  0.00     0.004 C 
ENDBRANCH   9  10
ENDBRANCH   8   9
ENDBRANCH   7   8
BRANCH   7  12
ATOM     12  C   UNL A   1      34.373  24.487  25.700  1.00  0.00     0.013 C 
ATOM     13  C   UNL A   1      35.807  24.095  25.370  1.00  0.00     0.005 C 
ENDBRANCH   7  12
BRANCH   7  14
ATOM     14  C   UNL A   1      33.432  23.176  23.619  1.00  0.00     0.023 C 
BRANCH  14  15
ATOM     15  C   UNL A   1      32.995  21.768  24.138  1.00  0.00     0.018 C 
ATOM     16  C   UNL A   1      32.289  20.743  23.267  1.00  0.00     0.034 C 
ATOM     17  C   UNL A   1      34.174  20.928  24.625  1.00  0.00     0.163 C 
ATOM     18  C   UNL A   1      32.528  19.427  23.984  1.00  0.00     0.160 C 
ATOM     19  O   UNL A   1      33.688  19.593  24.799  1.00  0.00    -0.381 OA
ENDBRANCH  14  15
ENDBRANCH   7  14
ENDBRANCH   4   7
ENDBRANCH   2   3
ENDBRANCH   1   2
BRANCH   1  20
ATOM     20  C   UNL A   1      32.313  29.521  26.574  1.00  0.00     0.118 C 
BRANCH  20  21
ATOM     21  N   UNL A   1      32.311  30.978  26.601  1.00  0.00    -0.352 N 
ATOM     22  C   UNL A   1      33.170  31.834  27.245  1.00  0.00     0.251 C 
ATOM     23  H   UNL A   1      31.594  31.409  26.084  1.00  0.00     0.163 HD
ATOM     24  O   UNL A   1      32.882  33.027  27.346  1.00  0.00    -0.269 OA
BRANCH  22  25
ATOM     25  C   UNL A   1      34.423  31.318  27.833  1.00  0.00     0.039 A 
ATOM     26  C   UNL A   1      35.505  32.183  28.002  1.00  0.00     0.014 A 
ATOM     27  C   UNL A   1      34.525  29.980  28.226  1.00  0.00     0.014 A 
ATOM     28  C   UNL A   1      36.666  31.722  28.627  1.00  0.00     0.010 A 
ATOM     29  C   UNL A   1      35.640  29.552  28.935  1.00  0.00     0.010 A 
ATOM     30  C   UNL A   1      36.729  30.413  29.134  1.00  0.00    -0.014 A 
BRANCH  30  31
ATOM     31  C   UNL A   1      37.920  29.924  29.875  1.00  0.00     0.031 A 
ATOM     32  C   UNL A   1      38.207  30.431  31.264  1.00  0.00     0.074 A 
ATOM     33  C   UNL A   1      38.790  29.093  29.267  1.00  0.00     0.049 A 
ATOM     34  N   UNL A   1      39.226  30.173  32.041  1.00  0.00    -0.248 NA
ATOM     35  C   UNL A   1      37.237  31.376  31.845  1.00  0.00     0.031 C 
ATOM     36  C   UNL A   1      38.665  28.592  27.896  1.00  0.00     0.029 A 
ATOM     37  N   UNL A   1      39.966  28.544  29.713  1.00  0.00    -0.354 N 
ATOM     38  C   UNL A   1      39.041  30.946  33.181  1.00  0.00     0.074 A 
ATOM     39  C   UNL A   1      37.833  31.713  32.979  1.00  0.00     0.031 C 
ATOM     40  C   UNL A   1      39.716  27.805  27.616  1.00  0.00     0.029 A 
ATOM     41  C   UNL A   1      40.609  27.774  28.771  1.00  0.00     0.049 A 
ATOM     42  H   UNL A   1      40.317  28.687  30.622  1.00  0.00     0.167 HD
ATOM     43  C   UNL A   1      39.790  30.991  34.309  1.00  0.00     0.034 A 
ATOM     44  C   UNL A   1      41.789  27.126  28.825  1.00  0.00     0.034 A 
ATOM     45  C   UNL A   1      40.971  30.199  34.520  1.00  0.00     0.049 A 
ATOM     46  C   UNL A   1      42.590  27.173  30.098  1.00  0.00     0.074 A 
ATOM     47  C   UNL A   1      41.752  30.108  35.658  1.00  0.00     0.029 A 
ATOM     48  N   UNL A   1      41.550  29.372  33.571  1.00  0.00    -0.354 N 
ATOM     49  N   UNL A   1      42.316  27.787  31.224  1.00  0.00    -0.248 NA
ATOM     50  C   UNL A   1      43.844  26.407  30.123  1.00  0.00     0.031 C 
ATOM     51  C   UNL A   1      42.823  29.252  35.385  1.00  0.00     0.029 A 
ATOM     52  C   UNL A   1      42.685  28.776  34.090  1.00  0.00     0.049 A 
ATOM     53  H   UNL A   1      41.203  29.228  32.660  1.00  0.00     0.167 HD
ATOM     54  C   UNL A   1      43.342  27.454  32.100  1.00  0.00     0.074 A 
ATOM     55  C   UNL A   1      44.232  26.566  31.380  1.00  0.00     0.031 C 
ATOM     56  C   UNL A   1      43.536  27.856  33.381  1.00  0.00     0.034 A 
BRANCH  43  57
ATOM     57  C   UNL A   1      39.327  31.896  35.421  1.00  0.00     0.023 A 
ATOM     58  C   UNL A   1      39.611  33.277  35.363  1.00  0.00     0.012 A 
ATOM     59  C   UNL A   1      38.563  31.395  36.494  1.00  0.00     0.148 A 
ATOM     60  C   UNL A   1      39.180  34.136  36.372  1.00  0.00     0.002 A 
ATOM     61  C   UNL A   1      38.093  32.266  37.470  1.00  0.00     0.091 A 
ATOM     62  F   UNL A   1      38.317  30.078  36.543  1.00  0.00    -0.205 F 
ATOM     63  C   UNL A   1      38.413  33.633  37.418  1.00  0.00     0.022 A 
BRANCH  61  64
ATOM     64  S   UNL A   1      37.027  31.734  38.815  1.00  0.00     0.127 S 
ATOM     65  O   UNL A   1      37.905  31.904  39.971  1.00  0.00    -0.237 OA
ATOM     66  O   UNL A   1      35.930  32.698  38.735  1.00  0.00    -0.237 OA
ATOM     67  O   UNL A   1      36.653  30.359  38.512  1.00  0.00    -0.744 OA
ENDBRANCH  61  64
ENDBRANCH  43  57
BRANCH  44  68
ATOM     68  C   UNL A   1      42.258  26.330  27.655  1.00  0.00     0.023 A 
ATOM     69  C   UNL A   1      43.105  26.930  26.704  1.00  0.00     0.012 A 
ATOM     70  C   UNL A   1      41.890  24.981  27.493  1.00  0.00     0.148 A 
ATOM     71  C   UNL A   1      43.549  26.212  25.592  1.00  0.00     0.002 A 
ATOM     72  C   UNL A   1      42.383  24.253  26.415  1.00  0.00     0.091 A 
ATOM     73  F   UNL A   1      41.077  24.430  28.406  1.00  0.00    -0.205 F 
ATOM     74  C   UNL A   1      43.196  24.872  25.453  1.00  0.00     0.022 A 
BRANCH  72  75
ATOM     75  S   UNL A   1      42.091  22.491  26.225  1.00  0.00     0.127 S 
ATOM     76  O   UNL A   1      42.654  21.959  27.464  1.00  0.00    -0.237 OA
ATOM     77  O   UNL A   1      40.632  22.437  26.137  1.00  0.00    -0.237 OA
ATOM     78  O   UNL A   1      42.781  22.107  25.001  1.00  0.00    -0.744 OA
ENDBRANCH  72  75
ENDBRANCH  44  68
BRANCH  56  79
ATOM     79  C   UNL A   1      44.734  27.308  34.112  1.00  0.00     0.023 A 
ATOM     80  C   UNL A   1      45.950  28.018  34.106  1.00  0.00     0.012 A 
ATOM     81  C   UNL A   1      44.628  26.125  34.871  1.00  0.00     0.148 A 
ATOM     82  C   UNL A   1      47.052  27.542  34.816  1.00  0.00     0.002 A 
ATOM     83  C   UNL A   1      45.712  25.686  35.619  1.00  0.00     0.091 A 
ATOM     84  F   UNL A   1      43.466  25.455  34.851  1.00  0.00    -0.205 F 
ATOM     85  C   UNL A   1      46.929  26.385  35.581  1.00  0.00     0.022 A 
BRANCH  83  86
ATOM     86  S   UNL A   1      45.618  24.263  36.712  1.00  0.00     0.127 S 
ATOM     87  O   UNL A   1      46.965  24.238  37.283  1.00  0.00    -0.237 OA
ATOM     88  O   UNL A   1      44.567  24.661  37.647  1.00  0.00    -0.237 OA
ATOM     89  O   UNL A   1      45.280  23.127  35.867  1.00  0.00    -0.744 OA
ENDBRANCH  83  86
ENDBRANCH  56  79
ENDBRANCH  30  31
ENDBRANCH  22  25
ENDBRANCH  20  21
ENDBRANCH   1  20
TORSDOF 19
ENDMDL
MODEL 3
REMARK VINA RESULT:     -10.8      3.215      4.711
REMARK SMILES CCCC[C@@](CC)(C[C@H]1CCOC1)C(=O)NCCCNC(=O)c1ccc(-c2c3nc(c(-c4cccc(S(=O)(=O)[O-])c4F)c4ccc([nH]4)c(-c4cccc(S(=O)(=O)[O-])c4F)c4nc(c(-c5cccc(S(=O)(=O)[O-])c5F)c5ccc2[nH]5)C=C4)C=C3)cc1
REMARK SMILES IDX 18 1 17 2 16 3 14 4 15 5 5 7 4 8 3 9 2 10 1 11 6 12 7 13
REMARK SMILES IDX 8 14 9 15 10 16 13 17 11 18 12 19 19 20 20 21 21 22 22 24
REMARK SMILES IDX 23 25 24 26 85 27 25 28 84 29 26 30 27 31 28 32 78 33 29 34
REMARK SMILES IDX 83 35 77 36 79 37 30 38 82 39 76 40 75 41 31 43 63 44 43 45
REMARK SMILES IDX 62 46 44 47 47 48 61 49 80 50 45 51 46 52 60 54 81 55 48 56
REMARK SMILES IDX 32 57 33 58 41 59 34 60 36 61 42 62 35 63 37 64 38 65 39 66
REMARK SMILES IDX 40 67 64 68 65 69 73 70 66 71 68 72 74 73 67 74 69 75 70 76
REMARK SMILES IDX 71 77 72 78 49 79 50 80 58 81 51 82 53 83 59 84 52 85 54 86
REMARK SMILES IDX 55 87 56 88 57 89
REMARK H PARENT 16 6 20 23 79 42 47 53
REMARK Flexibility Score: inf
ROOT
ATOM      1  C   UNL A   1      35.763  23.798  24.720  1.00  0.00     0.042 C 
ENDROOT
BRANCH   1   2
ATOM      2  C   UNL A   1      34.352  24.364  24.764  1.00  0.00     0.117 C 
BRANCH   2   3
ATOM      3  N   UNL A   1      34.045  25.200  23.610  1.00  0.00    -0.356 N 
ATOM      4  C   UNL A   1      33.183  26.220  23.362  1.00  0.00     0.226 C 
ATOM      5  O   UNL A   1      33.184  26.602  22.191  1.00  0.00    -0.274 OA
ATOM      6  H   UNL A   1      34.593  24.972  22.824  1.00  0.00     0.163 HD
BRANCH   4   7
ATOM      7  C   UNL A   1      32.253  26.831  24.434  1.00  0.00     0.049 C 
BRANCH   7   8
ATOM      8  C   UNL A   1      32.877  26.916  25.874  1.00  0.00     0.017 C 
BRANCH   8   9
ATOM      9  C   UNL A   1      33.976  27.938  26.222  1.00  0.00     0.001 C 
BRANCH   9  10
ATOM     10  C   UNL A   1      33.644  29.027  27.246  1.00  0.00    -0.003 C 
ATOM     11  C   UNL A   1      34.785  29.994  27.542  1.00  0.00     0.004 C 
ENDBRANCH   9  10
ENDBRANCH   8   9
ENDBRANCH   7   8
BRANCH   7  12
ATOM     12  C   UNL A   1      30.989  25.902  24.524  1.00  0.00     0.013 C 
ATOM     13  C   UNL A   1      30.322  25.765  25.886  1.00  0.00     0.005 C 
ENDBRANCH   7  12
BRANCH   7  14
ATOM     14  C   UNL A   1      31.922  28.303  23.980  1.00  0.00     0.023 C 
BRANCH  14  15
ATOM     15  C   UNL A   1      30.472  28.744  23.598  1.00  0.00     0.018 C 
ATOM     16  C   UNL A   1      29.901  30.111  23.938  1.00  0.00     0.034 C 
ATOM     17  C   UNL A   1      30.231  28.729  22.090  1.00  0.00     0.163 C 
ATOM     18  C   UNL A   1      28.743  30.275  22.971  1.00  0.00     0.160 C 
ATOM     19  O   UNL A   1      28.992  29.412  21.862  1.00  0.00    -0.381 OA
ENDBRANCH  14  15
ENDBRANCH   7  14
ENDBRANCH   4   7
ENDBRANCH   2   3
ENDBRANCH   1   2
BRANCH   1  20
ATOM     20  C   UNL A   1      36.457  23.733  26.070  1.00  0.00     0.118 C 
BRANCH  20  21
ATOM     21  N   UNL A   1      37.459  22.677  26.124  1.00  0.00    -0.352 N 
ATOM     22  C   UNL A   1      38.811  22.775  26.341  1.00  0.00     0.251 C 
ATOM     23  H   UNL A   1      37.118  21.764  25.986  1.00  0.00     0.163 HD
ATOM     24  O   UNL A   1      39.537  21.804  26.124  1.00  0.00    -0.269 OA
BRANCH  22  25
ATOM     25  C   UNL A   1      39.392  24.049  26.811  1.00  0.00     0.039 A 
ATOM     26  C   UNL A   1      39.994  24.907  25.889  1.00  0.00     0.014 A 
ATOM     27  C   UNL A   1      39.333  24.400  28.163  1.00  0.00     0.014 A 
ATOM     28  C   UNL A   1      40.476  26.147  26.313  1.00  0.00     0.010 A 
ATOM     29  C   UNL A   1      39.723  25.673  28.563  1.00  0.00     0.010 A 
ATOM     30  C   UNL A   1      40.310  26.557  27.647  1.00  0.00    -0.014 A 
BRANCH  30  31
ATOM     31  C   UNL A   1      40.740  27.903  28.104  1.00  0.00     0.031 A 
ATOM     32  C   UNL A   1      42.203  28.259  28.135  1.00  0.00     0.074 A 
ATOM     33  C   UNL A   1      39.824  28.773  28.573  1.00  0.00     0.049 A 
ATOM     34  N   UNL A   1      42.775  29.355  28.560  1.00  0.00    -0.248 NA
ATOM     35  C   UNL A   1      43.150  27.240  27.653  1.00  0.00     0.031 C 
ATOM     36  C   UNL A   1      38.384  28.517  28.669  1.00  0.00     0.029 A 
ATOM     37  N   UNL A   1      39.968  30.039  29.085  1.00  0.00    -0.354 N 
ATOM     38  C   UNL A   1      44.143  29.145  28.432  1.00  0.00     0.074 A 
ATOM     39  C   UNL A   1      44.318  27.802  27.927  1.00  0.00     0.031 C 
ATOM     40  C   UNL A   1      37.779  29.593  29.197  1.00  0.00     0.029 A 
ATOM     41  C   UNL A   1      38.787  30.600  29.513  1.00  0.00     0.049 A 
ATOM     42  H   UNL A   1      40.835  30.502  29.138  1.00  0.00     0.167 HD
ATOM     43  C   UNL A   1      45.162  30.001  28.682  1.00  0.00     0.034 A 
ATOM     44  C   UNL A   1      38.544  31.785  30.106  1.00  0.00     0.034 A 
ATOM     45  C   UNL A   1      44.982  31.349  29.151  1.00  0.00     0.049 A 
ATOM     46  C   UNL A   1      39.691  32.728  30.350  1.00  0.00     0.074 A 
ATOM     47  C   UNL A   1      45.942  32.323  29.354  1.00  0.00     0.029 A 
ATOM     48  N   UNL A   1      43.764  31.908  29.502  1.00  0.00    -0.354 N 
ATOM     49  N   UNL A   1      40.964  32.569  30.075  1.00  0.00    -0.248 NA
ATOM     50  C   UNL A   1      39.366  34.029  30.952  1.00  0.00     0.031 C 
ATOM     51  C   UNL A   1      45.308  33.462  29.860  1.00  0.00     0.029 A 
ATOM     52  C   UNL A   1      43.947  33.210  29.933  1.00  0.00     0.049 A 
ATOM     53  H   UNL A   1      42.894  31.447  29.452  1.00  0.00     0.167 HD
ATOM     54  C   UNL A   1      41.583  33.760  30.436  1.00  0.00     0.074 A 
ATOM     55  C   UNL A   1      40.543  34.638  30.929  1.00  0.00     0.031 C 
ATOM     56  C   UNL A   1      42.897  34.091  30.375  1.00  0.00     0.034 A 
BRANCH  43  57
ATOM     57  C   UNL A   1      46.564  29.521  28.409  1.00  0.00     0.023 A 
ATOM     58  C   UNL A   1      47.149  29.752  27.146  1.00  0.00     0.012 A 
ATOM     59  C   UNL A   1      47.325  28.893  29.416  1.00  0.00     0.148 A 
ATOM     60  C   UNL A   1      48.449  29.331  26.875  1.00  0.00     0.002 A 
ATOM     61  C   UNL A   1      48.638  28.522  29.154  1.00  0.00     0.091 A 
ATOM     62  F   UNL A   1      46.748  28.665  30.604  1.00  0.00    -0.205 F 
ATOM     63  C   UNL A   1      49.197  28.727  27.881  1.00  0.00     0.022 A 
BRANCH  61  64
ATOM     64  S   UNL A   1      49.715  27.813  30.406  1.00  0.00     0.127 S 
ATOM     65  O   UNL A   1      50.956  27.625  29.655  1.00  0.00    -0.237 OA
ATOM     66  O   UNL A   1      49.762  28.877  31.407  1.00  0.00    -0.237 OA
ATOM     67  O   UNL A   1      49.063  26.587  30.850  1.00  0.00    -0.744 OA
ENDBRANCH  61  64
ENDBRANCH  43  57
BRANCH  44  68
ATOM     68  C   UNL A   1      37.148  32.171  30.458  1.00  0.00     0.023 A 
ATOM     69  C   UNL A   1      36.660  31.903  31.751  1.00  0.00     0.012 A 
ATOM     70  C   UNL A   1      36.312  32.823  29.531  1.00  0.00     0.148 A 
ATOM     71  C   UNL A   1      35.353  32.242  32.104  1.00  0.00     0.002 A 
ATOM     72  C   UNL A   1      35.031  33.211  29.906  1.00  0.00     0.091 A 
ATOM     73  F   UNL A   1      36.793  33.064  28.302  1.00  0.00    -0.205 F 
ATOM     74  C   UNL A   1      34.542  32.904  31.185  1.00  0.00     0.022 A 
BRANCH  72  75
ATOM     75  S   UNL A   1      33.965  34.185  28.837  1.00  0.00     0.127 S 
ATOM     76  O   UNL A   1      34.875  35.232  28.381  1.00  0.00    -0.237 OA
ATOM     77  O   UNL A   1      33.589  33.206  27.817  1.00  0.00    -0.237 OA
ATOM     78  O   UNL A   1      32.862  34.628  29.679  1.00  0.00    -0.744 OA
ENDBRANCH  72  75
ENDBRANCH  44  68
BRANCH  56  79
ATOM     79  C   UNL A   1      43.289  35.480  30.811  1.00  0.00     0.023 A 
ATOM     80  C   UNL A   1      43.667  35.720  32.146  1.00  0.00     0.012 A 
ATOM     81  C   UNL A   1      43.358  36.530  29.873  1.00  0.00     0.148 A 
ATOM     82  C   UNL A   1      44.073  36.992  32.549  1.00  0.00     0.002 A 
ATOM     83  C   UNL A   1      43.815  37.780  30.269  1.00  0.00     0.091 A 
ATOM     84  F   UNL A   1      42.979  36.284  28.610  1.00  0.00    -0.205 F 
ATOM     85  C   UNL A   1      44.160  38.016  31.610  1.00  0.00     0.022 A 
BRANCH  83  86
ATOM     86  S   UNL A   1      44.055  39.131  29.111  1.00  0.00     0.127 S 
ATOM     87  O   UNL A   1      45.024  38.555  28.178  1.00  0.00    -0.237 OA
ATOM     88  O   UNL A   1      42.712  39.309  28.561  1.00  0.00    -0.237 OA
ATOM     89  O   UNL A   1      44.543  40.255  29.898  1.00  0.00    -0.744 OA
ENDBRANCH  83  86
ENDBRANCH  56  79
ENDBRANCH  30  31
ENDBRANCH  22  25
ENDBRANCH  20  21
ENDBRANCH   1  20
TORSDOF 19
ENDMDL
