MODEL 1
REMARK VINA RESULT:     -11.6      0.000      0.000
REMARK SMILES CC(=C\c1ccco1)/C=C1/SC(=S)N(CC(=O)NCCCNC(=O)c2ccc(-c3c4nc(c(-c5cccc(S(=O)(=O)[O-])c5F)c5ccc([nH]5)c(-c5cccc(S(=O)(=O)[O-])c5F)c5nc(c(-c6cccc(S(=O)(=O)[O-])c6F)c6ccc3[nH]6)C=C5)C=C4)cc2)C1=O
REMARK SMILES IDX 20 1 19 2 18 3 16 4 17 5 15 7 14 8 9 9 10 10 11 11 88 12
REMARK SMILES IDX 12 13 89 14 13 15 2 16 1 17 3 18 4 19 5 20 8 21 6 22 7 23
REMARK SMILES IDX 21 24 22 25 23 26 24 28 25 29 26 30 87 31 27 32 86 33 28 34
REMARK SMILES IDX 29 35 30 36 80 37 31 38 85 39 79 40 81 41 32 42 84 43 78 44
REMARK SMILES IDX 77 45 33 47 65 48 45 49 64 50 46 51 49 52 63 53 82 54 47 55
REMARK SMILES IDX 48 56 62 58 83 59 50 60 34 61 35 62 43 63 36 64 38 65 44 66
REMARK SMILES IDX 37 67 39 68 40 69 41 70 42 71 66 72 67 73 75 74 68 75 70 76
REMARK SMILES IDX 76 77 69 78 71 79 72 80 73 81 74 82 51 83 52 84 60 85 53 86
REMARK SMILES IDX 55 87 61 88 54 89 56 90 57 91 58 92 59 93
REMARK H PARENT 18 6 22 27 81 46 49 57
REMARK Flexibility Score: inf
ROOT
ATOM      1  C   UNL A   1      31.365  32.059  26.604  1.00  0.00     0.042 C 
ENDROOT
BRANCH   1   2
ATOM      2  C   UNL A   1      31.477  30.572  26.294  1.00  0.00     0.117 C 
BRANCH   2   3
ATOM      3  N   UNL A   1      32.608  30.259  25.445  1.00  0.00    -0.354 N 
ATOM      4  C   UNL A   1      32.930  29.087  24.825  1.00  0.00     0.240 C 
ATOM      5  O   UNL A   1      33.756  29.143  23.910  1.00  0.00    -0.273 OA
ATOM      6  H   UNL A   1      33.237  31.001  25.293  1.00  0.00     0.163 HD
BRANCH   4   7
ATOM      7  C   UNL A   1      32.199  27.777  25.155  1.00  0.00     0.227 C 
BRANCH   7   8
ATOM      8  N   UNL A   1      32.277  26.801  24.069  1.00  0.00    -0.283 N 
ATOM      9  C   UNL A   1      33.742  23.662  22.968  1.00  0.00     0.024 C 
ATOM     10  C   UNL A   1      33.136  24.856  23.056  1.00  0.00     0.080 C 
ATOM     11  S   UNL A   1      31.976  25.424  21.915  1.00  0.00    -0.054 SA
ATOM     12  C   UNL A   1      33.293  25.867  24.134  1.00  0.00     0.266 C 
ATOM     13  C   UNL A   1      31.563  26.828  22.892  1.00  0.00     0.148 C 
ATOM     14  O   UNL A   1      34.217  25.894  24.940  1.00  0.00    -0.268 OA
ATOM     15  S   UNL A   1      30.479  27.983  22.366  1.00  0.00    -0.052 S 
BRANCH   9  16
ATOM     16  C   UNL A   1      34.669  23.083  23.937  1.00  0.00    -0.046 C 
ATOM     17  C   UNL A   1      34.037  22.304  25.067  1.00  0.00     0.044 C 
ATOM     18  C   UNL A   1      35.988  23.302  23.765  1.00  0.00     0.050 C 
BRANCH  18  19
ATOM     19  C   UNL A   1      37.019  22.818  24.619  1.00  0.00     0.126 A 
ATOM     20  C   UNL A   1      37.697  23.414  25.677  1.00  0.00     0.050 A 
ATOM     21  O   UNL A   1      37.498  21.528  24.509  1.00  0.00    -0.465 OA
ATOM     22  C   UNL A   1      38.647  22.489  26.172  1.00  0.00     0.042 A 
ATOM     23  C   UNL A   1      38.479  21.352  25.425  1.00  0.00     0.195 A 
ENDBRANCH  18  19
ENDBRANCH   9  16
ENDBRANCH   7   8
ENDBRANCH   4   7
ENDBRANCH   2   3
ENDBRANCH   1   2
BRANCH   1  24
ATOM     24  C   UNL A   1      32.702  32.731  26.908  1.00  0.00     0.118 C 
BRANCH  24  25
ATOM     25  N   UNL A   1      32.548  34.038  27.535  1.00  0.00    -0.352 N 
ATOM     26  C   UNL A   1      33.179  34.584  28.626  1.00  0.00     0.251 C 
ATOM     27  H   UNL A   1      31.882  34.624  27.108  1.00  0.00     0.163 HD
ATOM     28  O   UNL A   1      32.759  35.639  29.095  1.00  0.00    -0.269 OA
BRANCH  26  29
ATOM     29  C   UNL A   1      34.345  33.913  29.243  1.00  0.00     0.039 A 
ATOM     30  C   UNL A   1      35.620  34.447  29.032  1.00  0.00     0.014 A 
ATOM     31  C   UNL A   1      34.193  32.748  29.997  1.00  0.00     0.014 A 
ATOM     32  C   UNL A   1      36.731  33.847  29.631  1.00  0.00     0.010 A 
ATOM     33  C   UNL A   1      35.290  32.199  30.655  1.00  0.00     0.010 A 
ATOM     34  C   UNL A   1      36.572  32.738  30.476  1.00  0.00    -0.014 A 
BRANCH  34  35
ATOM     35  C   UNL A   1      37.729  32.141  31.195  1.00  0.00     0.031 A 
ATOM     36  C   UNL A   1      38.503  31.005  30.582  1.00  0.00     0.074 A 
ATOM     37  C   UNL A   1      38.027  32.565  32.439  1.00  0.00     0.049 A 
ATOM     38  N   UNL A   1      39.499  30.321  31.085  1.00  0.00    -0.248 NA
ATOM     39  C   UNL A   1      38.090  30.560  29.241  1.00  0.00     0.031 C 
ATOM     40  C   UNL A   1      37.307  33.608  33.172  1.00  0.00     0.029 A 
ATOM     41  N   UNL A   1      38.998  32.153  33.319  1.00  0.00    -0.354 N 
ATOM     42  C   UNL A   1      39.805  29.344  30.145  1.00  0.00     0.074 A 
ATOM     43  C   UNL A   1      38.869  29.504  29.053  1.00  0.00     0.031 C 
ATOM     44  C   UNL A   1      37.863  33.758  34.386  1.00  0.00     0.029 A 
ATOM     45  C   UNL A   1      38.954  32.801  34.532  1.00  0.00     0.049 A 
ATOM     46  H   UNL A   1      39.661  31.460  33.103  1.00  0.00     0.167 HD
ATOM     47  C   UNL A   1      40.789  28.414  30.174  1.00  0.00     0.034 A 
ATOM     48  C   UNL A   1      39.700  32.635  35.642  1.00  0.00     0.034 A 
ATOM     49  C   UNL A   1      41.743  28.285  31.242  1.00  0.00     0.049 A 
ATOM     50  C   UNL A   1      40.807  31.616  35.635  1.00  0.00     0.074 A 
ATOM     51  C   UNL A   1      42.835  27.439  31.322  1.00  0.00     0.029 A 
ATOM     52  N   UNL A   1      41.716  29.012  32.422  1.00  0.00    -0.354 N 
ATOM     53  N   UNL A   1      41.180  30.810  34.671  1.00  0.00    -0.248 NA
ATOM     54  C   UNL A   1      41.618  31.507  36.856  1.00  0.00     0.031 C 
ATOM     55  C   UNL A   1      43.447  27.629  32.565  1.00  0.00     0.029 A 
ATOM     56  C   UNL A   1      42.760  28.623  33.243  1.00  0.00     0.049 A 
ATOM     57  H   UNL A   1      41.051  29.704  32.644  1.00  0.00     0.167 HD
ATOM     58  C   UNL A   1      42.292  30.129  35.152  1.00  0.00     0.074 A 
ATOM     59  C   UNL A   1      42.543  30.632  36.488  1.00  0.00     0.031 C 
ATOM     60  C   UNL A   1      43.032  29.166  34.549  1.00  0.00     0.034 A 
BRANCH  47  61
ATOM     61  C   UNL A   1      40.914  27.484  28.995  1.00  0.00     0.023 A 
ATOM     62  C   UNL A   1      40.071  26.357  28.900  1.00  0.00     0.012 A 
ATOM     63  C   UNL A   1      41.818  27.759  27.950  1.00  0.00     0.148 A 
ATOM     64  C   UNL A   1      40.151  25.500  27.803  1.00  0.00     0.002 A 
ATOM     65  C   UNL A   1      41.858  26.927  26.837  1.00  0.00     0.091 A 
ATOM     66  F   UNL A   1      42.625  28.824  28.066  1.00  0.00    -0.205 F 
ATOM     67  C   UNL A   1      41.035  25.790  26.768  1.00  0.00     0.022 A 
BRANCH  65  68
ATOM     68  S   UNL A   1      42.902  27.260  25.414  1.00  0.00     0.127 S 
ATOM     69  O   UNL A   1      44.185  27.549  26.052  1.00  0.00    -0.237 OA
ATOM     70  O   UNL A   1      42.853  25.987  24.693  1.00  0.00    -0.237 OA
ATOM     71  O   UNL A   1      42.286  28.379  24.716  1.00  0.00    -0.744 OA
ENDBRANCH  65  68
ENDBRANCH  47  61
BRANCH  48  72
ATOM     72  C   UNL A   1      39.465  33.497  36.836  1.00  0.00     0.023 A 
ATOM     73  C   UNL A   1      39.899  34.836  36.819  1.00  0.00     0.012 A 
ATOM     74  C   UNL A   1      38.801  33.004  37.976  1.00  0.00     0.148 A 
ATOM     75  C   UNL A   1      39.710  35.659  37.930  1.00  0.00     0.002 A 
ATOM     76  C   UNL A   1      38.564  33.846  39.056  1.00  0.00     0.091 A 
ATOM     77  F   UNL A   1      38.403  31.724  37.976  1.00  0.00    -0.205 F 
ATOM     78  C   UNL A   1      39.036  35.168  39.043  1.00  0.00     0.022 A 
BRANCH  76  79
ATOM     79  S   UNL A   1      37.589  33.338  40.476  1.00  0.00     0.127 S 
ATOM     80  O   UNL A   1      36.307  33.010  39.857  1.00  0.00    -0.237 OA
ATOM     81  O   UNL A   1      38.350  32.189  40.967  1.00  0.00    -0.237 OA
ATOM     82  O   UNL A   1      37.582  34.482  41.379  1.00  0.00    -0.744 OA
ENDBRANCH  76  79
ENDBRANCH  48  72
BRANCH  60  83
ATOM     83  C   UNL A   1      44.216  28.617  35.302  1.00  0.00     0.023 A 
ATOM     84  C   UNL A   1      45.496  29.170  35.106  1.00  0.00     0.012 A 
ATOM     85  C   UNL A   1      44.042  27.597  36.259  1.00  0.00     0.148 A 
ATOM     86  C   UNL A   1      46.591  28.693  35.825  1.00  0.00     0.002 A 
ATOM     87  C   UNL A   1      45.128  27.163  37.010  1.00  0.00     0.091 A 
ATOM     88  F   UNL A   1      42.819  27.070  36.417  1.00  0.00    -0.205 F 
ATOM     89  C   UNL A   1      46.406  27.700  36.784  1.00  0.00     0.022 A 
BRANCH  87  90
ATOM     90  S   UNL A   1      44.966  25.961  38.334  1.00  0.00     0.127 S 
ATOM     91  O   UNL A   1      44.009  26.620  39.220  1.00  0.00    -0.237 OA
ATOM     92  O   UNL A   1      44.439  24.793  37.628  1.00  0.00    -0.237 OA
ATOM     93  O   UNL A   1      46.304  25.783  38.882  1.00  0.00    -0.744 OA
ENDBRANCH  87  90
ENDBRANCH  60  83
ENDBRANCH  34  35
ENDBRANCH  26  29
ENDBRANCH  24  25
ENDBRANCH   1  24
TORSDOF 16
ENDMDL
MODEL 2
REMARK VINA RESULT:     -11.5      6.403     11.622
REMARK SMILES CC(=C\c1ccco1)/C=C1/SC(=S)N(CC(=O)NCCCNC(=O)c2ccc(-c3c4nc(c(-c5cccc(S(=O)(=O)[O-])c5F)c5ccc([nH]5)c(-c5cccc(S(=O)(=O)[O-])c5F)c5nc(c(-c6cccc(S(=O)(=O)[O-])c6F)c6ccc3[nH]6)C=C5)C=C4)cc2)C1=O
REMARK SMILES IDX 20 1 19 2 18 3 16 4 17 5 15 7 14 8 9 9 10 10 11 11 88 12
REMARK SMILES IDX 12 13 89 14 13 15 2 16 1 17 3 18 4 19 5 20 8 21 6 22 7 23
REMARK SMILES IDX 21 24 22 25 23 26 24 28 25 29 26 30 87 31 27 32 86 33 28 34
REMARK SMILES IDX 29 35 30 36 80 37 31 38 85 39 79 40 81 41 32 42 84 43 78 44
REMARK SMILES IDX 77 45 33 47 65 48 45 49 64 50 46 51 49 52 63 53 82 54 47 55
REMARK SMILES IDX 48 56 62 58 83 59 50 60 34 61 35 62 43 63 36 64 38 65 44 66
REMARK SMILES IDX 37 67 39 68 40 69 41 70 42 71 66 72 67 73 75 74 68 75 70 76
REMARK SMILES IDX 76 77 69 78 71 79 72 80 73 81 74 82 51 83 52 84 60 85 53 86
REMARK SMILES IDX 55 87 61 88 54 89 56 90 57 91 58 92 59 93
REMARK H PARENT 18 6 22 27 81 46 49 57
REMARK Flexibility Score: inf
ROOT
ATOM      1  C   UNL A   1      37.790  19.603  24.831  1.00  0.00     0.042 C 
ENDROOT
BRANCH   1   2
ATOM      2  C   UNL A   1      36.483  20.361  25.023  1.00  0.00     0.117 C 
BRANCH   2   3
ATOM      3  N   UNL A   1      36.684  21.782  25.223  1.00  0.00    -0.354 N 
ATOM      4  C   UNL A   1      35.885  22.691  25.852  1.00  0.00     0.240 C 
ATOM      5  O   UNL A   1      36.399  23.766  26.173  1.00  0.00    -0.273 OA
ATOM      6  H   UNL A   1      37.518  22.145  24.848  1.00  0.00     0.163 HD
BRANCH   4   7
ATOM      7  C   UNL A   1      34.447  22.344  26.268  1.00  0.00     0.227 C 
BRANCH   7   8
ATOM      8  N   UNL A   1      33.463  22.719  25.253  1.00  0.00    -0.283 N 
ATOM      9  C   UNL A   1      31.778  25.482  23.598  1.00  0.00     0.024 C 
ATOM     10  C   UNL A   1      32.157  24.288  24.079  1.00  0.00     0.080 C 
ATOM     11  S   UNL A   1      31.742  22.787  23.341  1.00  0.00    -0.054 SA
ATOM     12  C   UNL A   1      33.015  24.026  25.263  1.00  0.00     0.266 C 
ATOM     13  C   UNL A   1      32.796  21.864  24.405  1.00  0.00     0.148 C 
ATOM     14  O   UNL A   1      33.257  24.840  26.148  1.00  0.00    -0.268 OA
ATOM     15  S   UNL A   1      32.879  20.198  24.340  1.00  0.00    -0.052 S 
BRANCH   9  16
ATOM     16  C   UNL A   1      32.158  26.791  24.122  1.00  0.00    -0.046 C 
ATOM     17  C   UNL A   1      33.485  27.332  23.642  1.00  0.00     0.044 C 
ATOM     18  C   UNL A   1      31.325  27.395  24.994  1.00  0.00     0.050 C 
BRANCH  18  19
ATOM     19  C   UNL A   1      31.549  28.662  25.601  1.00  0.00     0.126 A 
ATOM     20  C   UNL A   1      31.322  29.957  25.146  1.00  0.00     0.050 A 
ATOM     21  O   UNL A   1      32.044  28.768  26.885  1.00  0.00    -0.465 OA
ATOM     22  C   UNL A   1      31.746  30.860  26.149  1.00  0.00     0.042 A 
ATOM     23  C   UNL A   1      32.174  30.080  27.191  1.00  0.00     0.195 A 
ENDBRANCH  18  19
ENDBRANCH   9  16
ENDBRANCH   7   8
ENDBRANCH   4   7
ENDBRANCH   2   3
ENDBRANCH   1   2
BRANCH   1  24
ATOM     24  C   UNL A   1      38.970  20.198  25.595  1.00  0.00     0.118 C 
BRANCH  24  25
ATOM     25  N   UNL A   1      40.024  19.224  25.856  1.00  0.00    -0.352 N 
ATOM     26  C   UNL A   1      41.352  19.406  26.151  1.00  0.00     0.251 C 
ATOM     27  H   UNL A   1      39.736  18.284  25.811  1.00  0.00     0.163 HD
ATOM     28  O   UNL A   1      42.105  18.434  26.150  1.00  0.00    -0.269 OA
BRANCH  26  29
ATOM     29  C   UNL A   1      41.885  20.752  26.458  1.00  0.00     0.039 A 
ATOM     30  C   UNL A   1      42.145  21.631  25.403  1.00  0.00     0.014 A 
ATOM     31  C   UNL A   1      42.161  21.138  27.771  1.00  0.00     0.014 A 
ATOM     32  C   UNL A   1      42.620  22.918  25.672  1.00  0.00     0.010 A 
ATOM     33  C   UNL A   1      42.558  22.445  28.042  1.00  0.00     0.010 A 
ATOM     34  C   UNL A   1      42.797  23.348  26.996  1.00  0.00    -0.014 A 
BRANCH  34  35
ATOM     35  C   UNL A   1      43.214  24.741  27.307  1.00  0.00     0.031 A 
ATOM     36  C   UNL A   1      42.235  25.714  27.906  1.00  0.00     0.074 A 
ATOM     37  C   UNL A   1      44.452  25.154  26.969  1.00  0.00     0.049 A 
ATOM     38  N   UNL A   1      42.400  26.982  28.187  1.00  0.00    -0.248 NA
ATOM     39  C   UNL A   1      40.884  25.208  28.203  1.00  0.00     0.031 C 
ATOM     40  C   UNL A   1      45.470  24.328  26.317  1.00  0.00     0.029 A 
ATOM     41  N   UNL A   1      45.056  26.380  27.101  1.00  0.00    -0.354 N 
ATOM     42  C   UNL A   1      41.170  27.433  28.654  1.00  0.00     0.074 A 
ATOM     43  C   UNL A   1      40.259  26.311  28.590  1.00  0.00     0.031 C 
ATOM     44  C   UNL A   1      46.573  25.067  26.112  1.00  0.00     0.029 A 
ATOM     45  C   UNL A   1      46.330  26.426  26.584  1.00  0.00     0.049 A 
ATOM     46  H   UNL A   1      44.619  27.152  27.526  1.00  0.00     0.167 HD
ATOM     47  C   UNL A   1      40.836  28.660  29.117  1.00  0.00     0.034 A 
ATOM     48  C   UNL A   1      47.202  27.450  26.489  1.00  0.00     0.034 A 
ATOM     49  C   UNL A   1      41.755  29.762  29.218  1.00  0.00     0.049 A 
ATOM     50  C   UNL A   1      46.814  28.795  27.041  1.00  0.00     0.074 A 
ATOM     51  C   UNL A   1      41.538  31.015  29.761  1.00  0.00     0.029 A 
ATOM     52  N   UNL A   1      43.062  29.748  28.755  1.00  0.00    -0.354 N 
ATOM     53  N   UNL A   1      45.698  29.156  27.626  1.00  0.00    -0.248 NA
ATOM     54  C   UNL A   1      47.818  29.865  26.951  1.00  0.00     0.031 C 
ATOM     55  C   UNL A   1      42.703  31.772  29.596  1.00  0.00     0.029 A 
ATOM     56  C   UNL A   1      43.659  30.976  28.985  1.00  0.00     0.049 A 
ATOM     57  H   UNL A   1      43.502  28.979  28.326  1.00  0.00     0.167 HD
ATOM     58  C   UNL A   1      45.880  30.480  28.009  1.00  0.00     0.074 A 
ATOM     59  C   UNL A   1      47.222  30.850  27.607  1.00  0.00     0.031 C 
ATOM     60  C   UNL A   1      45.012  31.317  28.627  1.00  0.00     0.034 A 
BRANCH  47  61
ATOM     61  C   UNL A   1      39.421  28.872  29.593  1.00  0.00     0.023 A 
ATOM     62  C   UNL A   1      39.061  28.498  30.905  1.00  0.00     0.012 A 
ATOM     63  C   UNL A   1      38.468  29.500  28.768  1.00  0.00     0.148 A 
ATOM     64  C   UNL A   1      37.766  28.712  31.374  1.00  0.00     0.002 A 
ATOM     65  C   UNL A   1      37.192  29.753  29.260  1.00  0.00     0.091 A 
ATOM     66  F   UNL A   1      38.822  29.831  27.518  1.00  0.00    -0.205 F 
ATOM     67  C   UNL A   1      36.836  29.349  30.558  1.00  0.00     0.022 A 
BRANCH  65  68
ATOM     68  S   UNL A   1      35.948  30.641  28.318  1.00  0.00     0.127 S 
ATOM     69  O   UNL A   1      35.565  29.642  27.322  1.00  0.00    -0.237 OA
ATOM     70  O   UNL A   1      34.929  30.911  29.333  1.00  0.00    -0.237 OA
ATOM     71  O   UNL A   1      36.611  31.825  27.790  1.00  0.00    -0.744 OA
ENDBRANCH  65  68
ENDBRANCH  47  61
BRANCH  48  72
ATOM     72  C   UNL A   1      48.553  27.228  25.899  1.00  0.00     0.023 A 
ATOM     73  C   UNL A   1      49.599  26.764  26.720  1.00  0.00     0.012 A 
ATOM     74  C   UNL A   1      48.803  27.458  24.532  1.00  0.00     0.148 A 
ATOM     75  C   UNL A   1      50.878  26.567  26.199  1.00  0.00     0.002 A 
ATOM     76  C   UNL A   1      50.065  27.204  24.008  1.00  0.00     0.091 A 
ATOM     77  F   UNL A   1      47.797  27.909  23.770  1.00  0.00    -0.205 F 
ATOM     78  C   UNL A   1      51.109  26.778  24.843  1.00  0.00     0.022 A 
BRANCH  76  79
ATOM     79  S   UNL A   1      50.418  27.322  22.251  1.00  0.00     0.127 S 
ATOM     80  O   UNL A   1      49.403  26.438  21.682  1.00  0.00    -0.237 OA
ATOM     81  O   UNL A   1      50.206  28.748  21.997  1.00  0.00    -0.237 OA
ATOM     82  O   UNL A   1      51.798  26.885  22.096  1.00  0.00    -0.744 OA
ENDBRANCH  76  79
ENDBRANCH  48  72
BRANCH  60  83
ATOM     83  C   UNL A   1      45.491  32.708  28.955  1.00  0.00     0.023 A 
ATOM     84  C   UNL A   1      46.224  32.943  30.134  1.00  0.00     0.012 A 
ATOM     85  C   UNL A   1      45.274  33.768  28.052  1.00  0.00     0.148 A 
ATOM     86  C   UNL A   1      46.704  34.219  30.427  1.00  0.00     0.002 A 
ATOM     87  C   UNL A   1      45.801  35.025  28.325  1.00  0.00     0.091 A 
ATOM     88  F   UNL A   1      44.558  33.529  26.944  1.00  0.00    -0.205 F 
ATOM     89  C   UNL A   1      46.503  35.256  29.519  1.00  0.00     0.022 A 
BRANCH  87  90
ATOM     90  S   UNL A   1      45.678  36.393  27.169  1.00  0.00     0.127 S 
ATOM     91  O   UNL A   1      46.427  37.439  27.863  1.00  0.00    -0.237 OA
ATOM     92  O   UNL A   1      46.342  35.854  25.981  1.00  0.00    -0.237 OA
ATOM     93  O   UNL A   1      44.254  36.652  27.000  1.00  0.00    -0.744 OA
ENDBRANCH  87  90
ENDBRANCH  60  83
ENDBRANCH  34  35
ENDBRANCH  26  29
ENDBRANCH  24  25
ENDBRANCH   1  24
TORSDOF 16
ENDMDL
MODEL 3
REMARK VINA RESULT:     -11.4      2.749      3.688
REMARK SMILES CC(=C\c1ccco1)/C=C1/SC(=S)N(CC(=O)NCCCNC(=O)c2ccc(-c3c4nc(c(-c5cccc(S(=O)(=O)[O-])c5F)c5ccc([nH]5)c(-c5cccc(S(=O)(=O)[O-])c5F)c5nc(c(-c6cccc(S(=O)(=O)[O-])c6F)c6ccc3[nH]6)C=C5)C=C4)cc2)C1=O
REMARK SMILES IDX 20 1 19 2 18 3 16 4 17 5 15 7 14 8 9 9 10 10 11 11 88 12
REMARK SMILES IDX 12 13 89 14 13 15 2 16 1 17 3 18 4 19 5 20 8 21 6 22 7 23
REMARK SMILES IDX 21 24 22 25 23 26 24 28 25 29 26 30 87 31 27 32 86 33 28 34
REMARK SMILES IDX 29 35 30 36 80 37 31 38 85 39 79 40 81 41 32 42 84 43 78 44
REMARK SMILES IDX 77 45 33 47 65 48 45 49 64 50 46 51 49 52 63 53 82 54 47 55
REMARK SMILES IDX 48 56 62 58 83 59 50 60 34 61 35 62 43 63 36 64 38 65 44 66
REMARK SMILES IDX 37 67 39 68 40 69 41 70 42 71 66 72 67 73 75 74 68 75 70 76
REMARK SMILES IDX 76 77 69 78 71 79 72 80 73 81 74 82 51 83 52 84 60 85 53 86
REMARK SMILES IDX 55 87 61 88 54 89 56 90 57 91 58 92 59 93
REMARK H PARENT 18 6 22 27 81 46 49 57
REMARK Flexibility Score: inf
ROOT
ATOM      1  C   UNL A   1      33.334  29.081  23.771  1.00  0.00     0.042 C 
ENDROOT
BRANCH   1   2
ATOM      2  C   UNL A   1      32.483  28.023  23.082  1.00  0.00     0.117 C 
BRANCH   2   3
ATOM      3  N   UNL A   1      33.266  26.914  22.577  1.00  0.00    -0.354 N 
ATOM      4  C   UNL A   1      32.907  25.610  22.393  1.00  0.00     0.240 C 
ATOM      5  O   UNL A   1      33.630  24.925  21.664  1.00  0.00    -0.273 OA
ATOM      6  H   UNL A   1      34.194  27.133  22.331  1.00  0.00     0.163 HD
BRANCH   4   7
ATOM      7  C   UNL A   1      31.589  25.055  22.953  1.00  0.00     0.227 C 
BRANCH   7   8
ATOM      8  N   UNL A   1      31.745  24.488  24.293  1.00  0.00    -0.283 N 
ATOM      9  C   UNL A   1      33.038  21.695  26.227  1.00  0.00     0.024 C 
ATOM     10  C   UNL A   1      32.393  22.786  25.787  1.00  0.00     0.080 C 
ATOM     11  S   UNL A   1      31.796  24.026  26.824  1.00  0.00    -0.054 SA
ATOM     12  C   UNL A   1      32.118  23.159  24.375  1.00  0.00     0.266 C 
ATOM     13  C   UNL A   1      31.379  25.081  25.479  1.00  0.00     0.148 C 
ATOM     14  O   UNL A   1      32.171  22.389  23.423  1.00  0.00    -0.268 OA
ATOM     15  S   UNL A   1      30.623  26.551  25.711  1.00  0.00    -0.052 S 
BRANCH   9  16
ATOM     16  C   UNL A   1      33.641  20.650  25.405  1.00  0.00    -0.046 C 
ATOM     17  C   UNL A   1      35.012  20.957  24.851  1.00  0.00     0.044 C 
ATOM     18  C   UNL A   1      32.933  19.522  25.189  1.00  0.00     0.050 C 
BRANCH  18  19
ATOM     19  C   UNL A   1      33.370  18.415  24.409  1.00  0.00     0.126 A 
ATOM     20  C   UNL A   1      34.281  17.399  24.677  1.00  0.00     0.050 A 
ATOM     21  O   UNL A   1      32.848  18.168  23.155  1.00  0.00    -0.465 OA
ATOM     22  C   UNL A   1      34.356  16.560  23.540  1.00  0.00     0.042 A 
ATOM     23  C   UNL A   1      33.457  17.073  22.642  1.00  0.00     0.195 A 
ENDBRANCH  18  19
ENDBRANCH   9  16
ENDBRANCH   7   8
ENDBRANCH   4   7
ENDBRANCH   2   3
ENDBRANCH   1   2
BRANCH   1  24
ATOM     24  C   UNL A   1      33.207  29.083  25.293  1.00  0.00     0.118 C 
BRANCH  24  25
ATOM     25  N   UNL A   1      32.725  30.356  25.818  1.00  0.00    -0.352 N 
ATOM     26  C   UNL A   1      33.194  31.128  26.852  1.00  0.00     0.251 C 
ATOM     27  H   UNL A   1      31.935  30.719  25.356  1.00  0.00     0.163 HD
ATOM     28  O   UNL A   1      32.519  32.078  27.244  1.00  0.00    -0.269 OA
BRANCH  26  29
ATOM     29  C   UNL A   1      34.487  30.824  27.502  1.00  0.00     0.039 A 
ATOM     30  C   UNL A   1      35.434  31.844  27.631  1.00  0.00     0.014 A 
ATOM     31  C   UNL A   1      34.785  29.536  27.952  1.00  0.00     0.014 A 
ATOM     32  C   UNL A   1      36.651  31.587  28.269  1.00  0.00     0.010 A 
ATOM     33  C   UNL A   1      35.964  29.301  28.656  1.00  0.00     0.010 A 
ATOM     34  C   UNL A   1      36.912  30.322  28.818  1.00  0.00    -0.014 A 
BRANCH  34  35
ATOM     35  C   UNL A   1      38.161  30.052  29.579  1.00  0.00     0.031 A 
ATOM     36  C   UNL A   1      39.209  29.128  29.021  1.00  0.00     0.074 A 
ATOM     37  C   UNL A   1      38.310  30.572  30.814  1.00  0.00     0.049 A 
ATOM     38  N   UNL A   1      40.330  28.728  29.567  1.00  0.00    -0.248 NA
ATOM     39  C   UNL A   1      38.957  28.556  27.688  1.00  0.00     0.031 C 
ATOM     40  C   UNL A   1      37.333  31.423  31.497  1.00  0.00     0.029 A 
ATOM     41  N   UNL A   1      39.327  30.439  31.727  1.00  0.00    -0.354 N 
ATOM     42  C   UNL A   1      40.894  27.831  28.667  1.00  0.00     0.074 A 
ATOM     43  C   UNL A   1      39.978  27.722  27.552  1.00  0.00     0.031 C 
ATOM     44  C   UNL A   1      37.800  31.740  32.715  1.00  0.00     0.029 A 
ATOM     45  C   UNL A   1      39.090  31.089  32.916  1.00  0.00     0.049 A 
ATOM     46  H   UNL A   1      40.148  29.927  31.547  1.00  0.00     0.167 HD
ATOM     47  C   UNL A   1      42.077  27.177  28.748  1.00  0.00     0.034 A 
ATOM     48  C   UNL A   1      39.824  31.146  34.045  1.00  0.00     0.034 A 
ATOM     49  C   UNL A   1      43.003  27.320  29.838  1.00  0.00     0.049 A 
ATOM     50  C   UNL A   1      41.148  30.435  34.095  1.00  0.00     0.074 A 
ATOM     51  C   UNL A   1      44.268  26.774  29.968  1.00  0.00     0.029 A 
ATOM     52  N   UNL A   1      42.764  28.050  30.992  1.00  0.00    -0.354 N 
ATOM     53  N   UNL A   1      41.736  29.721  33.166  1.00  0.00    -0.248 NA
ATOM     54  C   UNL A   1      41.927  30.566  35.335  1.00  0.00     0.031 C 
ATOM     55  C   UNL A   1      44.780  27.146  31.216  1.00  0.00     0.029 A 
ATOM     56  C   UNL A   1      43.849  27.956  31.846  1.00  0.00     0.049 A 
ATOM     57  H   UNL A   1      41.942  28.560  31.177  1.00  0.00     0.167 HD
ATOM     58  C   UNL A   1      42.969  29.351  33.693  1.00  0.00     0.074 A 
ATOM     59  C   UNL A   1      43.050  29.938  35.015  1.00  0.00     0.031 C 
ATOM     60  C   UNL A   1      43.941  28.587  33.138  1.00  0.00     0.034 A 
BRANCH  47  61
ATOM     61  C   UNL A   1      42.462  26.274  27.604  1.00  0.00     0.023 A 
ATOM     62  C   UNL A   1      43.327  26.750  26.597  1.00  0.00     0.012 A 
ATOM     63  C   UNL A   1      42.021  24.936  27.559  1.00  0.00     0.148 A 
ATOM     64  C   UNL A   1      43.719  25.922  25.546  1.00  0.00     0.002 A 
ATOM     65  C   UNL A   1      42.455  24.103  26.534  1.00  0.00     0.091 A 
ATOM     66  F   UNL A   1      41.184  24.506  28.514  1.00  0.00    -0.205 F 
ATOM     67  C   UNL A   1      43.293  24.597  25.521  1.00  0.00     0.022 A 
BRANCH  65  68
ATOM     68  S   UNL A   1      42.030  22.359  26.457  1.00  0.00     0.127 S 
ATOM     69  O   UNL A   1      42.526  21.878  27.745  1.00  0.00    -0.237 OA
ATOM     70  O   UNL A   1      40.572  22.404  26.343  1.00  0.00    -0.237 OA
ATOM     71  O   UNL A   1      42.716  21.830  25.287  1.00  0.00    -0.744 OA
ENDBRANCH  65  68
ENDBRANCH  47  61
BRANCH  48  72
ATOM     72  C   UNL A   1      39.349  31.956  35.204  1.00  0.00     0.023 A 
ATOM     73  C   UNL A   1      38.452  31.384  36.127  1.00  0.00     0.012 A 
ATOM     74  C   UNL A   1      39.792  33.277  35.405  1.00  0.00     0.148 A 
ATOM     75  C   UNL A   1      37.976  32.125  37.209  1.00  0.00     0.002 A 
ATOM     76  C   UNL A   1      39.359  33.990  36.517  1.00  0.00     0.091 A 
ATOM     77  F   UNL A   1      40.639  33.806  34.511  1.00  0.00    -0.205 F 
ATOM     78  C   UNL A   1      38.435  33.423  37.409  1.00  0.00     0.022 A 
BRANCH  76  79
ATOM     79  S   UNL A   1      40.000  35.617  36.926  1.00  0.00     0.127 S 
ATOM     80  O   UNL A   1      39.578  36.404  35.770  1.00  0.00    -0.237 OA
ATOM     81  O   UNL A   1      39.287  35.917  38.169  1.00  0.00    -0.237 OA
ATOM     82  O   UNL A   1      41.437  35.446  37.087  1.00  0.00    -0.744 OA
ENDBRANCH  76  79
ENDBRANCH  48  72
BRANCH  60  83
ATOM     83  C   UNL A   1      45.203  28.371  33.933  1.00  0.00     0.023 A 
ATOM     84  C   UNL A   1      46.274  29.277  33.815  1.00  0.00     0.012 A 
ATOM     85  C   UNL A   1      45.295  27.305  34.850  1.00  0.00     0.148 A 
ATOM     86  C   UNL A   1      47.432  29.106  34.575  1.00  0.00     0.002 A 
ATOM     87  C   UNL A   1      46.429  27.172  35.641  1.00  0.00     0.091 A 
ATOM     88  F   UNL A   1      44.271  26.442  34.933  1.00  0.00    -0.205 F 
ATOM     89  C   UNL A   1      47.505  28.063  35.494  1.00  0.00     0.022 A 
BRANCH  87  90
ATOM     90  S   UNL A   1      46.570  25.921  36.921  1.00  0.00     0.127 S 
ATOM     91  O   UNL A   1      46.571  24.688  36.135  1.00  0.00    -0.237 OA
ATOM     92  O   UNL A   1      47.856  26.252  37.537  1.00  0.00    -0.237 OA
ATOM     93  O   UNL A   1      45.418  26.105  37.793  1.00  0.00    -0.744 OA
ENDBRANCH  87  90
ENDBRANCH  60  83
ENDBRANCH  34  35
ENDBRANCH  26  29
ENDBRANCH  24  25
ENDBRANCH   1  24
TORSDOF 16
ENDMDL
