MODEL 1
REMARK VINA RESULT:     -10.3      0.000      0.000
REMARK SMILES CS(=O)(=O)c1ccc(/C=C(/C(=O)NCCCNC(=O)c2ccc(-c3c4nc(c(-c5cccc(S(=O)(=O)[O-])c5F)c5ccc([nH]5)c(-c5cccc(S(=O)(=O)[O-])c5F)c5nc(c(-c6cccc(S(=O)(=O)[O-])c6F)c6ccc3[nH]6)C=C5)C=C4)cc2)c2cccc(-c3ccc(S(C)(=O)=O)cc3)c2)cc1
REMARK SMILES IDX 15 1 14 2 13 3 11 4 12 5 10 7 9 8 8 9 5 10 6 11 100 12 7 13
REMARK SMILES IDX 99 14 2 15 1 16 3 17 4 18 83 19 84 20 98 21 85 22 87 23
REMARK SMILES IDX 86 24 88 25 89 26 97 27 90 28 96 29 91 30 92 31 93 32 94 33
REMARK SMILES IDX 95 34 16 35 17 36 18 37 19 39 20 40 21 41 82 42 22 43 81 44
REMARK SMILES IDX 23 45 24 46 25 47 75 48 26 49 80 50 74 51 76 52 27 53 79 54
REMARK SMILES IDX 73 55 72 56 28 58 60 59 40 60 59 61 41 62 44 63 58 64 77 65
REMARK SMILES IDX 42 66 43 67 57 69 78 70 45 71 29 72 30 73 38 74 31 75 33 76
REMARK SMILES IDX 39 77 32 78 34 79 35 80 36 81 37 82 61 83 62 84 70 85 63 86
REMARK SMILES IDX 65 87 71 88 64 89 66 90 67 91 68 92 69 93 46 94 47 95 55 96
REMARK SMILES IDX 48 97 50 98 56 99 49 100 51 101 52 102 53 103 54 104
REMARK H PARENT 13 6 17 38 76 57 44 68
REMARK Flexibility Score: inf
ROOT
ATOM      1  C   UNL A   1      45.944  23.775  26.480  1.00  0.00     0.042 C 
ENDROOT
BRANCH   1   2
ATOM      2  C   UNL A   1      44.919  22.674  26.758  1.00  0.00     0.118 C 
BRANCH   2   3
ATOM      3  N   UNL A   1      44.433  22.742  28.124  1.00  0.00    -0.352 N 
ATOM      4  C   UNL A   1      43.231  23.023  28.690  1.00  0.00     0.251 C 
ATOM      5  O   UNL A   1      43.193  22.959  29.922  1.00  0.00    -0.269 OA
ATOM      6  H   UNL A   1      45.131  22.540  28.788  1.00  0.00     0.163 HD
BRANCH   4   7
ATOM      7  C   UNL A   1      41.972  23.303  27.899  1.00  0.00     0.047 C 
ATOM      8  C   UNL A   1      41.169  22.305  27.460  1.00  0.00     0.022 C 
BRANCH   8   9
ATOM      9  C   UNL A   1      39.864  22.378  26.764  1.00  0.00    -0.025 A 
ATOM     10  C   UNL A   1      37.427  22.722  25.402  1.00  0.00     0.067 A 
ATOM     11  C   UNL A   1      38.135  21.525  25.269  1.00  0.00     0.021 A 
ATOM     12  C   UNL A   1      37.896  23.726  26.248  1.00  0.00     0.021 A 
ATOM     13  C   UNL A   1      39.339  21.353  25.966  1.00  0.00     0.009 A 
ATOM     14  C   UNL A   1      39.107  23.551  26.924  1.00  0.00     0.009 A 
BRANCH  10  15
ATOM     15  S   UNL A   1      35.918  22.973  24.498  1.00  0.00     0.175 S 
ATOM     16  C   UNL A   1      35.175  24.416  25.213  1.00  0.00     0.163 C 
ATOM     17  O   UNL A   1      35.038  21.858  24.798  1.00  0.00    -0.224 OA
ATOM     18  O   UNL A   1      36.289  23.290  23.133  1.00  0.00    -0.224 OA
ENDBRANCH  10  15
ENDBRANCH   8   9
BRANCH   7  19
ATOM     19  C   UNL A   1      41.744  24.708  27.464  1.00  0.00    -0.012 A 
ATOM     20  C   UNL A   1      41.860  25.025  26.101  1.00  0.00     0.009 A 
ATOM     21  C   UNL A   1      41.291  25.696  28.350  1.00  0.00     0.017 A 
ATOM     22  C   UNL A   1      41.515  26.288  25.628  1.00  0.00     0.001 A 
ATOM     23  C   UNL A   1      40.862  26.950  27.876  1.00  0.00    -0.018 A 
ATOM     24  C   UNL A   1      41.006  27.238  26.508  1.00  0.00     0.009 A 
BRANCH  23  25
ATOM     25  C   UNL A   1      40.152  27.875  28.767  1.00  0.00    -0.018 A 
ATOM     26  C   UNL A   1      40.310  29.264  28.593  1.00  0.00     0.010 A 
ATOM     27  C   UNL A   1      39.256  27.420  29.747  1.00  0.00     0.010 A 
ATOM     28  C   UNL A   1      39.587  30.173  29.362  1.00  0.00     0.021 A 
ATOM     29  C   UNL A   1      38.531  28.324  30.528  1.00  0.00     0.021 A 
ATOM     30  C   UNL A   1      38.703  29.695  30.329  1.00  0.00     0.067 A 
BRANCH  30  31
ATOM     31  S   UNL A   1      37.753  30.866  31.265  1.00  0.00     0.175 S 
ATOM     32  C   UNL A   1      37.778  30.209  32.912  1.00  0.00     0.163 C 
ATOM     33  O   UNL A   1      38.496  32.110  31.258  1.00  0.00    -0.224 OA
ATOM     34  O   UNL A   1      36.381  30.809  30.791  1.00  0.00    -0.224 OA
ENDBRANCH  30  31
ENDBRANCH  23  25
ENDBRANCH   7  19
ENDBRANCH   4   7
ENDBRANCH   2   3
ENDBRANCH   1   2
BRANCH   1  35
ATOM     35  C   UNL A   1      45.648  24.594  25.222  1.00  0.00     0.118 C 
BRANCH  35  36
ATOM     36  N   UNL A   1      46.761  25.454  24.848  1.00  0.00    -0.352 N 
ATOM     37  C   UNL A   1      47.028  26.754  25.201  1.00  0.00     0.251 C 
ATOM     38  H   UNL A   1      47.424  25.041  24.248  1.00  0.00     0.163 HD
ATOM     39  O   UNL A   1      47.910  27.367  24.605  1.00  0.00    -0.269 OA
BRANCH  37  40
ATOM     40  C   UNL A   1      46.267  27.419  26.281  1.00  0.00     0.039 A 
ATOM     41  C   UNL A   1      44.897  27.638  26.102  1.00  0.00     0.014 A 
ATOM     42  C   UNL A   1      46.899  27.874  27.441  1.00  0.00     0.014 A 
ATOM     43  C   UNL A   1      44.154  28.268  27.105  1.00  0.00     0.010 A 
ATOM     44  C   UNL A   1      46.147  28.443  28.467  1.00  0.00     0.010 A 
ATOM     45  C   UNL A   1      44.770  28.654  28.307  1.00  0.00    -0.014 A 
BRANCH  45  46
ATOM     46  C   UNL A   1      43.987  29.266  29.412  1.00  0.00     0.031 A 
ATOM     47  C   UNL A   1      43.590  30.717  29.356  1.00  0.00     0.074 A 
ATOM     48  C   UNL A   1      43.723  28.542  30.516  1.00  0.00     0.049 A 
ATOM     49  N   UNL A   1      42.964  31.435  30.251  1.00  0.00    -0.248 NA
ATOM     50  C   UNL A   1      43.975  31.466  28.149  1.00  0.00     0.031 C 
ATOM     51  C   UNL A   1      44.137  27.154  30.731  1.00  0.00     0.029 A 
ATOM     52  N   UNL A   1      43.078  28.882  31.679  1.00  0.00    -0.354 N 
ATOM     53  C   UNL A   1      42.917  32.726  29.739  1.00  0.00     0.074 A 
ATOM     54  C   UNL A   1      43.604  32.697  28.466  1.00  0.00     0.031 C 
ATOM     55  C   UNL A   1      43.745  26.765  31.954  1.00  0.00     0.029 A 
ATOM     56  C   UNL A   1      43.072  27.878  32.617  1.00  0.00     0.049 A 
ATOM     57  H   UNL A   1      42.659  29.760  31.825  1.00  0.00     0.167 HD
ATOM     58  C   UNL A   1      42.332  33.829  30.266  1.00  0.00     0.034 A 
ATOM     59  C   UNL A   1      42.587  27.855  33.874  1.00  0.00     0.034 A 
ATOM     60  C   UNL A   1      41.605  33.840  31.507  1.00  0.00     0.049 A 
ATOM     61  C   UNL A   1      41.878  29.068  34.409  1.00  0.00     0.074 A 
ATOM     62  C   UNL A   1      40.876  34.874  32.068  1.00  0.00     0.029 A 
ATOM     63  N   UNL A   1      41.521  32.771  32.385  1.00  0.00    -0.354 N 
ATOM     64  N   UNL A   1      41.681  30.228  33.831  1.00  0.00    -0.248 NA
ATOM     65  C   UNL A   1      41.289  28.956  35.751  1.00  0.00     0.031 C 
ATOM     66  C   UNL A   1      40.366  34.434  33.295  1.00  0.00     0.029 A 
ATOM     67  C   UNL A   1      40.763  33.120  33.490  1.00  0.00     0.049 A 
ATOM     68  H   UNL A   1      41.940  31.891  32.243  1.00  0.00     0.167 HD
ATOM     69  C   UNL A   1      40.924  30.976  34.725  1.00  0.00     0.074 A 
ATOM     70  C   UNL A   1      40.680  30.129  35.875  1.00  0.00     0.031 C 
ATOM     71  C   UNL A   1      40.488  32.255  34.609  1.00  0.00     0.034 A 
BRANCH  58  72
ATOM     72  C   UNL A   1      42.408  35.104  29.465  1.00  0.00     0.023 A 
ATOM     73  C   UNL A   1      41.475  35.331  28.431  1.00  0.00     0.012 A 
ATOM     74  C   UNL A   1      43.374  36.088  29.751  1.00  0.00     0.148 A 
ATOM     75  C   UNL A   1      41.530  36.495  27.666  1.00  0.00     0.002 A 
ATOM     76  C   UNL A   1      43.395  37.266  29.011  1.00  0.00     0.091 A 
ATOM     77  F   UNL A   1      44.269  35.849  30.719  1.00  0.00    -0.205 F 
ATOM     78  C   UNL A   1      42.483  37.466  27.960  1.00  0.00     0.022 A 
BRANCH  76  79
ATOM     79  S   UNL A   1      44.539  38.604  29.372  1.00  0.00     0.127 S 
ATOM     80  O   UNL A   1      45.807  38.042  28.911  1.00  0.00    -0.237 OA
ATOM     81  O   UNL A   1      44.020  39.694  28.543  1.00  0.00    -0.237 OA
ATOM     82  O   UNL A   1      44.431  38.836  30.806  1.00  0.00    -0.744 OA
ENDBRANCH  76  79
ENDBRANCH  58  72
BRANCH  59  83
ATOM     83  C   UNL A   1      42.697  26.603  34.673  1.00  0.00     0.023 A 
ATOM     84  C   UNL A   1      41.569  25.773  34.815  1.00  0.00     0.012 A 
ATOM     85  C   UNL A   1      43.929  26.192  35.221  1.00  0.00     0.148 A 
ATOM     86  C   UNL A   1      41.660  24.562  35.501  1.00  0.00     0.002 A 
ATOM     87  C   UNL A   1      44.025  24.960  35.857  1.00  0.00     0.091 A 
ATOM     88  F   UNL A   1      44.987  27.003  35.081  1.00  0.00    -0.205 F 
ATOM     89  C   UNL A   1      42.889  24.150  36.011  1.00  0.00     0.022 A 
BRANCH  87  90
ATOM     90  S   UNL A   1      45.591  24.284  36.419  1.00  0.00     0.127 S 
ATOM     91  O   UNL A   1      46.371  24.269  35.184  1.00  0.00    -0.237 OA
ATOM     92  O   UNL A   1      46.012  25.282  37.403  1.00  0.00    -0.237 OA
ATOM     93  O   UNL A   1      45.278  22.978  36.983  1.00  0.00    -0.744 OA
ENDBRANCH  87  90
ENDBRANCH  59  83
BRANCH  71  94
ATOM     94  C   UNL A   1      39.682  32.823  35.748  1.00  0.00     0.023 A 
ATOM     95  C   UNL A   1      38.278  32.709  35.734  1.00  0.00     0.012 A 
ATOM     96  C   UNL A   1      40.317  33.397  36.867  1.00  0.00     0.148 A 
ATOM     97  C   UNL A   1      37.516  33.180  36.801  1.00  0.00     0.002 A 
ATOM     98  C   UNL A   1      39.555  33.824  37.948  1.00  0.00     0.091 A 
ATOM     99  F   UNL A   1      41.654  33.517  36.855  1.00  0.00    -0.205 F 
ATOM    100  C   UNL A   1      38.155  33.726  37.914  1.00  0.00     0.022 A 
BRANCH  98 101
ATOM    101  S   UNL A   1      40.300  34.453  39.458  1.00  0.00     0.127 S 
ATOM    102  O   UNL A   1      41.051  33.290  39.927  1.00  0.00    -0.237 OA
ATOM    103  O   UNL A   1      41.127  35.554  38.964  1.00  0.00    -0.237 OA
ATOM    104  O   UNL A   1      39.191  34.869  40.307  1.00  0.00    -0.744 OA
ENDBRANCH  98 101
ENDBRANCH  71  94
ENDBRANCH  45  46
ENDBRANCH  37  40
ENDBRANCH  35  36
ENDBRANCH   1  35
TORSDOF 18
ENDMDL
MODEL 2
REMARK VINA RESULT:     -10.1      3.409     11.462
REMARK SMILES CS(=O)(=O)c1ccc(/C=C(/C(=O)NCCCNC(=O)c2ccc(-c3c4nc(c(-c5cccc(S(=O)(=O)[O-])c5F)c5ccc([nH]5)c(-c5cccc(S(=O)(=O)[O-])c5F)c5nc(c(-c6cccc(S(=O)(=O)[O-])c6F)c6ccc3[nH]6)C=C5)C=C4)cc2)c2cccc(-c3ccc(S(C)(=O)=O)cc3)c2)cc1
REMARK SMILES IDX 15 1 14 2 13 3 11 4 12 5 10 7 9 8 8 9 5 10 6 11 100 12 7 13
REMARK SMILES IDX 99 14 2 15 1 16 3 17 4 18 83 19 84 20 98 21 85 22 87 23
REMARK SMILES IDX 86 24 88 25 89 26 97 27 90 28 96 29 91 30 92 31 93 32 94 33
REMARK SMILES IDX 95 34 16 35 17 36 18 37 19 39 20 40 21 41 82 42 22 43 81 44
REMARK SMILES IDX 23 45 24 46 25 47 75 48 26 49 80 50 74 51 76 52 27 53 79 54
REMARK SMILES IDX 73 55 72 56 28 58 60 59 40 60 59 61 41 62 44 63 58 64 77 65
REMARK SMILES IDX 42 66 43 67 57 69 78 70 45 71 29 72 30 73 38 74 31 75 33 76
REMARK SMILES IDX 39 77 32 78 34 79 35 80 36 81 37 82 61 83 62 84 70 85 63 86
REMARK SMILES IDX 65 87 71 88 64 89 66 90 67 91 68 92 69 93 46 94 47 95 55 96
REMARK SMILES IDX 48 97 50 98 56 99 49 100 51 101 52 102 53 103 54 104
REMARK H PARENT 13 6 17 38 76 57 44 68
REMARK Flexibility Score: inf
ROOT
ATOM      1  C   UNL A   1      35.757  34.650  33.296  1.00  0.00     0.042 C 
ENDROOT
BRANCH   1   2
ATOM      2  C   UNL A   1      35.648  33.773  32.047  1.00  0.00     0.118 C 
BRANCH   2   3
ATOM      3  N   UNL A   1      36.638  34.150  31.054  1.00  0.00    -0.352 N 
ATOM      4  C   UNL A   1      37.089  33.588  29.903  1.00  0.00     0.251 C 
ATOM      5  O   UNL A   1      37.948  34.233  29.295  1.00  0.00    -0.269 OA
ATOM      6  H   UNL A   1      37.080  35.005  31.261  1.00  0.00     0.163 HD
BRANCH   4   7
ATOM      7  C   UNL A   1      36.534  32.308  29.317  1.00  0.00     0.047 C 
ATOM      8  C   UNL A   1      35.394  32.294  28.588  1.00  0.00     0.022 C 
BRANCH   8   9
ATOM      9  C   UNL A   1      34.750  31.175  27.860  1.00  0.00    -0.025 A 
ATOM     10  C   UNL A   1      33.412  29.198  26.374  1.00  0.00     0.067 A 
ATOM     11  C   UNL A   1      34.770  29.049  26.665  1.00  0.00     0.021 A 
ATOM     12  C   UNL A   1      32.704  30.296  26.861  1.00  0.00     0.021 A 
ATOM     13  C   UNL A   1      35.426  30.029  27.423  1.00  0.00     0.009 A 
ATOM     14  C   UNL A   1      33.373  31.276  27.600  1.00  0.00     0.009 A 
BRANCH  10  15
ATOM     15  S   UNL A   1      32.572  27.984  25.384  1.00  0.00     0.175 S 
ATOM     16  C   UNL A   1      31.261  28.862  24.576  1.00  0.00     0.163 C 
ATOM     17  O   UNL A   1      31.945  27.040  26.290  1.00  0.00    -0.224 OA
ATOM     18  O   UNL A   1      33.507  27.543  24.369  1.00  0.00    -0.224 OA
ENDBRANCH  10  15
ENDBRANCH   8   9
BRANCH   7  19
ATOM     19  C   UNL A   1      37.191  31.036  29.725  1.00  0.00    -0.012 A 
ATOM     20  C   UNL A   1      36.511  30.169  30.597  1.00  0.00     0.009 A 
ATOM     21  C   UNL A   1      38.406  30.614  29.167  1.00  0.00     0.017 A 
ATOM     22  C   UNL A   1      37.019  28.907  30.891  1.00  0.00     0.001 A 
ATOM     23  C   UNL A   1      38.890  29.312  29.390  1.00  0.00    -0.018 A 
ATOM     24  C   UNL A   1      38.193  28.477  30.280  1.00  0.00     0.009 A 
BRANCH  23  25
ATOM     25  C   UNL A   1      40.016  28.795  28.602  1.00  0.00    -0.018 A 
ATOM     26  C   UNL A   1      41.084  28.153  29.257  1.00  0.00     0.010 A 
ATOM     27  C   UNL A   1      40.028  28.854  27.200  1.00  0.00     0.010 A 
ATOM     28  C   UNL A   1      42.127  27.574  28.538  1.00  0.00     0.021 A 
ATOM     29  C   UNL A   1      41.073  28.282  26.469  1.00  0.00     0.021 A 
ATOM     30  C   UNL A   1      42.116  27.646  27.145  1.00  0.00     0.067 A 
BRANCH  30  31
ATOM     31  S   UNL A   1      43.426  26.859  26.243  1.00  0.00     0.175 S 
ATOM     32  C   UNL A   1      42.576  25.920  25.001  1.00  0.00     0.163 C 
ATOM     33  O   UNL A   1      44.174  27.912  25.586  1.00  0.00    -0.224 OA
ATOM     34  O   UNL A   1      44.079  25.917  27.134  1.00  0.00    -0.224 OA
ENDBRANCH  30  31
ENDBRANCH  23  25
ENDBRANCH   7  19
ENDBRANCH   4   7
ENDBRANCH   2   3
ENDBRANCH   1   2
BRANCH   1  35
ATOM     35  C   UNL A   1      37.131  34.603  33.967  1.00  0.00     0.118 C 
BRANCH  35  36
ATOM     36  N   UNL A   1      37.120  33.822  35.195  1.00  0.00    -0.352 N 
ATOM     37  C   UNL A   1      37.749  32.638  35.494  1.00  0.00     0.251 C 
ATOM     38  H   UNL A   1      36.576  34.199  35.924  1.00  0.00     0.163 HD
ATOM     39  O   UNL A   1      37.438  32.036  36.518  1.00  0.00    -0.269 OA
BRANCH  37  40
ATOM     40  C   UNL A   1      38.789  32.085  34.598  1.00  0.00     0.039 A 
ATOM     41  C   UNL A   1      40.130  32.394  34.852  1.00  0.00     0.014 A 
ATOM     42  C   UNL A   1      38.452  31.311  33.484  1.00  0.00     0.014 A 
ATOM     43  C   UNL A   1      41.132  31.888  34.020  1.00  0.00     0.010 A 
ATOM     44  C   UNL A   1      39.455  30.755  32.693  1.00  0.00     0.010 A 
ATOM     45  C   UNL A   1      40.804  31.044  32.946  1.00  0.00    -0.014 A 
BRANCH  45  46
ATOM     46  C   UNL A   1      41.858  30.443  32.088  1.00  0.00     0.031 A 
ATOM     47  C   UNL A   1      42.470  29.116  32.445  1.00  0.00     0.074 A 
ATOM     48  C   UNL A   1      42.338  31.143  31.042  1.00  0.00     0.049 A 
ATOM     49  N   UNL A   1      43.441  28.469  31.854  1.00  0.00    -0.248 NA
ATOM     50  C   UNL A   1      41.945  28.442  33.644  1.00  0.00     0.031 C 
ATOM     51  C   UNL A   1      41.893  32.480  30.649  1.00  0.00     0.029 A 
ATOM     52  N   UNL A   1      43.330  30.842  30.143  1.00  0.00    -0.354 N 
ATOM     53  C   UNL A   1      43.672  27.338  32.626  1.00  0.00     0.074 A 
ATOM     54  C   UNL A   1      42.758  27.402  33.747  1.00  0.00     0.031 C 
ATOM     55  C   UNL A   1      42.615  32.890  29.595  1.00  0.00     0.029 A 
ATOM     56  C   UNL A   1      43.587  31.855  29.250  1.00  0.00     0.049 A 
ATOM     57  H   UNL A   1      43.810  29.983  30.137  1.00  0.00     0.167 HD
ATOM     58  C   UNL A   1      44.545  26.324  32.410  1.00  0.00     0.034 A 
ATOM     59  C   UNL A   1      44.506  31.949  28.269  1.00  0.00     0.034 A 
ATOM     60  C   UNL A   1      45.414  26.240  31.267  1.00  0.00     0.049 A 
ATOM     61  C   UNL A   1      45.414  30.781  28.002  1.00  0.00     0.074 A 
ATOM     62  C   UNL A   1      46.248  25.200  30.894  1.00  0.00     0.029 A 
ATOM     63  N   UNL A   1      45.569  27.237  30.316  1.00  0.00    -0.354 N 
ATOM     64  N   UNL A   1      45.491  29.636  28.635  1.00  0.00    -0.248 NA
ATOM     65  C   UNL A   1      46.335  30.900  26.862  1.00  0.00     0.031 C 
ATOM     66  C   UNL A   1      46.920  25.577  29.726  1.00  0.00     0.029 A 
ATOM     67  C   UNL A   1      46.493  26.844  29.362  1.00  0.00     0.049 A 
ATOM     68  H   UNL A   1      45.093  28.099  30.319  1.00  0.00     0.167 HD
ATOM     69  C   UNL A   1      46.446  28.887  27.957  1.00  0.00     0.074 A 
ATOM     70  C   UNL A   1      46.905  29.702  26.851  1.00  0.00     0.031 C 
ATOM     71  C   UNL A   1      46.911  27.644  28.238  1.00  0.00     0.034 A 
BRANCH  58  72
ATOM     72  C   UNL A   1      44.558  25.195  33.408  1.00  0.00     0.023 A 
ATOM     73  C   UNL A   1      43.869  24.000  33.112  1.00  0.00     0.012 A 
ATOM     74  C   UNL A   1      45.271  25.298  34.618  1.00  0.00     0.148 A 
ATOM     75  C   UNL A   1      43.853  22.943  34.022  1.00  0.00     0.002 A 
ATOM     76  C   UNL A   1      45.285  24.223  35.501  1.00  0.00     0.091 A 
ATOM     77  F   UNL A   1      45.900  26.448  34.898  1.00  0.00    -0.205 F 
ATOM     78  C   UNL A   1      44.567  23.051  35.211  1.00  0.00     0.022 A 
BRANCH  76  79
ATOM     79  S   UNL A   1      46.242  24.246  37.022  1.00  0.00     0.127 S 
ATOM     80  O   UNL A   1      45.955  22.923  37.573  1.00  0.00    -0.237 OA
ATOM     81  O   UNL A   1      47.610  24.416  36.531  1.00  0.00    -0.237 OA
ATOM     82  O   UNL A   1      45.734  25.376  37.789  1.00  0.00    -0.744 OA
ENDBRANCH  76  79
ENDBRANCH  58  72
BRANCH  59  83
ATOM     83  C   UNL A   1      44.546  33.174  27.424  1.00  0.00     0.023 A 
ATOM     84  C   UNL A   1      43.761  33.234  26.257  1.00  0.00     0.012 A 
ATOM     85  C   UNL A   1      45.290  34.305  27.813  1.00  0.00     0.148 A 
ATOM     86  C   UNL A   1      43.727  34.393  25.483  1.00  0.00     0.002 A 
ATOM     87  C   UNL A   1      45.210  35.474  27.066  1.00  0.00     0.091 A 
ATOM     88  F   UNL A   1      46.037  34.222  28.923  1.00  0.00    -0.205 F 
ATOM     89  C   UNL A   1      44.441  35.516  25.893  1.00  0.00     0.022 A 
BRANCH  87  90
ATOM     90  S   UNL A   1      45.980  37.010  27.592  1.00  0.00     0.127 S 
ATOM     91  O   UNL A   1      45.709  37.004  29.027  1.00  0.00    -0.237 OA
ATOM     92  O   UNL A   1      47.379  36.784  27.226  1.00  0.00    -0.237 OA
ATOM     93  O   UNL A   1      45.321  38.063  26.831  1.00  0.00    -0.744 OA
ENDBRANCH  87  90
ENDBRANCH  59  83
BRANCH  71  94
ATOM     94  C   UNL A   1      47.965  27.072  27.327  1.00  0.00     0.023 A 
ATOM     95  C   UNL A   1      47.580  26.419  26.140  1.00  0.00     0.012 A 
ATOM     96  C   UNL A   1      49.335  27.250  27.605  1.00  0.00     0.148 A 
ATOM     97  C   UNL A   1      48.539  25.927  25.257  1.00  0.00     0.002 A 
ATOM     98  C   UNL A   1      50.286  26.798  26.697  1.00  0.00     0.091 A 
ATOM     99  F   UNL A   1      49.684  27.855  28.750  1.00  0.00    -0.205 F 
ATOM    100  C   UNL A   1      49.892  26.128  25.529  1.00  0.00     0.022 A 
BRANCH  98 101
ATOM    101  S   UNL A   1      52.044  27.095  26.923  1.00  0.00     0.127 S 
ATOM    102  O   UNL A   1      52.616  26.387  25.779  1.00  0.00    -0.237 OA
ATOM    103  O   UNL A   1      52.128  28.554  26.841  1.00  0.00    -0.237 OA
ATOM    104  O   UNL A   1      52.376  26.547  28.231  1.00  0.00    -0.744 OA
ENDBRANCH  98 101
ENDBRANCH  71  94
ENDBRANCH  45  46
ENDBRANCH  37  40
ENDBRANCH  35  36
ENDBRANCH   1  35
TORSDOF 18
ENDMDL
MODEL 3
REMARK VINA RESULT:      -9.7      2.030      4.551
REMARK SMILES CS(=O)(=O)c1ccc(/C=C(/C(=O)NCCCNC(=O)c2ccc(-c3c4nc(c(-c5cccc(S(=O)(=O)[O-])c5F)c5ccc([nH]5)c(-c5cccc(S(=O)(=O)[O-])c5F)c5nc(c(-c6cccc(S(=O)(=O)[O-])c6F)c6ccc3[nH]6)C=C5)C=C4)cc2)c2cccc(-c3ccc(S(C)(=O)=O)cc3)c2)cc1
REMARK SMILES IDX 15 1 14 2 13 3 11 4 12 5 10 7 9 8 8 9 5 10 6 11 100 12 7 13
REMARK SMILES IDX 99 14 2 15 1 16 3 17 4 18 83 19 84 20 98 21 85 22 87 23
REMARK SMILES IDX 86 24 88 25 89 26 97 27 90 28 96 29 91 30 92 31 93 32 94 33
REMARK SMILES IDX 95 34 16 35 17 36 18 37 19 39 20 40 21 41 82 42 22 43 81 44
REMARK SMILES IDX 23 45 24 46 25 47 75 48 26 49 80 50 74 51 76 52 27 53 79 54
REMARK SMILES IDX 73 55 72 56 28 58 60 59 40 60 59 61 41 62 44 63 58 64 77 65
REMARK SMILES IDX 42 66 43 67 57 69 78 70 45 71 29 72 30 73 38 74 31 75 33 76
REMARK SMILES IDX 39 77 32 78 34 79 35 80 36 81 37 82 61 83 62 84 70 85 63 86
REMARK SMILES IDX 65 87 71 88 64 89 66 90 67 91 68 92 69 93 46 94 47 95 55 96
REMARK SMILES IDX 48 97 50 98 56 99 49 100 51 101 52 102 53 103 54 104
REMARK H PARENT 13 6 17 38 76 57 44 68
REMARK Flexibility Score: inf
ROOT
ATOM      1  C   UNL A   1      45.937  23.122  24.468  1.00  0.00     0.042 C 
ENDROOT
BRANCH   1   2
ATOM      2  C   UNL A   1      44.475  22.958  24.045  1.00  0.00     0.118 C 
BRANCH   2   3
ATOM      3  N   UNL A   1      43.836  21.880  24.778  1.00  0.00    -0.352 N 
ATOM      4  C   UNL A   1      43.049  21.821  25.883  1.00  0.00     0.251 C 
ATOM      5  O   UNL A   1      42.664  20.694  26.204  1.00  0.00    -0.269 OA
ATOM      6  H   UNL A   1      44.012  20.995  24.386  1.00  0.00     0.163 HD
BRANCH   4   7
ATOM      7  C   UNL A   1      42.570  23.040  26.642  1.00  0.00     0.047 C 
ATOM      8  C   UNL A   1      41.643  23.882  26.127  1.00  0.00     0.022 C 
BRANCH   8   9
ATOM      9  C   UNL A   1      40.984  25.056  26.745  1.00  0.00    -0.025 A 
ATOM     10  C   UNL A   1      39.787  27.204  28.108  1.00  0.00     0.067 A 
ATOM     11  C   UNL A   1      40.468  27.433  26.911  1.00  0.00     0.021 A 
ATOM     12  C   UNL A   1      39.652  25.908  28.604  1.00  0.00     0.021 A 
ATOM     13  C   UNL A   1      41.046  26.356  26.226  1.00  0.00     0.009 A 
ATOM     14  C   UNL A   1      40.248  24.843  27.922  1.00  0.00     0.009 A 
BRANCH  10  15
ATOM     15  S   UNL A   1      39.079  28.563  29.010  1.00  0.00     0.175 S 
ATOM     16  C   UNL A   1      38.774  27.939  30.640  1.00  0.00     0.163 C 
ATOM     17  O   UNL A   1      37.783  28.849  28.422  1.00  0.00    -0.224 OA
ATOM     18  O   UNL A   1      40.101  29.586  29.106  1.00  0.00    -0.224 OA
ENDBRANCH  10  15
ENDBRANCH   8   9
BRANCH   7  19
ATOM     19  C   UNL A   1      43.289  23.380  27.900  1.00  0.00    -0.012 A 
ATOM     20  C   UNL A   1      42.876  22.783  29.102  1.00  0.00     0.009 A 
ATOM     21  C   UNL A   1      44.444  24.175  27.903  1.00  0.00     0.017 A 
ATOM     22  C   UNL A   1      43.606  22.956  30.275  1.00  0.00     0.001 A 
ATOM     23  C   UNL A   1      45.236  24.293  29.061  1.00  0.00    -0.018 A 
ATOM     24  C   UNL A   1      44.785  23.695  30.250  1.00  0.00     0.009 A 
BRANCH  23  25
ATOM     25  C   UNL A   1      46.568  24.907  28.988  1.00  0.00    -0.018 A 
ATOM     26  C   UNL A   1      46.987  25.778  30.012  1.00  0.00     0.010 A 
ATOM     27  C   UNL A   1      47.472  24.594  27.962  1.00  0.00     0.010 A 
ATOM     28  C   UNL A   1      48.274  26.311  30.023  1.00  0.00     0.021 A 
ATOM     29  C   UNL A   1      48.763  25.129  27.959  1.00  0.00     0.021 A 
ATOM     30  C   UNL A   1      49.154  25.984  28.991  1.00  0.00     0.067 A 
BRANCH  30  31
ATOM     31  S   UNL A   1      50.806  26.631  29.047  1.00  0.00     0.175 S 
ATOM     32  C   UNL A   1      51.575  25.948  27.602  1.00  0.00     0.163 C 
ATOM     33  O   UNL A   1      50.700  28.065  28.872  1.00  0.00    -0.224 OA
ATOM     34  O   UNL A   1      51.470  26.063  30.207  1.00  0.00    -0.224 OA
ENDBRANCH  30  31
ENDBRANCH  23  25
ENDBRANCH   7  19
ENDBRANCH   4   7
ENDBRANCH   2   3
ENDBRANCH   1   2
BRANCH   1  35
ATOM     35  C   UNL A   1      46.194  24.351  25.343  1.00  0.00     0.118 C 
BRANCH  35  36
ATOM     36  N   UNL A   1      46.862  25.419  24.613  1.00  0.00    -0.352 N 
ATOM     37  C   UNL A   1      46.740  26.781  24.737  1.00  0.00     0.251 C 
ATOM     38  H   UNL A   1      47.497  25.118  23.924  1.00  0.00     0.163 HD
ATOM     39  O   UNL A   1      47.236  27.507  23.878  1.00  0.00    -0.269 OA
BRANCH  37  40
ATOM     40  C   UNL A   1      46.022  27.378  25.884  1.00  0.00     0.039 A 
ATOM     41  C   UNL A   1      46.759  28.060  26.858  1.00  0.00     0.014 A 
ATOM     42  C   UNL A   1      44.641  27.226  26.035  1.00  0.00     0.014 A 
ATOM     43  C   UNL A   1      46.106  28.630  27.955  1.00  0.00     0.010 A 
ATOM     44  C   UNL A   1      43.984  27.850  27.094  1.00  0.00     0.010 A 
ATOM     45  C   UNL A   1      44.709  28.550  28.069  1.00  0.00    -0.014 A 
BRANCH  45  46
ATOM     46  C   UNL A   1      43.988  29.204  29.192  1.00  0.00     0.031 A 
ATOM     47  C   UNL A   1      43.633  30.665  29.125  1.00  0.00     0.074 A 
ATOM     48  C   UNL A   1      43.746  28.506  30.318  1.00  0.00     0.049 A 
ATOM     49  N   UNL A   1      43.064  31.417  30.030  1.00  0.00    -0.248 NA
ATOM     50  C   UNL A   1      43.994  31.381  27.891  1.00  0.00     0.031 C 
ATOM     51  C   UNL A   1      44.126  27.111  30.542  1.00  0.00     0.029 A 
ATOM     52  N   UNL A   1      43.156  28.886  31.498  1.00  0.00    -0.354 N 
ATOM     53  C   UNL A   1      43.036  32.700  29.497  1.00  0.00     0.074 A 
ATOM     54  C   UNL A   1      43.672  32.628  28.199  1.00  0.00     0.031 C 
ATOM     55  C   UNL A   1      43.770  26.754  31.786  1.00  0.00     0.029 A 
ATOM     56  C   UNL A   1      43.156  27.898  32.454  1.00  0.00     0.049 A 
ATOM     57  H   UNL A   1      42.770  29.779  31.645  1.00  0.00     0.167 HD
ATOM     58  C   UNL A   1      42.504  33.829  30.026  1.00  0.00     0.034 A 
ATOM     59  C   UNL A   1      42.720  27.911  33.729  1.00  0.00     0.034 A 
ATOM     60  C   UNL A   1      41.827  33.884  31.294  1.00  0.00     0.049 A 
ATOM     61  C   UNL A   1      42.068  29.154  34.269  1.00  0.00     0.074 A 
ATOM     62  C   UNL A   1      41.151  34.949  31.863  1.00  0.00     0.029 A 
ATOM     63  N   UNL A   1      41.745  32.832  32.193  1.00  0.00    -0.354 N 
ATOM     64  N   UNL A   1      41.884  30.310  33.678  1.00  0.00    -0.248 NA
ATOM     65  C   UNL A   1      41.529  29.084  35.634  1.00  0.00     0.031 C 
ATOM     66  C   UNL A   1      40.676  34.544  33.116  1.00  0.00     0.029 A 
ATOM     67  C   UNL A   1      41.041  33.223  33.319  1.00  0.00     0.049 A 
ATOM     68  H   UNL A   1      42.132  31.937  32.052  1.00  0.00     0.167 HD
ATOM     69  C   UNL A   1      41.185  31.096  34.586  1.00  0.00     0.074 A 
ATOM     70  C   UNL A   1      40.960  30.276  35.759  1.00  0.00     0.031 C 
ATOM     71  C   UNL A   1      40.783  32.385  34.464  1.00  0.00     0.034 A 
BRANCH  58  72
ATOM     72  C   UNL A   1      42.588  35.088  29.200  1.00  0.00     0.023 A 
ATOM     73  C   UNL A   1      41.529  35.417  28.329  1.00  0.00     0.012 A 
ATOM     74  C   UNL A   1      43.690  35.957  29.306  1.00  0.00     0.148 A 
ATOM     75  C   UNL A   1      41.585  36.568  27.543  1.00  0.00     0.002 A 
ATOM     76  C   UNL A   1      43.719  37.126  28.551  1.00  0.00     0.091 A 
ATOM     77  F   UNL A   1      44.701  35.620  30.119  1.00  0.00    -0.205 F 
ATOM     78  C   UNL A   1      42.675  37.426  27.660  1.00  0.00     0.022 A 
BRANCH  76  79
ATOM     79  S   UNL A   1      45.047  38.328  28.695  1.00  0.00     0.127 S 
ATOM     80  O   UNL A   1      44.602  39.374  27.776  1.00  0.00    -0.237 OA
ATOM     81  O   UNL A   1      44.987  38.695  30.110  1.00  0.00    -0.237 OA
ATOM     82  O   UNL A   1      46.260  37.620  28.309  1.00  0.00    -0.744 OA
ENDBRANCH  76  79
ENDBRANCH  58  72
BRANCH  59  83
ATOM     83  C   UNL A   1      42.823  26.671  34.546  1.00  0.00     0.023 A 
ATOM     84  C   UNL A   1      41.669  25.899  34.779  1.00  0.00     0.012 A 
ATOM     85  C   UNL A   1      44.067  26.210  35.020  1.00  0.00     0.148 A 
ATOM     86  C   UNL A   1      41.747  24.698  35.483  1.00  0.00     0.002 A 
ATOM     87  C   UNL A   1      44.147  24.986  35.674  1.00  0.00     0.091 A 
ATOM     88  F   UNL A   1      45.151  26.965  34.793  1.00  0.00    -0.205 F 
ATOM     89  C   UNL A   1      42.986  24.236  35.920  1.00  0.00     0.022 A 
BRANCH  87  90
ATOM     90  S   UNL A   1      45.713  24.244  36.147  1.00  0.00     0.127 S 
ATOM     91  O   UNL A   1      45.278  22.989  36.753  1.00  0.00    -0.237 OA
ATOM     92  O   UNL A   1      46.380  24.105  34.851  1.00  0.00    -0.237 OA
ATOM     93  O   UNL A   1      46.345  25.196  37.050  1.00  0.00    -0.744 OA
ENDBRANCH  87  90
ENDBRANCH  59  83
BRANCH  71  94
ATOM     94  C   UNL A   1      40.040  32.997  35.622  1.00  0.00     0.023 A 
ATOM     95  C   UNL A   1      38.643  32.841  35.714  1.00  0.00     0.012 A 
ATOM     96  C   UNL A   1      40.731  33.655  36.658  1.00  0.00     0.148 A 
ATOM     97  C   UNL A   1      37.941  33.353  36.804  1.00  0.00     0.002 A 
ATOM     98  C   UNL A   1      40.030  34.124  37.764  1.00  0.00     0.091 A 
ATOM     99  F   UNL A   1      42.058  33.814  36.544  1.00  0.00    -0.205 F 
ATOM    100  C   UNL A   1      38.636  33.983  37.835  1.00  0.00     0.022 A 
BRANCH  98 101
ATOM    101  S   UNL A   1      40.856  34.865  39.179  1.00  0.00     0.127 S 
ATOM    102  O   UNL A   1      41.453  36.059  38.584  1.00  0.00    -0.237 OA
ATOM    103  O   UNL A   1      39.742  35.128  40.090  1.00  0.00    -0.237 OA
ATOM    104  O   UNL A   1      41.800  33.863  39.658  1.00  0.00    -0.744 OA
ENDBRANCH  98 101
ENDBRANCH  71  94
ENDBRANCH  45  46
ENDBRANCH  37  40
ENDBRANCH  35  36
ENDBRANCH   1  35
TORSDOF 18
ENDMDL
