MODEL 1
REMARK VINA RESULT:     -11.3      0.000      0.000
REMARK SMILES O=C(CCC[NH2+][C@H]1CCOC2(CCOCC2)C1)NCCCNC(=O)c1ccc(-c2c3nc(c(-c4cccc(S(=O)(=O)[O-])c4F)c4ccc([nH]4)c(-c4cccc(S(=O)(=O)[O-])c4F)c4nc(c(-c5cccc(S(=O)(=O)[O-])c5F)c5ccc2[nH]5)C=C4)C=C3)cc1
REMARK SMILES IDX 19 1 18 2 1 3 2 4 3 6 4 7 5 8 6 9 7 12 8 13 17 14 9 15 11 16
REMARK SMILES IDX 10 17 12 18 16 19 13 20 15 21 14 22 20 23 21 24 22 25 23 26
REMARK SMILES IDX 24 28 25 29 26 30 87 31 27 32 86 33 28 34 29 35 30 36 80 37
REMARK SMILES IDX 31 38 85 39 79 40 81 41 32 42 84 43 78 44 77 45 33 47 65 48
REMARK SMILES IDX 45 49 64 50 46 51 49 52 63 53 82 54 47 55 48 56 62 58 83 59
REMARK SMILES IDX 50 60 34 61 35 62 43 63 36 64 38 65 44 66 37 67 39 68 40 69
REMARK SMILES IDX 41 70 42 71 66 72 67 73 75 74 68 75 70 76 76 77 69 78 71 79
REMARK SMILES IDX 72 80 73 81 74 82 51 83 52 84 60 85 53 86 55 87 61 88 54 89
REMARK SMILES IDX 56 90 57 91 58 92 59 93
REMARK H PARENT 18 5 6 10 6 11 22 27 81 46 49 57
REMARK Flexibility Score: inf
ROOT
ATOM      1  C   UNL A   1      36.954  21.037  24.717  1.00  0.00     0.117 C 
ENDROOT
BRANCH   1   2
ATOM      2  N   UNL A   1      35.790  20.788  25.547  1.00  0.00    -0.356 N 
ATOM      3  O   UNL A   1      35.422  22.990  26.100  1.00  0.00    -0.275 OA
ATOM      4  C   UNL A   1      35.098  21.807  26.165  1.00  0.00     0.220 C 
ATOM      5  H   UNL A   1      35.485  19.860  25.674  1.00  0.00     0.163 HD
BRANCH   4   6
ATOM      6  C   UNL A   1      33.866  21.362  26.928  1.00  0.00     0.106 C 
BRANCH   6   7
ATOM      7  C   UNL A   1      33.162  22.516  27.651  1.00  0.00     0.071 C 
BRANCH   7   8
ATOM      8  C   UNL A   1      31.748  22.849  27.158  1.00  0.00     0.261 C 
BRANCH   8   9
ATOM      9  N   UNL A   1      31.542  24.283  27.003  1.00  0.00    -0.344 N 
ATOM     10  H   UNL A   1      32.318  24.757  27.465  1.00  0.00     0.346 HD
ATOM     11  H   UNL A   1      30.624  24.464  27.408  1.00  0.00     0.346 HD
BRANCH   9  12
ATOM     12  C   UNL A   1      31.460  24.806  25.627  1.00  0.00     0.187 C 
ATOM     13  C   UNL A   1      30.163  25.554  25.289  1.00  0.00     0.093 C 
ATOM     14  C   UNL A   1      32.684  25.715  25.388  1.00  0.00     0.100 C 
ATOM     15  C   UNL A   1      30.248  26.263  23.951  1.00  0.00     0.167 C 
ATOM     16  C   UNL A   1      32.654  26.427  24.026  1.00  0.00     0.078 C 
ATOM     17  O   UNL A   1      31.392  27.107  23.901  1.00  0.00    -0.374 OA
ATOM     18  C   UNL A   1      32.920  25.491  22.834  1.00  0.00     0.064 C 
ATOM     19  C   UNL A   1      33.754  27.507  23.982  1.00  0.00     0.064 C 
ATOM     20  C   UNL A   1      32.937  26.292  21.533  1.00  0.00     0.163 C 
ATOM     21  C   UNL A   1      33.718  28.234  22.643  1.00  0.00     0.163 C 
ATOM     22  O   UNL A   1      33.934  27.311  21.577  1.00  0.00    -0.381 OA
ENDBRANCH   9  12
ENDBRANCH   8   9
ENDBRANCH   7   8
ENDBRANCH   6   7
ENDBRANCH   4   6
ENDBRANCH   1   2
BRANCH   1  23
ATOM     23  C   UNL A   1      37.966  19.896  24.747  1.00  0.00     0.042 C 
BRANCH  23  24
ATOM     24  C   UNL A   1      38.728  19.734  26.059  1.00  0.00     0.118 C 
BRANCH  24  25
ATOM     25  N   UNL A   1      40.004  19.043  25.921  1.00  0.00    -0.352 N 
ATOM     26  C   UNL A   1      41.294  19.509  26.066  1.00  0.00     0.251 C 
ATOM     27  H   UNL A   1      39.933  18.089  25.688  1.00  0.00     0.163 HD
ATOM     28  O   UNL A   1      42.227  18.747  25.817  1.00  0.00    -0.269 OA
BRANCH  26  29
ATOM     29  C   UNL A   1      41.578  20.906  26.488  1.00  0.00     0.039 A 
ATOM     30  C   UNL A   1      42.204  21.148  27.715  1.00  0.00     0.014 A 
ATOM     31  C   UNL A   1      41.207  21.992  25.698  1.00  0.00     0.014 A 
ATOM     32  C   UNL A   1      42.516  22.460  28.102  1.00  0.00     0.010 A 
ATOM     33  C   UNL A   1      41.564  23.294  26.049  1.00  0.00     0.010 A 
ATOM     34  C   UNL A   1      42.228  23.542  27.253  1.00  0.00    -0.014 A 
BRANCH  34  35
ATOM     35  C   UNL A   1      42.688  24.923  27.553  1.00  0.00     0.031 A 
ATOM     36  C   UNL A   1      41.762  25.941  28.164  1.00  0.00     0.074 A 
ATOM     37  C   UNL A   1      43.912  25.300  27.132  1.00  0.00     0.049 A 
ATOM     38  N   UNL A   1      41.983  27.204  28.428  1.00  0.00    -0.248 NA
ATOM     39  C   UNL A   1      40.401  25.490  28.493  1.00  0.00     0.031 C 
ATOM     40  C   UNL A   1      44.858  24.440  26.416  1.00  0.00     0.029 A 
ATOM     41  N   UNL A   1      44.554  26.510  27.205  1.00  0.00    -0.354 N 
ATOM     42  C   UNL A   1      40.786  27.708  28.923  1.00  0.00     0.074 A 
ATOM     43  C   UNL A   1      39.830  26.620  28.891  1.00  0.00     0.031 C 
ATOM     44  C   UNL A   1      45.955  25.150  26.115  1.00  0.00     0.029 A 
ATOM     45  C   UNL A   1      45.787  26.517  26.596  1.00  0.00     0.049 A 
ATOM     46  H   UNL A   1      44.169  27.299  27.652  1.00  0.00     0.167 HD
ATOM     47  C   UNL A   1      40.517  28.953  29.389  1.00  0.00     0.034 A 
ATOM     48  C   UNL A   1      46.681  27.512  26.436  1.00  0.00     0.034 A 
ATOM     49  C   UNL A   1      41.487  30.016  29.454  1.00  0.00     0.049 A 
ATOM     50  C   UNL A   1      46.385  28.864  27.023  1.00  0.00     0.074 A 
ATOM     51  C   UNL A   1      41.350  31.273  30.017  1.00  0.00     0.029 A 
ATOM     52  N   UNL A   1      42.768  29.955  28.928  1.00  0.00    -0.354 N 
ATOM     53  N   UNL A   1      45.316  29.268  27.662  1.00  0.00    -0.248 NA
ATOM     54  C   UNL A   1      47.437  29.884  26.905  1.00  0.00     0.031 C 
ATOM     55  C   UNL A   1      42.538  31.982  29.807  1.00  0.00     0.029 A 
ATOM     56  C   UNL A   1      43.429  31.155  29.143  1.00  0.00     0.049 A 
ATOM     57  H   UNL A   1      43.153  29.174  28.469  1.00  0.00     0.167 HD
ATOM     58  C   UNL A   1      45.578  30.575  28.058  1.00  0.00     0.074 A 
ATOM     59  C   UNL A   1      46.918  30.886  27.603  1.00  0.00     0.031 C 
ATOM     60  C   UNL A   1      44.779  31.441  28.728  1.00  0.00     0.034 A 
BRANCH  47  61
ATOM     61  C   UNL A   1      39.134  29.226  29.932  1.00  0.00     0.023 A 
ATOM     62  C   UNL A   1      38.823  28.854  31.257  1.00  0.00     0.012 A 
ATOM     63  C   UNL A   1      38.174  29.926  29.172  1.00  0.00     0.148 A 
ATOM     64  C   UNL A   1      37.572  29.140  31.803  1.00  0.00     0.002 A 
ATOM     65  C   UNL A   1      36.946  30.249  29.740  1.00  0.00     0.091 A 
ATOM     66  F   UNL A   1      38.479  30.263  27.911  1.00  0.00    -0.205 F 
ATOM     67  C   UNL A   1      36.639  29.845  31.050  1.00  0.00     0.022 A 
BRANCH  65  68
ATOM     68  S   UNL A   1      35.709  31.236  28.889  1.00  0.00     0.127 S 
ATOM     69  O   UNL A   1      36.532  32.261  28.252  1.00  0.00    -0.237 OA
ATOM     70  O   UNL A   1      35.121  30.266  27.965  1.00  0.00    -0.237 OA
ATOM     71  O   UNL A   1      34.800  31.719  29.922  1.00  0.00    -0.744 OA
ENDBRANCH  65  68
ENDBRANCH  47  61
BRANCH  48  72
ATOM     72  C   UNL A   1      47.979  27.236  25.759  1.00  0.00     0.023 A 
ATOM     73  C   UNL A   1      49.056  26.729  26.512  1.00  0.00     0.012 A 
ATOM     74  C   UNL A   1      48.140  27.434  24.374  1.00  0.00     0.148 A 
ATOM     75  C   UNL A   1      50.281  26.455  25.904  1.00  0.00     0.002 A 
ATOM     76  C   UNL A   1      49.345  27.106  23.765  1.00  0.00     0.091 A 
ATOM     77  F   UNL A   1      47.104  27.921  23.678  1.00  0.00    -0.205 F 
ATOM     78  C   UNL A   1      50.423  26.634  24.531  1.00  0.00     0.022 A 
BRANCH  76  79
ATOM     79  S   UNL A   1      49.577  27.175  21.985  1.00  0.00     0.127 S 
ATOM     80  O   UNL A   1      48.635  26.162  21.521  1.00  0.00    -0.237 OA
ATOM     81  O   UNL A   1      49.200  28.556  21.685  1.00  0.00    -0.237 OA
ATOM     82  O   UNL A   1      50.988  26.877  21.762  1.00  0.00    -0.744 OA
ENDBRANCH  76  79
ENDBRANCH  48  72
BRANCH  60  83
ATOM     83  C   UNL A   1      45.339  32.804  29.048  1.00  0.00     0.023 A 
ATOM     84  C   UNL A   1      45.993  33.026  30.276  1.00  0.00     0.012 A 
ATOM     85  C   UNL A   1      45.268  33.848  28.104  1.00  0.00     0.148 A 
ATOM     86  C   UNL A   1      46.537  34.276  30.573  1.00  0.00     0.002 A 
ATOM     87  C   UNL A   1      45.857  35.073  28.386  1.00  0.00     0.091 A 
ATOM     88  F   UNL A   1      44.625  33.622  26.948  1.00  0.00    -0.205 F 
ATOM     89  C   UNL A   1      46.479  35.294  29.626  1.00  0.00     0.022 A 
BRANCH  87  90
ATOM     90  S   UNL A   1      45.916  36.414  27.192  1.00  0.00     0.127 S 
ATOM     91  O   UNL A   1      44.584  37.000  27.334  1.00  0.00    -0.237 OA
ATOM     92  O   UNL A   1      47.005  37.242  27.710  1.00  0.00    -0.237 OA
ATOM     93  O   UNL A   1      46.189  35.793  25.903  1.00  0.00    -0.744 OA
ENDBRANCH  87  90
ENDBRANCH  60  83
ENDBRANCH  34  35
ENDBRANCH  26  29
ENDBRANCH  24  25
ENDBRANCH  23  24
ENDBRANCH   1  23
TORSDOF 17
ENDMDL
MODEL 2
REMARK VINA RESULT:     -11.3      1.775      7.889
REMARK SMILES O=C(CCC[NH2+][C@H]1CCOC2(CCOCC2)C1)NCCCNC(=O)c1ccc(-c2c3nc(c(-c4cccc(S(=O)(=O)[O-])c4F)c4ccc([nH]4)c(-c4cccc(S(=O)(=O)[O-])c4F)c4nc(c(-c5cccc(S(=O)(=O)[O-])c5F)c5ccc2[nH]5)C=C4)C=C3)cc1
REMARK SMILES IDX 19 1 18 2 1 3 2 4 3 6 4 7 5 8 6 9 7 12 8 13 17 14 9 15 11 16
REMARK SMILES IDX 10 17 12 18 16 19 13 20 15 21 14 22 20 23 21 24 22 25 23 26
REMARK SMILES IDX 24 28 25 29 26 30 87 31 27 32 86 33 28 34 29 35 30 36 80 37
REMARK SMILES IDX 31 38 85 39 79 40 81 41 32 42 84 43 78 44 77 45 33 47 65 48
REMARK SMILES IDX 45 49 64 50 46 51 49 52 63 53 82 54 47 55 48 56 62 58 83 59
REMARK SMILES IDX 50 60 34 61 35 62 43 63 36 64 38 65 44 66 37 67 39 68 40 69
REMARK SMILES IDX 41 70 42 71 66 72 67 73 75 74 68 75 70 76 76 77 69 78 71 79
REMARK SMILES IDX 72 80 73 81 74 82 51 83 52 84 60 85 53 86 55 87 61 88 54 89
REMARK SMILES IDX 56 90 57 91 58 92 59 93
REMARK H PARENT 18 5 6 10 6 11 22 27 81 46 49 57
REMARK Flexibility Score: inf
ROOT
ATOM      1  C   UNL A   1      35.376  23.116  23.560  1.00  0.00     0.117 C 
ENDROOT
BRANCH   1   2
ATOM      2  N   UNL A   1      34.204  22.721  24.320  1.00  0.00    -0.356 N 
ATOM      3  O   UNL A   1      32.932  22.131  22.496  1.00  0.00    -0.275 OA
ATOM      4  C   UNL A   1      33.066  22.235  23.712  1.00  0.00     0.220 C 
ATOM      5  H   UNL A   1      34.222  22.803  25.301  1.00  0.00     0.163 HD
BRANCH   4   6
ATOM      6  C   UNL A   1      31.974  21.802  24.670  1.00  0.00     0.106 C 
BRANCH   6   7
ATOM      7  C   UNL A   1      32.199  22.306  26.100  1.00  0.00     0.071 C 
BRANCH   7   8
ATOM      8  C   UNL A   1      31.054  23.131  26.705  1.00  0.00     0.261 C 
BRANCH   8   9
ATOM      9  N   UNL A   1      30.392  23.965  25.712  1.00  0.00    -0.344 N 
ATOM     10  H   UNL A   1      29.483  24.233  26.092  1.00  0.00     0.346 HD
ATOM     11  H   UNL A   1      30.354  23.393  24.868  1.00  0.00     0.346 HD
BRANCH   9  12
ATOM     12  C   UNL A   1      31.083  25.202  25.303  1.00  0.00     0.187 C 
ATOM     13  C   UNL A   1      30.406  25.982  24.168  1.00  0.00     0.093 C 
ATOM     14  C   UNL A   1      31.240  26.095  26.551  1.00  0.00     0.100 C 
ATOM     15  C   UNL A   1      31.033  27.348  23.965  1.00  0.00     0.167 C 
ATOM     16  C   UNL A   1      31.837  27.477  26.237  1.00  0.00     0.078 C 
ATOM     17  O   UNL A   1      31.056  28.076  25.188  1.00  0.00    -0.374 OA
ATOM     18  C   UNL A   1      33.334  27.436  25.884  1.00  0.00     0.064 C 
ATOM     19  C   UNL A   1      31.708  28.390  27.473  1.00  0.00     0.064 C 
ATOM     20  C   UNL A   1      33.856  28.853  25.652  1.00  0.00     0.163 C 
ATOM     21  C   UNL A   1      32.278  29.770  27.164  1.00  0.00     0.163 C 
ATOM     22  O   UNL A   1      33.655  29.663  26.809  1.00  0.00    -0.381 OA
ENDBRANCH   9  12
ENDBRANCH   8   9
ENDBRANCH   7   8
ENDBRANCH   6   7
ENDBRANCH   4   6
ENDBRANCH   1   2
BRANCH   1  23
ATOM     23  C   UNL A   1      36.610  22.280  23.886  1.00  0.00     0.042 C 
BRANCH  23  24
ATOM     24  C   UNL A   1      36.859  22.036  25.371  1.00  0.00     0.118 C 
BRANCH  24  25
ATOM     25  N   UNL A   1      37.923  21.079  25.644  1.00  0.00    -0.352 N 
ATOM     26  C   UNL A   1      39.185  21.269  26.167  1.00  0.00     0.251 C 
ATOM     27  H   UNL A   1      37.707  20.145  25.418  1.00  0.00     0.163 HD
ATOM     28  O   UNL A   1      39.948  20.306  26.230  1.00  0.00    -0.269 OA
BRANCH  26  29
ATOM     29  C   UNL A   1      39.647  22.604  26.630  1.00  0.00     0.039 A 
ATOM     30  C   UNL A   1      40.629  22.695  27.623  1.00  0.00     0.014 A 
ATOM     31  C   UNL A   1      39.101  23.779  26.117  1.00  0.00     0.014 A 
ATOM     32  C   UNL A   1      41.102  23.950  28.034  1.00  0.00     0.010 A 
ATOM     33  C   UNL A   1      39.605  25.027  26.479  1.00  0.00     0.010 A 
ATOM     34  C   UNL A   1      40.617  25.127  27.439  1.00  0.00    -0.014 A 
BRANCH  34  35
ATOM     35  C   UNL A   1      41.208  26.459  27.730  1.00  0.00     0.031 A 
ATOM     36  C   UNL A   1      42.637  26.774  27.379  1.00  0.00     0.074 A 
ATOM     37  C   UNL A   1      40.486  27.340  28.450  1.00  0.00     0.049 A 
ATOM     38  N   UNL A   1      43.326  27.861  27.622  1.00  0.00    -0.248 NA
ATOM     39  C   UNL A   1      43.403  25.721  26.694  1.00  0.00     0.031 C 
ATOM     40  C   UNL A   1      39.131  27.105  28.956  1.00  0.00     0.029 A 
ATOM     41  N   UNL A   1      40.801  28.591  28.918  1.00  0.00    -0.354 N 
ATOM     42  C   UNL A   1      44.611  27.615  27.151  1.00  0.00     0.074 A 
ATOM     43  C   UNL A   1      44.615  26.260  26.638  1.00  0.00     0.031 C 
ATOM     44  C   UNL A   1      38.735  28.173  29.664  1.00  0.00     0.029 A 
ATOM     45  C   UNL A   1      39.809  29.160  29.682  1.00  0.00     0.049 A 
ATOM     46  H   UNL A   1      41.657  29.039  28.725  1.00  0.00     0.167 HD
ATOM     47  C   UNL A   1      45.679  28.450  27.122  1.00  0.00     0.034 A 
ATOM     48  C   UNL A   1      39.767  30.341  30.329  1.00  0.00     0.034 A 
ATOM     49  C   UNL A   1      45.652  29.809  27.599  1.00  0.00     0.049 A 
ATOM     50  C   UNL A   1      40.940  31.275  30.222  1.00  0.00     0.074 A 
ATOM     51  C   UNL A   1      46.641  30.774  27.506  1.00  0.00     0.029 A 
ATOM     52  N   UNL A   1      44.589  30.395  28.269  1.00  0.00    -0.354 N 
ATOM     53  N   UNL A   1      42.082  31.098  29.604  1.00  0.00    -0.248 NA
ATOM     54  C   UNL A   1      40.803  32.590  30.864  1.00  0.00     0.031 C 
ATOM     55  C   UNL A   1      46.186  31.933  28.145  1.00  0.00     0.029 A 
ATOM     56  C   UNL A   1      44.901  31.703  28.606  1.00  0.00     0.049 A 
ATOM     57  H   UNL A   1      43.737  29.948  28.476  1.00  0.00     0.167 HD
ATOM     58  C   UNL A   1      42.783  32.290  29.748  1.00  0.00     0.074 A 
ATOM     59  C   UNL A   1      41.928  33.188  30.495  1.00  0.00     0.031 C 
ATOM     60  C   UNL A   1      44.026  32.606  29.309  1.00  0.00     0.034 A 
BRANCH  47  61
ATOM     61  C   UNL A   1      46.958  27.948  26.494  1.00  0.00     0.023 A 
ATOM     62  C   UNL A   1      47.910  27.284  27.296  1.00  0.00     0.012 A 
ATOM     63  C   UNL A   1      47.180  28.048  25.106  1.00  0.00     0.148 A 
ATOM     64  C   UNL A   1      49.075  26.763  26.736  1.00  0.00     0.002 A 
ATOM     65  C   UNL A   1      48.322  27.484  24.547  1.00  0.00     0.091 A 
ATOM     66  F   UNL A   1      46.273  28.691  24.357  1.00  0.00    -0.205 F 
ATOM     67  C   UNL A   1      49.277  26.853  25.362  1.00  0.00     0.022 A 
BRANCH  65  68
ATOM     68  S   UNL A   1      48.632  27.462  22.777  1.00  0.00     0.127 S 
ATOM     69  O   UNL A   1      49.958  28.073  22.700  1.00  0.00    -0.237 OA
ATOM     70  O   UNL A   1      48.602  26.031  22.476  1.00  0.00    -0.237 OA
ATOM     71  O   UNL A   1      47.554  28.233  22.170  1.00  0.00    -0.744 OA
ENDBRANCH  65  68
ENDBRANCH  47  61
BRANCH  48  72
ATOM     72  C   UNL A   1      38.535  30.736  31.065  1.00  0.00     0.023 A 
ATOM     73  C   UNL A   1      38.438  30.468  32.444  1.00  0.00     0.012 A 
ATOM     74  C   UNL A   1      37.480  31.410  30.419  1.00  0.00     0.148 A 
ATOM     75  C   UNL A   1      37.298  30.832  33.161  1.00  0.00     0.002 A 
ATOM     76  C   UNL A   1      36.372  31.820  31.151  1.00  0.00     0.091 A 
ATOM     77  F   UNL A   1      37.591  31.652  29.106  1.00  0.00    -0.205 F 
ATOM     78  C   UNL A   1      36.271  31.516  32.518  1.00  0.00     0.022 A 
BRANCH  76  79
ATOM     79  S   UNL A   1      35.063  32.824  30.439  1.00  0.00     0.127 S 
ATOM     80  O   UNL A   1      34.580  31.966  29.362  1.00  0.00    -0.237 OA
ATOM     81  O   UNL A   1      34.148  32.972  31.570  1.00  0.00    -0.237 OA
ATOM     82  O   UNL A   1      35.705  34.066  30.021  1.00  0.00    -0.744 OA
ENDBRANCH  76  79
ENDBRANCH  48  72
BRANCH  60  83
ATOM     83  C   UNL A   1      44.533  33.998  29.591  1.00  0.00     0.023 A 
ATOM     84  C   UNL A   1      45.234  34.265  30.783  1.00  0.00     0.012 A 
ATOM     85  C   UNL A   1      44.365  35.028  28.643  1.00  0.00     0.148 A 
ATOM     86  C   UNL A   1      45.729  35.543  31.044  1.00  0.00     0.002 A 
ATOM     87  C   UNL A   1      44.906  36.284  28.886  1.00  0.00     0.091 A 
ATOM     88  F   UNL A   1      43.679  34.759  27.522  1.00  0.00    -0.205 F 
ATOM     89  C   UNL A   1      45.575  36.547  30.092  1.00  0.00     0.022 A 
BRANCH  87  90
ATOM     90  S   UNL A   1      44.841  37.613  27.679  1.00  0.00     0.127 S 
ATOM     91  O   UNL A   1      45.133  38.782  28.507  1.00  0.00    -0.237 OA
ATOM     92  O   UNL A   1      45.908  37.240  26.751  1.00  0.00    -0.237 OA
ATOM     93  O   UNL A   1      43.501  37.574  27.109  1.00  0.00    -0.744 OA
ENDBRANCH  87  90
ENDBRANCH  60  83
ENDBRANCH  34  35
ENDBRANCH  26  29
ENDBRANCH  24  25
ENDBRANCH  23  24
ENDBRANCH   1  23
TORSDOF 17
ENDMDL
MODEL 3
REMARK VINA RESULT:     -11.2      5.267      8.557
REMARK SMILES O=C(CCC[NH2+][C@H]1CCOC2(CCOCC2)C1)NCCCNC(=O)c1ccc(-c2c3nc(c(-c4cccc(S(=O)(=O)[O-])c4F)c4ccc([nH]4)c(-c4cccc(S(=O)(=O)[O-])c4F)c4nc(c(-c5cccc(S(=O)(=O)[O-])c5F)c5ccc2[nH]5)C=C4)C=C3)cc1
REMARK SMILES IDX 19 1 18 2 1 3 2 4 3 6 4 7 5 8 6 9 7 12 8 13 17 14 9 15 11 16
REMARK SMILES IDX 10 17 12 18 16 19 13 20 15 21 14 22 20 23 21 24 22 25 23 26
REMARK SMILES IDX 24 28 25 29 26 30 87 31 27 32 86 33 28 34 29 35 30 36 80 37
REMARK SMILES IDX 31 38 85 39 79 40 81 41 32 42 84 43 78 44 77 45 33 47 65 48
REMARK SMILES IDX 45 49 64 50 46 51 49 52 63 53 82 54 47 55 48 56 62 58 83 59
REMARK SMILES IDX 50 60 34 61 35 62 43 63 36 64 38 65 44 66 37 67 39 68 40 69
REMARK SMILES IDX 41 70 42 71 66 72 67 73 75 74 68 75 70 76 76 77 69 78 71 79
REMARK SMILES IDX 72 80 73 81 74 82 51 83 52 84 60 85 53 86 55 87 61 88 54 89
REMARK SMILES IDX 56 90 57 91 58 92 59 93
REMARK H PARENT 18 5 6 10 6 11 22 27 81 46 49 57
REMARK Flexibility Score: inf
ROOT
ATOM      1  C   UNL A   1      31.240  27.362  26.698  1.00  0.00     0.117 C 
ENDROOT
BRANCH   1   2
ATOM      2  N   UNL A   1      31.362  27.717  25.295  1.00  0.00    -0.356 N 
ATOM      3  O   UNL A   1      29.715  26.295  24.552  1.00  0.00    -0.275 OA
ATOM      4  C   UNL A   1      30.560  27.156  24.325  1.00  0.00     0.220 C 
ATOM      5  H   UNL A   1      32.040  28.379  25.029  1.00  0.00     0.163 HD
BRANCH   4   6
ATOM      6  C   UNL A   1      30.780  27.704  22.929  1.00  0.00     0.106 C 
BRANCH   6   7
ATOM      7  C   UNL A   1      31.560  26.744  22.025  1.00  0.00     0.071 C 
BRANCH   7   8
ATOM      8  C   UNL A   1      33.088  26.872  22.076  1.00  0.00     0.261 C 
BRANCH   8   9
ATOM      9  N   UNL A   1      33.742  25.585  22.271  1.00  0.00    -0.344 N 
ATOM     10  H   UNL A   1      34.664  25.766  22.669  1.00  0.00     0.346 HD
ATOM     11  H   UNL A   1      33.750  25.150  21.348  1.00  0.00     0.346 HD
BRANCH   9  12
ATOM     12  C   UNL A   1      33.064  24.611  23.146  1.00  0.00     0.187 C 
ATOM     13  C   UNL A   1      32.952  23.190  22.576  1.00  0.00     0.093 C 
ATOM     14  C   UNL A   1      33.803  24.591  24.500  1.00  0.00     0.100 C 
ATOM     15  C   UNL A   1      32.465  22.198  23.615  1.00  0.00     0.167 C 
ATOM     16  C   UNL A   1      33.271  23.520  25.466  1.00  0.00     0.078 C 
ATOM     17  O   UNL A   1      33.277  22.254  24.782  1.00  0.00    -0.374 OA
ATOM     18  C   UNL A   1      31.886  23.848  26.048  1.00  0.00     0.064 C 
ATOM     19  C   UNL A   1      34.227  23.386  26.669  1.00  0.00     0.064 C 
ATOM     20  C   UNL A   1      31.466  22.768  27.043  1.00  0.00     0.163 C 
ATOM     21  C   UNL A   1      33.719  22.311  27.622  1.00  0.00     0.163 C 
ATOM     22  O   UNL A   1      32.418  22.653  28.099  1.00  0.00    -0.381 OA
ENDBRANCH   9  12
ENDBRANCH   8   9
ENDBRANCH   7   8
ENDBRANCH   6   7
ENDBRANCH   4   6
ENDBRANCH   1   2
BRANCH   1  23
ATOM     23  C   UNL A   1      31.869  28.392  27.632  1.00  0.00     0.042 C 
BRANCH  23  24
ATOM     24  C   UNL A   1      33.236  28.914  27.202  1.00  0.00     0.118 C 
BRANCH  24  25
ATOM     25  N   UNL A   1      33.412  30.347  27.401  1.00  0.00    -0.352 N 
ATOM     26  C   UNL A   1      34.476  31.054  27.921  1.00  0.00     0.251 C 
ATOM     27  H   UNL A   1      32.648  30.900  27.119  1.00  0.00     0.163 HD
ATOM     28  O   UNL A   1      34.361  32.270  28.067  1.00  0.00    -0.269 OA
BRANCH  26  29
ATOM     29  C   UNL A   1      35.739  30.382  28.327  1.00  0.00     0.039 A 
ATOM     30  C   UNL A   1      36.833  30.373  27.456  1.00  0.00     0.014 A 
ATOM     31  C   UNL A   1      35.851  29.728  29.552  1.00  0.00     0.014 A 
ATOM     32  C   UNL A   1      38.042  29.780  27.848  1.00  0.00     0.010 A 
ATOM     33  C   UNL A   1      37.065  29.186  29.971  1.00  0.00     0.010 A 
ATOM     34  C   UNL A   1      38.178  29.211  29.126  1.00  0.00    -0.014 A 
BRANCH  34  35
ATOM     35  C   UNL A   1      39.484  28.720  29.637  1.00  0.00     0.031 A 
ATOM     36  C   UNL A   1      40.221  29.451  30.727  1.00  0.00     0.074 A 
ATOM     37  C   UNL A   1      40.076  27.687  29.005  1.00  0.00     0.049 A 
ATOM     38  N   UNL A   1      41.398  29.196  31.241  1.00  0.00    -0.248 NA
ATOM     39  C   UNL A   1      39.567  30.640  31.293  1.00  0.00     0.031 C 
ATOM     40  C   UNL A   1      39.518  26.973  27.854  1.00  0.00     0.029 A 
ATOM     41  N   UNL A   1      41.292  27.085  29.211  1.00  0.00    -0.354 N 
ATOM     42  C   UNL A   1      41.641  30.206  32.165  1.00  0.00     0.074 A 
ATOM     43  C   UNL A   1      40.501  31.099  32.117  1.00  0.00     0.031 C 
ATOM     44  C   UNL A   1      40.389  26.034  27.456  1.00  0.00     0.029 A 
ATOM     45  C   UNL A   1      41.573  26.089  28.306  1.00  0.00     0.049 A 
ATOM     46  H   UNL A   1      41.904  27.341  29.938  1.00  0.00     0.167 HD
ATOM     47  C   UNL A   1      42.701  30.358  32.998  1.00  0.00     0.034 A 
ATOM     48  C   UNL A   1      42.664  25.310  28.169  1.00  0.00     0.034 A 
ATOM     49  C   UNL A   1      43.810  29.442  33.065  1.00  0.00     0.049 A 
ATOM     50  C   UNL A   1      43.795  25.456  29.149  1.00  0.00     0.074 A 
ATOM     51  C   UNL A   1      44.872  29.440  33.954  1.00  0.00     0.029 A 
ATOM     52  N   UNL A   1      44.011  28.373  32.206  1.00  0.00    -0.354 N 
ATOM     53  N   UNL A   1      43.919  26.298  30.145  1.00  0.00    -0.248 NA
ATOM     54  C   UNL A   1      44.915  24.514  29.015  1.00  0.00     0.031 C 
ATOM     55  C   UNL A   1      45.729  28.387  33.614  1.00  0.00     0.029 A 
ATOM     56  C   UNL A   1      45.184  27.711  32.535  1.00  0.00     0.049 A 
ATOM     57  H   UNL A   1      43.410  28.121  31.469  1.00  0.00     0.167 HD
ATOM     58  C   UNL A   1      45.110  25.965  30.780  1.00  0.00     0.074 A 
ATOM     59  C   UNL A   1      45.659  24.830  30.067  1.00  0.00     0.031 C 
ATOM     60  C   UNL A   1      45.700  26.554  31.849  1.00  0.00     0.034 A 
BRANCH  47  61
ATOM     61  C   UNL A   1      42.689  31.525  33.957  1.00  0.00     0.023 A 
ATOM     62  C   UNL A   1      43.206  32.770  33.542  1.00  0.00     0.012 A 
ATOM     63  C   UNL A   1      42.090  31.420  35.229  1.00  0.00     0.148 A 
ATOM     64  C   UNL A   1      43.162  33.878  34.387  1.00  0.00     0.002 A 
ATOM     65  C   UNL A   1      42.007  32.542  36.047  1.00  0.00     0.091 A 
ATOM     66  F   UNL A   1      41.613  30.229  35.616  1.00  0.00    -0.205 F 
ATOM     67  C   UNL A   1      42.553  33.768  35.633  1.00  0.00     0.022 A 
BRANCH  65  68
ATOM     68  S   UNL A   1      41.160  32.531  37.633  1.00  0.00     0.127 S 
ATOM     69  O   UNL A   1      39.854  31.988  37.269  1.00  0.00    -0.237 OA
ATOM     70  O   UNL A   1      41.998  31.628  38.423  1.00  0.00    -0.237 OA
ATOM     71  O   UNL A   1      41.154  33.914  38.095  1.00  0.00    -0.744 OA
ENDBRANCH  65  68
ENDBRANCH  47  61
BRANCH  48  72
ATOM     72  C   UNL A   1      42.696  24.265  27.109  1.00  0.00     0.023 A 
ATOM     73  C   UNL A   1      43.404  24.513  25.916  1.00  0.00     0.012 A 
ATOM     74  C   UNL A   1      42.069  23.017  27.290  1.00  0.00     0.148 A 
ATOM     75  C   UNL A   1      43.457  23.550  24.908  1.00  0.00     0.002 A 
ATOM     76  C   UNL A   1      42.173  22.042  26.305  1.00  0.00     0.091 A 
ATOM     77  F   UNL A   1      41.398  22.804  28.430  1.00  0.00    -0.205 F 
ATOM     78  C   UNL A   1      42.851  22.313  25.106  1.00  0.00     0.022 A 
BRANCH  76  79
ATOM     79  S   UNL A   1      41.542  20.375  26.527  1.00  0.00     0.127 S 
ATOM     80  O   UNL A   1      42.126  20.002  27.811  1.00  0.00    -0.237 OA
ATOM     81  O   UNL A   1      40.097  20.600  26.547  1.00  0.00    -0.237 OA
ATOM     82  O   UNL A   1      42.015  19.620  25.372  1.00  0.00    -0.744 OA
ENDBRANCH  76  79
ENDBRANCH  48  72
BRANCH  60  83
ATOM     83  C   UNL A   1      46.994  25.961  32.347  1.00  0.00     0.023 A 
ATOM     84  C   UNL A   1      48.220  26.383  31.795  1.00  0.00     0.012 A 
ATOM     85  C   UNL A   1      46.997  25.031  33.405  1.00  0.00     0.148 A 
ATOM     86  C   UNL A   1      49.426  25.861  32.263  1.00  0.00     0.002 A 
ATOM     87  C   UNL A   1      48.204  24.554  33.901  1.00  0.00     0.091 A 
ATOM     88  F   UNL A   1      45.819  24.628  33.905  1.00  0.00    -0.205 F 
ATOM     89  C   UNL A   1      49.418  24.957  33.322  1.00  0.00     0.022 A 
BRANCH  87  90
ATOM     90  S   UNL A   1      48.298  23.461  35.324  1.00  0.00     0.127 S 
ATOM     91  O   UNL A   1      47.608  22.270  34.831  1.00  0.00    -0.237 OA
ATOM     92  O   UNL A   1      49.742  23.301  35.495  1.00  0.00    -0.237 OA
ATOM     93  O   UNL A   1      47.633  24.160  36.414  1.00  0.00    -0.744 OA
ENDBRANCH  87  90
ENDBRANCH  60  83
ENDBRANCH  34  35
ENDBRANCH  26  29
ENDBRANCH  24  25
ENDBRANCH  23  24
ENDBRANCH   1  23
TORSDOF 17
ENDMDL
