MODEL 1
REMARK VINA RESULT:     -13.3      0.000      0.000
REMARK SMILES CC(C)c1ccc2c(c1)C(=O)C[C@@H]1[C@@]2(C)CCC[C@]1(C)C(=O)NCCCNC(=O)c1ccc(-c2c3nc(c(-c4cccc(S(=O)(=O)[O-])c4F)c4ccc([nH]4)c(-c4cccc(S(=O)(=O)[O-])c4F)c4nc(c(-c5cccc(S(=O)(=O)[O-])c5F)c5ccc2[nH]5)C=C4)C=C3)cc1
REMARK SMILES IDX 26 1 25 2 24 3 23 4 21 5 22 6 19 8 4 9 5 10 9 11 6 12 8 13
REMARK SMILES IDX 7 14 10 15 14 16 12 17 11 18 13 19 16 20 15 21 17 22 18 23
REMARK SMILES IDX 20 24 2 25 1 26 3 27 27 28 28 29 29 31 30 32 31 33 92 34
REMARK SMILES IDX 32 35 91 36 33 37 34 38 35 39 85 40 36 41 90 42 84 43 86 44
REMARK SMILES IDX 37 45 89 46 83 47 82 48 38 50 70 51 50 52 69 53 51 54 54 55
REMARK SMILES IDX 68 56 87 57 52 58 53 59 67 61 88 62 55 63 39 64 40 65 48 66
REMARK SMILES IDX 41 67 43 68 49 69 42 70 44 71 45 72 46 73 47 74 71 75 72 76
REMARK SMILES IDX 80 77 73 78 75 79 81 80 74 81 76 82 77 83 78 84 79 85 56 86
REMARK SMILES IDX 57 87 65 88 58 89 60 90 66 91 59 92 61 93 62 94 63 95 64 96
REMARK H PARENT 23 7 27 30 86 49 54 60
REMARK Flexibility Score: inf
ROOT
ATOM      1  C   UNL A   1      32.481  32.973  26.763  1.00  0.00     0.118 C 
ENDROOT
BRANCH   1   2
ATOM      2  C   UNL A   1      31.394  31.965  27.094  1.00  0.00     0.042 C 
BRANCH   2   3
ATOM      3  C   UNL A   1      31.818  30.534  26.838  1.00  0.00     0.117 C 
BRANCH   3   4
ATOM      4  N   UNL A   1      32.346  30.296  25.511  1.00  0.00    -0.356 N 
ATOM      5  C   UNL A   1      32.593  29.031  25.055  1.00  0.00     0.226 C 
ATOM      6  O   UNL A   1      33.387  28.302  25.640  1.00  0.00    -0.274 OA
ATOM      7  H   UNL A   1      32.531  31.063  24.923  1.00  0.00     0.163 HD
BRANCH   5   8
ATOM      8  C   UNL A   1      31.791  28.595  23.802  1.00  0.00     0.050 C 
ATOM      9  C   UNL A   1      33.197  22.169  24.717  1.00  0.00    -0.045 A 
ATOM     10  C   UNL A   1      33.694  22.541  23.466  1.00  0.00     0.004 A 
ATOM     11  C   UNL A   1      32.315  23.065  25.336  1.00  0.00     0.016 A 
ATOM     12  C   UNL A   1      33.391  23.788  22.906  1.00  0.00     0.005 A 
ATOM     13  C   UNL A   1      31.989  24.315  24.759  1.00  0.00     0.022 A 
ATOM     14  C   UNL A   1      32.560  24.725  23.557  1.00  0.00    -0.031 A 
ATOM     15  C   UNL A   1      31.007  25.146  25.473  1.00  0.00     0.163 C 
ATOM     16  C   UNL A   1      32.342  26.113  22.940  1.00  0.00    -0.003 C 
ATOM     17  C   UNL A   1      30.889  26.598  25.131  1.00  0.00     0.086 C 
ATOM     18  O   UNL A   1      30.345  24.665  26.391  1.00  0.00    -0.294 OA
ATOM     19  C   UNL A   1      31.385  27.070  23.755  1.00  0.00     0.022 C 
ATOM     20  C   UNL A   1      33.742  26.741  22.720  1.00  0.00     0.012 C 
ATOM     21  C   UNL A   1      31.698  25.902  21.534  1.00  0.00     0.017 C 
ATOM     22  C   UNL A   1      33.749  28.143  22.138  1.00  0.00     0.002 C 
ATOM     23  C   UNL A   1      32.586  29.033  22.552  1.00  0.00     0.017 C 
ATOM     24  C   UNL A   1      30.493  29.455  23.806  1.00  0.00     0.022 C 
BRANCH   9  25
ATOM     25  C   UNL A   1      33.579  20.821  25.317  1.00  0.00     0.013 C 
ATOM     26  C   UNL A   1      32.630  19.699  24.863  1.00  0.00     0.012 C 
ATOM     27  C   UNL A   1      35.019  20.366  25.041  1.00  0.00     0.012 C 
ENDBRANCH   9  25
ENDBRANCH   5   8
ENDBRANCH   3   4
ENDBRANCH   2   3
ENDBRANCH   1   2
BRANCH   1  28
ATOM     28  N   UNL A   1      32.448  34.146  27.636  1.00  0.00    -0.352 N 
ATOM     29  C   UNL A   1      33.277  34.474  28.684  1.00  0.00     0.251 C 
ATOM     30  H   UNL A   1      31.731  34.793  27.445  1.00  0.00     0.163 HD
ATOM     31  O   UNL A   1      33.002  35.418  29.421  1.00  0.00    -0.269 OA
BRANCH  29  32
ATOM     32  C   UNL A   1      34.470  33.643  28.929  1.00  0.00     0.039 A 
ATOM     33  C   UNL A   1      34.323  32.381  29.503  1.00  0.00     0.014 A 
ATOM     34  C   UNL A   1      35.740  34.173  28.688  1.00  0.00     0.014 A 
ATOM     35  C   UNL A   1      35.434  31.750  30.044  1.00  0.00     0.010 A 
ATOM     36  C   UNL A   1      36.865  33.481  29.141  1.00  0.00     0.010 A 
ATOM     37  C   UNL A   1      36.718  32.300  29.885  1.00  0.00    -0.014 A 
BRANCH  37  38
ATOM     38  C   UNL A   1      37.879  31.631  30.524  1.00  0.00     0.031 A 
ATOM     39  C   UNL A   1      38.256  31.925  31.953  1.00  0.00     0.074 A 
ATOM     40  C   UNL A   1      38.567  30.708  29.823  1.00  0.00     0.049 A 
ATOM     41  N   UNL A   1      39.239  31.427  32.660  1.00  0.00    -0.248 NA
ATOM     42  C   UNL A   1      37.434  32.903  32.686  1.00  0.00     0.031 C 
ATOM     43  C   UNL A   1      38.303  30.339  28.431  1.00  0.00     0.029 A 
ATOM     44  N   UNL A   1      39.615  29.902  30.187  1.00  0.00    -0.354 N 
ATOM     45  C   UNL A   1      39.185  32.063  33.894  1.00  0.00     0.074 A 
ATOM     46  C   UNL A   1      38.072  32.985  33.847  1.00  0.00     0.031 C 
ATOM     47  C   UNL A   1      39.130  29.347  28.073  1.00  0.00     0.029 A 
ATOM     48  C   UNL A   1      40.024  29.052  29.187  1.00  0.00     0.049 A 
ATOM     49  H   UNL A   1      40.033  29.927  31.077  1.00  0.00     0.167 HD
ATOM     50  C   UNL A   1      39.978  31.880  34.976  1.00  0.00     0.034 A 
ATOM     51  C   UNL A   1      41.017  28.143  29.158  1.00  0.00     0.034 A 
ATOM     52  C   UNL A   1      41.039  30.912  35.049  1.00  0.00     0.049 A 
ATOM     53  C   UNL A   1      41.870  27.950  30.375  1.00  0.00     0.074 A 
ATOM     54  C   UNL A   1      41.862  30.622  36.123  1.00  0.00     0.029 A 
ATOM     55  N   UNL A   1      41.416  30.069  34.015  1.00  0.00    -0.354 N 
ATOM     56  N   UNL A   1      41.763  28.521  31.549  1.00  0.00    -0.248 NA
ATOM     57  C   UNL A   1      42.973  26.985  30.270  1.00  0.00     0.031 C 
ATOM     58  C   UNL A   1      42.739  29.605  35.739  1.00  0.00     0.029 A 
ATOM     59  C   UNL A   1      42.460  29.260  34.426  1.00  0.00     0.049 A 
ATOM     60  H   UNL A   1      41.002  30.050  33.122  1.00  0.00     0.167 HD
ATOM     61  C   UNL A   1      42.780  27.983  32.326  1.00  0.00     0.074 A 
ATOM     62  C   UNL A   1      43.478  27.021  31.498  1.00  0.00     0.031 C 
ATOM     63  C   UNL A   1      43.117  28.277  33.604  1.00  0.00     0.034 A 
BRANCH  50  64
ATOM     64  C   UNL A   1      39.707  32.702  36.207  1.00  0.00     0.023 A 
ATOM     65  C   UNL A   1      40.304  33.971  36.331  1.00  0.00     0.012 A 
ATOM     66  C   UNL A   1      38.777  32.271  37.173  1.00  0.00     0.148 A 
ATOM     67  C   UNL A   1      39.983  34.801  37.405  1.00  0.00     0.002 A 
ATOM     68  C   UNL A   1      38.442  33.115  38.226  1.00  0.00     0.091 A 
ATOM     69  F   UNL A   1      38.232  31.054  37.037  1.00  0.00    -0.205 F 
ATOM     70  C   UNL A   1      39.046  34.378  38.345  1.00  0.00     0.022 A 
BRANCH  68  71
ATOM     71  S   UNL A   1      37.208  32.692  39.461  1.00  0.00     0.127 S 
ATOM     72  O   UNL A   1      35.986  32.665  38.659  1.00  0.00    -0.237 OA
ATOM     73  O   UNL A   1      37.667  31.379  39.917  1.00  0.00    -0.237 OA
ATOM     74  O   UNL A   1      37.265  33.744  40.466  1.00  0.00    -0.744 OA
ENDBRANCH  68  71
ENDBRANCH  50  64
BRANCH  51  75
ATOM     75  C   UNL A   1      41.214  27.328  27.930  1.00  0.00     0.023 A 
ATOM     76  C   UNL A   1      41.871  27.900  26.825  1.00  0.00     0.012 A 
ATOM     77  C   UNL A   1      40.844  25.970  27.892  1.00  0.00     0.148 A 
ATOM     78  C   UNL A   1      42.157  27.130  25.698  1.00  0.00     0.002 A 
ATOM     79  C   UNL A   1      41.174  25.198  26.786  1.00  0.00     0.091 A 
ATOM     80  F   UNL A   1      40.215  25.455  28.956  1.00  0.00    -0.205 F 
ATOM     81  C   UNL A   1      41.822  25.778  25.683  1.00  0.00     0.022 A 
BRANCH  79  82
ATOM     82  S   UNL A   1      40.894  23.425  26.726  1.00  0.00     0.127 S 
ATOM     83  O   UNL A   1      39.474  23.358  26.391  1.00  0.00    -0.237 OA
ATOM     84  O   UNL A   1      41.801  23.015  25.655  1.00  0.00    -0.237 OA
ATOM     85  O   UNL A   1      41.252  22.923  28.046  1.00  0.00    -0.744 OA
ENDBRANCH  79  82
ENDBRANCH  51  75
BRANCH  63  86
ATOM     86  C   UNL A   1      44.294  27.563  34.203  1.00  0.00     0.023 A 
ATOM     87  C   UNL A   1      45.572  28.142  34.095  1.00  0.00     0.012 A 
ATOM     88  C   UNL A   1      44.118  26.394  34.967  1.00  0.00     0.148 A 
ATOM     89  C   UNL A   1      46.665  27.563  34.738  1.00  0.00     0.002 A 
ATOM     90  C   UNL A   1      45.205  25.839  35.629  1.00  0.00     0.091 A 
ATOM     91  F   UNL A   1      42.890  25.859  35.043  1.00  0.00    -0.205 F 
ATOM     92  C   UNL A   1      46.480  26.420  35.513  1.00  0.00     0.022 A 
BRANCH  90  93
ATOM     93  S   UNL A   1      45.058  24.411  36.709  1.00  0.00     0.127 S 
ATOM     94  O   UNL A   1      44.064  24.871  37.677  1.00  0.00    -0.237 OA
ATOM     95  O   UNL A   1      44.582  23.376  35.790  1.00  0.00    -0.237 OA
ATOM     96  O   UNL A   1      46.389  24.175  37.253  1.00  0.00    -0.744 OA
ENDBRANCH  90  93
ENDBRANCH  63  86
ENDBRANCH  37  38
ENDBRANCH  29  32
ENDBRANCH   1  28
TORSDOF 14
ENDMDL
MODEL 2
REMARK VINA RESULT:     -13.1      1.699      7.677
REMARK SMILES CC(C)c1ccc2c(c1)C(=O)C[C@@H]1[C@@]2(C)CCC[C@]1(C)C(=O)NCCCNC(=O)c1ccc(-c2c3nc(c(-c4cccc(S(=O)(=O)[O-])c4F)c4ccc([nH]4)c(-c4cccc(S(=O)(=O)[O-])c4F)c4nc(c(-c5cccc(S(=O)(=O)[O-])c5F)c5ccc2[nH]5)C=C4)C=C3)cc1
REMARK SMILES IDX 26 1 25 2 24 3 23 4 21 5 22 6 19 8 4 9 5 10 9 11 6 12 8 13
REMARK SMILES IDX 7 14 10 15 14 16 12 17 11 18 13 19 16 20 15 21 17 22 18 23
REMARK SMILES IDX 20 24 2 25 1 26 3 27 27 28 28 29 29 31 30 32 31 33 92 34
REMARK SMILES IDX 32 35 91 36 33 37 34 38 35 39 85 40 36 41 90 42 84 43 86 44
REMARK SMILES IDX 37 45 89 46 83 47 82 48 38 50 70 51 50 52 69 53 51 54 54 55
REMARK SMILES IDX 68 56 87 57 52 58 53 59 67 61 88 62 55 63 39 64 40 65 48 66
REMARK SMILES IDX 41 67 43 68 49 69 42 70 44 71 45 72 46 73 47 74 71 75 72 76
REMARK SMILES IDX 80 77 73 78 75 79 81 80 74 81 76 82 77 83 78 84 79 85 56 86
REMARK SMILES IDX 57 87 65 88 58 89 60 90 66 91 59 92 61 93 62 94 63 95 64 96
REMARK H PARENT 23 7 27 30 86 49 54 60
REMARK Flexibility Score: inf
ROOT
ATOM      1  C   UNL A   1      33.436  32.620  27.472  1.00  0.00     0.118 C 
ENDROOT
BRANCH   1   2
ATOM      2  C   UNL A   1      32.342  31.588  27.255  1.00  0.00     0.042 C 
BRANCH   2   3
ATOM      3  C   UNL A   1      32.881  30.181  27.099  1.00  0.00     0.117 C 
BRANCH   3   4
ATOM      4  N   UNL A   1      33.238  29.825  25.743  1.00  0.00    -0.356 N 
ATOM      5  C   UNL A   1      33.078  28.551  25.271  1.00  0.00     0.226 C 
ATOM      6  O   UNL A   1      33.659  27.612  25.806  1.00  0.00    -0.274 OA
ATOM      7  H   UNL A   1      33.604  30.516  25.145  1.00  0.00     0.163 HD
BRANCH   5   8
ATOM      8  C   UNL A   1      32.112  28.390  24.070  1.00  0.00     0.050 C 
ATOM      9  C   UNL A   1      32.567  21.766  24.152  1.00  0.00    -0.045 A 
ATOM     10  C   UNL A   1      33.006  22.208  22.902  1.00  0.00     0.004 A 
ATOM     11  C   UNL A   1      31.894  22.700  24.950  1.00  0.00     0.016 A 
ATOM     12  C   UNL A   1      32.854  23.543  22.512  1.00  0.00     0.005 A 
ATOM     13  C   UNL A   1      31.719  24.043  24.545  1.00  0.00     0.022 A 
ATOM     14  C   UNL A   1      32.241  24.508  23.340  1.00  0.00    -0.031 A 
ATOM     15  C   UNL A   1      30.945  24.918  25.441  1.00  0.00     0.163 C 
ATOM     16  C   UNL A   1      32.191  25.976  22.899  1.00  0.00    -0.003 C 
ATOM     17  C   UNL A   1      31.027  26.402  25.268  1.00  0.00     0.086 C 
ATOM     18  O   UNL A   1      30.298  24.432  26.367  1.00  0.00    -0.294 OA
ATOM     19  C   UNL A   1      31.470  26.958  23.905  1.00  0.00     0.022 C 
ATOM     20  C   UNL A   1      33.647  26.414  22.602  1.00  0.00     0.012 C 
ATOM     21  C   UNL A   1      31.401  26.032  21.553  1.00  0.00     0.017 C 
ATOM     22  C   UNL A   1      33.823  27.861  22.173  1.00  0.00     0.002 C 
ATOM     23  C   UNL A   1      32.855  28.855  22.797  1.00  0.00     0.017 C 
ATOM     24  C   UNL A   1      30.971  29.424  24.299  1.00  0.00     0.022 C 
BRANCH   9  25
ATOM     25  C   UNL A   1      32.784  20.314  24.564  1.00  0.00     0.013 C 
ATOM     26  C   UNL A   1      32.333  19.332  23.470  1.00  0.00     0.012 C 
ATOM     27  C   UNL A   1      34.222  19.955  24.963  1.00  0.00     0.012 C 
ENDBRANCH   9  25
ENDBRANCH   5   8
ENDBRANCH   3   4
ENDBRANCH   2   3
ENDBRANCH   1   2
BRANCH   1  28
ATOM     28  N   UNL A   1      32.907  33.952  27.759  1.00  0.00    -0.352 N 
ATOM     29  C   UNL A   1      33.224  34.811  28.786  1.00  0.00     0.251 C 
ATOM     30  H   UNL A   1      32.228  34.281  27.127  1.00  0.00     0.163 HD
ATOM     31  O   UNL A   1      32.557  35.826  28.974  1.00  0.00    -0.269 OA
BRANCH  29  32
ATOM     32  C   UNL A   1      34.345  34.464  29.678  1.00  0.00     0.039 A 
ATOM     33  C   UNL A   1      35.656  34.656  29.241  1.00  0.00     0.014 A 
ATOM     34  C   UNL A   1      34.086  33.844  30.902  1.00  0.00     0.014 A 
ATOM     35  C   UNL A   1      36.693  34.027  29.915  1.00  0.00     0.010 A 
ATOM     36  C   UNL A   1      35.147  33.304  31.632  1.00  0.00     0.010 A 
ATOM     37  C   UNL A   1      36.450  33.328  31.110  1.00  0.00    -0.014 A 
BRANCH  37  38
ATOM     38  C   UNL A   1      37.571  32.619  31.777  1.00  0.00     0.031 A 
ATOM     39  C   UNL A   1      38.296  31.491  31.088  1.00  0.00     0.074 A 
ATOM     40  C   UNL A   1      37.973  33.032  32.995  1.00  0.00     0.049 A 
ATOM     41  N   UNL A   1      39.294  30.769  31.529  1.00  0.00    -0.248 NA
ATOM     42  C   UNL A   1      37.846  31.118  29.736  1.00  0.00     0.031 C 
ATOM     43  C   UNL A   1      37.349  34.109  33.766  1.00  0.00     0.029 A 
ATOM     44  N   UNL A   1      39.009  32.612  33.789  1.00  0.00    -0.354 N 
ATOM     45  C   UNL A   1      39.558  29.831  30.538  1.00  0.00     0.074 A 
ATOM     46  C   UNL A   1      38.617  30.072  29.467  1.00  0.00     0.031 C 
ATOM     47  C   UNL A   1      38.042  34.299  34.897  1.00  0.00     0.029 A 
ATOM     48  C   UNL A   1      39.119  33.318  34.963  1.00  0.00     0.049 A 
ATOM     49  H   UNL A   1      39.615  31.877  33.542  1.00  0.00     0.167 HD
ATOM     50  C   UNL A   1      40.511  28.870  30.514  1.00  0.00     0.034 A 
ATOM     51  C   UNL A   1      39.981  33.187  35.989  1.00  0.00     0.034 A 
ATOM     52  C   UNL A   1      41.493  28.676  31.547  1.00  0.00     0.049 A 
ATOM     53  C   UNL A   1      41.036  32.125  35.929  1.00  0.00     0.074 A 
ATOM     54  C   UNL A   1      42.529  27.759  31.582  1.00  0.00     0.029 A 
ATOM     55  N   UNL A   1      41.572  29.417  32.715  1.00  0.00    -0.354 N 
ATOM     56  N   UNL A   1      41.302  31.288  34.956  1.00  0.00    -0.248 NA
ATOM     57  C   UNL A   1      41.914  31.991  37.099  1.00  0.00     0.031 C 
ATOM     58  C   UNL A   1      43.234  27.944  32.775  1.00  0.00     0.029 A 
ATOM     59  C   UNL A   1      42.638  28.977  33.479  1.00  0.00     0.049 A 
ATOM     60  H   UNL A   1      40.960  30.147  32.964  1.00  0.00     0.167 HD
ATOM     61  C   UNL A   1      42.381  30.531  35.393  1.00  0.00     0.074 A 
ATOM     62  C   UNL A   1      42.737  31.024  36.708  1.00  0.00     0.031 C 
ATOM     63  C   UNL A   1      43.006  29.506  34.767  1.00  0.00     0.034 A 
BRANCH  50  64
ATOM     64  C   UNL A   1      40.590  27.973  29.309  1.00  0.00     0.023 A 
ATOM     65  C   UNL A   1      39.679  26.906  29.185  1.00  0.00     0.012 A 
ATOM     66  C   UNL A   1      41.478  28.257  28.254  1.00  0.00     0.148 A 
ATOM     67  C   UNL A   1      39.655  26.128  28.029  1.00  0.00     0.002 A 
ATOM     68  C   UNL A   1      41.430  27.493  27.092  1.00  0.00     0.091 A 
ATOM     69  F   UNL A   1      42.343  29.271  28.401  1.00  0.00    -0.205 F 
ATOM     70  C   UNL A   1      40.520  26.428  26.980  1.00  0.00     0.022 A 
BRANCH  68  71
ATOM     71  S   UNL A   1      42.463  27.827  25.661  1.00  0.00     0.127 S 
ATOM     72  O   UNL A   1      43.785  27.950  26.275  1.00  0.00    -0.237 OA
ATOM     73  O   UNL A   1      42.273  26.619  24.857  1.00  0.00    -0.237 OA
ATOM     74  O   UNL A   1      41.943  29.049  25.064  1.00  0.00    -0.744 OA
ENDBRANCH  68  71
ENDBRANCH  50  64
BRANCH  51  75
ATOM     75  C   UNL A   1      39.885  34.128  37.136  1.00  0.00     0.023 A 
ATOM     76  C   UNL A   1      40.303  35.461  36.967  1.00  0.00     0.012 A 
ATOM     77  C   UNL A   1      39.293  33.735  38.352  1.00  0.00     0.148 A 
ATOM     78  C   UNL A   1      40.133  36.389  37.994  1.00  0.00     0.002 A 
ATOM     79  C   UNL A   1      39.084  34.675  39.351  1.00  0.00     0.091 A 
ATOM     80  F   UNL A   1      38.910  32.458  38.485  1.00  0.00    -0.205 F 
ATOM     81  C   UNL A   1      39.512  36.001  39.179  1.00  0.00     0.022 A 
BRANCH  79  82
ATOM     82  S   UNL A   1      38.185  34.299  40.860  1.00  0.00     0.127 S 
ATOM     83  O   UNL A   1      37.049  33.537  40.348  1.00  0.00    -0.237 OA
ATOM     84  O   UNL A   1      39.168  33.513  41.606  1.00  0.00    -0.237 OA
ATOM     85  O   UNL A   1      37.859  35.586  41.460  1.00  0.00    -0.744 OA
ENDBRANCH  79  82
ENDBRANCH  51  75
BRANCH  63  86
ATOM     86  C   UNL A   1      44.139  28.831  35.484  1.00  0.00     0.023 A 
ATOM     87  C   UNL A   1      45.442  29.343  35.339  1.00  0.00     0.012 A 
ATOM     88  C   UNL A   1      43.899  27.777  36.386  1.00  0.00     0.148 A 
ATOM     89  C   UNL A   1      46.495  28.811  36.080  1.00  0.00     0.002 A 
ATOM     90  C   UNL A   1      44.947  27.272  37.144  1.00  0.00     0.091 A 
ATOM     91  F   UNL A   1      42.649  27.304  36.496  1.00  0.00    -0.205 F 
ATOM     92  C   UNL A   1      46.247  27.785  36.989  1.00  0.00     0.022 A 
BRANCH  90  93
ATOM     93  S   UNL A   1      44.717  26.003  38.393  1.00  0.00     0.127 S 
ATOM     94  O   UNL A   1      46.083  25.807  38.876  1.00  0.00    -0.237 OA
ATOM     95  O   UNL A   1      43.822  26.662  39.344  1.00  0.00    -0.237 OA
ATOM     96  O   UNL A   1      44.135  24.858  37.705  1.00  0.00    -0.744 OA
ENDBRANCH  90  93
ENDBRANCH  63  86
ENDBRANCH  37  38
ENDBRANCH  29  32
ENDBRANCH   1  28
TORSDOF 14
ENDMDL
MODEL 3
REMARK VINA RESULT:     -13.1      1.684      2.140
REMARK SMILES CC(C)c1ccc2c(c1)C(=O)C[C@@H]1[C@@]2(C)CCC[C@]1(C)C(=O)NCCCNC(=O)c1ccc(-c2c3nc(c(-c4cccc(S(=O)(=O)[O-])c4F)c4ccc([nH]4)c(-c4cccc(S(=O)(=O)[O-])c4F)c4nc(c(-c5cccc(S(=O)(=O)[O-])c5F)c5ccc2[nH]5)C=C4)C=C3)cc1
REMARK SMILES IDX 26 1 25 2 24 3 23 4 21 5 22 6 19 8 4 9 5 10 9 11 6 12 8 13
REMARK SMILES IDX 7 14 10 15 14 16 12 17 11 18 13 19 16 20 15 21 17 22 18 23
REMARK SMILES IDX 20 24 2 25 1 26 3 27 27 28 28 29 29 31 30 32 31 33 92 34
REMARK SMILES IDX 32 35 91 36 33 37 34 38 35 39 85 40 36 41 90 42 84 43 86 44
REMARK SMILES IDX 37 45 89 46 83 47 82 48 38 50 70 51 50 52 69 53 51 54 54 55
REMARK SMILES IDX 68 56 87 57 52 58 53 59 67 61 88 62 55 63 39 64 40 65 48 66
REMARK SMILES IDX 41 67 43 68 49 69 42 70 44 71 45 72 46 73 47 74 71 75 72 76
REMARK SMILES IDX 80 77 73 78 75 79 81 80 74 81 76 82 77 83 78 84 79 85 56 86
REMARK SMILES IDX 57 87 65 88 58 89 60 90 66 91 59 92 61 93 62 94 63 95 64 96
REMARK H PARENT 23 7 27 30 86 49 54 60
REMARK Flexibility Score: inf
ROOT
ATOM      1  C   UNL A   1      33.636  32.549  27.287  1.00  0.00     0.118 C 
ENDROOT
BRANCH   1   2
ATOM      2  C   UNL A   1      32.745  31.359  27.600  1.00  0.00     0.042 C 
BRANCH   2   3
ATOM      3  C   UNL A   1      33.420  30.030  27.332  1.00  0.00     0.117 C 
BRANCH   3   4
ATOM      4  N   UNL A   1      33.636  29.741  25.930  1.00  0.00    -0.356 N 
ATOM      5  C   UNL A   1      33.394  28.500  25.410  1.00  0.00     0.226 C 
ATOM      6  O   UNL A   1      33.995  27.518  25.835  1.00  0.00    -0.274 OA
ATOM      7  H   UNL A   1      33.963  30.455  25.338  1.00  0.00     0.163 HD
BRANCH   5   8
ATOM      8  C   UNL A   1      32.314  28.430  24.300  1.00  0.00     0.050 C 
ATOM      9  C   UNL A   1      32.485  21.795  24.078  1.00  0.00    -0.045 A 
ATOM     10  C   UNL A   1      32.823  22.273  22.811  1.00  0.00     0.004 A 
ATOM     11  C   UNL A   1      31.931  22.720  24.973  1.00  0.00     0.016 A 
ATOM     12  C   UNL A   1      32.695  23.629  22.489  1.00  0.00     0.005 A 
ATOM     13  C   UNL A   1      31.778  24.085  24.640  1.00  0.00     0.022 A 
ATOM     14  C   UNL A   1      32.204  24.580  23.410  1.00  0.00    -0.031 A 
ATOM     15  C   UNL A   1      31.130  24.950  25.639  1.00  0.00     0.163 C 
ATOM     16  C   UNL A   1      32.177  26.068  23.033  1.00  0.00    -0.003 C 
ATOM     17  C   UNL A   1      31.260  26.436  25.518  1.00  0.00     0.086 C 
ATOM     18  O   UNL A   1      30.551  24.451  26.603  1.00  0.00    -0.294 OA
ATOM     19  C   UNL A   1      31.597  27.032  24.141  1.00  0.00     0.022 C 
ATOM     20  C   UNL A   1      33.617  26.460  22.616  1.00  0.00     0.012 C 
ATOM     21  C   UNL A   1      31.268  26.212  21.772  1.00  0.00     0.017 C 
ATOM     22  C   UNL A   1      33.815  27.915  22.230  1.00  0.00     0.002 C 
ATOM     23  C   UNL A   1      32.954  28.919  22.982  1.00  0.00     0.017 C 
ATOM     24  C   UNL A   1      31.246  29.497  24.678  1.00  0.00     0.022 C 
BRANCH   9  25
ATOM     25  C   UNL A   1      32.675  20.319  24.410  1.00  0.00     0.013 C 
ATOM     26  C   UNL A   1      32.293  19.410  23.230  1.00  0.00     0.012 C 
ATOM     27  C   UNL A   1      34.086  19.930  24.873  1.00  0.00     0.012 C 
ENDBRANCH   9  25
ENDBRANCH   5   8
ENDBRANCH   3   4
ENDBRANCH   2   3
ENDBRANCH   1   2
BRANCH   1  28
ATOM     28  N   UNL A   1      33.012  33.826  27.628  1.00  0.00    -0.352 N 
ATOM     29  C   UNL A   1      33.249  34.650  28.705  1.00  0.00     0.251 C 
ATOM     30  H   UNL A   1      32.326  34.142  26.997  1.00  0.00     0.163 HD
ATOM     31  O   UNL A   1      32.512  35.607  28.928  1.00  0.00    -0.269 OA
BRANCH  29  32
ATOM     32  C   UNL A   1      34.372  34.332  29.604  1.00  0.00     0.039 A 
ATOM     33  C   UNL A   1      35.671  34.676  29.230  1.00  0.00     0.014 A 
ATOM     34  C   UNL A   1      34.138  33.592  30.765  1.00  0.00     0.014 A 
ATOM     35  C   UNL A   1      36.743  34.088  29.887  1.00  0.00     0.010 A 
ATOM     36  C   UNL A   1      35.224  33.091  31.487  1.00  0.00     0.010 A 
ATOM     37  C   UNL A   1      36.533  33.274  31.014  1.00  0.00    -0.014 A 
BRANCH  37  38
ATOM     38  C   UNL A   1      37.696  32.615  31.661  1.00  0.00     0.031 A 
ATOM     39  C   UNL A   1      38.151  33.021  33.040  1.00  0.00     0.074 A 
ATOM     40  C   UNL A   1      38.313  31.604  31.019  1.00  0.00     0.049 A 
ATOM     41  N   UNL A   1      39.145  32.547  33.746  1.00  0.00    -0.248 NA
ATOM     42  C   UNL A   1      37.404  34.097  33.714  1.00  0.00     0.031 C 
ATOM     43  C   UNL A   1      37.969  31.123  29.680  1.00  0.00     0.029 A 
ATOM     44  N   UNL A   1      39.344  30.789  31.410  1.00  0.00    -0.354 N 
ATOM     45  C   UNL A   1      39.174  33.293  34.918  1.00  0.00     0.074 A 
ATOM     46  C   UNL A   1      38.098  34.255  34.834  1.00  0.00     0.031 C 
ATOM     47  C   UNL A   1      38.738  30.067  29.380  1.00  0.00     0.029 A 
ATOM     48  C   UNL A   1      39.672  29.836  30.476  1.00  0.00     0.049 A 
ATOM     49  H   UNL A   1      39.804  30.877  32.275  1.00  0.00     0.167 HD
ATOM     50  C   UNL A   1      40.010  33.175  35.976  1.00  0.00     0.034 A 
ATOM     51  C   UNL A   1      40.626  28.886  30.488  1.00  0.00     0.034 A 
ATOM     52  C   UNL A   1      41.035  32.173  36.092  1.00  0.00     0.049 A 
ATOM     53  C   UNL A   1      41.527  28.766  31.680  1.00  0.00     0.074 A 
ATOM     54  C   UNL A   1      41.895  31.946  37.152  1.00  0.00     0.029 A 
ATOM     55  N   UNL A   1      41.328  31.224  35.125  1.00  0.00    -0.354 N 
ATOM     56  N   UNL A   1      41.498  29.446  32.800  1.00  0.00    -0.248 NA
ATOM     57  C   UNL A   1      42.585  27.749  31.617  1.00  0.00     0.031 C 
ATOM     58  C   UNL A   1      42.712  30.860  36.825  1.00  0.00     0.029 A 
ATOM     59  C   UNL A   1      42.358  30.411  35.563  1.00  0.00     0.049 A 
ATOM     60  H   UNL A   1      40.873  31.142  34.257  1.00  0.00     0.167 HD
ATOM     61  C   UNL A   1      42.528  28.936  33.578  1.00  0.00     0.074 A 
ATOM     62  C   UNL A   1      43.148  27.874  32.813  1.00  0.00     0.031 C 
ATOM     63  C   UNL A   1      42.936  29.330  34.808  1.00  0.00     0.034 A 
BRANCH  50  64
ATOM     64  C   UNL A   1      39.830  34.116  37.136  1.00  0.00     0.023 A 
ATOM     65  C   UNL A   1      40.179  35.472  36.983  1.00  0.00     0.012 A 
ATOM     66  C   UNL A   1      39.210  33.686  38.326  1.00  0.00     0.148 A 
ATOM     67  C   UNL A   1      39.918  36.388  38.001  1.00  0.00     0.002 A 
ATOM     68  C   UNL A   1      38.929  34.610  39.326  1.00  0.00     0.091 A 
ATOM     69  F   UNL A   1      38.898  32.388  38.451  1.00  0.00    -0.205 F 
ATOM     70  C   UNL A   1      39.285  35.961  39.165  1.00  0.00     0.022 A 
BRANCH  68  71
ATOM     71  S   UNL A   1      38.069  34.177  40.842  1.00  0.00     0.127 S 
ATOM     72  O   UNL A   1      39.088  33.399  41.546  1.00  0.00    -0.237 OA
ATOM     73  O   UNL A   1      37.795  35.491  41.426  1.00  0.00    -0.237 OA
ATOM     74  O   UNL A   1      36.888  33.428  40.437  1.00  0.00    -0.744 OA
ENDBRANCH  68  71
ENDBRANCH  50  64
BRANCH  51  75
ATOM     75  C   UNL A   1      40.732  27.955  29.334  1.00  0.00     0.023 A 
ATOM     76  C   UNL A   1      39.864  26.851  29.260  1.00  0.00     0.012 A 
ATOM     77  C   UNL A   1      41.615  28.216  28.269  1.00  0.00     0.148 A 
ATOM     78  C   UNL A   1      39.874  26.018  28.141  1.00  0.00     0.002 A 
ATOM     79  C   UNL A   1      41.587  27.410  27.138  1.00  0.00     0.091 A 
ATOM     80  F   UNL A   1      42.434  29.272  28.369  1.00  0.00    -0.205 F 
ATOM     81  C   UNL A   1      40.724  26.305  27.075  1.00  0.00     0.022 A 
BRANCH  79  82
ATOM     82  S   UNL A   1      42.555  27.773  25.669  1.00  0.00     0.127 S 
ATOM     83  O   UNL A   1      42.305  26.591  24.848  1.00  0.00    -0.237 OA
ATOM     84  O   UNL A   1      41.923  29.002  25.189  1.00  0.00    -0.237 OA
ATOM     85  O   UNL A   1      43.927  27.939  26.129  1.00  0.00    -0.744 OA
ENDBRANCH  79  82
ENDBRANCH  51  75
BRANCH  63  86
ATOM     86  C   UNL A   1      44.111  28.622  35.419  1.00  0.00     0.023 A 
ATOM     87  C   UNL A   1      45.412  29.061  35.107  1.00  0.00     0.012 A 
ATOM     88  C   UNL A   1      43.927  27.613  36.383  1.00  0.00     0.148 A 
ATOM     89  C   UNL A   1      46.517  28.501  35.744  1.00  0.00     0.002 A 
ATOM     90  C   UNL A   1      45.030  27.080  37.037  1.00  0.00     0.091 A 
ATOM     91  F   UNL A   1      42.676  27.209  36.652  1.00  0.00    -0.205 F 
ATOM     92  C   UNL A   1      46.326  27.520  36.716  1.00  0.00     0.022 A 
BRANCH  90  93
ATOM     93  S   UNL A   1      44.885  25.867  38.352  1.00  0.00     0.127 S 
ATOM     94  O   UNL A   1      46.285  25.649  38.713  1.00  0.00    -0.237 OA
ATOM     95  O   UNL A   1      44.101  26.590  39.355  1.00  0.00    -0.237 OA
ATOM     96  O   UNL A   1      44.210  24.715  37.769  1.00  0.00    -0.744 OA
ENDBRANCH  90  93
ENDBRANCH  63  86
ENDBRANCH  37  38
ENDBRANCH  29  32
ENDBRANCH   1  28
TORSDOF 14
ENDMDL
