MODEL 1
REMARK VINA RESULT:     -11.4      0.000      0.000
REMARK SMILES Cc1ccc2occ(/C=N/NC(=O)CCC(=O)Nc3ccc(C(=O)NCCCNC(=O)c4ccc(-c5c6nc(c(-c7cccc(S(=O)(=O)[O-])c7F)c7ccc([nH]7)c(-c7cccc(S(=O)(=O)[O-])c7F)c7nc(c(-c8cccc(S(=O)(=O)[O-])c8F)c8ccc5[nH]8)C=C7)C=C6)cc4)cc3)c(=O)c2c1
REMARK SMILES IDX 23 1 24 2 25 3 22 5 19 6 20 7 96 8 21 9 95 10 18 11 16 12
REMARK SMILES IDX 17 13 15 15 14 16 12 17 11 18 13 20 10 21 9 22 8 23 1 24
REMARK SMILES IDX 2 25 3 26 100 27 4 28 99 29 5 30 97 31 6 32 98 33 7 34 26 35
REMARK SMILES IDX 27 36 28 37 29 38 30 39 31 41 32 42 33 43 94 44 34 45 93 46
REMARK SMILES IDX 35 47 36 48 37 49 87 50 38 51 92 52 86 53 88 54 39 55 91 56
REMARK SMILES IDX 85 57 84 58 40 60 72 61 52 62 71 63 53 64 56 65 70 66 89 67
REMARK SMILES IDX 54 68 55 69 69 71 90 72 57 73 41 74 42 75 50 76 43 77 45 78
REMARK SMILES IDX 51 79 44 80 46 81 47 82 48 83 49 84 73 85 74 86 82 87 75 88
REMARK SMILES IDX 77 89 83 90 76 91 78 92 79 93 80 94 81 95 58 96 59 97 67 98
REMARK SMILES IDX 60 99 62 100 68 101 61 102 63 103 64 104 65 105 66 106
REMARK H PARENT 25 4 18 14 11 19 29 40 88 59 56 70
REMARK Flexibility Score: inf
ROOT
ATOM      1  C   UNL A   1      34.770  30.212  27.405  1.00  0.00     0.251 C 
ATOM      2  O   UNL A   1      35.999  30.161  27.439  1.00  0.00    -0.269 OA
ATOM      3  N   UNL A   1      34.156  31.434  27.614  1.00  0.00    -0.352 N 
ATOM      4  H   UNL A   1      34.789  32.149  27.849  1.00  0.00     0.163 HD
ENDROOT
BRANCH   1   5
ATOM      5  C   UNL A   1      34.013  28.980  27.067  1.00  0.00     0.039 A 
ATOM      6  C   UNL A   1      32.298  26.880  26.246  1.00  0.00     0.041 A 
ATOM      7  C   UNL A   1      33.522  27.078  25.603  1.00  0.00     0.027 A 
ATOM      8  C   UNL A   1      31.992  27.743  27.267  1.00  0.00     0.027 A 
ATOM      9  C   UNL A   1      34.348  28.166  25.973  1.00  0.00     0.016 A 
ATOM     10  C   UNL A   1      32.901  28.632  27.789  1.00  0.00     0.016 A 
BRANCH   6  11
ATOM     11  N   UNL A   1      31.474  25.780  25.952  1.00  0.00    -0.326 N 
ATOM     12  C   UNL A   1      30.229  25.696  25.374  1.00  0.00     0.224 C 
ATOM     13  O   UNL A   1      29.634  24.614  25.473  1.00  0.00    -0.275 OA
ATOM     14  H   UNL A   1      31.860  24.911  26.205  1.00  0.00     0.169 HD
BRANCH  12  15
ATOM     15  C   UNL A   1      29.635  26.800  24.496  1.00  0.00     0.110 C 
BRANCH  15  16
ATOM     16  C   UNL A   1      30.492  27.940  23.913  1.00  0.00     0.112 C 
BRANCH  16  17
ATOM     17  C   UNL A   1      30.905  27.965  22.432  1.00  0.00     0.240 C 
ATOM     18  N   UNL A   1      31.233  26.797  21.781  1.00  0.00    -0.247 N 
ATOM     19  H   UNL A   1      31.489  26.862  20.833  1.00  0.00     0.193 HD
ATOM     20  O   UNL A   1      30.873  29.024  21.795  1.00  0.00    -0.273 OA
BRANCH  18  21
ATOM     21  N   UNL A   1      31.233  25.562  22.346  1.00  0.00    -0.180 NA
ATOM     22  C   UNL A   1      32.405  25.018  22.346  1.00  0.00     0.148 C 
BRANCH  22  23
ATOM     23  C   UNL A   1      32.785  23.853  23.141  1.00  0.00     0.078 A 
ATOM     24  C   UNL A   1      37.739  20.529  24.867  1.00  0.00     0.044 C 
ATOM     25  C   UNL A   1      36.284  20.849  24.715  1.00  0.00    -0.050 A 
ATOM     26  C   UNL A   1      35.285  19.891  24.946  1.00  0.00     0.007 A 
ATOM     27  C   UNL A   1      35.912  22.132  24.318  1.00  0.00     0.019 A 
ATOM     28  C   UNL A   1      33.931  20.210  24.781  1.00  0.00     0.048 A 
ATOM     29  C   UNL A   1      34.564  22.426  24.115  1.00  0.00     0.066 A 
ATOM     30  C   UNL A   1      33.569  21.482  24.353  1.00  0.00     0.137 A 
ATOM     31  C   UNL A   1      34.193  23.718  23.543  1.00  0.00     0.201 A 
ATOM     32  O   UNL A   1      32.232  21.741  24.156  1.00  0.00    -0.463 OA
ATOM     33  O   UNL A   1      35.016  24.606  23.366  1.00  0.00    -0.288 OA
ATOM     34  C   UNL A   1      31.912  22.904  23.488  1.00  0.00     0.209 A 
ENDBRANCH  22  23
ENDBRANCH  18  21
ENDBRANCH  16  17
ENDBRANCH  15  16
ENDBRANCH  12  15
ENDBRANCH   6  11
ENDBRANCH   1   5
BRANCH   3  35
ATOM     35  C   UNL A   1      32.764  31.891  27.561  1.00  0.00     0.118 C 
BRANCH  35  36
ATOM     36  C   UNL A   1      32.666  33.414  27.382  1.00  0.00     0.042 C 
BRANCH  36  37
ATOM     37  C   UNL A   1      33.700  34.157  28.219  1.00  0.00     0.118 C 
BRANCH  37  38
ATOM     38  N   UNL A   1      33.072  34.887  29.315  1.00  0.00    -0.352 N 
ATOM     39  C   UNL A   1      33.348  34.872  30.658  1.00  0.00     0.251 C 
ATOM     40  H   UNL A   1      32.338  35.485  29.048  1.00  0.00     0.163 HD
ATOM     41  O   UNL A   1      32.585  35.438  31.432  1.00  0.00    -0.269 OA
BRANCH  39  42
ATOM     42  C   UNL A   1      34.540  34.165  31.173  1.00  0.00     0.039 A 
ATOM     43  C   UNL A   1      34.350  33.007  31.931  1.00  0.00     0.014 A 
ATOM     44  C   UNL A   1      35.830  34.647  30.939  1.00  0.00     0.014 A 
ATOM     45  C   UNL A   1      35.456  32.304  32.413  1.00  0.00     0.010 A 
ATOM     46  C   UNL A   1      36.932  33.905  31.356  1.00  0.00     0.010 A 
ATOM     47  C   UNL A   1      36.757  32.731  32.103  1.00  0.00    -0.014 A 
BRANCH  47  48
ATOM     48  C   UNL A   1      37.944  31.950  32.531  1.00  0.00     0.031 A 
ATOM     49  C   UNL A   1      38.649  32.280  33.818  1.00  0.00     0.074 A 
ATOM     50  C   UNL A   1      38.440  31.001  31.712  1.00  0.00     0.049 A 
ATOM     51  N   UNL A   1      39.733  31.750  34.323  1.00  0.00    -0.248 NA
ATOM     52  C   UNL A   1      38.073  33.362  34.635  1.00  0.00     0.031 C 
ATOM     53  C   UNL A   1      37.885  30.637  30.406  1.00  0.00     0.029 A 
ATOM     54  N   UNL A   1      39.536  30.186  31.845  1.00  0.00    -0.354 N 
ATOM     55  C   UNL A   1      39.991  32.456  35.492  1.00  0.00     0.074 A 
ATOM     56  C   UNL A   1      38.968  33.473  35.606  1.00  0.00     0.031 C 
ATOM     57  C   UNL A   1      38.639  29.669  29.862  1.00  0.00     0.029 A 
ATOM     58  C   UNL A   1      39.751  29.371  30.758  1.00  0.00     0.049 A 
ATOM     59  H   UNL A   1      40.113  30.185  32.642  1.00  0.00     0.167 HD
ATOM     60  C   UNL A   1      40.977  32.260  36.401  1.00  0.00     0.034 A 
ATOM     61  C   UNL A   1      40.740  28.492  30.504  1.00  0.00     0.034 A 
ATOM     62  C   UNL A   1      41.973  31.229  36.297  1.00  0.00     0.049 A 
ATOM     63  C   UNL A   1      41.813  28.283  31.538  1.00  0.00     0.074 A 
ATOM     64  C   UNL A   1      42.961  30.892  37.205  1.00  0.00     0.029 A 
ATOM     65  N   UNL A   1      42.120  30.375  35.213  1.00  0.00    -0.354 N 
ATOM     66  N   UNL A   1      41.952  28.853  32.711  1.00  0.00    -0.248 NA
ATOM     67  C   UNL A   1      42.848  27.286  31.229  1.00  0.00     0.031 C 
ATOM     68  C   UNL A   1      43.729  29.861  36.654  1.00  0.00     0.029 A 
ATOM     69  C   UNL A   1      43.193  29.525  35.420  1.00  0.00     0.049 A 
ATOM     70  H   UNL A   1      41.545  30.375  34.414  1.00  0.00     0.167 HD
ATOM     71  C   UNL A   1      43.063  28.256  33.296  1.00  0.00     0.074 A 
ATOM     72  C   UNL A   1      43.549  27.268  32.355  1.00  0.00     0.031 C 
ATOM     73  C   UNL A   1      43.636  28.511  34.497  1.00  0.00     0.034 A 
BRANCH  60  74
ATOM     74  C   UNL A   1      41.004  33.161  37.611  1.00  0.00     0.023 A 
ATOM     75  C   UNL A   1      40.213  32.845  38.735  1.00  0.00     0.012 A 
ATOM     76  C   UNL A   1      41.849  34.286  37.657  1.00  0.00     0.148 A 
ATOM     77  C   UNL A   1      40.231  33.658  39.868  1.00  0.00     0.002 A 
ATOM     78  C   UNL A   1      41.899  35.063  38.808  1.00  0.00     0.091 A 
ATOM     79  F   UNL A   1      42.580  34.581  36.573  1.00  0.00    -0.205 F 
ATOM     80  C   UNL A   1      41.081  34.759  39.909  1.00  0.00     0.022 A 
BRANCH  78  81
ATOM     81  S   UNL A   1      43.021  36.454  38.993  1.00  0.00     0.127 S 
ATOM     82  O   UNL A   1      42.629  36.977  40.300  1.00  0.00    -0.237 OA
ATOM     83  O   UNL A   1      44.329  35.799  38.967  1.00  0.00    -0.237 OA
ATOM     84  O   UNL A   1      42.759  37.334  37.863  1.00  0.00    -0.744 OA
ENDBRANCH  78  81
ENDBRANCH  60  74
BRANCH  61  85
ATOM     85  C   UNL A   1      40.729  27.698  29.243  1.00  0.00     0.023 A 
ATOM     86  C   UNL A   1      39.809  26.642  29.098  1.00  0.00     0.012 A 
ATOM     87  C   UNL A   1      41.606  27.995  28.181  1.00  0.00     0.148 A 
ATOM     88  C   UNL A   1      39.788  25.872  27.935  1.00  0.00     0.002 A 
ATOM     89  C   UNL A   1      41.541  27.260  27.003  1.00  0.00     0.091 A 
ATOM     90  F   UNL A   1      42.479  29.000  28.341  1.00  0.00    -0.205 F 
ATOM     91  C   UNL A   1      40.646  26.186  26.885  1.00  0.00     0.022 A 
BRANCH  89  92
ATOM     92  S   UNL A   1      42.518  27.670  25.553  1.00  0.00     0.127 S 
ATOM     93  O   UNL A   1      43.865  27.753  26.111  1.00  0.00    -0.237 OA
ATOM     94  O   UNL A   1      42.278  26.513  24.691  1.00  0.00    -0.237 OA
ATOM     95  O   UNL A   1      41.967  28.920  25.046  1.00  0.00    -0.744 OA
ENDBRANCH  89  92
ENDBRANCH  61  85
BRANCH  73  96
ATOM     96  C   UNL A   1      44.830  27.681  34.894  1.00  0.00     0.023 A 
ATOM     97  C   UNL A   1      46.132  28.127  34.592  1.00  0.00     0.012 A 
ATOM     98  C   UNL A   1      44.659  26.493  35.631  1.00  0.00     0.148 A 
ATOM     99  C   UNL A   1      47.244  27.385  34.989  1.00  0.00     0.002 A 
ATOM    100  C   UNL A   1      45.773  25.787  36.070  1.00  0.00     0.091 A 
ATOM    101  F   UNL A   1      43.412  26.077  35.893  1.00  0.00    -0.205 F 
ATOM    102  C   UNL A   1      47.065  26.223  35.738  1.00  0.00     0.022 A 
BRANCH 100 103
ATOM    103  S   UNL A   1      45.643  24.337  37.123  1.00  0.00     0.127 S 
ATOM    104  O   UNL A   1      45.003  23.376  36.227  1.00  0.00    -0.237 OA
ATOM    105  O   UNL A   1      47.046  24.050  37.425  1.00  0.00    -0.237 OA
ATOM    106  O   UNL A   1      44.848  24.743  38.273  1.00  0.00    -0.744 OA
ENDBRANCH 100 103
ENDBRANCH  73  96
ENDBRANCH  47  48
ENDBRANCH  39  42
ENDBRANCH  37  38
ENDBRANCH  36  37
ENDBRANCH  35  36
ENDBRANCH   3  35
TORSDOF 19
ENDMDL
MODEL 2
REMARK VINA RESULT:     -11.3      4.926     10.850
REMARK SMILES Cc1ccc2occ(/C=N/NC(=O)CCC(=O)Nc3ccc(C(=O)NCCCNC(=O)c4ccc(-c5c6nc(c(-c7cccc(S(=O)(=O)[O-])c7F)c7ccc([nH]7)c(-c7cccc(S(=O)(=O)[O-])c7F)c7nc(c(-c8cccc(S(=O)(=O)[O-])c8F)c8ccc5[nH]8)C=C7)C=C6)cc4)cc3)c(=O)c2c1
REMARK SMILES IDX 23 1 24 2 25 3 22 5 19 6 20 7 96 8 21 9 95 10 18 11 16 12
REMARK SMILES IDX 17 13 15 15 14 16 12 17 11 18 13 20 10 21 9 22 8 23 1 24
REMARK SMILES IDX 2 25 3 26 100 27 4 28 99 29 5 30 97 31 6 32 98 33 7 34 26 35
REMARK SMILES IDX 27 36 28 37 29 38 30 39 31 41 32 42 33 43 94 44 34 45 93 46
REMARK SMILES IDX 35 47 36 48 37 49 87 50 38 51 92 52 86 53 88 54 39 55 91 56
REMARK SMILES IDX 85 57 84 58 40 60 72 61 52 62 71 63 53 64 56 65 70 66 89 67
REMARK SMILES IDX 54 68 55 69 69 71 90 72 57 73 41 74 42 75 50 76 43 77 45 78
REMARK SMILES IDX 51 79 44 80 46 81 47 82 48 83 49 84 73 85 74 86 82 87 75 88
REMARK SMILES IDX 77 89 83 90 76 91 78 92 79 93 80 94 81 95 58 96 59 97 67 98
REMARK SMILES IDX 60 99 62 100 68 101 61 102 63 103 64 104 65 105 66 106
REMARK H PARENT 25 4 18 14 11 19 29 40 88 59 56 70
REMARK Flexibility Score: inf
ROOT
ATOM      1  C   UNL A   1      42.953  23.015  27.752  1.00  0.00     0.251 C 
ATOM      2  O   UNL A   1      42.286  21.990  27.619  1.00  0.00    -0.269 OA
ATOM      3  N   UNL A   1      44.321  22.894  27.915  1.00  0.00    -0.352 N 
ATOM      4  H   UNL A   1      44.620  21.959  27.982  1.00  0.00     0.163 HD
ENDROOT
BRANCH   1   5
ATOM      5  C   UNL A   1      42.269  24.330  27.655  1.00  0.00     0.039 A 
ATOM      6  C   UNL A   1      40.622  26.623  27.427  1.00  0.00     0.041 A 
ATOM      7  C   UNL A   1      41.177  26.278  28.661  1.00  0.00     0.027 A 
ATOM      8  C   UNL A   1      40.918  25.803  26.368  1.00  0.00     0.027 A 
ATOM      9  C   UNL A   1      41.948  25.098  28.786  1.00  0.00     0.016 A 
ATOM     10  C   UNL A   1      41.865  24.810  26.436  1.00  0.00     0.016 A 
BRANCH   6  11
ATOM     11  N   UNL A   1      39.900  27.815  27.245  1.00  0.00    -0.326 N 
ATOM     12  C   UNL A   1      39.660  28.879  28.084  1.00  0.00     0.224 C 
ATOM     13  O   UNL A   1      38.776  29.677  27.742  1.00  0.00    -0.275 OA
ATOM     14  H   UNL A   1      39.494  27.906  26.353  1.00  0.00     0.169 HD
BRANCH  12  15
ATOM     15  C   UNL A   1      40.528  29.199  29.303  1.00  0.00     0.110 C 
BRANCH  15  16
ATOM     16  C   UNL A   1      39.926  29.644  30.650  1.00  0.00     0.112 C 
BRANCH  16  17
ATOM     17  C   UNL A   1      39.145  28.670  31.547  1.00  0.00     0.240 C 
ATOM     18  N   UNL A   1      37.768  28.672  31.545  1.00  0.00    -0.247 N 
ATOM     19  H   UNL A   1      37.312  28.029  32.134  1.00  0.00     0.193 HD
ATOM     20  O   UNL A   1      39.748  27.828  32.221  1.00  0.00    -0.273 OA
BRANCH  18  21
ATOM     21  N   UNL A   1      36.992  29.494  30.793  1.00  0.00    -0.180 NA
ATOM     22  C   UNL A   1      36.492  30.467  31.481  1.00  0.00     0.148 C 
BRANCH  22  23
ATOM     23  C   UNL A   1      35.880  31.665  30.911  1.00  0.00     0.078 A 
ATOM     24  C   UNL A   1      32.724  36.768  32.516  1.00  0.00     0.044 C 
ATOM     25  C   UNL A   1      33.319  35.756  31.586  1.00  0.00    -0.050 A 
ATOM     26  C   UNL A   1      32.973  35.701  30.227  1.00  0.00     0.007 A 
ATOM     27  C   UNL A   1      34.234  34.832  32.089  1.00  0.00     0.019 A 
ATOM     28  C   UNL A   1      33.531  34.733  29.381  1.00  0.00     0.048 A 
ATOM     29  C   UNL A   1      34.751  33.847  31.248  1.00  0.00     0.066 A 
ATOM     30  C   UNL A   1      34.418  33.795  29.897  1.00  0.00     0.137 A 
ATOM     31  C   UNL A   1      35.579  32.786  31.814  1.00  0.00     0.201 A 
ATOM     32  O   UNL A   1      34.906  32.832  29.044  1.00  0.00    -0.463 OA
ATOM     33  O   UNL A   1      35.951  32.810  32.980  1.00  0.00    -0.288 OA
ATOM     34  C   UNL A   1      35.566  31.765  29.617  1.00  0.00     0.209 A 
ENDBRANCH  22  23
ENDBRANCH  18  21
ENDBRANCH  16  17
ENDBRANCH  15  16
ENDBRANCH  12  15
ENDBRANCH   6  11
ENDBRANCH   1   5
BRANCH   3  35
ATOM     35  C   UNL A   1      45.420  23.858  28.008  1.00  0.00     0.118 C 
BRANCH  35  36
ATOM     36  C   UNL A   1      46.397  23.734  26.829  1.00  0.00     0.042 C 
BRANCH  36  37
ATOM     37  C   UNL A   1      45.726  24.040  25.495  1.00  0.00     0.118 C 
BRANCH  37  38
ATOM     38  N   UNL A   1      46.484  25.025  24.732  1.00  0.00    -0.352 N 
ATOM     39  C   UNL A   1      46.565  26.386  24.881  1.00  0.00     0.251 C 
ATOM     40  H   UNL A   1      47.023  24.655  23.996  1.00  0.00     0.163 HD
ATOM     41  O   UNL A   1      47.133  27.050  24.021  1.00  0.00    -0.269 OA
BRANCH  39  42
ATOM     42  C   UNL A   1      45.958  27.051  26.053  1.00  0.00     0.039 A 
ATOM     43  C   UNL A   1      46.796  27.466  27.091  1.00  0.00     0.014 A 
ATOM     44  C   UNL A   1      44.577  27.243  26.147  1.00  0.00     0.014 A 
ATOM     45  C   UNL A   1      46.256  28.116  28.202  1.00  0.00     0.010 A 
ATOM     46  C   UNL A   1      44.049  27.958  27.219  1.00  0.00     0.010 A 
ATOM     47  C   UNL A   1      44.882  28.396  28.260  1.00  0.00    -0.014 A 
BRANCH  47  48
ATOM     48  C   UNL A   1      44.301  29.164  29.390  1.00  0.00     0.031 A 
ATOM     49  C   UNL A   1      43.963  28.476  30.684  1.00  0.00     0.074 A 
ATOM     50  C   UNL A   1      43.996  30.465  29.215  1.00  0.00     0.049 A 
ATOM     51  N   UNL A   1      43.395  28.968  31.754  1.00  0.00    -0.248 NA
ATOM     52  C   UNL A   1      44.283  27.042  30.781  1.00  0.00     0.031 C 
ATOM     53  C   UNL A   1      44.213  31.226  27.982  1.00  0.00     0.029 A 
ATOM     54  N   UNL A   1      43.415  31.372  30.067  1.00  0.00    -0.354 N 
ATOM     55  C   UNL A   1      43.255  27.901  32.635  1.00  0.00     0.074 A 
ATOM     56  C   UNL A   1      43.769  26.729  31.961  1.00  0.00     0.031 C 
ATOM     57  C   UNL A   1      43.777  32.483  28.159  1.00  0.00     0.029 A 
ATOM     58  C   UNL A   1      43.215  32.609  29.500  1.00  0.00     0.049 A 
ATOM     59  H   UNL A   1      43.166  31.157  30.994  1.00  0.00     0.167 HD
ATOM     60  C   UNL A   1      42.766  27.903  33.898  1.00  0.00     0.034 A 
ATOM     61  C   UNL A   1      42.633  33.717  29.998  1.00  0.00     0.034 A 
ATOM     62  C   UNL A   1      42.284  29.077  34.572  1.00  0.00     0.049 A 
ATOM     63  C   UNL A   1      42.112  33.694  31.410  1.00  0.00     0.074 A 
ATOM     64  C   UNL A   1      41.848  29.201  35.880  1.00  0.00     0.029 A 
ATOM     65  N   UNL A   1      42.160  30.330  33.991  1.00  0.00    -0.354 N 
ATOM     66  N   UNL A   1      42.131  32.715  32.282  1.00  0.00    -0.248 NA
ATOM     67  C   UNL A   1      41.519  34.939  31.919  1.00  0.00     0.031 C 
ATOM     68  C   UNL A   1      41.424  30.520  36.077  1.00  0.00     0.029 A 
ATOM     69  C   UNL A   1      41.636  31.229  34.905  1.00  0.00     0.049 A 
ATOM     70  H   UNL A   1      42.406  30.548  33.063  1.00  0.00     0.167 HD
ATOM     71  C   UNL A   1      41.591  33.236  33.453  1.00  0.00     0.074 A 
ATOM     72  C   UNL A   1      41.272  34.623  33.183  1.00  0.00     0.031 C 
ATOM     73  C   UNL A   1      41.370  32.619  34.639  1.00  0.00     0.034 A 
BRANCH  60  74
ATOM     74  C   UNL A   1      42.761  26.594  34.649  1.00  0.00     0.023 A 
ATOM     75  C   UNL A   1      41.550  25.891  34.821  1.00  0.00     0.012 A 
ATOM     76  C   UNL A   1      43.958  26.035  35.137  1.00  0.00     0.148 A 
ATOM     77  C   UNL A   1      41.525  24.675  35.502  1.00  0.00     0.002 A 
ATOM     78  C   UNL A   1      43.931  24.798  35.771  1.00  0.00     0.091 A 
ATOM     79  F   UNL A   1      45.096  26.725  34.981  1.00  0.00    -0.205 F 
ATOM     80  C   UNL A   1      42.715  24.124  35.968  1.00  0.00     0.022 A 
BRANCH  78  81
ATOM     81  S   UNL A   1      45.420  23.964  36.333  1.00  0.00     0.127 S 
ATOM     82  O   UNL A   1      45.550  24.478  37.696  1.00  0.00    -0.237 OA
ATOM     83  O   UNL A   1      45.033  22.555  36.249  1.00  0.00    -0.237 OA
ATOM     84  O   UNL A   1      46.475  24.361  35.412  1.00  0.00    -0.744 OA
ENDBRANCH  78  81
ENDBRANCH  60  74
BRANCH  61  85
ATOM     85  C   UNL A   1      42.565  34.959  29.178  1.00  0.00     0.023 A 
ATOM     86  C   UNL A   1      41.424  35.205  28.389  1.00  0.00     0.012 A 
ATOM     87  C   UNL A   1      43.608  35.905  29.190  1.00  0.00     0.148 A 
ATOM     88  C   UNL A   1      41.341  36.351  27.598  1.00  0.00     0.002 A 
ATOM     89  C   UNL A   1      43.493  37.072  28.444  1.00  0.00     0.091 A 
ATOM     90  F   UNL A   1      44.688  35.650  29.942  1.00  0.00    -0.205 F 
ATOM     91  C   UNL A   1      42.369  37.288  27.632  1.00  0.00     0.022 A 
BRANCH  89  92
ATOM     92  S   UNL A   1      44.708  38.393  28.523  1.00  0.00     0.127 S 
ATOM     93  O   UNL A   1      44.820  38.613  29.962  1.00  0.00    -0.237 OA
ATOM     94  O   UNL A   1      45.875  37.766  27.903  1.00  0.00    -0.237 OA
ATOM     95  O   UNL A   1      44.142  39.496  27.757  1.00  0.00    -0.744 OA
ENDBRANCH  89  92
ENDBRANCH  61  85
BRANCH  73  96
ATOM     96  C   UNL A   1      40.793  33.445  35.761  1.00  0.00     0.023 A 
ATOM     97  C   UNL A   1      39.401  33.473  35.974  1.00  0.00     0.012 A 
ATOM     98  C   UNL A   1      41.642  34.136  36.647  1.00  0.00     0.148 A 
ATOM     99  C   UNL A   1      38.861  34.204  37.032  1.00  0.00     0.002 A 
ATOM    100  C   UNL A   1      41.102  34.817  37.731  1.00  0.00     0.091 A 
ATOM    101  F   UNL A   1      42.963  34.111  36.417  1.00  0.00    -0.205 F 
ATOM    102  C   UNL A   1      39.711  34.864  37.917  1.00  0.00     0.022 A 
BRANCH 100 103
ATOM    103  S   UNL A   1      42.122  35.612  38.978  1.00  0.00     0.127 S 
ATOM    104  O   UNL A   1      41.114  36.106  39.915  1.00  0.00    -0.237 OA
ATOM    105  O   UNL A   1      42.924  34.496  39.477  1.00  0.00    -0.237 OA
ATOM    106  O   UNL A   1      42.882  36.641  38.281  1.00  0.00    -0.744 OA
ENDBRANCH 100 103
ENDBRANCH  73  96
ENDBRANCH  47  48
ENDBRANCH  39  42
ENDBRANCH  37  38
ENDBRANCH  36  37
ENDBRANCH  35  36
ENDBRANCH   3  35
TORSDOF 19
ENDMDL
MODEL 3
REMARK VINA RESULT:     -11.2      6.754     12.141
REMARK SMILES Cc1ccc2occ(/C=N/NC(=O)CCC(=O)Nc3ccc(C(=O)NCCCNC(=O)c4ccc(-c5c6nc(c(-c7cccc(S(=O)(=O)[O-])c7F)c7ccc([nH]7)c(-c7cccc(S(=O)(=O)[O-])c7F)c7nc(c(-c8cccc(S(=O)(=O)[O-])c8F)c8ccc5[nH]8)C=C7)C=C6)cc4)cc3)c(=O)c2c1
REMARK SMILES IDX 23 1 24 2 25 3 22 5 19 6 20 7 96 8 21 9 95 10 18 11 16 12
REMARK SMILES IDX 17 13 15 15 14 16 12 17 11 18 13 20 10 21 9 22 8 23 1 24
REMARK SMILES IDX 2 25 3 26 100 27 4 28 99 29 5 30 97 31 6 32 98 33 7 34 26 35
REMARK SMILES IDX 27 36 28 37 29 38 30 39 31 41 32 42 33 43 94 44 34 45 93 46
REMARK SMILES IDX 35 47 36 48 37 49 87 50 38 51 92 52 86 53 88 54 39 55 91 56
REMARK SMILES IDX 85 57 84 58 40 60 72 61 52 62 71 63 53 64 56 65 70 66 89 67
REMARK SMILES IDX 54 68 55 69 69 71 90 72 57 73 41 74 42 75 50 76 43 77 45 78
REMARK SMILES IDX 51 79 44 80 46 81 47 82 48 83 49 84 73 85 74 86 82 87 75 88
REMARK SMILES IDX 77 89 83 90 76 91 78 92 79 93 80 94 81 95 58 96 59 97 67 98
REMARK SMILES IDX 60 99 62 100 68 101 61 102 63 103 64 104 65 105 66 106
REMARK H PARENT 25 4 18 14 11 19 29 40 88 59 56 70
REMARK Flexibility Score: inf
ROOT
ATOM      1  C   UNL A   1      41.166  25.968  25.907  1.00  0.00     0.251 C 
ATOM      2  O   UNL A   1      41.751  26.502  24.965  1.00  0.00    -0.269 OA
ATOM      3  N   UNL A   1      41.308  24.603  26.081  1.00  0.00    -0.352 N 
ATOM      4  H   UNL A   1      41.825  24.174  25.362  1.00  0.00     0.163 HD
ENDROOT
BRANCH   1   5
ATOM      5  C   UNL A   1      40.402  26.823  26.851  1.00  0.00     0.039 A 
ATOM      6  C   UNL A   1      39.254  28.391  28.911  1.00  0.00     0.041 A 
ATOM      7  C   UNL A   1      39.783  29.006  27.774  1.00  0.00     0.027 A 
ATOM      8  C   UNL A   1      39.326  27.023  28.962  1.00  0.00     0.027 A 
ATOM      9  C   UNL A   1      40.413  28.225  26.775  1.00  0.00     0.016 A 
ATOM     10  C   UNL A   1      39.704  26.256  27.886  1.00  0.00     0.016 A 
BRANCH   6  11
ATOM     11  N   UNL A   1      38.569  29.120  29.898  1.00  0.00    -0.326 N 
ATOM     12  C   UNL A   1      37.372  29.798  29.872  1.00  0.00     0.224 C 
ATOM     13  O   UNL A   1      37.139  30.566  30.816  1.00  0.00    -0.275 OA
ATOM     14  H   UNL A   1      39.030  29.150  30.767  1.00  0.00     0.169 HD
BRANCH  12  15
ATOM     15  C   UNL A   1      36.275  29.526  28.839  1.00  0.00     0.110 C 
BRANCH  15  16
ATOM     16  C   UNL A   1      35.992  30.485  27.667  1.00  0.00     0.112 C 
BRANCH  16  17
ATOM     17  C   UNL A   1      34.990  31.644  27.794  1.00  0.00     0.240 C 
ATOM     18  N   UNL A   1      33.641  31.420  27.634  1.00  0.00    -0.247 N 
ATOM     19  H   UNL A   1      33.038  32.192  27.727  1.00  0.00     0.193 HD
ATOM     20  O   UNL A   1      35.382  32.772  28.115  1.00  0.00    -0.273 OA
BRANCH  18  21
ATOM     21  N   UNL A   1      33.079  30.216  27.357  1.00  0.00    -0.180 NA
ATOM     22  C   UNL A   1      32.163  30.296  26.449  1.00  0.00     0.148 C 
BRANCH  22  23
ATOM     23  C   UNL A   1      31.601  29.156  25.726  1.00  0.00     0.078 A 
ATOM     24  C   UNL A   1      30.822  23.010  26.154  1.00  0.00     0.044 C 
ATOM     25  C   UNL A   1      30.809  24.354  25.493  1.00  0.00    -0.050 A 
ATOM     26  C   UNL A   1      30.664  24.498  24.105  1.00  0.00     0.007 A 
ATOM     27  C   UNL A   1      30.961  25.495  26.280  1.00  0.00     0.019 A 
ATOM     28  C   UNL A   1      30.673  25.766  23.509  1.00  0.00     0.048 A 
ATOM     29  C   UNL A   1      31.011  26.749  25.672  1.00  0.00     0.066 A 
ATOM     30  C   UNL A   1      30.857  26.897  24.296  1.00  0.00     0.137 A 
ATOM     31  C   UNL A   1      31.333  27.922  26.479  1.00  0.00     0.201 A 
ATOM     32  O   UNL A   1      30.908  28.119  23.667  1.00  0.00    -0.463 OA
ATOM     33  O   UNL A   1      31.423  27.862  27.698  1.00  0.00    -0.288 OA
ATOM     34  C   UNL A   1      31.350  29.191  24.415  1.00  0.00     0.209 A 
ENDBRANCH  22  23
ENDBRANCH  18  21
ENDBRANCH  16  17
ENDBRANCH  15  16
ENDBRANCH  12  15
ENDBRANCH   6  11
ENDBRANCH   1   5
BRANCH   3  35
ATOM     35  C   UNL A   1      40.854  23.659  27.106  1.00  0.00     0.118 C 
BRANCH  35  36
ATOM     36  C   UNL A   1      40.757  22.224  26.565  1.00  0.00     0.042 C 
BRANCH  36  37
ATOM     37  C   UNL A   1      41.782  21.298  27.208  1.00  0.00     0.118 C 
BRANCH  37  38
ATOM     38  N   UNL A   1      42.551  20.575  26.202  1.00  0.00    -0.352 N 
ATOM     39  C   UNL A   1      43.633  20.975  25.460  1.00  0.00     0.251 C 
ATOM     40  H   UNL A   1      42.247  19.655  26.030  1.00  0.00     0.163 HD
ATOM     41  O   UNL A   1      44.027  20.263  24.543  1.00  0.00    -0.269 OA
BRANCH  39  42
ATOM     42  C   UNL A   1      44.307  22.260  25.746  1.00  0.00     0.039 A 
ATOM     43  C   UNL A   1      44.196  23.292  24.810  1.00  0.00     0.014 A 
ATOM     44  C   UNL A   1      45.062  22.443  26.907  1.00  0.00     0.014 A 
ATOM     45  C   UNL A   1      44.803  24.523  25.061  1.00  0.00     0.010 A 
ATOM     46  C   UNL A   1      45.602  23.694  27.190  1.00  0.00     0.010 A 
ATOM     47  C   UNL A   1      45.484  24.745  26.268  1.00  0.00    -0.014 A 
BRANCH  47  48
ATOM     48  C   UNL A   1      46.060  26.074  26.593  1.00  0.00     0.031 A 
ATOM     49  C   UNL A   1      47.462  26.420  26.171  1.00  0.00     0.074 A 
ATOM     50  C   UNL A   1      45.348  26.935  27.347  1.00  0.00     0.049 A 
ATOM     51  N   UNL A   1      48.152  27.503  26.417  1.00  0.00    -0.248 NA
ATOM     52  C   UNL A   1      48.192  25.407  25.390  1.00  0.00     0.031 C 
ATOM     53  C   UNL A   1      44.004  26.686  27.874  1.00  0.00     0.029 A 
ATOM     54  N   UNL A   1      45.665  28.183  27.822  1.00  0.00    -0.354 N 
ATOM     55  C   UNL A   1      49.407  27.289  25.856  1.00  0.00     0.074 A 
ATOM     56  C   UNL A   1      49.392  25.960  25.285  1.00  0.00     0.031 C 
ATOM     57  C   UNL A   1      43.610  27.748  28.593  1.00  0.00     0.029 A 
ATOM     58  C   UNL A   1      44.684  28.735  28.613  1.00  0.00     0.049 A 
ATOM     59  H   UNL A   1      46.512  28.639  27.616  1.00  0.00     0.167 HD
ATOM     60  C   UNL A   1      50.466  28.133  25.802  1.00  0.00     0.034 A 
ATOM     61  C   UNL A   1      44.657  29.900  29.289  1.00  0.00     0.034 A 
ATOM     62  C   UNL A   1      50.463  29.463  26.346  1.00  0.00     0.049 A 
ATOM     63  C   UNL A   1      45.842  30.823  29.198  1.00  0.00     0.074 A 
ATOM     64  C   UNL A   1      51.454  30.426  26.268  1.00  0.00     0.029 A 
ATOM     65  N   UNL A   1      49.426  30.016  27.082  1.00  0.00    -0.354 N 
ATOM     66  N   UNL A   1      46.960  30.669  28.532  1.00  0.00    -0.248 NA
ATOM     67  C   UNL A   1      45.747  32.099  29.923  1.00  0.00     0.031 C 
ATOM     68  C   UNL A   1      51.031  31.547  26.990  1.00  0.00     0.029 A 
ATOM     69  C   UNL A   1      49.759  31.299  27.482  1.00  0.00     0.049 A 
ATOM     70  H   UNL A   1      48.578  29.562  27.291  1.00  0.00     0.167 HD
ATOM     71  C   UNL A   1      47.685  31.839  28.725  1.00  0.00     0.074 A 
ATOM     72  C   UNL A   1      46.869  32.702  29.555  1.00  0.00     0.031 C 
ATOM     73  C   UNL A   1      48.918  32.167  28.266  1.00  0.00     0.034 A 
BRANCH  60  74
ATOM     74  C   UNL A   1      51.709  27.651  25.095  1.00  0.00     0.023 A 
ATOM     75  C   UNL A   1      52.754  27.066  25.840  1.00  0.00     0.012 A 
ATOM     76  C   UNL A   1      51.820  27.727  23.693  1.00  0.00     0.148 A 
ATOM     77  C   UNL A   1      53.907  26.605  25.206  1.00  0.00     0.002 A 
ATOM     78  C   UNL A   1      52.951  27.220  23.064  1.00  0.00     0.091 A 
ATOM     79  F   UNL A   1      50.826  28.302  23.003  1.00  0.00    -0.205 F 
ATOM     80  C   UNL A   1      54.001  26.671  23.819  1.00  0.00     0.022 A 
BRANCH  78  81
ATOM     81  S   UNL A   1      53.133  27.182  21.277  1.00  0.00     0.127 S 
ATOM     82  O   UNL A   1      53.136  28.607  20.951  1.00  0.00    -0.237 OA
ATOM     83  O   UNL A   1      54.426  26.517  21.114  1.00  0.00    -0.237 OA
ATOM     84  O   UNL A   1      51.994  26.428  20.773  1.00  0.00    -0.744 OA
ENDBRANCH  78  81
ENDBRANCH  60  74
BRANCH  61  85
ATOM     85  C   UNL A   1      43.444  30.287  30.064  1.00  0.00     0.023 A 
ATOM     86  C   UNL A   1      42.474  31.112  29.462  1.00  0.00     0.012 A 
ATOM     87  C   UNL A   1      43.236  29.828  31.379  1.00  0.00     0.148 A 
ATOM     88  C   UNL A   1      41.337  31.503  30.170  1.00  0.00     0.002 A 
ATOM     89  C   UNL A   1      42.074  30.175  32.057  1.00  0.00     0.091 A 
ATOM     90  F   UNL A   1      44.174  29.049  31.936  1.00  0.00    -0.205 F 
ATOM     91  C   UNL A   1      41.132  31.029  31.462  1.00  0.00     0.022 A 
BRANCH  89  92
ATOM     92  S   UNL A   1      41.663  29.512  33.675  1.00  0.00     0.127 S 
ATOM     93  O   UNL A   1      41.700  28.073  33.428  1.00  0.00    -0.237 OA
ATOM     94  O   UNL A   1      42.760  30.023  34.498  1.00  0.00    -0.237 OA
ATOM     95  O   UNL A   1      40.356  30.062  34.008  1.00  0.00    -0.744 OA
ENDBRANCH  89  92
ENDBRANCH  61  85
BRANCH  73  96
ATOM     96  C   UNL A   1      49.453  33.533  28.609  1.00  0.00     0.023 A 
ATOM     97  C   UNL A   1      50.232  33.717  29.768  1.00  0.00     0.012 A 
ATOM     98  C   UNL A   1      49.240  34.622  27.740  1.00  0.00     0.148 A 
ATOM     99  C   UNL A   1      50.763  34.969  30.074  1.00  0.00     0.002 A 
ATOM    100  C   UNL A   1      49.818  35.853  28.022  1.00  0.00     0.091 A 
ATOM    101  F   UNL A   1      48.482  34.431  26.650  1.00  0.00    -0.205 F 
ATOM    102  C   UNL A   1      50.567  36.033  29.196  1.00  0.00     0.022 A 
BRANCH 100 103
ATOM    103  S   UNL A   1      49.704  37.252  26.901  1.00  0.00     0.127 S 
ATOM    104  O   UNL A   1      50.911  38.005  27.241  1.00  0.00    -0.237 OA
ATOM    105  O   UNL A   1      49.741  36.601  25.591  1.00  0.00    -0.237 OA
ATOM    106  O   UNL A   1      48.447  37.917  27.211  1.00  0.00    -0.744 OA
ENDBRANCH 100 103
ENDBRANCH  73  96
ENDBRANCH  47  48
ENDBRANCH  39  42
ENDBRANCH  37  38
ENDBRANCH  36  37
ENDBRANCH  35  36
ENDBRANCH   3  35
TORSDOF 19
ENDMDL
