MODEL 1
REMARK VINA RESULT:     -12.6      0.000      0.000
REMARK SMILES CS(=O)(=O)c1ccc(-n2nc(C(F)(F)F)cc2-c2ccc(CC(=O)NCCCNC(=O)c3ccc(-c4c5nc(c(-c6cccc(S(=O)(=O)[O-])c6F)c6ccc([nH]6)c(-c6cccc(S(=O)(=O)[O-])c6F)c6nc(c(-c7cccc(S(=O)(=O)[O-])c7F)c7ccc4[nH]7)C=C6)C=C5)cc3)cc2)cc1
REMARK SMILES IDX 26 1 25 2 23 3 24 4 22 6 21 7 18 8 19 9 96 10 20 11 95 12
REMARK SMILES IDX 17 13 9 14 10 15 11 16 16 17 8 18 5 19 6 20 98 21 7 22 97 23
REMARK SMILES IDX 2 24 1 25 3 26 4 27 12 28 13 29 14 30 15 31 27 32 28 33
REMARK SMILES IDX 29 34 30 35 31 37 32 38 33 39 94 40 34 41 93 42 35 43 36 44
REMARK SMILES IDX 37 45 87 46 38 47 92 48 86 49 88 50 39 51 91 52 85 53 84 54
REMARK SMILES IDX 40 56 72 57 52 58 71 59 53 60 56 61 70 62 89 63 54 64 55 65
REMARK SMILES IDX 69 67 90 68 57 69 41 70 42 71 50 72 43 73 45 74 51 75 44 76
REMARK SMILES IDX 46 77 47 78 48 79 49 80 73 81 74 82 82 83 75 84 77 85 83 86
REMARK SMILES IDX 76 87 78 88 79 89 80 90 81 91 58 92 59 93 67 94 60 95 62 96
REMARK SMILES IDX 68 97 61 98 63 99 64 100 65 101 66 102
REMARK H PARENT 25 5 29 36 88 55 56 66
REMARK Flexibility Score: inf
ROOT
ATOM      1  C   UNL A   1      32.810  29.459  24.857  1.00  0.00     0.117 C 
ENDROOT
BRANCH   1   2
ATOM      2  N   UNL A   1      33.685  29.204  23.729  1.00  0.00    -0.356 N 
ATOM      3  C   UNL A   1      33.532  28.310  22.707  1.00  0.00     0.224 C 
ATOM      4  O   UNL A   1      34.298  28.373  21.746  1.00  0.00    -0.275 OA
ATOM      5  H   UNL A   1      34.502  29.752  23.694  1.00  0.00     0.163 HD
BRANCH   3   6
ATOM      6  C   UNL A   1      32.381  27.320  22.720  1.00  0.00     0.135 C 
BRANCH   6   7
ATOM      7  C   UNL A   1      32.756  25.936  23.188  1.00  0.00    -0.039 A 
ATOM      8  C   UNL A   1      33.339  23.303  24.028  1.00  0.00     0.000 A 
ATOM      9  C   UNL A   1      32.853  24.258  24.935  1.00  0.00     0.010 A 
ATOM     10  C   UNL A   1      33.582  23.699  22.709  1.00  0.00     0.010 A 
ATOM     11  C   UNL A   1      32.546  25.555  24.517  1.00  0.00     0.005 A 
ATOM     12  C   UNL A   1      33.309  25.005  22.298  1.00  0.00     0.005 A 
BRANCH   8  13
ATOM     13  C   UNL A   1      33.607  21.921  24.445  1.00  0.00     0.075 A 
ATOM     14  N   UNL A   1      34.845  21.405  24.824  1.00  0.00    -0.233 N 
ATOM     15  N   UNL A   1      34.832  20.050  24.900  1.00  0.00    -0.163 NA
ATOM     16  C   UNL A   1      33.538  19.707  24.763  1.00  0.00     0.167 A 
ATOM     17  C   UNL A   1      32.746  20.841  24.461  1.00  0.00     0.064 A 
BRANCH  14  18
ATOM     18  C   UNL A   1      36.033  22.135  25.062  1.00  0.00     0.065 A 
ATOM     19  C   UNL A   1      38.251  23.381  26.145  1.00  0.00     0.067 A 
ATOM     20  C   UNL A   1      38.372  22.092  25.612  1.00  0.00     0.022 A 
ATOM     21  C   UNL A   1      37.060  24.099  26.030  1.00  0.00     0.022 A 
ATOM     22  C   UNL A   1      37.260  21.460  25.079  1.00  0.00     0.030 A 
ATOM     23  C   UNL A   1      35.945  23.478  25.457  1.00  0.00     0.030 A 
BRANCH  19  24
ATOM     24  S   UNL A   1      39.648  23.956  27.081  1.00  0.00     0.175 S 
ATOM     25  C   UNL A   1      40.573  22.559  27.635  1.00  0.00     0.163 C 
ATOM     26  O   UNL A   1      39.067  24.624  28.229  1.00  0.00    -0.224 OA
ATOM     27  O   UNL A   1      40.434  24.711  26.128  1.00  0.00    -0.224 OA
ENDBRANCH  19  24
ENDBRANCH  14  18
BRANCH  16  28
ATOM     28  C   UNL A   1      33.043  18.295  24.894  1.00  0.00     0.435 C 
ATOM     29  F   UNL A   1      33.989  17.360  24.618  1.00  0.00    -0.164 F 
ATOM     30  F   UNL A   1      32.567  18.030  26.141  1.00  0.00    -0.164 F 
ATOM     31  F   UNL A   1      32.006  18.049  24.041  1.00  0.00    -0.164 F 
ENDBRANCH  16  28
ENDBRANCH   8  13
ENDBRANCH   6   7
ENDBRANCH   3   6
ENDBRANCH   1   2
BRANCH   1  32
ATOM     32  C   UNL A   1      33.551  29.890  26.125  1.00  0.00     0.042 C 
BRANCH  32  33
ATOM     33  C   UNL A   1      32.607  30.372  27.212  1.00  0.00     0.118 C 
BRANCH  33  34
ATOM     34  N   UNL A   1      32.242  31.785  27.065  1.00  0.00    -0.352 N 
ATOM     35  C   UNL A   1      32.811  32.883  27.683  1.00  0.00     0.251 C 
ATOM     36  H   UNL A   1      31.497  31.976  26.450  1.00  0.00     0.163 HD
ATOM     37  O   UNL A   1      32.213  33.954  27.726  1.00  0.00    -0.269 OA
BRANCH  35  38
ATOM     38  C   UNL A   1      34.142  32.741  28.296  1.00  0.00     0.039 A 
ATOM     39  C   UNL A   1      34.324  32.067  29.509  1.00  0.00     0.014 A 
ATOM     40  C   UNL A   1      35.228  33.262  27.607  1.00  0.00     0.014 A 
ATOM     41  C   UNL A   1      35.621  31.866  29.978  1.00  0.00     0.010 A 
ATOM     42  C   UNL A   1      36.492  32.868  27.951  1.00  0.00     0.010 A 
ATOM     43  C   UNL A   1      36.706  32.254  29.182  1.00  0.00    -0.014 A 
BRANCH  43  44
ATOM     44  C   UNL A   1      38.087  31.956  29.562  1.00  0.00     0.031 A 
ATOM     45  C   UNL A   1      38.546  30.546  29.326  1.00  0.00     0.074 A 
ATOM     46  C   UNL A   1      38.938  32.974  29.856  1.00  0.00     0.049 A 
ATOM     47  N   UNL A   1      39.338  29.839  30.064  1.00  0.00    -0.248 NA
ATOM     48  C   UNL A   1      38.043  29.799  28.160  1.00  0.00     0.031 C 
ATOM     49  C   UNL A   1      38.657  34.422  29.845  1.00  0.00     0.029 A 
ATOM     50  N   UNL A   1      40.290  32.950  30.033  1.00  0.00    -0.354 N 
ATOM     51  C   UNL A   1      39.595  28.660  29.361  1.00  0.00     0.074 A 
ATOM     52  C   UNL A   1      38.755  28.673  28.199  1.00  0.00     0.031 C 
ATOM     53  C   UNL A   1      39.809  35.106  29.687  1.00  0.00     0.029 A 
ATOM     54  C   UNL A   1      40.913  34.174  29.771  1.00  0.00     0.049 A 
ATOM     55  H   UNL A   1      40.781  32.147  30.319  1.00  0.00     0.167 HD
ATOM     56  C   UNL A   1      40.596  27.821  29.736  1.00  0.00     0.034 A 
ATOM     57  C   UNL A   1      42.236  34.403  29.571  1.00  0.00     0.034 A 
ATOM     58  C   UNL A   1      40.899  27.978  31.132  1.00  0.00     0.049 A 
ATOM     59  C   UNL A   1      42.959  33.242  30.135  1.00  0.00     0.074 A 
ATOM     60  C   UNL A   1      40.130  27.899  32.279  1.00  0.00     0.029 A 
ATOM     61  N   UNL A   1      42.020  28.691  31.479  1.00  0.00    -0.354 N 
ATOM     62  N   UNL A   1      42.978  32.954  31.406  1.00  0.00    -0.248 NA
ATOM     63  C   UNL A   1      43.259  32.143  29.230  1.00  0.00     0.031 C 
ATOM     64  C   UNL A   1      40.544  29.018  33.055  1.00  0.00     0.029 A 
ATOM     65  C   UNL A   1      41.606  29.631  32.388  1.00  0.00     0.049 A 
ATOM     66  H   UNL A   1      42.934  28.556  31.143  1.00  0.00     0.167 HD
ATOM     67  C   UNL A   1      42.812  31.577  31.442  1.00  0.00     0.074 A 
ATOM     68  C   UNL A   1      43.086  31.123  30.076  1.00  0.00     0.031 C 
ATOM     69  C   UNL A   1      42.177  30.956  32.478  1.00  0.00     0.034 A 
BRANCH  56  70
ATOM     70  C   UNL A   1      41.518  27.097  28.790  1.00  0.00     0.023 A 
ATOM     71  C   UNL A   1      42.095  25.893  29.255  1.00  0.00     0.012 A 
ATOM     72  C   UNL A   1      42.088  27.687  27.638  1.00  0.00     0.148 A 
ATOM     73  C   UNL A   1      43.240  25.352  28.664  1.00  0.00     0.002 A 
ATOM     74  C   UNL A   1      43.197  27.113  27.021  1.00  0.00     0.091 A 
ATOM     75  F   UNL A   1      41.640  28.870  27.200  1.00  0.00    -0.205 F 
ATOM     76  C   UNL A   1      43.796  25.967  27.551  1.00  0.00     0.022 A 
BRANCH  74  77
ATOM     77  S   UNL A   1      43.936  27.843  25.555  1.00  0.00     0.127 S 
ATOM     78  O   UNL A   1      44.946  26.851  25.204  1.00  0.00    -0.237 OA
ATOM     79  O   UNL A   1      42.798  27.922  24.639  1.00  0.00    -0.237 OA
ATOM     80  O   UNL A   1      44.442  29.143  25.983  1.00  0.00    -0.744 OA
ENDBRANCH  74  77
ENDBRANCH  56  70
BRANCH  57  81
ATOM     81  C   UNL A   1      42.912  35.429  28.738  1.00  0.00     0.023 A 
ATOM     82  C   UNL A   1      42.739  35.422  27.339  1.00  0.00     0.012 A 
ATOM     83  C   UNL A   1      43.516  36.567  29.319  1.00  0.00     0.148 A 
ATOM     84  C   UNL A   1      43.130  36.515  26.552  1.00  0.00     0.002 A 
ATOM     85  C   UNL A   1      43.917  37.644  28.532  1.00  0.00     0.091 A 
ATOM     86  F   UNL A   1      43.608  36.641  30.655  1.00  0.00    -0.205 F 
ATOM     87  C   UNL A   1      43.716  37.628  27.148  1.00  0.00     0.022 A 
BRANCH  85  88
ATOM     88  S   UNL A   1      44.674  39.111  29.247  1.00  0.00     0.127 S 
ATOM     89  O   UNL A   1      43.706  39.488  30.278  1.00  0.00    -0.237 OA
ATOM     90  O   UNL A   1      45.935  38.580  29.760  1.00  0.00    -0.237 OA
ATOM     91  O   UNL A   1      44.772  40.063  28.149  1.00  0.00    -0.744 OA
ENDBRANCH  85  88
ENDBRANCH  57  81
BRANCH  69  92
ATOM     92  C   UNL A   1      41.793  31.754  33.701  1.00  0.00     0.023 A 
ATOM     93  C   UNL A   1      42.713  32.074  34.722  1.00  0.00     0.012 A 
ATOM     94  C   UNL A   1      40.537  32.386  33.705  1.00  0.00     0.148 A 
ATOM     95  C   UNL A   1      42.382  32.987  35.728  1.00  0.00     0.002 A 
ATOM     96  C   UNL A   1      40.232  33.333  34.674  1.00  0.00     0.091 A 
ATOM     97  F   UNL A   1      39.668  32.076  32.731  1.00  0.00    -0.205 F 
ATOM     98  C   UNL A   1      41.148  33.631  35.695  1.00  0.00     0.022 A 
BRANCH  96  99
ATOM     99  S   UNL A   1      38.719  34.292  34.590  1.00  0.00     0.127 S 
ATOM    100  O   UNL A   1      38.783  34.844  33.239  1.00  0.00    -0.237 OA
ATOM    101  O   UNL A   1      37.684  33.275  34.787  1.00  0.00    -0.237 OA
ATOM    102  O   UNL A   1      38.803  35.265  35.673  1.00  0.00    -0.744 OA
ENDBRANCH  96  99
ENDBRANCH  69  92
ENDBRANCH  43  44
ENDBRANCH  35  38
ENDBRANCH  33  34
ENDBRANCH  32  33
ENDBRANCH   1  32
TORSDOF 18
ENDMDL
MODEL 2
REMARK VINA RESULT:     -12.6      4.851     10.259
REMARK SMILES CS(=O)(=O)c1ccc(-n2nc(C(F)(F)F)cc2-c2ccc(CC(=O)NCCCNC(=O)c3ccc(-c4c5nc(c(-c6cccc(S(=O)(=O)[O-])c6F)c6ccc([nH]6)c(-c6cccc(S(=O)(=O)[O-])c6F)c6nc(c(-c7cccc(S(=O)(=O)[O-])c7F)c7ccc4[nH]7)C=C6)C=C5)cc3)cc2)cc1
REMARK SMILES IDX 26 1 25 2 23 3 24 4 22 6 21 7 18 8 19 9 96 10 20 11 95 12
REMARK SMILES IDX 17 13 9 14 10 15 11 16 16 17 8 18 5 19 6 20 98 21 7 22 97 23
REMARK SMILES IDX 2 24 1 25 3 26 4 27 12 28 13 29 14 30 15 31 27 32 28 33
REMARK SMILES IDX 29 34 30 35 31 37 32 38 33 39 94 40 34 41 93 42 35 43 36 44
REMARK SMILES IDX 37 45 87 46 38 47 92 48 86 49 88 50 39 51 91 52 85 53 84 54
REMARK SMILES IDX 40 56 72 57 52 58 71 59 53 60 56 61 70 62 89 63 54 64 55 65
REMARK SMILES IDX 69 67 90 68 57 69 41 70 42 71 50 72 43 73 45 74 51 75 44 76
REMARK SMILES IDX 46 77 47 78 48 79 49 80 73 81 74 82 82 83 75 84 77 85 83 86
REMARK SMILES IDX 76 87 78 88 79 89 80 90 81 91 58 92 59 93 67 94 60 95 62 96
REMARK SMILES IDX 68 97 61 98 63 99 64 100 65 101 66 102
REMARK H PARENT 25 5 29 36 88 55 56 66
REMARK Flexibility Score: inf
ROOT
ATOM      1  C   UNL A   1      35.667  20.737  25.143  1.00  0.00     0.117 C 
ENDROOT
BRANCH   1   2
ATOM      2  N   UNL A   1      35.240  21.668  26.170  1.00  0.00    -0.356 N 
ATOM      3  C   UNL A   1      34.165  22.510  26.174  1.00  0.00     0.224 C 
ATOM      4  O   UNL A   1      33.872  23.091  27.218  1.00  0.00    -0.275 OA
ATOM      5  H   UNL A   1      35.804  21.696  26.977  1.00  0.00     0.163 HD
BRANCH   3   6
ATOM      6  C   UNL A   1      33.297  22.652  24.937  1.00  0.00     0.135 C 
BRANCH   6   7
ATOM      7  C   UNL A   1      32.740  24.038  24.723  1.00  0.00    -0.039 A 
ATOM      8  C   UNL A   1      31.614  26.581  24.233  1.00  0.00     0.000 A 
ATOM      9  C   UNL A   1      32.785  26.173  23.576  1.00  0.00     0.010 A 
ATOM     10  C   UNL A   1      31.046  25.723  25.179  1.00  0.00     0.010 A 
ATOM     11  C   UNL A   1      33.332  24.907  23.802  1.00  0.00     0.005 A 
ATOM     12  C   UNL A   1      31.612  24.472  25.434  1.00  0.00     0.005 A 
BRANCH   8  13
ATOM     13  C   UNL A   1      30.998  27.885  23.956  1.00  0.00     0.075 A 
ATOM     14  N   UNL A   1      31.177  29.050  24.700  1.00  0.00    -0.233 N 
ATOM     15  N   UNL A   1      30.285  30.015  24.361  1.00  0.00    -0.163 NA
ATOM     16  C   UNL A   1      29.661  29.541  23.266  1.00  0.00     0.167 A 
ATOM     17  C   UNL A   1      30.065  28.212  22.992  1.00  0.00     0.064 A 
BRANCH  14  18
ATOM     18  C   UNL A   1      32.115  29.260  25.739  1.00  0.00     0.065 A 
ATOM     19  C   UNL A   1      34.319  29.892  27.282  1.00  0.00     0.067 A 
ATOM     20  C   UNL A   1      33.286  30.825  27.136  1.00  0.00     0.022 A 
ATOM     21  C   UNL A   1      34.204  28.601  26.763  1.00  0.00     0.022 A 
ATOM     22  C   UNL A   1      32.184  30.516  26.354  1.00  0.00     0.030 A 
ATOM     23  C   UNL A   1      33.074  28.273  26.005  1.00  0.00     0.030 A 
BRANCH  19  24
ATOM     24  S   UNL A   1      35.809  30.510  28.030  1.00  0.00     0.175 S 
ATOM     25  C   UNL A   1      35.748  32.274  28.040  1.00  0.00     0.163 C 
ATOM     26  O   UNL A   1      36.869  30.078  27.141  1.00  0.00    -0.224 OA
ATOM     27  O   UNL A   1      35.760  30.015  29.390  1.00  0.00    -0.224 OA
ENDBRANCH  19  24
ENDBRANCH  14  18
BRANCH  16  28
ATOM     28  C   UNL A   1      28.658  30.337  22.482  1.00  0.00     0.435 C 
ATOM     29  F   UNL A   1      29.114  31.559  22.099  1.00  0.00    -0.164 F 
ATOM     30  F   UNL A   1      28.252  29.689  21.356  1.00  0.00    -0.164 F 
ATOM     31  F   UNL A   1      27.524  30.566  23.208  1.00  0.00    -0.164 F 
ENDBRANCH  16  28
ENDBRANCH   8  13
ENDBRANCH   6   7
ENDBRANCH   3   6
ENDBRANCH   1   2
BRANCH   1  32
ATOM     32  C   UNL A   1      36.936  21.171  24.408  1.00  0.00     0.042 C 
BRANCH  32  33
ATOM     33  C   UNL A   1      38.127  21.310  25.340  1.00  0.00     0.118 C 
BRANCH  33  34
ATOM     34  N   UNL A   1      38.891  20.065  25.479  1.00  0.00    -0.352 N 
ATOM     35  C   UNL A   1      40.220  19.912  25.827  1.00  0.00     0.251 C 
ATOM     36  H   UNL A   1      38.395  19.233  25.300  1.00  0.00     0.163 HD
ATOM     37  O   UNL A   1      40.809  18.862  25.593  1.00  0.00    -0.269 OA
BRANCH  35  38
ATOM     38  C   UNL A   1      40.916  21.036  26.475  1.00  0.00     0.039 A 
ATOM     39  C   UNL A   1      41.648  21.972  25.737  1.00  0.00     0.014 A 
ATOM     40  C   UNL A   1      40.787  21.167  27.852  1.00  0.00     0.014 A 
ATOM     41  C   UNL A   1      42.187  23.076  26.395  1.00  0.00     0.010 A 
ATOM     42  C   UNL A   1      41.118  22.354  28.446  1.00  0.00     0.010 A 
ATOM     43  C   UNL A   1      41.901  23.272  27.751  1.00  0.00    -0.014 A 
BRANCH  43  44
ATOM     44  C   UNL A   1      42.332  24.474  28.465  1.00  0.00     0.031 A 
ATOM     45  C   UNL A   1      41.413  25.659  28.375  1.00  0.00     0.074 A 
ATOM     46  C   UNL A   1      43.361  24.400  29.348  1.00  0.00     0.049 A 
ATOM     47  N   UNL A   1      41.739  26.907  28.295  1.00  0.00    -0.248 NA
ATOM     48  C   UNL A   1      39.955  25.449  28.323  1.00  0.00     0.031 C 
ATOM     49  C   UNL A   1      44.155  23.212  29.717  1.00  0.00     0.029 A 
ATOM     50  N   UNL A   1      43.793  25.321  30.256  1.00  0.00    -0.354 N 
ATOM     51  C   UNL A   1      40.552  27.637  28.394  1.00  0.00     0.074 A 
ATOM     52  C   UNL A   1      39.475  26.691  28.390  1.00  0.00     0.031 C 
ATOM     53  C   UNL A   1      44.707  23.396  30.934  1.00  0.00     0.029 A 
ATOM     54  C   UNL A   1      44.467  24.763  31.346  1.00  0.00     0.049 A 
ATOM     55  H   UNL A   1      43.646  26.288  30.153  1.00  0.00     0.167 HD
ATOM     56  C   UNL A   1      40.567  28.979  28.611  1.00  0.00     0.034 A 
ATOM     57  C   UNL A   1      44.755  25.355  32.533  1.00  0.00     0.034 A 
ATOM     58  C   UNL A   1      41.803  29.556  28.157  1.00  0.00     0.049 A 
ATOM     59  C   UNL A   1      44.658  26.816  32.315  1.00  0.00     0.074 A 
ATOM     60  C   UNL A   1      42.461  29.541  26.941  1.00  0.00     0.029 A 
ATOM     61  N   UNL A   1      42.753  29.881  29.094  1.00  0.00    -0.354 N 
ATOM     62  N   UNL A   1      45.467  27.482  31.538  1.00  0.00    -0.248 NA
ATOM     63  C   UNL A   1      43.376  27.446  32.585  1.00  0.00     0.031 C 
ATOM     64  C   UNL A   1      43.820  29.296  27.280  1.00  0.00     0.029 A 
ATOM     65  C   UNL A   1      43.918  29.292  28.673  1.00  0.00     0.049 A 
ATOM     66  H   UNL A   1      42.624  30.424  29.904  1.00  0.00     0.167 HD
ATOM     67  C   UNL A   1      44.632  28.350  30.850  1.00  0.00     0.074 A 
ATOM     68  C   UNL A   1      43.375  28.350  31.602  1.00  0.00     0.031 C 
ATOM     69  C   UNL A   1      44.911  28.757  29.577  1.00  0.00     0.034 A 
BRANCH  56  70
ATOM     70  C   UNL A   1      39.620  29.719  29.518  1.00  0.00     0.023 A 
ATOM     71  C   UNL A   1      39.298  31.049  29.159  1.00  0.00     0.012 A 
ATOM     72  C   UNL A   1      39.303  29.308  30.834  1.00  0.00     0.148 A 
ATOM     73  C   UNL A   1      38.777  31.954  30.087  1.00  0.00     0.002 A 
ATOM     74  C   UNL A   1      38.734  30.201  31.739  1.00  0.00     0.091 A 
ATOM     75  F   UNL A   1      39.659  28.090  31.259  1.00  0.00    -0.205 F 
ATOM     76  C   UNL A   1      38.501  31.532  31.380  1.00  0.00     0.022 A 
BRANCH  74  77
ATOM     77  S   UNL A   1      38.319  29.700  33.414  1.00  0.00     0.127 S 
ATOM     78  O   UNL A   1      37.384  28.605  33.176  1.00  0.00    -0.237 OA
ATOM     79  O   UNL A   1      39.620  29.301  33.951  1.00  0.00    -0.237 OA
ATOM     80  O   UNL A   1      37.759  30.890  34.045  1.00  0.00    -0.744 OA
ENDBRANCH  74  77
ENDBRANCH  56  70
BRANCH  57  81
ATOM     81  C   UNL A   1      44.883  24.764  33.889  1.00  0.00     0.023 A 
ATOM     82  C   UNL A   1      43.727  24.486  34.647  1.00  0.00     0.012 A 
ATOM     83  C   UNL A   1      46.111  24.232  34.346  1.00  0.00     0.148 A 
ATOM     84  C   UNL A   1      43.787  23.690  35.800  1.00  0.00     0.002 A 
ATOM     85  C   UNL A   1      46.168  23.455  35.501  1.00  0.00     0.091 A 
ATOM     86  F   UNL A   1      47.209  24.402  33.596  1.00  0.00    -0.205 F 
ATOM     87  C   UNL A   1      45.005  23.172  36.225  1.00  0.00     0.022 A 
BRANCH  85  88
ATOM     88  S   UNL A   1      47.713  22.753  36.096  1.00  0.00     0.127 S 
ATOM     89  O   UNL A   1      48.103  21.878  34.988  1.00  0.00    -0.237 OA
ATOM     90  O   UNL A   1      48.545  23.944  36.252  1.00  0.00    -0.237 OA
ATOM     91  O   UNL A   1      47.363  22.042  37.318  1.00  0.00    -0.744 OA
ENDBRANCH  85  88
ENDBRANCH  57  81
BRANCH  69  92
ATOM     92  C   UNL A   1      46.240  28.398  28.955  1.00  0.00     0.023 A 
ATOM     93  C   UNL A   1      47.435  29.081  29.264  1.00  0.00     0.012 A 
ATOM     94  C   UNL A   1      46.319  27.203  28.219  1.00  0.00     0.148 A 
ATOM     95  C   UNL A   1      48.674  28.592  28.838  1.00  0.00     0.002 A 
ATOM     96  C   UNL A   1      47.554  26.691  27.844  1.00  0.00     0.091 A 
ATOM     97  F   UNL A   1      45.177  26.560  27.930  1.00  0.00    -0.205 F 
ATOM     98  C   UNL A   1      48.736  27.387  28.143  1.00  0.00     0.022 A 
BRANCH  96  99
ATOM     99  S   UNL A   1      47.695  25.076  27.078  1.00  0.00     0.127 S 
ATOM    100  O   UNL A   1      47.219  25.339  25.723  1.00  0.00    -0.237 OA
ATOM    101  O   UNL A   1      49.128  24.795  27.181  1.00  0.00    -0.237 OA
ATOM    102  O   UNL A   1      46.860  24.183  27.875  1.00  0.00    -0.744 OA
ENDBRANCH  96  99
ENDBRANCH  69  92
ENDBRANCH  43  44
ENDBRANCH  35  38
ENDBRANCH  33  34
ENDBRANCH  32  33
ENDBRANCH   1  32
TORSDOF 18
ENDMDL
MODEL 3
REMARK VINA RESULT:     -12.6      3.405      7.896
REMARK SMILES CS(=O)(=O)c1ccc(-n2nc(C(F)(F)F)cc2-c2ccc(CC(=O)NCCCNC(=O)c3ccc(-c4c5nc(c(-c6cccc(S(=O)(=O)[O-])c6F)c6ccc([nH]6)c(-c6cccc(S(=O)(=O)[O-])c6F)c6nc(c(-c7cccc(S(=O)(=O)[O-])c7F)c7ccc4[nH]7)C=C6)C=C5)cc3)cc2)cc1
REMARK SMILES IDX 26 1 25 2 23 3 24 4 22 6 21 7 18 8 19 9 96 10 20 11 95 12
REMARK SMILES IDX 17 13 9 14 10 15 11 16 16 17 8 18 5 19 6 20 98 21 7 22 97 23
REMARK SMILES IDX 2 24 1 25 3 26 4 27 12 28 13 29 14 30 15 31 27 32 28 33
REMARK SMILES IDX 29 34 30 35 31 37 32 38 33 39 94 40 34 41 93 42 35 43 36 44
REMARK SMILES IDX 37 45 87 46 38 47 92 48 86 49 88 50 39 51 91 52 85 53 84 54
REMARK SMILES IDX 40 56 72 57 52 58 71 59 53 60 56 61 70 62 89 63 54 64 55 65
REMARK SMILES IDX 69 67 90 68 57 69 41 70 42 71 50 72 43 73 45 74 51 75 44 76
REMARK SMILES IDX 46 77 47 78 48 79 49 80 73 81 74 82 82 83 75 84 77 85 83 86
REMARK SMILES IDX 76 87 78 88 79 89 80 90 81 91 58 92 59 93 67 94 60 95 62 96
REMARK SMILES IDX 68 97 61 98 63 99 64 100 65 101 66 102
REMARK H PARENT 25 5 29 36 88 55 56 66
REMARK Flexibility Score: inf
ROOT
ATOM      1  C   UNL A   1      34.329  34.122  28.218  1.00  0.00     0.117 C 
ENDROOT
BRANCH   1   2
ATOM      2  N   UNL A   1      34.851  32.850  28.680  1.00  0.00    -0.356 N 
ATOM      3  C   UNL A   1      34.507  31.587  28.290  1.00  0.00     0.224 C 
ATOM      4  O   UNL A   1      35.195  30.641  28.672  1.00  0.00    -0.275 OA
ATOM      5  H   UNL A   1      35.552  32.905  29.369  1.00  0.00     0.163 HD
BRANCH   3   6
ATOM      6  C   UNL A   1      33.351  31.368  27.331  1.00  0.00     0.135 C 
BRANCH   6   7
ATOM      7  C   UNL A   1      33.120  29.926  26.952  1.00  0.00    -0.039 A 
ATOM      8  C   UNL A   1      32.641  27.267  26.128  1.00  0.00     0.000 A 
ATOM      9  C   UNL A   1      31.693  27.967  26.889  1.00  0.00     0.010 A 
ATOM     10  C   UNL A   1      33.855  27.896  25.832  1.00  0.00     0.010 A 
ATOM     11  C   UNL A   1      31.919  29.289  27.281  1.00  0.00     0.005 A 
ATOM     12  C   UNL A   1      34.099  29.205  26.254  1.00  0.00     0.005 A 
BRANCH   8  13
ATOM     13  C   UNL A   1      32.386  25.899  25.659  1.00  0.00     0.075 A 
ATOM     14  N   UNL A   1      31.395  25.513  24.759  1.00  0.00    -0.233 N 
ATOM     15  N   UNL A   1      31.235  24.166  24.721  1.00  0.00    -0.163 NA
ATOM     16  C   UNL A   1      32.255  23.675  25.450  1.00  0.00     0.167 A 
ATOM     17  C   UNL A   1      32.984  24.722  26.064  1.00  0.00     0.064 A 
BRANCH  14  18
ATOM     18  C   UNL A   1      30.573  26.364  23.983  1.00  0.00     0.065 A 
ATOM     19  C   UNL A   1      28.979  28.399  23.002  1.00  0.00     0.067 A 
ATOM     20  C   UNL A   1      30.358  28.421  22.759  1.00  0.00     0.022 A 
ATOM     21  C   UNL A   1      28.375  27.307  23.626  1.00  0.00     0.022 A 
ATOM     22  C   UNL A   1      31.162  27.409  23.259  1.00  0.00     0.030 A 
ATOM     23  C   UNL A   1      29.179  26.264  24.098  1.00  0.00     0.030 A 
BRANCH  19  24
ATOM     24  S   UNL A   1      28.107  29.894  22.599  1.00  0.00     0.175 S 
ATOM     25  C   UNL A   1      29.062  31.274  23.149  1.00  0.00     0.163 C 
ATOM     26  O   UNL A   1      26.886  29.825  23.376  1.00  0.00    -0.224 OA
ATOM     27  O   UNL A   1      28.044  29.894  21.152  1.00  0.00    -0.224 OA
ENDBRANCH  19  24
ENDBRANCH  14  18
BRANCH  16  28
ATOM     28  C   UNL A   1      32.535  22.206  25.589  1.00  0.00     0.435 C 
ATOM     29  F   UNL A   1      31.412  21.441  25.619  1.00  0.00    -0.164 F 
ATOM     30  F   UNL A   1      33.317  21.733  24.582  1.00  0.00    -0.164 F 
ATOM     31  F   UNL A   1      33.210  21.934  26.744  1.00  0.00    -0.164 F 
ENDBRANCH  16  28
ENDBRANCH   8  13
ENDBRANCH   6   7
ENDBRANCH   3   6
ENDBRANCH   1   2
BRANCH   1  32
ATOM     32  C   UNL A   1      33.051  34.559  28.936  1.00  0.00     0.042 C 
BRANCH  32  33
ATOM     33  C   UNL A   1      33.276  35.756  29.842  1.00  0.00     0.118 C 
BRANCH  33  34
ATOM     34  N   UNL A   1      32.540  35.660  31.108  1.00  0.00    -0.352 N 
ATOM     35  C   UNL A   1      32.857  34.910  32.225  1.00  0.00     0.251 C 
ATOM     36  H   UNL A   1      31.717  36.197  31.170  1.00  0.00     0.163 HD
ATOM     37  O   UNL A   1      32.005  34.668  33.075  1.00  0.00    -0.269 OA
BRANCH  35  38
ATOM     38  C   UNL A   1      34.229  34.398  32.370  1.00  0.00     0.039 A 
ATOM     39  C   UNL A   1      34.541  33.054  32.142  1.00  0.00     0.014 A 
ATOM     40  C   UNL A   1      35.224  35.308  32.700  1.00  0.00     0.014 A 
ATOM     41  C   UNL A   1      35.876  32.656  32.183  1.00  0.00     0.010 A 
ATOM     42  C   UNL A   1      36.536  34.964  32.517  1.00  0.00     0.010 A 
ATOM     43  C   UNL A   1      36.874  33.624  32.352  1.00  0.00    -0.014 A 
BRANCH  43  44
ATOM     44  C   UNL A   1      38.296  33.287  32.278  1.00  0.00     0.031 A 
ATOM     45  C   UNL A   1      39.048  33.310  33.579  1.00  0.00     0.074 A 
ATOM     46  C   UNL A   1      38.801  32.742  31.140  1.00  0.00     0.049 A 
ATOM     47  N   UNL A   1      40.264  33.697  33.781  1.00  0.00    -0.248 NA
ATOM     48  C   UNL A   1      38.370  32.898  34.821  1.00  0.00     0.031 C 
ATOM     49  C   UNL A   1      38.080  32.420  29.894  1.00  0.00     0.029 A 
ATOM     50  N   UNL A   1      40.020  32.175  30.917  1.00  0.00    -0.354 N 
ATOM     51  C   UNL A   1      40.567  33.385  35.108  1.00  0.00     0.074 A 
ATOM     52  C   UNL A   1      39.357  32.911  35.715  1.00  0.00     0.031 C 
ATOM     53  C   UNL A   1      38.753  31.468  29.215  1.00  0.00     0.029 A 
ATOM     54  C   UNL A   1      40.025  31.248  29.870  1.00  0.00     0.049 A 
ATOM     55  H   UNL A   1      40.821  32.396  31.442  1.00  0.00     0.167 HD
ATOM     56  C   UNL A   1      41.847  33.419  35.565  1.00  0.00     0.034 A 
ATOM     57  C   UNL A   1      40.974  30.317  29.593  1.00  0.00     0.034 A 
ATOM     58  C   UNL A   1      42.650  34.306  34.769  1.00  0.00     0.049 A 
ATOM     59  C   UNL A   1      42.208  30.749  30.285  1.00  0.00     0.074 A 
ATOM     60  C   UNL A   1      42.525  35.639  34.424  1.00  0.00     0.029 A 
ATOM     61  N   UNL A   1      43.505  33.758  33.844  1.00  0.00    -0.354 N 
ATOM     62  N   UNL A   1      42.867  31.831  29.974  1.00  0.00    -0.248 NA
ATOM     63  C   UNL A   1      42.435  30.231  31.625  1.00  0.00     0.031 C 
ATOM     64  C   UNL A   1      42.835  35.673  33.036  1.00  0.00     0.029 A 
ATOM     65  C   UNL A   1      43.237  34.390  32.657  1.00  0.00     0.049 A 
ATOM     66  H   UNL A   1      44.173  33.052  34.001  1.00  0.00     0.167 HD
ATOM     67  C   UNL A   1      43.199  32.386  31.201  1.00  0.00     0.074 A 
ATOM     68  C   UNL A   1      42.991  31.313  32.176  1.00  0.00     0.031 C 
ATOM     69  C   UNL A   1      43.317  33.736  31.371  1.00  0.00     0.034 A 
BRANCH  56  70
ATOM     70  C   UNL A   1      42.454  32.418  36.514  1.00  0.00     0.023 A 
ATOM     71  C   UNL A   1      43.277  32.931  37.543  1.00  0.00     0.012 A 
ATOM     72  C   UNL A   1      42.525  31.030  36.256  1.00  0.00     0.148 A 
ATOM     73  C   UNL A   1      44.195  32.123  38.218  1.00  0.00     0.002 A 
ATOM     74  C   UNL A   1      43.406  30.220  36.971  1.00  0.00     0.091 A 
ATOM     75  F   UNL A   1      41.835  30.500  35.239  1.00  0.00    -0.205 F 
ATOM     76  C   UNL A   1      44.265  30.768  37.927  1.00  0.00     0.022 A 
BRANCH  74  77
ATOM     77  S   UNL A   1      43.512  28.453  36.664  1.00  0.00     0.127 S 
ATOM     78  O   UNL A   1      42.108  28.058  36.701  1.00  0.00    -0.237 OA
ATOM     79  O   UNL A   1      44.137  28.403  35.342  1.00  0.00    -0.237 OA
ATOM     80  O   UNL A   1      44.350  27.925  37.735  1.00  0.00    -0.744 OA
ENDBRANCH  74  77
ENDBRANCH  56  70
BRANCH  57  81
ATOM     81  C   UNL A   1      40.843  28.977  28.969  1.00  0.00     0.023 A 
ATOM     82  C   UNL A   1      39.786  28.125  29.349  1.00  0.00     0.012 A 
ATOM     83  C   UNL A   1      41.590  28.624  27.821  1.00  0.00     0.148 A 
ATOM     84  C   UNL A   1      39.470  26.980  28.604  1.00  0.00     0.002 A 
ATOM     85  C   UNL A   1      41.281  27.477  27.092  1.00  0.00     0.091 A 
ATOM     86  F   UNL A   1      42.539  29.463  27.383  1.00  0.00    -0.205 F 
ATOM     87  C   UNL A   1      40.214  26.658  27.474  1.00  0.00     0.022 A 
BRANCH  85  88
ATOM     88  S   UNL A   1      42.204  27.013  25.620  1.00  0.00     0.127 S 
ATOM     89  O   UNL A   1      43.525  26.696  26.169  1.00  0.00    -0.237 OA
ATOM     90  O   UNL A   1      41.450  25.858  25.142  1.00  0.00    -0.237 OA
ATOM     91  O   UNL A   1      42.186  28.196  24.770  1.00  0.00    -0.744 OA
ENDBRANCH  85  88
ENDBRANCH  57  81
BRANCH  69  92
ATOM     92  C   UNL A   1      43.257  34.645  30.167  1.00  0.00     0.023 A 
ATOM     93  C   UNL A   1      42.040  35.075  29.597  1.00  0.00     0.012 A 
ATOM     94  C   UNL A   1      44.450  35.258  29.747  1.00  0.00     0.148 A 
ATOM     95  C   UNL A   1      42.016  36.078  28.622  1.00  0.00     0.002 A 
ATOM     96  C   UNL A   1      44.418  36.292  28.819  1.00  0.00     0.091 A 
ATOM     97  F   UNL A   1      45.603  34.844  30.294  1.00  0.00    -0.205 F 
ATOM     98  C   UNL A   1      43.203  36.700  28.246  1.00  0.00     0.022 A 
BRANCH  96  99
ATOM     99  S   UNL A   1      45.899  37.219  28.413  1.00  0.00     0.127 S 
ATOM    100  O   UNL A   1      45.419  38.116  27.365  1.00  0.00    -0.237 OA
ATOM    101  O   UNL A   1      46.224  37.875  29.680  1.00  0.00    -0.237 OA
ATOM    102  O   UNL A   1      46.884  36.229  27.991  1.00  0.00    -0.744 OA
ENDBRANCH  96  99
ENDBRANCH  69  92
ENDBRANCH  43  44
ENDBRANCH  35  38
ENDBRANCH  33  34
ENDBRANCH  32  33
ENDBRANCH   1  32
TORSDOF 18
ENDMDL
