MODEL 1
REMARK VINA RESULT:     -12.4      0.000      0.000
REMARK SMILES Cc1ccc(OC2(C(=O)NCCCNC(=O)c3ccc(-c4c5nc(c(-c6cccc(S(=O)(=O)[O-])c6F)c6ccc([nH]6)c(-c6cccc(S(=O)(=O)[O-])c6F)c6nc(c(-c7cccc(S(=O)(=O)[O-])c7F)c7ccc4[nH]7)C=C6)C=C5)cc3)CC[NH+](C[C@@H]3CC=CCC3)CC2)cn1
REMARK SMILES IDX 12 1 11 2 10 3 8 4 9 5 7 7 80 8 91 9 81 10 90 11 82 12 6 14
REMARK SMILES IDX 5 15 1 16 2 17 3 18 93 19 4 20 92 21 83 22 84 23 85 24 89 25
REMARK SMILES IDX 86 26 88 27 87 28 13 29 14 30 15 31 16 33 17 34 18 35 79 36
REMARK SMILES IDX 19 37 78 38 20 39 21 40 22 41 72 42 23 43 77 44 71 45 73 46
REMARK SMILES IDX 24 47 76 48 70 49 69 50 25 52 57 53 37 54 56 55 38 56 41 57
REMARK SMILES IDX 55 58 74 59 39 60 40 61 54 63 75 64 42 65 26 66 27 67 35 68
REMARK SMILES IDX 28 69 30 70 36 71 29 72 31 73 32 74 33 75 34 76 58 77 59 78
REMARK SMILES IDX 67 79 60 80 62 81 68 82 61 83 63 84 64 85 65 86 66 87 43 88
REMARK SMILES IDX 44 89 52 90 45 91 47 92 53 93 46 94 48 95 49 96 50 97 51 98
REMARK H PARENT 10 6 82 13 14 32 73 51 41 62
REMARK Flexibility Score: inf
ROOT
ATOM      1  C   UNL A   1      38.202  20.988  26.099  1.00  0.00     0.042 C 
ENDROOT
BRANCH   1   2
ATOM      2  C   UNL A   1      37.898  22.390  25.536  1.00  0.00     0.118 C 
BRANCH   2   3
ATOM      3  N   UNL A   1      37.226  22.455  24.234  1.00  0.00    -0.353 N 
ATOM      4  C   UNL A   1      35.971  22.834  23.821  1.00  0.00     0.264 C 
ATOM      5  O   UNL A   1      35.880  23.090  22.611  1.00  0.00    -0.270 OA
ATOM      6  H   UNL A   1      37.801  22.161  23.491  1.00  0.00     0.163 HD
BRANCH   4   7
ATOM      7  C   UNL A   1      34.715  22.936  24.756  1.00  0.00     0.197 C 
ATOM      8  C   UNL A   1      34.758  24.248  25.499  1.00  0.00     0.120 C 
ATOM      9  C   UNL A   1      33.405  22.925  23.927  1.00  0.00     0.120 C 
ATOM     10  C   UNL A   1      33.546  24.567  26.325  1.00  0.00     0.267 C 
ATOM     11  C   UNL A   1      32.172  23.323  24.781  1.00  0.00     0.267 C 
ATOM     12  N   UNL A   1      32.385  24.611  25.453  1.00  0.00    -0.334 N 
ATOM     13  H   UNL A   1      32.576  25.256  24.687  1.00  0.00     0.348 HD
BRANCH   7  14
ATOM     14  O   UNL A   1      34.622  21.732  25.551  1.00  0.00    -0.475 OA
BRANCH  14  15
ATOM     15  C   UNL A   1      34.282  20.478  25.163  1.00  0.00     0.139 A 
ATOM     16  C   UNL A   1      32.919  16.428  24.897  1.00  0.00     0.066 C 
ATOM     17  C   UNL A   1      33.388  17.851  24.947  1.00  0.00     0.038 A 
ATOM     18  C   UNL A   1      34.648  18.187  24.480  1.00  0.00     0.027 A 
ATOM     19  N   UNL A   1      32.544  18.776  25.456  1.00  0.00    -0.258 NA
ATOM     20  C   UNL A   1      35.085  19.510  24.582  1.00  0.00     0.050 A 
ATOM     21  C   UNL A   1      33.013  20.050  25.554  1.00  0.00     0.157 A 
ENDBRANCH  14  15
ENDBRANCH   7  14
BRANCH  12  22
ATOM     22  C   UNL A   1      31.210  25.236  26.083  1.00  0.00     0.266 C 
BRANCH  22  23
ATOM     23  C   UNL A   1      30.938  26.773  26.014  1.00  0.00     0.048 C 
ATOM     24  C   UNL A   1      31.015  27.394  24.588  1.00  0.00     0.036 C 
ATOM     25  C   UNL A   1      31.720  27.544  27.091  1.00  0.00     0.014 C 
ATOM     26  C   UNL A   1      31.903  28.598  24.446  1.00  0.00    -0.031 C 
ATOM     27  C   UNL A   1      31.729  29.052  26.865  1.00  0.00     0.027 C 
ATOM     28  C   UNL A   1      32.219  29.376  25.490  1.00  0.00    -0.031 C 
ENDBRANCH  22  23
ENDBRANCH  12  22
ENDBRANCH   4   7
ENDBRANCH   2   3
ENDBRANCH   1   2
BRANCH   1  29
ATOM     29  C   UNL A   1      38.916  20.028  25.164  1.00  0.00     0.118 C 
BRANCH  29  30
ATOM     30  N   UNL A   1      39.937  19.267  25.852  1.00  0.00    -0.352 N 
ATOM     31  C   UNL A   1      41.132  19.659  26.406  1.00  0.00     0.251 C 
ATOM     32  H   UNL A   1      39.743  18.305  25.936  1.00  0.00     0.163 HD
ATOM     33  O   UNL A   1      41.961  18.783  26.658  1.00  0.00    -0.269 OA
BRANCH  31  34
ATOM     34  C   UNL A   1      41.457  21.079  26.714  1.00  0.00     0.039 A 
ATOM     35  C   UNL A   1      41.783  21.926  25.645  1.00  0.00     0.014 A 
ATOM     36  C   UNL A   1      41.574  21.566  28.018  1.00  0.00     0.014 A 
ATOM     37  C   UNL A   1      42.206  23.241  25.881  1.00  0.00     0.010 A 
ATOM     38  C   UNL A   1      41.917  22.904  28.249  1.00  0.00     0.010 A 
ATOM     39  C   UNL A   1      42.267  23.749  27.187  1.00  0.00    -0.014 A 
BRANCH  39  40
ATOM     40  C   UNL A   1      42.718  25.145  27.452  1.00  0.00     0.031 A 
ATOM     41  C   UNL A   1      41.787  26.150  28.084  1.00  0.00     0.074 A 
ATOM     42  C   UNL A   1      43.947  25.536  27.064  1.00  0.00     0.049 A 
ATOM     43  N   UNL A   1      41.999  27.412  28.363  1.00  0.00    -0.248 NA
ATOM     44  C   UNL A   1      40.432  25.686  28.422  1.00  0.00     0.031 C 
ATOM     45  C   UNL A   1      44.919  24.692  26.367  1.00  0.00     0.029 A 
ATOM     46  N   UNL A   1      44.581  26.750  27.175  1.00  0.00    -0.354 N 
ATOM     47  C   UNL A   1      40.799  27.901  28.869  1.00  0.00     0.074 A 
ATOM     48  C   UNL A   1      39.853  26.807  28.828  1.00  0.00     0.031 C 
ATOM     49  C   UNL A   1      46.022  25.412  26.113  1.00  0.00     0.029 A 
ATOM     50  C   UNL A   1      45.832  26.772  26.606  1.00  0.00     0.049 A 
ATOM     51  H   UNL A   1      44.176  27.530  27.621  1.00  0.00     0.167 HD
ATOM     52  C   UNL A   1      40.514  29.134  29.352  1.00  0.00     0.034 A 
ATOM     53  C   UNL A   1      46.728  27.773  26.490  1.00  0.00     0.034 A 
ATOM     54  C   UNL A   1      41.469  30.208  29.443  1.00  0.00     0.049 A 
ATOM     55  C   UNL A   1      46.417  29.116  27.092  1.00  0.00     0.074 A 
ATOM     56  C   UNL A   1      41.309  31.458  30.017  1.00  0.00     0.029 A 
ATOM     57  N   UNL A   1      42.762  30.162  28.944  1.00  0.00    -0.354 N 
ATOM     58  N   UNL A   1      45.337  29.504  27.724  1.00  0.00    -0.248 NA
ATOM     59  C   UNL A   1      47.464  30.144  27.003  1.00  0.00     0.031 C 
ATOM     60  C   UNL A   1      42.500  32.174  29.848  1.00  0.00     0.029 A 
ATOM     61  C   UNL A   1      43.407  31.364  29.184  1.00  0.00     0.049 A 
ATOM     62  H   UNL A   1      43.162  29.388  28.486  1.00  0.00     0.167 HD
ATOM     63  C   UNL A   1      45.580  30.813  28.128  1.00  0.00     0.074 A 
ATOM     64  C   UNL A   1      46.922  31.140  27.693  1.00  0.00     0.031 C 
ATOM     65  C   UNL A   1      44.758  31.669  28.785  1.00  0.00     0.034 A 
BRANCH  52  66
ATOM     66  C   UNL A   1      39.121  29.373  29.878  1.00  0.00     0.023 A 
ATOM     67  C   UNL A   1      38.793  28.962  31.186  1.00  0.00     0.012 A 
ATOM     68  C   UNL A   1      38.148  30.033  29.100  1.00  0.00     0.148 A 
ATOM     69  C   UNL A   1      37.511  29.164  31.697  1.00  0.00     0.002 A 
ATOM     70  C   UNL A   1      36.884  30.269  29.633  1.00  0.00     0.091 A 
ATOM     71  F   UNL A   1      38.465  30.399  27.850  1.00  0.00    -0.205 F 
ATOM     72  C   UNL A   1      36.560  29.825  30.925  1.00  0.00     0.022 A 
BRANCH  70  73
ATOM     73  S   UNL A   1      35.621  31.181  28.739  1.00  0.00     0.127 S 
ATOM     74  O   UNL A   1      36.427  32.127  27.970  1.00  0.00    -0.237 OA
ATOM     75  O   UNL A   1      34.985  30.133  27.939  1.00  0.00    -0.237 OA
ATOM     76  O   UNL A   1      34.760  31.767  29.757  1.00  0.00    -0.744 OA
ENDBRANCH  70  73
ENDBRANCH  52  66
BRANCH  53  77
ATOM     77  C   UNL A   1      48.039  27.504  25.835  1.00  0.00     0.023 A 
ATOM     78  C   UNL A   1      49.102  26.991  26.602  1.00  0.00     0.012 A 
ATOM     79  C   UNL A   1      48.213  27.679  24.448  1.00  0.00     0.148 A 
ATOM     80  C   UNL A   1      50.322  26.673  26.004  1.00  0.00     0.002 A 
ATOM     81  C   UNL A   1      49.411  27.306  23.849  1.00  0.00     0.091 A 
ATOM     82  F   UNL A   1      47.192  28.179  23.739  1.00  0.00    -0.205 F 
ATOM     83  C   UNL A   1      50.472  26.816  24.627  1.00  0.00     0.022 A 
BRANCH  81  84
ATOM     84  S   UNL A   1      49.639  27.320  22.066  1.00  0.00     0.127 S 
ATOM     85  O   UNL A   1      51.021  26.854  21.938  1.00  0.00    -0.237 OA
ATOM     86  O   UNL A   1      48.624  26.358  21.627  1.00  0.00    -0.237 OA
ATOM     87  O   UNL A   1      49.391  28.687  21.646  1.00  0.00    -0.744 OA
ENDBRANCH  81  84
ENDBRANCH  53  77
BRANCH  65  88
ATOM     88  C   UNL A   1      45.284  33.048  29.084  1.00  0.00     0.023 A 
ATOM     89  C   UNL A   1      46.031  33.267  30.259  1.00  0.00     0.012 A 
ATOM     90  C   UNL A   1      45.102  34.107  28.174  1.00  0.00     0.148 A 
ATOM     91  C   UNL A   1      46.562  34.527  30.538  1.00  0.00     0.002 A 
ATOM     92  C   UNL A   1      45.672  35.349  28.437  1.00  0.00     0.091 A 
ATOM     93  F   UNL A   1      44.371  33.887  27.072  1.00  0.00    -0.205 F 
ATOM     94  C   UNL A   1      46.393  35.562  29.623  1.00  0.00     0.022 A 
BRANCH  92  95
ATOM     95  S   UNL A   1      45.580  36.713  27.272  1.00  0.00     0.127 S 
ATOM     96  O   UNL A   1      44.146  36.776  26.998  1.00  0.00    -0.237 OA
ATOM     97  O   UNL A   1      46.102  37.833  28.057  1.00  0.00    -0.237 OA
ATOM     98  O   UNL A   1      46.420  36.330  26.143  1.00  0.00    -0.744 OA
ENDBRANCH  92  95
ENDBRANCH  65  88
ENDBRANCH  39  40
ENDBRANCH  31  34
ENDBRANCH  29  30
ENDBRANCH   1  29
TORSDOF 17
ENDMDL
MODEL 2
REMARK VINA RESULT:     -12.3      6.154     11.606
REMARK SMILES Cc1ccc(OC2(C(=O)NCCCNC(=O)c3ccc(-c4c5nc(c(-c6cccc(S(=O)(=O)[O-])c6F)c6ccc([nH]6)c(-c6cccc(S(=O)(=O)[O-])c6F)c6nc(c(-c7cccc(S(=O)(=O)[O-])c7F)c7ccc4[nH]7)C=C6)C=C5)cc3)CC[NH+](C[C@@H]3CC=CCC3)CC2)cn1
REMARK SMILES IDX 12 1 11 2 10 3 8 4 9 5 7 7 80 8 91 9 81 10 90 11 82 12 6 14
REMARK SMILES IDX 5 15 1 16 2 17 3 18 93 19 4 20 92 21 83 22 84 23 85 24 89 25
REMARK SMILES IDX 86 26 88 27 87 28 13 29 14 30 15 31 16 33 17 34 18 35 79 36
REMARK SMILES IDX 19 37 78 38 20 39 21 40 22 41 72 42 23 43 77 44 71 45 73 46
REMARK SMILES IDX 24 47 76 48 70 49 69 50 25 52 57 53 37 54 56 55 38 56 41 57
REMARK SMILES IDX 55 58 74 59 39 60 40 61 54 63 75 64 42 65 26 66 27 67 35 68
REMARK SMILES IDX 28 69 30 70 36 71 29 72 31 73 32 74 33 75 34 76 58 77 59 78
REMARK SMILES IDX 67 79 60 80 62 81 68 82 61 83 63 84 64 85 65 86 66 87 43 88
REMARK SMILES IDX 44 89 52 90 45 91 47 92 53 93 46 94 48 95 49 96 50 97 51 98
REMARK H PARENT 10 6 82 13 14 32 73 51 41 62
REMARK Flexibility Score: inf
ROOT
ATOM      1  C   UNL A   1      33.771  31.742  27.233  1.00  0.00     0.042 C 
ENDROOT
BRANCH   1   2
ATOM      2  C   UNL A   1      33.802  30.210  27.077  1.00  0.00     0.118 C 
BRANCH   2   3
ATOM      3  N   UNL A   1      32.566  29.482  27.381  1.00  0.00    -0.353 N 
ATOM      4  C   UNL A   1      31.986  28.332  26.901  1.00  0.00     0.264 C 
ATOM      5  O   UNL A   1      31.121  27.841  27.640  1.00  0.00    -0.270 OA
ATOM      6  H   UNL A   1      32.031  29.914  28.087  1.00  0.00     0.163 HD
BRANCH   4   7
ATOM      7  C   UNL A   1      32.339  27.661  25.527  1.00  0.00     0.197 C 
ATOM      8  C   UNL A   1      33.662  26.948  25.651  1.00  0.00     0.120 C 
ATOM      9  C   UNL A   1      31.281  26.594  25.145  1.00  0.00     0.120 C 
ATOM     10  C   UNL A   1      34.071  26.125  24.465  1.00  0.00     0.267 C 
ATOM     11  C   UNL A   1      31.750  25.708  23.960  1.00  0.00     0.267 C 
ATOM     12  N   UNL A   1      33.061  25.107  24.232  1.00  0.00    -0.334 N 
ATOM     13  H   UNL A   1      32.916  24.588  25.097  1.00  0.00     0.348 HD
BRANCH   7  14
ATOM     14  O   UNL A   1      32.219  28.647  24.477  1.00  0.00    -0.475 OA
BRANCH  14  15
ATOM     15  C   UNL A   1      31.097  29.144  23.898  1.00  0.00     0.139 A 
ATOM     16  C   UNL A   1      28.190  30.947  21.325  1.00  0.00     0.066 C 
ATOM     17  C   UNL A   1      29.176  30.292  22.243  1.00  0.00     0.038 A 
ATOM     18  C   UNL A   1      29.265  30.687  23.568  1.00  0.00     0.027 A 
ATOM     19  N   UNL A   1      29.960  29.315  21.735  1.00  0.00    -0.258 NA
ATOM     20  C   UNL A   1      30.224  30.098  24.396  1.00  0.00     0.050 A 
ATOM     21  C   UNL A   1      30.893  28.779  22.568  1.00  0.00     0.157 A 
ENDBRANCH  14  15
ENDBRANCH   7  14
BRANCH  12  22
ATOM     22  C   UNL A   1      33.511  24.044  23.318  1.00  0.00     0.266 C 
BRANCH  22  23
ATOM     23  C   UNL A   1      34.404  22.853  23.789  1.00  0.00     0.048 C 
ATOM     24  C   UNL A   1      34.178  22.399  25.262  1.00  0.00     0.036 C 
ATOM     25  C   UNL A   1      35.879  23.052  23.401  1.00  0.00     0.014 C 
ATOM     26  C   UNL A   1      35.412  22.304  26.114  1.00  0.00    -0.031 C 
ATOM     27  C   UNL A   1      36.823  22.081  24.102  1.00  0.00     0.027 C 
ATOM     28  C   UNL A   1      36.631  22.139  25.584  1.00  0.00    -0.031 C 
ENDBRANCH  22  23
ENDBRANCH  12  22
ENDBRANCH   4   7
ENDBRANCH   2   3
ENDBRANCH   1   2
BRANCH   1  29
ATOM     29  C   UNL A   1      32.407  32.366  27.468  1.00  0.00     0.118 C 
BRANCH  29  30
ATOM     30  N   UNL A   1      32.496  33.800  27.650  1.00  0.00    -0.352 N 
ATOM     31  C   UNL A   1      33.193  34.550  28.567  1.00  0.00     0.251 C 
ATOM     32  H   UNL A   1      31.966  34.328  27.009  1.00  0.00     0.163 HD
ATOM     33  O   UNL A   1      32.864  35.728  28.712  1.00  0.00    -0.269 OA
BRANCH  31  34
ATOM     34  C   UNL A   1      34.316  34.002  29.378  1.00  0.00     0.039 A 
ATOM     35  C   UNL A   1      35.625  34.277  28.959  1.00  0.00     0.014 A 
ATOM     36  C   UNL A   1      34.122  33.131  30.453  1.00  0.00     0.014 A 
ATOM     37  C   UNL A   1      36.720  33.697  29.614  1.00  0.00     0.010 A 
ATOM     38  C   UNL A   1      35.217  32.618  31.159  1.00  0.00     0.010 A 
ATOM     39  C   UNL A   1      36.528  32.869  30.731  1.00  0.00    -0.014 A 
BRANCH  39  40
ATOM     40  C   UNL A   1      37.684  32.244  31.435  1.00  0.00     0.031 A 
ATOM     41  C   UNL A   1      38.461  31.120  30.797  1.00  0.00     0.074 A 
ATOM     42  C   UNL A   1      37.999  32.641  32.684  1.00  0.00     0.049 A 
ATOM     43  N   UNL A   1      39.475  30.442  31.273  1.00  0.00    -0.248 NA
ATOM     44  C   UNL A   1      38.026  30.681  29.461  1.00  0.00     0.031 C 
ATOM     45  C   UNL A   1      37.281  33.658  33.452  1.00  0.00     0.029 A 
ATOM     46  N   UNL A   1      38.990  32.217  33.537  1.00  0.00    -0.354 N 
ATOM     47  C   UNL A   1      39.773  29.475  30.319  1.00  0.00     0.074 A 
ATOM     48  C   UNL A   1      38.811  29.633  29.250  1.00  0.00     0.031 C 
ATOM     49  C   UNL A   1      37.851  33.779  34.661  1.00  0.00     0.029 A 
ATOM     50  C   UNL A   1      38.960  32.836  34.765  1.00  0.00     0.049 A 
ATOM     51  H   UNL A   1      39.657  31.535  33.292  1.00  0.00     0.167 HD
ATOM     52  C   UNL A   1      40.771  28.558  30.313  1.00  0.00     0.034 A 
ATOM     53  C   UNL A   1      39.735  32.665  35.855  1.00  0.00     0.034 A 
ATOM     54  C   UNL A   1      41.762  28.434  31.349  1.00  0.00     0.049 A 
ATOM     55  C   UNL A   1      40.878  31.689  35.802  1.00  0.00     0.074 A 
ATOM     56  C   UNL A   1      42.876  27.612  31.384  1.00  0.00     0.029 A 
ATOM     57  N   UNL A   1      41.758  29.149  32.538  1.00  0.00    -0.354 N 
ATOM     58  N   UNL A   1      41.247  30.907  34.818  1.00  0.00    -0.248 NA
ATOM     59  C   UNL A   1      41.736  31.603  36.993  1.00  0.00     0.031 C 
ATOM     60  C   UNL A   1      43.535  27.817  32.601  1.00  0.00     0.029 A 
ATOM     61  C   UNL A   1      42.841  28.779  33.318  1.00  0.00     0.049 A 
ATOM     62  H   UNL A   1      41.084  29.820  32.789  1.00  0.00     0.167 HD
ATOM     63  C   UNL A   1      42.392  30.252  35.260  1.00  0.00     0.074 A 
ATOM     64  C   UNL A   1      42.671  30.751  36.591  1.00  0.00     0.031 C 
ATOM     65  C   UNL A   1      43.135  29.310  34.626  1.00  0.00     0.034 A 
BRANCH  52  66
ATOM     66  C   UNL A   1      40.877  27.651  29.112  1.00  0.00     0.023 A 
ATOM     67  C   UNL A   1      40.093  26.480  29.056  1.00  0.00     0.012 A 
ATOM     68  C   UNL A   1      41.717  27.969  28.026  1.00  0.00     0.148 A 
ATOM     69  C   UNL A   1      40.174  25.619  27.962  1.00  0.00     0.002 A 
ATOM     70  C   UNL A   1      41.759  27.127  26.919  1.00  0.00     0.091 A 
ATOM     71  F   UNL A   1      42.473  29.073  28.101  1.00  0.00    -0.205 F 
ATOM     72  C   UNL A   1      41.000  25.947  26.890  1.00  0.00     0.022 A 
BRANCH  70  73
ATOM     73  S   UNL A   1      42.736  27.508  25.460  1.00  0.00     0.127 S 
ATOM     74  O   UNL A   1      42.495  26.331  24.626  1.00  0.00    -0.237 OA
ATOM     75  O   UNL A   1      42.107  28.737  24.974  1.00  0.00    -0.237 OA
ATOM     76  O   UNL A   1      44.103  27.678  25.932  1.00  0.00    -0.744 OA
ENDBRANCH  70  73
ENDBRANCH  52  66
BRANCH  53  77
ATOM     77  C   UNL A   1      39.488  33.504  37.062  1.00  0.00     0.023 A 
ATOM     78  C   UNL A   1      39.913  34.846  37.068  1.00  0.00     0.012 A 
ATOM     79  C   UNL A   1      38.771  33.003  38.166  1.00  0.00     0.148 A 
ATOM     80  C   UNL A   1      39.641  35.672  38.160  1.00  0.00     0.002 A 
ATOM     81  C   UNL A   1      38.455  33.847  39.225  1.00  0.00     0.091 A 
ATOM     82  F   UNL A   1      38.388  31.720  38.144  1.00  0.00    -0.205 F 
ATOM     83  C   UNL A   1      38.901  35.177  39.231  1.00  0.00     0.022 A 
BRANCH  81  84
ATOM     84  S   UNL A   1      37.384  33.335  40.575  1.00  0.00     0.127 S 
ATOM     85  O   UNL A   1      38.183  32.286  41.209  1.00  0.00    -0.237 OA
ATOM     86  O   UNL A   1      37.268  34.573  41.351  1.00  0.00    -0.237 OA
ATOM     87  O   UNL A   1      36.146  32.899  39.954  1.00  0.00    -0.744 OA
ENDBRANCH  81  84
ENDBRANCH  53  77
BRANCH  65  88
ATOM     88  C   UNL A   1      44.330  28.756  35.356  1.00  0.00     0.023 A 
ATOM     89  C   UNL A   1      45.606  29.301  35.115  1.00  0.00     0.012 A 
ATOM     90  C   UNL A   1      44.181  27.749  36.330  1.00  0.00     0.148 A 
ATOM     91  C   UNL A   1      46.722  28.831  35.809  1.00  0.00     0.002 A 
ATOM     92  C   UNL A   1      45.291  27.316  37.049  1.00  0.00     0.091 A 
ATOM     93  F   UNL A   1      42.963  27.227  36.531  1.00  0.00    -0.205 F 
ATOM     94  C   UNL A   1      46.562  27.849  36.782  1.00  0.00     0.022 A 
BRANCH  92  95
ATOM     95  S   UNL A   1      45.162  26.119  38.383  1.00  0.00     0.127 S 
ATOM     96  O   UNL A   1      44.608  24.958  37.689  1.00  0.00    -0.237 OA
ATOM     97  O   UNL A   1      46.555  25.969  38.806  1.00  0.00    -0.237 OA
ATOM     98  O   UNL A   1      44.294  26.729  39.382  1.00  0.00    -0.744 OA
ENDBRANCH  92  95
ENDBRANCH  65  88
ENDBRANCH  39  40
ENDBRANCH  31  34
ENDBRANCH  29  30
ENDBRANCH   1  29
TORSDOF 17
ENDMDL
MODEL 3
REMARK VINA RESULT:     -12.1      5.502      9.593
REMARK SMILES Cc1ccc(OC2(C(=O)NCCCNC(=O)c3ccc(-c4c5nc(c(-c6cccc(S(=O)(=O)[O-])c6F)c6ccc([nH]6)c(-c6cccc(S(=O)(=O)[O-])c6F)c6nc(c(-c7cccc(S(=O)(=O)[O-])c7F)c7ccc4[nH]7)C=C6)C=C5)cc3)CC[NH+](C[C@@H]3CC=CCC3)CC2)cn1
REMARK SMILES IDX 12 1 11 2 10 3 8 4 9 5 7 7 80 8 91 9 81 10 90 11 82 12 6 14
REMARK SMILES IDX 5 15 1 16 2 17 3 18 93 19 4 20 92 21 83 22 84 23 85 24 89 25
REMARK SMILES IDX 86 26 88 27 87 28 13 29 14 30 15 31 16 33 17 34 18 35 79 36
REMARK SMILES IDX 19 37 78 38 20 39 21 40 22 41 72 42 23 43 77 44 71 45 73 46
REMARK SMILES IDX 24 47 76 48 70 49 69 50 25 52 57 53 37 54 56 55 38 56 41 57
REMARK SMILES IDX 55 58 74 59 39 60 40 61 54 63 75 64 42 65 26 66 27 67 35 68
REMARK SMILES IDX 28 69 30 70 36 71 29 72 31 73 32 74 33 75 34 76 58 77 59 78
REMARK SMILES IDX 67 79 60 80 62 81 68 82 61 83 63 84 64 85 65 86 66 87 43 88
REMARK SMILES IDX 44 89 52 90 45 91 47 92 53 93 46 94 48 95 49 96 50 97 51 98
REMARK H PARENT 10 6 82 13 14 32 73 51 41 62
REMARK Flexibility Score: inf
ROOT
ATOM      1  C   UNL A   1      33.337  31.024  26.706  1.00  0.00     0.042 C 
ENDROOT
BRANCH   1   2
ATOM      2  C   UNL A   1      33.454  29.562  27.176  1.00  0.00     0.118 C 
BRANCH   2   3
ATOM      3  N   UNL A   1      32.208  28.800  27.307  1.00  0.00    -0.353 N 
ATOM      4  C   UNL A   1      31.700  27.678  26.696  1.00  0.00     0.264 C 
ATOM      5  O   UNL A   1      30.776  27.127  27.312  1.00  0.00    -0.270 OA
ATOM      6  H   UNL A   1      31.599  29.177  27.983  1.00  0.00     0.163 HD
BRANCH   4   7
ATOM      7  C   UNL A   1      32.199  27.107  25.322  1.00  0.00     0.197 C 
ATOM      8  C   UNL A   1      33.511  26.392  25.532  1.00  0.00     0.120 C 
ATOM      9  C   UNL A   1      31.198  26.065  24.761  1.00  0.00     0.120 C 
ATOM     10  C   UNL A   1      34.048  25.655  24.340  1.00  0.00     0.267 C 
ATOM     11  C   UNL A   1      31.796  25.266  23.572  1.00  0.00     0.267 C 
ATOM     12  N   UNL A   1      33.079  24.653  23.934  1.00  0.00    -0.334 N 
ATOM     13  H   UNL A   1      32.851  24.074  24.742  1.00  0.00     0.348 HD
BRANCH   7  14
ATOM     14  O   UNL A   1      32.176  28.163  24.337  1.00  0.00    -0.475 OA
BRANCH  14  15
ATOM     15  C   UNL A   1      31.110  28.824  23.819  1.00  0.00     0.139 A 
ATOM     16  C   UNL A   1      28.377  31.086  21.423  1.00  0.00     0.066 C 
ATOM     17  C   UNL A   1      29.300  30.273  22.280  1.00  0.00     0.038 A 
ATOM     18  C   UNL A   1      29.485  30.602  23.613  1.00  0.00     0.027 A 
ATOM     19  N   UNL A   1      29.931  29.224  21.708  1.00  0.00    -0.258 NA
ATOM     20  C   UNL A   1      30.387  29.863  24.382  1.00  0.00     0.050 A 
ATOM     21  C   UNL A   1      30.815  28.539  22.486  1.00  0.00     0.157 A 
ENDBRANCH  14  15
ENDBRANCH   7  14
BRANCH  12  22
ATOM     22  C   UNL A   1      33.631  23.658  23.000  1.00  0.00     0.266 C 
BRANCH  22  23
ATOM     23  C   UNL A   1      33.721  22.138  23.347  1.00  0.00     0.048 C 
ATOM     24  C   UNL A   1      32.352  21.423  23.549  1.00  0.00     0.036 C 
ATOM     25  C   UNL A   1      34.756  21.861  24.451  1.00  0.00     0.014 C 
ATOM     26  C   UNL A   1      32.204  20.642  24.824  1.00  0.00    -0.031 C 
ATOM     27  C   UNL A   1      34.655  20.455  25.032  1.00  0.00     0.027 C 
ATOM     28  C   UNL A   1      33.262  20.177  25.501  1.00  0.00    -0.031 C 
ENDBRANCH  22  23
ENDBRANCH  12  22
ENDBRANCH   4   7
ENDBRANCH   2   3
ENDBRANCH   1   2
BRANCH   1  29
ATOM     29  C   UNL A   1      32.149  31.808  27.238  1.00  0.00     0.118 C 
BRANCH  29  30
ATOM     30  N   UNL A   1      32.416  33.230  27.273  1.00  0.00    -0.352 N 
ATOM     31  C   UNL A   1      33.298  33.962  28.033  1.00  0.00     0.251 C 
ATOM     32  H   UNL A   1      31.874  33.764  26.648  1.00  0.00     0.163 HD
ATOM     33  O   UNL A   1      33.120  35.179  28.101  1.00  0.00    -0.269 OA
BRANCH  31  34
ATOM     34  C   UNL A   1      34.444  33.351  28.761  1.00  0.00     0.039 A 
ATOM     35  C   UNL A   1      35.721  33.463  28.193  1.00  0.00     0.014 A 
ATOM     36  C   UNL A   1      34.284  32.571  29.909  1.00  0.00     0.014 A 
ATOM     37  C   UNL A   1      36.818  32.813  28.772  1.00  0.00     0.010 A 
ATOM     38  C   UNL A   1      35.395  31.990  30.534  1.00  0.00     0.010 A 
ATOM     39  C   UNL A   1      36.670  32.078  29.958  1.00  0.00    -0.014 A 
BRANCH  39  40
ATOM     40  C   UNL A   1      37.829  31.380  30.583  1.00  0.00     0.031 A 
ATOM     41  C   UNL A   1      38.230  31.673  32.008  1.00  0.00     0.074 A 
ATOM     42  C   UNL A   1      38.570  30.526  29.851  1.00  0.00     0.049 A 
ATOM     43  N   UNL A   1      39.224  31.182  32.704  1.00  0.00    -0.248 NA
ATOM     44  C   UNL A   1      37.426  32.668  32.737  1.00  0.00     0.031 C 
ATOM     45  C   UNL A   1      38.346  30.213  28.438  1.00  0.00     0.029 A 
ATOM     46  N   UNL A   1      39.679  29.785  30.184  1.00  0.00    -0.354 N 
ATOM     47  C   UNL A   1      39.191  31.833  33.933  1.00  0.00     0.074 A 
ATOM     48  C   UNL A   1      38.097  32.779  33.875  1.00  0.00     0.031 C 
ATOM     49  C   UNL A   1      39.286  29.348  28.027  1.00  0.00     0.029 A 
ATOM     50  C   UNL A   1      40.191  29.059  29.134  1.00  0.00     0.049 A 
ATOM     51  H   UNL A   1      40.068  29.774  31.089  1.00  0.00     0.167 HD
ATOM     52  C   UNL A   1      39.975  31.645  35.022  1.00  0.00     0.034 A 
ATOM     53  C   UNL A   1      41.270  28.254  29.066  1.00  0.00     0.034 A 
ATOM     54  C   UNL A   1      41.028  30.668  35.101  1.00  0.00     0.049 A 
ATOM     55  C   UNL A   1      42.087  28.007  30.305  1.00  0.00     0.074 A 
ATOM     56  C   UNL A   1      41.806  30.324  36.194  1.00  0.00     0.029 A 
ATOM     57  N   UNL A   1      41.457  29.878  34.045  1.00  0.00    -0.354 N 
ATOM     58  N   UNL A   1      41.929  28.504  31.507  1.00  0.00    -0.248 NA
ATOM     59  C   UNL A   1      43.204  27.059  30.188  1.00  0.00     0.031 C 
ATOM     60  C   UNL A   1      42.717  29.340  35.793  1.00  0.00     0.029 A 
ATOM     61  C   UNL A   1      42.495  29.058  34.454  1.00  0.00     0.049 A 
ATOM     62  H   UNL A   1      41.078  29.898  33.137  1.00  0.00     0.167 HD
ATOM     63  C   UNL A   1      42.910  27.913  32.296  1.00  0.00     0.074 A 
ATOM     64  C   UNL A   1      43.639  26.999  31.440  1.00  0.00     0.031 C 
ATOM     65  C   UNL A   1      43.190  28.121  33.607  1.00  0.00     0.034 A 
BRANCH  52  66
ATOM     66  C   UNL A   1      39.681  32.478  36.245  1.00  0.00     0.023 A 
ATOM     67  C   UNL A   1      40.370  33.693  36.438  1.00  0.00     0.012 A 
ATOM     68  C   UNL A   1      38.704  32.085  37.181  1.00  0.00     0.148 A 
ATOM     69  C   UNL A   1      40.124  34.482  37.562  1.00  0.00     0.002 A 
ATOM     70  C   UNL A   1      38.433  32.899  38.278  1.00  0.00     0.091 A 
ATOM     71  F   UNL A   1      38.072  30.917  36.997  1.00  0.00    -0.205 F 
ATOM     72  C   UNL A   1      39.150  34.089  38.476  1.00  0.00     0.022 A 
BRANCH  70  73
ATOM     73  S   UNL A   1      37.142  32.511  39.465  1.00  0.00     0.127 S 
ATOM     74  O   UNL A   1      35.938  32.640  38.645  1.00  0.00    -0.237 OA
ATOM     75  O   UNL A   1      37.471  31.138  39.849  1.00  0.00    -0.237 OA
ATOM     76  O   UNL A   1      37.284  33.486  40.537  1.00  0.00    -0.744 OA
ENDBRANCH  70  73
ENDBRANCH  52  66
BRANCH  53  77
ATOM     77  C   UNL A   1      41.583  27.563  27.783  1.00  0.00     0.023 A 
ATOM     78  C   UNL A   1      42.051  28.316  26.689  1.00  0.00     0.012 A 
ATOM     79  C   UNL A   1      41.493  26.162  27.666  1.00  0.00     0.148 A 
ATOM     80  C   UNL A   1      42.410  27.689  25.496  1.00  0.00     0.002 A 
ATOM     81  C   UNL A   1      41.906  25.539  26.494  1.00  0.00     0.091 A 
ATOM     82  F   UNL A   1      41.034  25.466  28.714  1.00  0.00    -0.205 F 
ATOM     83  C   UNL A   1      42.351  26.301  25.402  1.00  0.00     0.022 A 
BRANCH  81  84
ATOM     84  S   UNL A   1      42.001  23.750  26.339  1.00  0.00     0.127 S 
ATOM     85  O   UNL A   1      42.648  23.598  25.035  1.00  0.00    -0.237 OA
ATOM     86  O   UNL A   1      42.841  23.395  27.486  1.00  0.00    -0.237 OA
ATOM     87  O   UNL A   1      40.633  23.272  26.426  1.00  0.00    -0.744 OA
ENDBRANCH  81  84
ENDBRANCH  53  77
BRANCH  65  88
ATOM     88  C   UNL A   1      44.332  27.345  34.208  1.00  0.00     0.023 A 
ATOM     89  C   UNL A   1      45.614  27.926  34.265  1.00  0.00     0.012 A 
ATOM     90  C   UNL A   1      44.124  26.074  34.778  1.00  0.00     0.148 A 
ATOM     91  C   UNL A   1      46.679  27.242  34.853  1.00  0.00     0.002 A 
ATOM     92  C   UNL A   1      45.180  25.416  35.402  1.00  0.00     0.091 A 
ATOM     93  F   UNL A   1      42.903  25.527  34.696  1.00  0.00    -0.205 F 
ATOM     94  C   UNL A   1      46.459  25.994  35.431  1.00  0.00     0.022 A 
BRANCH  92  95
ATOM     95  S   UNL A   1      44.966  23.846  36.249  1.00  0.00     0.127 S 
ATOM     96  O   UNL A   1      46.286  23.240  36.093  1.00  0.00    -0.237 OA
ATOM     97  O   UNL A   1      44.644  24.267  37.614  1.00  0.00    -0.237 OA
ATOM     98  O   UNL A   1      43.876  23.167  35.559  1.00  0.00    -0.744 OA
ENDBRANCH  92  95
ENDBRANCH  65  88
ENDBRANCH  39  40
ENDBRANCH  31  34
ENDBRANCH  29  30
ENDBRANCH   1  29
TORSDOF 17
ENDMDL
