MODEL 1
REMARK VINA RESULT:     -10.2      0.000      0.000
REMARK SMILES CCC[C@@H](C[NH2+]C(C)C)C(=O)NCCCNC(=O)c1ccc(-c2c3nc(c(-c4cccc(S(=O)(=O)[O-])c4F)c4ccc([nH]4)c(-c4cccc(S(=O)(=O)[O-])c4F)c4nc(c(-c5cccc(S(=O)(=O)[O-])c5F)c5ccc2[nH]5)C=C4)C=C3)cc1
REMARK SMILES IDX 14 1 13 2 12 3 10 4 11 5 4 7 3 8 2 9 1 10 5 11 6 12 7 15
REMARK SMILES IDX 8 16 9 17 15 18 16 19 17 20 18 22 19 23 20 24 81 25 21 26
REMARK SMILES IDX 80 27 22 28 23 29 24 30 74 31 25 32 79 33 73 34 75 35 26 36
REMARK SMILES IDX 78 37 72 38 71 39 27 41 59 42 39 43 58 44 40 45 43 46 57 47
REMARK SMILES IDX 76 48 41 49 42 50 56 52 77 53 44 54 28 55 29 56 37 57 30 58
REMARK SMILES IDX 32 59 38 60 31 61 33 62 34 63 35 64 36 65 60 66 61 67 69 68
REMARK SMILES IDX 62 69 64 70 70 71 63 72 65 73 66 74 67 75 68 76 45 77 46 78
REMARK SMILES IDX 54 79 47 80 49 81 55 82 48 83 50 84 51 85 52 86 53 87
REMARK H PARENT 12 6 6 13 6 14 16 21 75 40 43 51
REMARK Flexibility Score: inf
ROOT
ATOM      1  C   UNL A   1      31.714  28.522  26.695  1.00  0.00     0.042 C 
ENDROOT
BRANCH   1   2
ATOM      2  C   UNL A   1      31.761  27.090  26.207  1.00  0.00     0.117 C 
BRANCH   2   3
ATOM      3  N   UNL A   1      30.597  26.698  25.437  1.00  0.00    -0.356 N 
ATOM      4  C   UNL A   1      30.320  26.890  24.118  1.00  0.00     0.228 C 
ATOM      5  O   UNL A   1      29.324  26.319  23.661  1.00  0.00    -0.275 OA
ATOM      6  H   UNL A   1      29.901  26.220  25.944  1.00  0.00     0.163 HD
BRANCH   4   7
ATOM      7  C   UNL A   1      31.179  27.775  23.211  1.00  0.00     0.133 C 
BRANCH   7   8
ATOM      8  C   UNL A   1      32.110  26.937  22.314  1.00  0.00     0.019 C 
BRANCH   8   9
ATOM      9  C   UNL A   1      33.609  27.113  22.559  1.00  0.00    -0.002 C 
ATOM     10  C   UNL A   1      34.051  28.566  22.578  1.00  0.00     0.004 C 
ENDBRANCH   8   9
ENDBRANCH   7   8
BRANCH   7  11
ATOM     11  C   UNL A   1      30.365  28.923  22.567  1.00  0.00     0.274 C 
BRANCH  11  12
ATOM     12  N   UNL A   1      29.320  29.475  23.420  1.00  0.00    -0.344 N 
ATOM     13  H   UNL A   1      29.691  30.317  23.860  1.00  0.00     0.346 HD
ATOM     14  H   UNL A   1      29.080  28.730  24.074  1.00  0.00     0.346 HD
BRANCH  12  15
ATOM     15  C   UNL A   1      28.072  29.832  22.757  1.00  0.00     0.176 C 
ATOM     16  C   UNL A   1      26.964  28.863  23.157  1.00  0.00     0.075 C 
ATOM     17  C   UNL A   1      27.720  31.255  23.200  1.00  0.00     0.075 C 
ENDBRANCH  12  15
ENDBRANCH  11  12
ENDBRANCH   7  11
ENDBRANCH   4   7
ENDBRANCH   2   3
ENDBRANCH   1   2
BRANCH   1  18
ATOM     18  C   UNL A   1      32.739  29.414  26.028  1.00  0.00     0.118 C 
BRANCH  18  19
ATOM     19  N   UNL A   1      32.573  30.823  26.377  1.00  0.00    -0.352 N 
ATOM     20  C   UNL A   1      33.303  31.621  27.225  1.00  0.00     0.251 C 
ATOM     21  H   UNL A   1      31.818  31.272  25.933  1.00  0.00     0.163 HD
ATOM     22  O   UNL A   1      32.881  32.736  27.527  1.00  0.00    -0.269 OA
BRANCH  20  23
ATOM     23  C   UNL A   1      34.577  31.130  27.789  1.00  0.00     0.039 A 
ATOM     24  C   UNL A   1      35.622  32.030  28.016  1.00  0.00     0.014 A 
ATOM     25  C   UNL A   1      34.732  29.783  28.115  1.00  0.00     0.014 A 
ATOM     26  C   UNL A   1      36.787  31.587  28.648  1.00  0.00     0.010 A 
ATOM     27  C   UNL A   1      35.827  29.378  28.862  1.00  0.00     0.010 A 
ATOM     28  C   UNL A   1      36.879  30.267  29.120  1.00  0.00    -0.014 A 
BRANCH  28  29
ATOM     29  C   UNL A   1      38.065  29.778  29.866  1.00  0.00     0.031 A 
ATOM     30  C   UNL A   1      38.315  30.257  31.272  1.00  0.00     0.074 A 
ATOM     31  C   UNL A   1      38.966  28.989  29.248  1.00  0.00     0.049 A 
ATOM     32  N   UNL A   1      39.331  30.014  32.058  1.00  0.00    -0.248 NA
ATOM     33  C   UNL A   1      37.310  31.161  31.858  1.00  0.00     0.031 C 
ATOM     34  C   UNL A   1      38.880  28.525  27.860  1.00  0.00     0.029 A 
ATOM     35  N   UNL A   1      40.146  28.454  29.700  1.00  0.00    -0.354 N 
ATOM     36  C   UNL A   1      39.108  30.765  33.207  1.00  0.00     0.074 A 
ATOM     37  C   UNL A   1      37.892  31.516  32.993  1.00  0.00     0.031 C 
ATOM     38  C   UNL A   1      39.945  27.754  27.585  1.00  0.00     0.029 A 
ATOM     39  C   UNL A   1      40.810  27.702  28.759  1.00  0.00     0.049 A 
ATOM     40  H   UNL A   1      40.487  28.596  30.613  1.00  0.00     0.167 HD
ATOM     41  C   UNL A   1      39.826  30.798  34.355  1.00  0.00     0.034 A 
ATOM     42  C   UNL A   1      41.983  27.044  28.836  1.00  0.00     0.034 A 
ATOM     43  C   UNL A   1      41.007  30.012  34.579  1.00  0.00     0.049 A 
ATOM     44  C   UNL A   1      42.749  27.074  30.130  1.00  0.00     0.074 A 
ATOM     45  C   UNL A   1      41.762  29.902  35.732  1.00  0.00     0.029 A 
ATOM     46  N   UNL A   1      41.609  29.204  33.627  1.00  0.00    -0.354 N 
ATOM     47  N   UNL A   1      42.442  27.667  31.259  1.00  0.00    -0.248 NA
ATOM     48  C   UNL A   1      44.006  26.314  30.174  1.00  0.00     0.031 C 
ATOM     49  C   UNL A   1      42.838  29.048  35.468  1.00  0.00     0.029 A 
ATOM     50  C   UNL A   1      42.733  28.600  34.161  1.00  0.00     0.049 A 
ATOM     51  H   UNL A   1      41.283  29.078  32.706  1.00  0.00     0.167 HD
ATOM     52  C   UNL A   1      43.445  27.321  32.158  1.00  0.00     0.074 A 
ATOM     53  C   UNL A   1      44.358  26.449  31.445  1.00  0.00     0.031 C 
ATOM     54  C   UNL A   1      43.602  27.695  33.451  1.00  0.00     0.034 A 
BRANCH  41  55
ATOM     55  C   UNL A   1      39.314  31.677  35.469  1.00  0.00     0.023 A 
ATOM     56  C   UNL A   1      38.348  31.174  36.367  1.00  0.00     0.012 A 
ATOM     57  C   UNL A   1      39.797  32.988  35.644  1.00  0.00     0.148 A 
ATOM     58  C   UNL A   1      37.835  31.975  37.386  1.00  0.00     0.002 A 
ATOM     59  C   UNL A   1      39.320  33.763  36.693  1.00  0.00     0.091 A 
ATOM     60  F   UNL A   1      40.698  33.460  34.770  1.00  0.00    -0.205 F 
ATOM     61  C   UNL A   1      38.328  33.266  37.554  1.00  0.00     0.022 A 
BRANCH  59  62
ATOM     62  S   UNL A   1      39.951  35.408  37.047  1.00  0.00     0.127 S 
ATOM     63  O   UNL A   1      39.522  36.149  35.862  1.00  0.00    -0.237 OA
ATOM     64  O   UNL A   1      39.234  35.754  38.275  1.00  0.00    -0.237 OA
ATOM     65  O   UNL A   1      41.390  35.258  37.208  1.00  0.00    -0.744 OA
ENDBRANCH  59  62
ENDBRANCH  41  55
BRANCH  42  66
ATOM     66  C   UNL A   1      42.459  26.229  27.682  1.00  0.00     0.023 A 
ATOM     67  C   UNL A   1      43.369  26.800  26.769  1.00  0.00     0.012 A 
ATOM     68  C   UNL A   1      42.046  24.896  27.494  1.00  0.00     0.148 A 
ATOM     69  C   UNL A   1      43.834  26.072  25.675  1.00  0.00     0.002 A 
ATOM     70  C   UNL A   1      42.555  24.157  26.431  1.00  0.00     0.091 A 
ATOM     71  F   UNL A   1      41.176  24.373  28.370  1.00  0.00    -0.205 F 
ATOM     72  C   UNL A   1      43.433  24.748  25.510  1.00  0.00     0.022 A 
BRANCH  70  73
ATOM     73  S   UNL A   1      42.196  22.411  26.207  1.00  0.00     0.127 S 
ATOM     74  O   UNL A   1      42.712  21.838  27.447  1.00  0.00    -0.237 OA
ATOM     75  O   UNL A   1      40.736  22.418  26.090  1.00  0.00    -0.237 OA
ATOM     76  O   UNL A   1      42.894  22.018  24.991  1.00  0.00    -0.744 OA
ENDBRANCH  70  73
ENDBRANCH  42  66
BRANCH  54  77
ATOM     77  C   UNL A   1      44.781  27.134  34.201  1.00  0.00     0.023 A 
ATOM     78  C   UNL A   1      45.977  27.874  34.291  1.00  0.00     0.012 A 
ATOM     79  C   UNL A   1      44.675  25.904  34.882  1.00  0.00     0.148 A 
ATOM     80  C   UNL A   1      47.061  27.382  35.017  1.00  0.00     0.002 A 
ATOM     81  C   UNL A   1      45.740  25.447  35.646  1.00  0.00     0.091 A 
ATOM     82  F   UNL A   1      43.534  25.208  34.770  1.00  0.00    -0.205 F 
ATOM     83  C   UNL A   1      46.938  26.176  35.704  1.00  0.00     0.022 A 
BRANCH  81  84
ATOM     84  S   UNL A   1      45.638  23.957  36.646  1.00  0.00     0.127 S 
ATOM     85  O   UNL A   1      47.044  23.575  36.755  1.00  0.00    -0.237 OA
ATOM     86  O   UNL A   1      45.043  24.458  37.886  1.00  0.00    -0.237 OA
ATOM     87  O   UNL A   1      44.796  23.031  35.903  1.00  0.00    -0.744 OA
ENDBRANCH  81  84
ENDBRANCH  54  77
ENDBRANCH  28  29
ENDBRANCH  20  23
ENDBRANCH  18  19
ENDBRANCH   1  18
TORSDOF 18
ENDMDL
MODEL 2
REMARK VINA RESULT:     -10.1      5.828     10.790
REMARK SMILES CCC[C@@H](C[NH2+]C(C)C)C(=O)NCCCNC(=O)c1ccc(-c2c3nc(c(-c4cccc(S(=O)(=O)[O-])c4F)c4ccc([nH]4)c(-c4cccc(S(=O)(=O)[O-])c4F)c4nc(c(-c5cccc(S(=O)(=O)[O-])c5F)c5ccc2[nH]5)C=C4)C=C3)cc1
REMARK SMILES IDX 14 1 13 2 12 3 10 4 11 5 4 7 3 8 2 9 1 10 5 11 6 12 7 15
REMARK SMILES IDX 8 16 9 17 15 18 16 19 17 20 18 22 19 23 20 24 81 25 21 26
REMARK SMILES IDX 80 27 22 28 23 29 24 30 74 31 25 32 79 33 73 34 75 35 26 36
REMARK SMILES IDX 78 37 72 38 71 39 27 41 59 42 39 43 58 44 40 45 43 46 57 47
REMARK SMILES IDX 76 48 41 49 42 50 56 52 77 53 44 54 28 55 29 56 37 57 30 58
REMARK SMILES IDX 32 59 38 60 31 61 33 62 34 63 35 64 36 65 60 66 61 67 69 68
REMARK SMILES IDX 62 69 64 70 70 71 63 72 65 73 66 74 67 75 68 76 45 77 46 78
REMARK SMILES IDX 54 79 47 80 49 81 55 82 48 83 50 84 51 85 52 86 53 87
REMARK H PARENT 12 6 6 13 6 14 16 21 75 40 43 51
REMARK Flexibility Score: inf
ROOT
ATOM      1  C   UNL A   1      36.343  22.316  24.057  1.00  0.00     0.042 C 
ENDROOT
BRANCH   1   2
ATOM      2  C   UNL A   1      35.136  23.210  23.873  1.00  0.00     0.117 C 
BRANCH   2   3
ATOM      3  N   UNL A   1      34.030  22.564  23.194  1.00  0.00    -0.356 N 
ATOM      4  C   UNL A   1      32.998  21.839  23.704  1.00  0.00     0.228 C 
ATOM      5  O   UNL A   1      32.090  21.525  22.928  1.00  0.00    -0.275 OA
ATOM      6  H   UNL A   1      34.024  22.666  22.214  1.00  0.00     0.163 HD
BRANCH   4   7
ATOM      7  C   UNL A   1      32.935  21.407  25.172  1.00  0.00     0.133 C 
BRANCH   7   8
ATOM      8  C   UNL A   1      31.898  22.226  25.964  1.00  0.00     0.019 C 
BRANCH   8   9
ATOM      9  C   UNL A   1      31.582  23.615  25.410  1.00  0.00    -0.002 C 
ATOM     10  C   UNL A   1      31.664  24.714  26.456  1.00  0.00     0.004 C 
ENDBRANCH   8   9
ENDBRANCH   7   8
BRANCH   7  11
ATOM     11  C   UNL A   1      32.942  19.867  25.332  1.00  0.00     0.274 C 
BRANCH  11  12
ATOM     12  N   UNL A   1      33.560  19.148  24.226  1.00  0.00    -0.344 N 
ATOM     13  H   UNL A   1      34.498  18.874  24.518  1.00  0.00     0.346 HD
ATOM     14  H   UNL A   1      33.538  19.792  23.435  1.00  0.00     0.346 HD
BRANCH  12  15
ATOM     15  C   UNL A   1      32.867  17.949  23.772  1.00  0.00     0.176 C 
ATOM     16  C   UNL A   1      32.369  18.132  22.342  1.00  0.00     0.075 C 
ATOM     17  C   UNL A   1      33.873  16.796  23.842  1.00  0.00     0.075 C 
ENDBRANCH  12  15
ENDBRANCH  11  12
ENDBRANCH   7  11
ENDBRANCH   4   7
ENDBRANCH   2   3
ENDBRANCH   1   2
BRANCH   1  18
ATOM     18  C   UNL A   1      36.601  21.951  25.503  1.00  0.00     0.118 C 
BRANCH  18  19
ATOM     19  N   UNL A   1      37.649  20.946  25.653  1.00  0.00    -0.352 N 
ATOM     20  C   UNL A   1      38.968  21.082  26.017  1.00  0.00     0.251 C 
ATOM     21  H   UNL A   1      37.366  20.022  25.464  1.00  0.00     0.163 HD
ATOM     22  O   UNL A   1      39.736  20.129  25.898  1.00  0.00    -0.269 OA
BRANCH  20  23
ATOM     23  C   UNL A   1      39.464  22.378  26.525  1.00  0.00     0.039 A 
ATOM     24  C   UNL A   1      40.517  22.400  27.443  1.00  0.00     0.014 A 
ATOM     25  C   UNL A   1      38.903  23.574  26.077  1.00  0.00     0.014 A 
ATOM     26  C   UNL A   1      41.057  23.626  27.842  1.00  0.00     0.010 A 
ATOM     27  C   UNL A   1      39.527  24.777  26.366  1.00  0.00     0.010 A 
ATOM     28  C   UNL A   1      40.597  24.823  27.268  1.00  0.00    -0.014 A 
BRANCH  28  29
ATOM     29  C   UNL A   1      41.197  26.139  27.604  1.00  0.00     0.031 A 
ATOM     30  C   UNL A   1      42.613  26.443  27.192  1.00  0.00     0.074 A 
ATOM     31  C   UNL A   1      40.509  27.014  28.364  1.00  0.00     0.049 A 
ATOM     32  N   UNL A   1      43.343  27.494  27.459  1.00  0.00    -0.248 NA
ATOM     33  C   UNL A   1      43.318  25.411  26.410  1.00  0.00     0.031 C 
ATOM     34  C   UNL A   1      39.160  26.800  28.896  1.00  0.00     0.029 A 
ATOM     35  N   UNL A   1      40.857  28.253  28.839  1.00  0.00    -0.354 N 
ATOM     36  C   UNL A   1      44.597  27.232  26.917  1.00  0.00     0.074 A 
ATOM     37  C   UNL A   1      44.547  25.901  26.358  1.00  0.00     0.031 C 
ATOM     38  C   UNL A   1      38.787  27.881  29.600  1.00  0.00     0.029 A 
ATOM     39  C   UNL A   1      39.881  28.846  29.604  1.00  0.00     0.049 A 
ATOM     40  H   UNL A   1      41.726  28.677  28.650  1.00  0.00     0.167 HD
ATOM     41  C   UNL A   1      45.682  28.040  26.853  1.00  0.00     0.034 A 
ATOM     42  C   UNL A   1      39.870  30.035  30.238  1.00  0.00     0.034 A 
ATOM     43  C   UNL A   1      45.710  29.381  27.368  1.00  0.00     0.049 A 
ATOM     44  C   UNL A   1      41.078  30.927  30.129  1.00  0.00     0.074 A 
ATOM     45  C   UNL A   1      46.723  30.317  27.281  1.00  0.00     0.029 A 
ATOM     46  N   UNL A   1      44.674  29.975  28.074  1.00  0.00    -0.354 N 
ATOM     47  N   UNL A   1      42.200  30.724  29.480  1.00  0.00    -0.248 NA
ATOM     48  C   UNL A   1      41.004  32.227  30.810  1.00  0.00     0.031 C 
ATOM     49  C   UNL A   1      46.312  31.469  27.959  1.00  0.00     0.029 A 
ATOM     50  C   UNL A   1      45.028  31.262  28.438  1.00  0.00     0.049 A 
ATOM     51  H   UNL A   1      43.814  29.545  28.283  1.00  0.00     0.167 HD
ATOM     52  C   UNL A   1      42.949  31.884  29.641  1.00  0.00     0.074 A 
ATOM     53  C   UNL A   1      42.143  32.792  30.433  1.00  0.00     0.031 C 
ATOM     54  C   UNL A   1      44.192  32.170  29.184  1.00  0.00     0.034 A 
BRANCH  41  55
ATOM     55  C   UNL A   1      46.905  27.505  26.152  1.00  0.00     0.023 A 
ATOM     56  C   UNL A   1      47.804  26.674  26.854  1.00  0.00     0.012 A 
ATOM     57  C   UNL A   1      47.159  27.803  24.799  1.00  0.00     0.148 A 
ATOM     58  C   UNL A   1      48.959  26.191  26.241  1.00  0.00     0.002 A 
ATOM     59  C   UNL A   1      48.286  27.276  24.178  1.00  0.00     0.091 A 
ATOM     60  F   UNL A   1      46.309  28.612  24.151  1.00  0.00    -0.205 F 
ATOM     61  C   UNL A   1      49.194  26.485  24.901  1.00  0.00     0.022 A 
BRANCH  59  62
ATOM     62  S   UNL A   1      48.635  27.525  22.434  1.00  0.00     0.127 S 
ATOM     63  O   UNL A   1      49.914  28.230  22.487  1.00  0.00    -0.237 OA
ATOM     64  O   UNL A   1      48.716  26.151  21.937  1.00  0.00    -0.237 OA
ATOM     65  O   UNL A   1      47.516  28.293  21.908  1.00  0.00    -0.744 OA
ENDBRANCH  59  62
ENDBRANCH  41  55
BRANCH  42  66
ATOM     66  C   UNL A   1      38.645  30.489  30.955  1.00  0.00     0.023 A 
ATOM     67  C   UNL A   1      38.537  30.259  32.341  1.00  0.00     0.012 A 
ATOM     68  C   UNL A   1      37.605  31.166  30.290  1.00  0.00     0.148 A 
ATOM     69  C   UNL A   1      37.404  30.664  33.046  1.00  0.00     0.002 A 
ATOM     70  C   UNL A   1      36.501  31.615  31.008  1.00  0.00     0.091 A 
ATOM     71  F   UNL A   1      37.723  31.371  28.970  1.00  0.00    -0.205 F 
ATOM     72  C   UNL A   1      36.390  31.349  32.381  1.00  0.00     0.022 A 
BRANCH  70  73
ATOM     73  S   UNL A   1      35.205  32.613  30.266  1.00  0.00     0.127 S 
ATOM     74  O   UNL A   1      34.296  32.809  31.393  1.00  0.00    -0.237 OA
ATOM     75  O   UNL A   1      35.945  33.807  29.855  1.00  0.00    -0.237 OA
ATOM     76  O   UNL A   1      34.680  31.821  29.162  1.00  0.00    -0.744 OA
ENDBRANCH  70  73
ENDBRANCH  42  66
BRANCH  54  77
ATOM     77  C   UNL A   1      44.750  33.535  29.487  1.00  0.00     0.023 A 
ATOM     78  C   UNL A   1      45.424  33.767  30.703  1.00  0.00     0.012 A 
ATOM     79  C   UNL A   1      44.672  34.568  28.531  1.00  0.00     0.148 A 
ATOM     80  C   UNL A   1      45.980  35.017  30.977  1.00  0.00     0.002 A 
ATOM     81  C   UNL A   1      45.274  35.792  28.789  1.00  0.00     0.091 A 
ATOM     82  F   UNL A   1      44.012  34.331  27.388  1.00  0.00    -0.205 F 
ATOM     83  C   UNL A   1      45.916  36.024  30.016  1.00  0.00     0.022 A 
BRANCH  81  84
ATOM     84  S   UNL A   1      45.331  37.113  27.572  1.00  0.00     0.127 S 
ATOM     85  O   UNL A   1      43.914  37.434  27.415  1.00  0.00    -0.237 OA
ATOM     86  O   UNL A   1      46.115  38.136  28.264  1.00  0.00    -0.237 OA
ATOM     87  O   UNL A   1      45.978  36.549  26.396  1.00  0.00    -0.744 OA
ENDBRANCH  81  84
ENDBRANCH  54  77
ENDBRANCH  28  29
ENDBRANCH  20  23
ENDBRANCH  18  19
ENDBRANCH   1  18
TORSDOF 18
ENDMDL
MODEL 3
REMARK VINA RESULT:     -10.0      1.139      2.154
REMARK SMILES CCC[C@@H](C[NH2+]C(C)C)C(=O)NCCCNC(=O)c1ccc(-c2c3nc(c(-c4cccc(S(=O)(=O)[O-])c4F)c4ccc([nH]4)c(-c4cccc(S(=O)(=O)[O-])c4F)c4nc(c(-c5cccc(S(=O)(=O)[O-])c5F)c5ccc2[nH]5)C=C4)C=C3)cc1
REMARK SMILES IDX 14 1 13 2 12 3 10 4 11 5 4 7 3 8 2 9 1 10 5 11 6 12 7 15
REMARK SMILES IDX 8 16 9 17 15 18 16 19 17 20 18 22 19 23 20 24 81 25 21 26
REMARK SMILES IDX 80 27 22 28 23 29 24 30 74 31 25 32 79 33 73 34 75 35 26 36
REMARK SMILES IDX 78 37 72 38 71 39 27 41 59 42 39 43 58 44 40 45 43 46 57 47
REMARK SMILES IDX 76 48 41 49 42 50 56 52 77 53 44 54 28 55 29 56 37 57 30 58
REMARK SMILES IDX 32 59 38 60 31 61 33 62 34 63 35 64 36 65 60 66 61 67 69 68
REMARK SMILES IDX 62 69 64 70 70 71 63 72 65 73 66 74 67 75 68 76 45 77 46 78
REMARK SMILES IDX 54 79 47 80 49 81 55 82 48 83 50 84 51 85 52 86 53 87
REMARK H PARENT 12 6 6 13 6 14 16 21 75 40 43 51
REMARK Flexibility Score: inf
ROOT
ATOM      1  C   UNL A   1      31.684  28.958  27.174  1.00  0.00     0.042 C 
ENDROOT
BRANCH   1   2
ATOM      2  C   UNL A   1      31.531  27.524  26.716  1.00  0.00     0.117 C 
BRANCH   2   3
ATOM      3  N   UNL A   1      32.450  27.149  25.658  1.00  0.00    -0.356 N 
ATOM      4  C   UNL A   1      32.194  26.719  24.393  1.00  0.00     0.228 C 
ATOM      5  O   UNL A   1      33.157  26.614  23.626  1.00  0.00    -0.275 OA
ATOM      6  H   UNL A   1      33.405  27.216  25.891  1.00  0.00     0.163 HD
BRANCH   4   7
ATOM      7  C   UNL A   1      30.786  26.365  23.908  1.00  0.00     0.133 C 
BRANCH   7   8
ATOM      8  C   UNL A   1      30.315  27.311  22.786  1.00  0.00     0.019 C 
BRANCH   8   9
ATOM      9  C   UNL A   1      29.355  28.423  23.209  1.00  0.00    -0.002 C 
ATOM     10  C   UNL A   1      30.058  29.712  23.598  1.00  0.00     0.004 C 
ENDBRANCH   8   9
ENDBRANCH   7   8
BRANCH   7  11
ATOM     11  C   UNL A   1      30.594  24.841  23.720  1.00  0.00     0.274 C 
BRANCH  11  12
ATOM     12  N   UNL A   1      31.372  24.264  22.631  1.00  0.00    -0.344 N 
ATOM     13  H   UNL A   1      32.027  24.975  22.306  1.00  0.00     0.346 HD
ATOM     14  H   UNL A   1      30.688  23.972  21.933  1.00  0.00     0.346 HD
BRANCH  12  15
ATOM     15  C   UNL A   1      32.138  23.067  22.953  1.00  0.00     0.176 C 
ATOM     16  C   UNL A   1      33.542  23.162  22.365  1.00  0.00     0.075 C 
ATOM     17  C   UNL A   1      32.206  22.974  24.480  1.00  0.00     0.075 C 
ENDBRANCH  12  15
ENDBRANCH  11  12
ENDBRANCH   7  11
ENDBRANCH   4   7
ENDBRANCH   2   3
ENDBRANCH   1   2
BRANCH   1  18
ATOM     18  C   UNL A   1      32.646  29.758  26.322  1.00  0.00     0.118 C 
BRANCH  18  19
ATOM     19  N   UNL A   1      32.568  31.193  26.581  1.00  0.00    -0.352 N 
ATOM     20  C   UNL A   1      33.374  32.006  27.342  1.00  0.00     0.251 C 
ATOM     21  H   UNL A   1      31.818  31.653  26.138  1.00  0.00     0.163 HD
ATOM     22  O   UNL A   1      33.024  33.159  27.584  1.00  0.00    -0.269 OA
BRANCH  20  23
ATOM     23  C   UNL A   1      34.645  31.484  27.887  1.00  0.00     0.039 A 
ATOM     24  C   UNL A   1      35.735  32.345  28.036  1.00  0.00     0.014 A 
ATOM     25  C   UNL A   1      34.753  30.148  28.271  1.00  0.00     0.014 A 
ATOM     26  C   UNL A   1      36.902  31.880  28.650  1.00  0.00     0.010 A 
ATOM     27  C   UNL A   1      35.855  29.728  29.000  1.00  0.00     0.010 A 
ATOM     28  C   UNL A   1      36.952  30.580  29.181  1.00  0.00    -0.014 A 
BRANCH  28  29
ATOM     29  C   UNL A   1      38.142  30.073  29.910  1.00  0.00     0.031 A 
ATOM     30  C   UNL A   1      38.427  30.559  31.306  1.00  0.00     0.074 A 
ATOM     31  C   UNL A   1      39.015  29.260  29.283  1.00  0.00     0.049 A 
ATOM     32  N   UNL A   1      39.452  30.302  32.076  1.00  0.00    -0.248 NA
ATOM     33  C   UNL A   1      37.452  31.490  31.902  1.00  0.00     0.031 C 
ATOM     34  C   UNL A   1      38.894  28.785  27.901  1.00  0.00     0.029 A 
ATOM     35  N   UNL A   1      40.191  28.704  29.719  1.00  0.00    -0.354 N 
ATOM     36  C   UNL A   1      39.265  31.068  33.222  1.00  0.00     0.074 A 
ATOM     37  C   UNL A   1      38.062  31.842  33.024  1.00  0.00     0.031 C 
ATOM     38  C   UNL A   1      39.937  27.990  27.615  1.00  0.00     0.029 A 
ATOM     39  C   UNL A   1      40.821  27.930  28.773  1.00  0.00     0.049 A 
ATOM     40  H   UNL A   1      40.551  28.848  30.624  1.00  0.00     0.167 HD
ATOM     41  C   UNL A   1      40.005  31.096  34.356  1.00  0.00     0.034 A 
ATOM     42  C   UNL A   1      41.982  27.248  28.835  1.00  0.00     0.034 A 
ATOM     43  C   UNL A   1      41.174  30.288  34.567  1.00  0.00     0.049 A 
ATOM     44  C   UNL A   1      42.772  27.274  30.115  1.00  0.00     0.074 A 
ATOM     45  C   UNL A   1      41.947  30.172  35.707  1.00  0.00     0.029 A 
ATOM     46  N   UNL A   1      41.741  29.459  33.611  1.00  0.00    -0.354 N 
ATOM     47  N   UNL A   1      42.498  27.884  31.243  1.00  0.00    -0.248 NA
ATOM     48  C   UNL A   1      44.013  26.488  30.142  1.00  0.00     0.031 C 
ATOM     49  C   UNL A   1      43.000  29.294  35.431  1.00  0.00     0.029 A 
ATOM     50  C   UNL A   1      42.861  28.836  34.130  1.00  0.00     0.049 A 
ATOM     51  H   UNL A   1      41.396  29.332  32.698  1.00  0.00     0.167 HD
ATOM     52  C   UNL A   1      43.510  27.524  32.127  1.00  0.00     0.074 A 
ATOM     53  C   UNL A   1      44.391  26.627  31.406  1.00  0.00     0.031 C 
ATOM     54  C   UNL A   1      43.698  27.907  33.413  1.00  0.00     0.034 A 
BRANCH  41  55
ATOM     55  C   UNL A   1      39.532  31.996  35.471  1.00  0.00     0.023 A 
ATOM     56  C   UNL A   1      38.638  31.493  36.442  1.00  0.00     0.012 A 
ATOM     57  C   UNL A   1      39.982  33.326  35.575  1.00  0.00     0.148 A 
ATOM     58  C   UNL A   1      38.161  32.312  37.464  1.00  0.00     0.002 A 
ATOM     59  C   UNL A   1      39.543  34.121  36.627  1.00  0.00     0.091 A 
ATOM     60  F   UNL A   1      40.813  33.796  34.634  1.00  0.00    -0.205 F 
ATOM     61  C   UNL A   1      38.620  33.622  37.561  1.00  0.00     0.022 A 
BRANCH  59  62
ATOM     62  S   UNL A   1      40.140  35.795  36.890  1.00  0.00     0.127 S 
ATOM     63  O   UNL A   1      39.630  36.479  35.703  1.00  0.00    -0.237 OA
ATOM     64  O   UNL A   1      39.474  36.166  38.140  1.00  0.00    -0.237 OA
ATOM     65  O   UNL A   1      41.589  35.692  36.983  1.00  0.00    -0.744 OA
ENDBRANCH  59  62
ENDBRANCH  41  55
BRANCH  42  66
ATOM     66  C   UNL A   1      42.420  26.413  27.680  1.00  0.00     0.023 A 
ATOM     67  C   UNL A   1      43.277  26.977  26.713  1.00  0.00     0.012 A 
ATOM     68  C   UNL A   1      42.024  25.069  27.544  1.00  0.00     0.148 A 
ATOM     69  C   UNL A   1      43.704  26.230  25.616  1.00  0.00     0.002 A 
ATOM     70  C   UNL A   1      42.497  24.313  26.477  1.00  0.00     0.091 A 
ATOM     71  F   UNL A   1      41.204  24.553  28.471  1.00  0.00    -0.205 F 
ATOM     72  C   UNL A   1      43.321  24.896  25.502  1.00  0.00     0.022 A 
BRANCH  70  73
ATOM     73  S   UNL A   1      42.160  22.556  26.312  1.00  0.00     0.127 S 
ATOM     74  O   UNL A   1      42.771  22.018  27.525  1.00  0.00    -0.237 OA
ATOM     75  O   UNL A   1      40.697  22.532  26.294  1.00  0.00    -0.237 OA
ATOM     76  O   UNL A   1      42.783  22.151  25.059  1.00  0.00    -0.744 OA
ENDBRANCH  70  73
ENDBRANCH  42  66
BRANCH  54  77
ATOM     77  C   UNL A   1      44.879  27.328  34.147  1.00  0.00     0.023 A 
ATOM     78  C   UNL A   1      46.128  27.980  34.100  1.00  0.00     0.012 A 
ATOM     79  C   UNL A   1      44.729  26.176  34.947  1.00  0.00     0.148 A 
ATOM     80  C   UNL A   1      47.217  27.474  34.808  1.00  0.00     0.002 A 
ATOM     81  C   UNL A   1      45.804  25.711  35.692  1.00  0.00     0.091 A 
ATOM     82  F   UNL A   1      43.537  25.562  34.965  1.00  0.00    -0.205 F 
ATOM     83  C   UNL A   1      47.052  26.348  35.613  1.00  0.00     0.022 A 
BRANCH  81  84
ATOM     84  S   UNL A   1      45.659  24.330  36.832  1.00  0.00     0.127 S 
ATOM     85  O   UNL A   1      44.588  24.785  37.716  1.00  0.00    -0.237 OA
ATOM     86  O   UNL A   1      45.289  23.231  35.940  1.00  0.00    -0.237 OA
ATOM     87  O   UNL A   1      46.966  24.186  37.458  1.00  0.00    -0.744 OA
ENDBRANCH  81  84
ENDBRANCH  54  77
ENDBRANCH  28  29
ENDBRANCH  20  23
ENDBRANCH  18  19
ENDBRANCH   1  18
TORSDOF 18
ENDMDL
