MODEL 1
REMARK VINA RESULT:     -11.3      0.000      0.000
REMARK SMILES CCCCCCNC(=O)Oc1cccc(-c2ccc([C@H](C)C(=O)NCCCNC(=O)c3ccc(-c4c5nc(c(-c6cccc(S(=O)(=O)[O-])c6F)c6ccc([nH]6)c(-c6cccc(S(=O)(=O)[O-])c6F)c6nc(c(-c7cccc(S(=O)(=O)[O-])c7F)c7ccc4[nH]7)C=C6)C=C5)cc3)cc2F)c1
REMARK SMILES IDX 20 1 21 2 19 3 16 4 17 5 95 6 18 7 94 8 96 9 15 10 11 11
REMARK SMILES IDX 12 12 97 13 13 14 14 15 10 16 8 17 7 18 9 20 6 21 5 22 4 23
REMARK SMILES IDX 3 24 2 25 1 26 22 27 23 28 24 29 25 31 26 32 27 33 28 34
REMARK SMILES IDX 29 35 30 37 31 38 32 39 93 40 33 41 92 42 34 43 35 44 36 45
REMARK SMILES IDX 86 46 37 47 91 48 85 49 87 50 38 51 90 52 84 53 83 54 39 56
REMARK SMILES IDX 71 57 51 58 70 59 52 60 55 61 69 62 88 63 53 64 54 65 68 67
REMARK SMILES IDX 89 68 56 69 40 70 41 71 49 72 42 73 44 74 50 75 43 76 45 77
REMARK SMILES IDX 46 78 47 79 48 80 72 81 73 82 81 83 74 84 76 85 82 86 75 87
REMARK SMILES IDX 77 88 78 89 79 90 80 91 57 92 58 93 66 94 59 95 61 96 67 97
REMARK SMILES IDX 60 98 62 99 63 100 64 101 65 102
REMARK H PARENT 7 19 24 30 28 36 87 55 55 66
REMARK Flexibility Score: inf
ROOT
ATOM      1  C   UNL A   1      28.651  29.153  23.484  1.00  0.00     0.105 C 
ATOM      2  C   UNL A   1      27.267  28.908  22.858  1.00  0.00     0.023 C 
ENDROOT
BRANCH   1   3
ATOM      3  C   UNL A   1      29.670  28.022  23.340  1.00  0.00    -0.033 A 
ATOM      4  C   UNL A   1      31.666  25.980  23.240  1.00  0.00     0.018 A 
ATOM      5  C   UNL A   1      30.460  25.783  23.926  1.00  0.00     0.012 A 
ATOM      6  C   UNL A   1      31.811  27.186  22.542  1.00  0.00     0.131 A 
ATOM      7  C   UNL A   1      29.468  26.769  23.945  1.00  0.00     0.005 A 
ATOM      8  C   UNL A   1      30.838  28.188  22.584  1.00  0.00     0.044 A 
ATOM      9  F   UNL A   1      32.912  27.417  21.810  1.00  0.00    -0.206 F 
BRANCH   4  10
ATOM     10  C   UNL A   1      32.733  24.969  23.289  1.00  0.00    -0.012 A 
ATOM     11  C   UNL A   1      34.623  23.943  24.419  1.00  0.00     0.133 A 
ATOM     12  C   UNL A   1      34.742  22.986  23.416  1.00  0.00     0.047 A 
ATOM     13  C   UNL A   1      33.644  24.935  24.357  1.00  0.00     0.056 A 
ATOM     14  C   UNL A   1      33.848  23.005  22.349  1.00  0.00     0.004 A 
ATOM     15  C   UNL A   1      32.854  23.986  22.288  1.00  0.00     0.009 A 
BRANCH  11  16
ATOM     16  O   UNL A   1      35.593  23.936  25.431  1.00  0.00    -0.410 OA
BRANCH  16  17
ATOM     17  C   UNL A   1      36.060  22.705  25.864  1.00  0.00     0.412 C 
ATOM     18  N   UNL A   1      35.348  22.196  26.912  1.00  0.00    -0.321 N 
ATOM     19  H   UNL A   1      35.639  21.323  27.260  1.00  0.00     0.167 HD
ATOM     20  O   UNL A   1      37.022  22.094  25.401  1.00  0.00    -0.224 OA
BRANCH  18  21
ATOM     21  C   UNL A   1      34.207  22.809  27.564  1.00  0.00     0.119 C 
BRANCH  21  22
ATOM     22  C   UNL A   1      32.920  22.019  27.330  1.00  0.00     0.021 C 
BRANCH  22  23
ATOM     23  C   UNL A   1      32.736  21.498  25.900  1.00  0.00     0.002 C 
BRANCH  23  24
ATOM     24  C   UNL A   1      33.150  20.040  25.669  1.00  0.00    -0.000 C 
BRANCH  24  25
ATOM     25  C   UNL A   1      32.897  19.500  24.258  1.00  0.00    -0.003 C 
ATOM     26  C   UNL A   1      33.614  18.188  23.980  1.00  0.00     0.004 C 
ENDBRANCH  24  25
ENDBRANCH  23  24
ENDBRANCH  22  23
ENDBRANCH  21  22
ENDBRANCH  18  21
ENDBRANCH  16  17
ENDBRANCH  11  16
ENDBRANCH   4  10
ENDBRANCH   1   3
BRANCH   1  27
ATOM     27  C   UNL A   1      29.146  30.518  22.986  1.00  0.00     0.227 C 
ATOM     28  O   UNL A   1      28.888  30.908  21.845  1.00  0.00    -0.274 OA
ATOM     29  N   UNL A   1      29.896  31.333  23.788  1.00  0.00    -0.356 N 
ATOM     30  H   UNL A   1      30.265  32.131  23.347  1.00  0.00     0.163 HD
BRANCH  29  31
ATOM     31  C   UNL A   1      30.229  31.193  25.200  1.00  0.00     0.117 C 
BRANCH  31  32
ATOM     32  C   UNL A   1      31.481  30.367  25.424  1.00  0.00     0.042 C 
BRANCH  32  33
ATOM     33  C   UNL A   1      32.291  30.806  26.633  1.00  0.00     0.118 C 
BRANCH  33  34
ATOM     34  N   UNL A   1      32.327  32.254  26.798  1.00  0.00    -0.352 N 
ATOM     35  C   UNL A   1      33.215  33.029  27.506  1.00  0.00     0.251 C 
ATOM     36  H   UNL A   1      31.612  32.749  26.336  1.00  0.00     0.163 HD
ATOM     37  O   UNL A   1      32.996  34.227  27.656  1.00  0.00    -0.269 OA
BRANCH  35  38
ATOM     38  C   UNL A   1      34.421  32.411  28.097  1.00  0.00     0.039 A 
ATOM     39  C   UNL A   1      35.622  33.125  28.098  1.00  0.00     0.014 A 
ATOM     40  C   UNL A   1      34.365  31.132  28.654  1.00  0.00     0.014 A 
ATOM     41  C   UNL A   1      36.751  32.576  28.708  1.00  0.00     0.010 A 
ATOM     42  C   UNL A   1      35.458  30.634  29.351  1.00  0.00     0.010 A 
ATOM     43  C   UNL A   1      36.671  31.337  29.364  1.00  0.00    -0.014 A 
BRANCH  43  44
ATOM     44  C   UNL A   1      37.849  30.734  30.039  1.00  0.00     0.031 A 
ATOM     45  C   UNL A   1      38.206  31.160  31.439  1.00  0.00     0.074 A 
ATOM     46  C   UNL A   1      38.643  29.876  29.368  1.00  0.00     0.049 A 
ATOM     47  N   UNL A   1      39.233  30.815  32.171  1.00  0.00    -0.248 NA
ATOM     48  C   UNL A   1      37.309  32.131  32.091  1.00  0.00     0.031 C 
ATOM     49  C   UNL A   1      38.451  29.449  27.980  1.00  0.00     0.029 A 
ATOM     50  N   UNL A   1      39.790  29.231  29.757  1.00  0.00    -0.354 N 
ATOM     51  C   UNL A   1      39.130  31.555  33.343  1.00  0.00     0.074 A 
ATOM     52  C   UNL A   1      37.966  32.402  33.209  1.00  0.00     0.031 C 
ATOM     53  C   UNL A   1      39.439  28.606  27.638  1.00  0.00     0.029 A 
ATOM     54  C   UNL A   1      40.352  28.458  28.767  1.00  0.00     0.049 A 
ATOM     55  H   UNL A   1      40.176  29.314  30.659  1.00  0.00     0.167 HD
ATOM     56  C   UNL A   1      39.911  31.510  34.447  1.00  0.00     0.034 A 
ATOM     57  C   UNL A   1      41.477  27.715  28.771  1.00  0.00     0.034 A 
ATOM     58  C   UNL A   1      41.031  30.625  34.600  1.00  0.00     0.049 A 
ATOM     59  C   UNL A   1      42.296  27.639  30.032  1.00  0.00     0.074 A 
ATOM     60  C   UNL A   1      41.832  30.433  35.711  1.00  0.00     0.029 A 
ATOM     61  N   UNL A   1      41.509  29.779  33.611  1.00  0.00    -0.354 N 
ATOM     62  N   UNL A   1      42.093  28.230  31.185  1.00  0.00    -0.248 NA
ATOM     63  C   UNL A   1      43.476  26.763  30.006  1.00  0.00     0.031 C 
ATOM     64  C   UNL A   1      42.808  29.486  35.387  1.00  0.00     0.029 A 
ATOM     65  C   UNL A   1      42.596  29.066  34.083  1.00  0.00     0.049 A 
ATOM     66  H   UNL A   1      41.130  29.697  32.706  1.00  0.00     0.167 HD
ATOM     67  C   UNL A   1      43.093  27.766  32.032  1.00  0.00     0.074 A 
ATOM     68  C   UNL A   1      43.890  26.831  31.264  1.00  0.00     0.031 C 
ATOM     69  C   UNL A   1      43.339  28.093  33.324  1.00  0.00     0.034 A 
BRANCH  56  70
ATOM     70  C   UNL A   1      39.541  32.404  35.603  1.00  0.00     0.023 A 
ATOM     71  C   UNL A   1      38.784  31.883  36.673  1.00  0.00     0.012 A 
ATOM     72  C   UNL A   1      39.981  33.741  35.657  1.00  0.00     0.148 A 
ATOM     73  C   UNL A   1      38.439  32.686  37.758  1.00  0.00     0.002 A 
ATOM     74  C   UNL A   1      39.674  34.521  36.765  1.00  0.00     0.091 A 
ATOM     75  F   UNL A   1      40.680  34.227  34.622  1.00  0.00    -0.205 F 
ATOM     76  C   UNL A   1      38.892  34.000  37.810  1.00  0.00     0.022 A 
BRANCH  74  77
ATOM     77  S   UNL A   1      40.280  36.201  36.968  1.00  0.00     0.127 S 
ATOM     78  O   UNL A   1      41.724  35.985  37.045  1.00  0.00    -0.237 OA
ATOM     79  O   UNL A   1      39.824  36.842  35.735  1.00  0.00    -0.237 OA
ATOM     80  O   UNL A   1      39.658  36.709  38.183  1.00  0.00    -0.744 OA
ENDBRANCH  74  77
ENDBRANCH  56  70
BRANCH  57  81
ATOM     81  C   UNL A   1      41.854  26.923  27.565  1.00  0.00     0.023 A 
ATOM     82  C   UNL A   1      42.456  27.578  26.472  1.00  0.00     0.012 A 
ATOM     83  C   UNL A   1      41.642  25.533  27.500  1.00  0.00     0.148 A 
ATOM     84  C   UNL A   1      42.803  26.869  25.321  1.00  0.00     0.002 A 
ATOM     85  C   UNL A   1      42.040  24.824  26.373  1.00  0.00     0.091 A 
ATOM     86  F   UNL A   1      41.060  24.930  28.546  1.00  0.00    -0.205 F 
ATOM     87  C   UNL A   1      42.604  25.493  25.275  1.00  0.00     0.022 A 
BRANCH  85  88
ATOM     88  S   UNL A   1      41.941  23.033  26.276  1.00  0.00     0.127 S 
ATOM     89  O   UNL A   1      42.689  22.627  27.462  1.00  0.00    -0.237 OA
ATOM     90  O   UNL A   1      40.497  22.805  26.350  1.00  0.00    -0.237 OA
ATOM     91  O   UNL A   1      42.538  22.676  24.996  1.00  0.00    -0.744 OA
ENDBRANCH  85  88
ENDBRANCH  57  81
BRANCH  69  92
ATOM     92  C   UNL A   1      44.485  27.403  34.016  1.00  0.00     0.023 A 
ATOM     93  C   UNL A   1      45.763  27.994  34.020  1.00  0.00     0.012 A 
ATOM     94  C   UNL A   1      44.271  26.208  34.732  1.00  0.00     0.148 A 
ATOM     95  C   UNL A   1      46.820  27.388  34.698  1.00  0.00     0.002 A 
ATOM     96  C   UNL A   1      45.317  25.638  35.448  1.00  0.00     0.091 A 
ATOM     97  F   UNL A   1      43.051  25.652  34.701  1.00  0.00    -0.205 F 
ATOM     98  C   UNL A   1      46.594  26.219  35.422  1.00  0.00     0.022 A 
BRANCH  96  99
ATOM     99  S   UNL A   1      45.092  24.191  36.488  1.00  0.00     0.127 S 
ATOM    100  O   UNL A   1      44.274  23.334  35.632  1.00  0.00    -0.237 OA
ATOM    101  O   UNL A   1      46.467  23.728  36.678  1.00  0.00    -0.237 OA
ATOM    102  O   UNL A   1      44.443  24.666  37.701  1.00  0.00    -0.744 OA
ENDBRANCH  96  99
ENDBRANCH  69  92
ENDBRANCH  43  44
ENDBRANCH  35  38
ENDBRANCH  33  34
ENDBRANCH  32  33
ENDBRANCH  31  32
ENDBRANCH  29  31
ENDBRANCH   1  27
TORSDOF 22
ENDMDL
MODEL 2
REMARK VINA RESULT:     -11.1      1.927      2.637
REMARK SMILES CCCCCCNC(=O)Oc1cccc(-c2ccc([C@H](C)C(=O)NCCCNC(=O)c3ccc(-c4c5nc(c(-c6cccc(S(=O)(=O)[O-])c6F)c6ccc([nH]6)c(-c6cccc(S(=O)(=O)[O-])c6F)c6nc(c(-c7cccc(S(=O)(=O)[O-])c7F)c7ccc4[nH]7)C=C6)C=C5)cc3)cc2F)c1
REMARK SMILES IDX 20 1 21 2 19 3 16 4 17 5 95 6 18 7 94 8 96 9 15 10 11 11
REMARK SMILES IDX 12 12 97 13 13 14 14 15 10 16 8 17 7 18 9 20 6 21 5 22 4 23
REMARK SMILES IDX 3 24 2 25 1 26 22 27 23 28 24 29 25 31 26 32 27 33 28 34
REMARK SMILES IDX 29 35 30 37 31 38 32 39 93 40 33 41 92 42 34 43 35 44 36 45
REMARK SMILES IDX 86 46 37 47 91 48 85 49 87 50 38 51 90 52 84 53 83 54 39 56
REMARK SMILES IDX 71 57 51 58 70 59 52 60 55 61 69 62 88 63 53 64 54 65 68 67
REMARK SMILES IDX 89 68 56 69 40 70 41 71 49 72 42 73 44 74 50 75 43 76 45 77
REMARK SMILES IDX 46 78 47 79 48 80 72 81 73 82 81 83 74 84 76 85 82 86 75 87
REMARK SMILES IDX 77 88 78 89 79 90 80 91 57 92 58 93 66 94 59 95 61 96 67 97
REMARK SMILES IDX 60 98 62 99 63 100 64 101 65 102
REMARK H PARENT 7 19 24 30 28 36 87 55 55 66
REMARK Flexibility Score: inf
ROOT
ATOM      1  C   UNL A   1      28.536  29.936  22.345  1.00  0.00     0.105 C 
ATOM      2  C   UNL A   1      29.118  30.788  21.202  1.00  0.00     0.023 C 
ENDROOT
BRANCH   1   3
ATOM      3  C   UNL A   1      29.291  28.650  22.683  1.00  0.00    -0.033 A 
ATOM      4  C   UNL A   1      30.602  26.157  23.158  1.00  0.00     0.018 A 
ATOM      5  C   UNL A   1      31.167  27.124  22.317  1.00  0.00     0.012 A 
ATOM      6  C   UNL A   1      29.413  26.500  23.815  1.00  0.00     0.131 A 
ATOM      7  C   UNL A   1      30.543  28.360  22.112  1.00  0.00     0.005 A 
ATOM      8  C   UNL A   1      28.768  27.718  23.589  1.00  0.00     0.044 A 
ATOM      9  F   UNL A   1      28.850  25.648  24.686  1.00  0.00    -0.206 F 
BRANCH   4  10
ATOM     10  C   UNL A   1      31.228  24.833  23.307  1.00  0.00    -0.012 A 
ATOM     11  C   UNL A   1      31.523  22.762  24.542  1.00  0.00     0.133 A 
ATOM     12  C   UNL A   1      32.377  22.265  23.562  1.00  0.00     0.047 A 
ATOM     13  C   UNL A   1      30.963  24.035  24.432  1.00  0.00     0.056 A 
ATOM     14  C   UNL A   1      32.652  23.043  22.441  1.00  0.00     0.004 A 
ATOM     15  C   UNL A   1      32.081  24.313  22.316  1.00  0.00     0.009 A 
BRANCH  11  16
ATOM     16  O   UNL A   1      31.338  21.980  25.690  1.00  0.00    -0.410 OA
BRANCH  16  17
ATOM     17  C   UNL A   1      31.340  22.627  26.915  1.00  0.00     0.412 C 
ATOM     18  N   UNL A   1      32.515  22.490  27.596  1.00  0.00    -0.321 N 
ATOM     19  H   UNL A   1      32.569  22.930  28.475  1.00  0.00     0.167 HD
ATOM     20  O   UNL A   1      30.403  23.263  27.398  1.00  0.00    -0.224 OA
BRANCH  18  21
ATOM     21  C   UNL A   1      33.690  21.763  27.159  1.00  0.00     0.119 C 
BRANCH  21  22
ATOM     22  C   UNL A   1      34.680  22.663  26.421  1.00  0.00     0.021 C 
BRANCH  22  23
ATOM     23  C   UNL A   1      34.361  24.161  26.488  1.00  0.00     0.002 C 
BRANCH  23  24
ATOM     24  C   UNL A   1      34.495  24.927  25.167  1.00  0.00    -0.000 C 
BRANCH  24  25
ATOM     25  C   UNL A   1      33.943  26.355  25.175  1.00  0.00    -0.003 C 
ATOM     26  C   UNL A   1      32.856  26.572  26.216  1.00  0.00     0.004 C 
ENDBRANCH  24  25
ENDBRANCH  23  24
ENDBRANCH  22  23
ENDBRANCH  21  22
ENDBRANCH  18  21
ENDBRANCH  16  17
ENDBRANCH  11  16
ENDBRANCH   4  10
ENDBRANCH   1   3
BRANCH   1  27
ATOM     27  C   UNL A   1      28.305  30.868  23.542  1.00  0.00     0.227 C 
ATOM     28  O   UNL A   1      27.176  31.280  23.815  1.00  0.00    -0.274 OA
ATOM     29  N   UNL A   1      29.346  31.276  24.330  1.00  0.00    -0.356 N 
ATOM     30  H   UNL A   1      29.121  31.962  24.999  1.00  0.00     0.163 HD
BRANCH  29  31
ATOM     31  C   UNL A   1      30.738  30.844  24.325  1.00  0.00     0.117 C 
BRANCH  31  32
ATOM     32  C   UNL A   1      31.050  29.872  25.447  1.00  0.00     0.042 C 
BRANCH  32  33
ATOM     33  C   UNL A   1      32.116  30.374  26.408  1.00  0.00     0.118 C 
BRANCH  33  34
ATOM     34  N   UNL A   1      32.060  31.815  26.616  1.00  0.00    -0.352 N 
ATOM     35  C   UNL A   1      32.807  32.605  27.458  1.00  0.00     0.251 C 
ATOM     36  H   UNL A   1      31.390  32.294  26.076  1.00  0.00     0.163 HD
ATOM     37  O   UNL A   1      32.512  33.786  27.610  1.00  0.00    -0.269 OA
BRANCH  35  38
ATOM     38  C   UNL A   1      33.952  32.021  28.188  1.00  0.00     0.039 A 
ATOM     39  C   UNL A   1      34.327  30.701  27.924  1.00  0.00     0.014 A 
ATOM     40  C   UNL A   1      34.658  32.777  29.127  1.00  0.00     0.014 A 
ATOM     41  C   UNL A   1      35.445  30.160  28.564  1.00  0.00     0.010 A 
ATOM     42  C   UNL A   1      35.828  32.273  29.680  1.00  0.00     0.010 A 
ATOM     43  C   UNL A   1      36.221  30.952  29.426  1.00  0.00    -0.014 A 
BRANCH  43  44
ATOM     44  C   UNL A   1      37.425  30.413  30.107  1.00  0.00     0.031 A 
ATOM     45  C   UNL A   1      37.722  30.816  31.528  1.00  0.00     0.074 A 
ATOM     46  C   UNL A   1      38.294  29.637  29.427  1.00  0.00     0.049 A 
ATOM     47  N   UNL A   1      38.757  30.521  32.271  1.00  0.00    -0.248 NA
ATOM     48  C   UNL A   1      36.744  31.697  32.191  1.00  0.00     0.031 C 
ATOM     49  C   UNL A   1      38.161  29.244  28.022  1.00  0.00     0.029 A 
ATOM     50  N   UNL A   1      39.476  29.064  29.821  1.00  0.00    -0.354 N 
ATOM     51  C   UNL A   1      38.577  31.212  33.464  1.00  0.00     0.074 A 
ATOM     52  C   UNL A   1      37.358  31.976  33.331  1.00  0.00     0.031 C 
ATOM     53  C   UNL A   1      39.214  28.487  27.675  1.00  0.00     0.029 A 
ATOM     54  C   UNL A   1      40.112  28.367  28.820  1.00  0.00     0.049 A 
ATOM     55  H   UNL A   1      39.837  29.144  30.733  1.00  0.00     0.167 HD
ATOM     56  C   UNL A   1      39.337  31.186  34.584  1.00  0.00     0.034 A 
ATOM     57  C   UNL A   1      41.288  27.707  28.824  1.00  0.00     0.034 A 
ATOM     58  C   UNL A   1      40.515  30.378  34.733  1.00  0.00     0.049 A 
ATOM     59  C   UNL A   1      42.086  27.648  30.100  1.00  0.00     0.074 A 
ATOM     60  C   UNL A   1      41.305  30.208  35.855  1.00  0.00     0.029 A 
ATOM     61  N   UNL A   1      41.073  29.603  33.728  1.00  0.00    -0.354 N 
ATOM     62  N   UNL A   1      41.817  28.184  31.267  1.00  0.00    -0.248 NA
ATOM     63  C   UNL A   1      43.326  26.861  30.072  1.00  0.00     0.031 C 
ATOM     64  C   UNL A   1      42.354  29.345  35.523  1.00  0.00     0.029 A 
ATOM     65  C   UNL A   1      42.199  28.955  34.201  1.00  0.00     0.049 A 
ATOM     66  H   UNL A   1      40.720  29.525  32.812  1.00  0.00     0.167 HD
ATOM     67  C   UNL A   1      42.830  27.764  32.121  1.00  0.00     0.074 A 
ATOM     68  C   UNL A   1      43.708  26.916  31.341  1.00  0.00     0.031 C 
ATOM     69  C   UNL A   1      43.026  28.064  33.428  1.00  0.00     0.034 A 
BRANCH  56  70
ATOM     70  C   UNL A   1      38.880  32.011  35.759  1.00  0.00     0.023 A 
ATOM     71  C   UNL A   1      39.088  33.406  35.755  1.00  0.00     0.012 A 
ATOM     72  C   UNL A   1      38.201  31.418  36.842  1.00  0.00     0.148 A 
ATOM     73  C   UNL A   1      38.665  34.192  36.825  1.00  0.00     0.002 A 
ATOM     74  C   UNL A   1      37.739  32.216  37.883  1.00  0.00     0.091 A 
ATOM     75  F   UNL A   1      38.030  30.089  36.841  1.00  0.00    -0.205 F 
ATOM     76  C   UNL A   1      37.982  33.599  37.882  1.00  0.00     0.022 A 
BRANCH  74  77
ATOM     77  S   UNL A   1      36.775  31.562  39.251  1.00  0.00     0.127 S 
ATOM     78  O   UNL A   1      35.805  32.635  39.466  1.00  0.00    -0.237 OA
ATOM     79  O   UNL A   1      36.215  30.340  38.676  1.00  0.00    -0.237 OA
ATOM     80  O   UNL A   1      37.718  31.345  40.340  1.00  0.00    -0.744 OA
ENDBRANCH  74  77
ENDBRANCH  56  70
BRANCH  57  81
ATOM     81  C   UNL A   1      41.746  26.986  27.602  1.00  0.00     0.023 A 
ATOM     82  C   UNL A   1      42.301  27.721  26.536  1.00  0.00     0.012 A 
ATOM     83  C   UNL A   1      41.655  25.585  27.496  1.00  0.00     0.148 A 
ATOM     84  C   UNL A   1      42.722  27.078  25.371  1.00  0.00     0.002 A 
ATOM     85  C   UNL A   1      42.126  24.946  26.355  1.00  0.00     0.091 A 
ATOM     86  F   UNL A   1      41.116  24.904  28.517  1.00  0.00    -0.205 F 
ATOM     87  C   UNL A   1      42.643  25.692  25.284  1.00  0.00     0.022 A 
BRANCH  85  88
ATOM     88  S   UNL A   1      42.183  23.156  26.207  1.00  0.00     0.127 S 
ATOM     89  O   UNL A   1      40.766  22.807  26.257  1.00  0.00    -0.237 OA
ATOM     90  O   UNL A   1      42.816  22.981  24.900  1.00  0.00    -0.237 OA
ATOM     91  O   UNL A   1      42.990  22.696  27.330  1.00  0.00    -0.744 OA
ENDBRANCH  85  88
ENDBRANCH  57  81
BRANCH  69  92
ATOM     92  C   UNL A   1      44.205  27.436  34.123  1.00  0.00     0.023 A 
ATOM     93  C   UNL A   1      45.440  28.112  34.166  1.00  0.00     0.012 A 
ATOM     94  C   UNL A   1      44.063  26.209  34.803  1.00  0.00     0.148 A 
ATOM     95  C   UNL A   1      46.524  27.562  34.848  1.00  0.00     0.002 A 
ATOM     96  C   UNL A   1      45.133  25.693  35.523  1.00  0.00     0.091 A 
ATOM     97  F   UNL A   1      42.884  25.573  34.735  1.00  0.00    -0.205 F 
ATOM     98  C   UNL A   1      46.367  26.361  35.536  1.00  0.00     0.022 A 
BRANCH  96  99
ATOM     99  S   UNL A   1      44.991  24.206  36.521  1.00  0.00     0.127 S 
ATOM    100  O   UNL A   1      43.971  23.455  35.791  1.00  0.00    -0.237 OA
ATOM    101  O   UNL A   1      46.339  23.644  36.435  1.00  0.00    -0.237 OA
ATOM    102  O   UNL A   1      44.606  24.651  37.853  1.00  0.00    -0.744 OA
ENDBRANCH  96  99
ENDBRANCH  69  92
ENDBRANCH  43  44
ENDBRANCH  35  38
ENDBRANCH  33  34
ENDBRANCH  32  33
ENDBRANCH  31  32
ENDBRANCH  29  31
ENDBRANCH   1  27
TORSDOF 22
ENDMDL
MODEL 3
REMARK VINA RESULT:     -11.0      5.723      9.336
REMARK SMILES CCCCCCNC(=O)Oc1cccc(-c2ccc([C@H](C)C(=O)NCCCNC(=O)c3ccc(-c4c5nc(c(-c6cccc(S(=O)(=O)[O-])c6F)c6ccc([nH]6)c(-c6cccc(S(=O)(=O)[O-])c6F)c6nc(c(-c7cccc(S(=O)(=O)[O-])c7F)c7ccc4[nH]7)C=C6)C=C5)cc3)cc2F)c1
REMARK SMILES IDX 20 1 21 2 19 3 16 4 17 5 95 6 18 7 94 8 96 9 15 10 11 11
REMARK SMILES IDX 12 12 97 13 13 14 14 15 10 16 8 17 7 18 9 20 6 21 5 22 4 23
REMARK SMILES IDX 3 24 2 25 1 26 22 27 23 28 24 29 25 31 26 32 27 33 28 34
REMARK SMILES IDX 29 35 30 37 31 38 32 39 93 40 33 41 92 42 34 43 35 44 36 45
REMARK SMILES IDX 86 46 37 47 91 48 85 49 87 50 38 51 90 52 84 53 83 54 39 56
REMARK SMILES IDX 71 57 51 58 70 59 52 60 55 61 69 62 88 63 53 64 54 65 68 67
REMARK SMILES IDX 89 68 56 69 40 70 41 71 49 72 42 73 44 74 50 75 43 76 45 77
REMARK SMILES IDX 46 78 47 79 48 80 72 81 73 82 81 83 74 84 76 85 82 86 75 87
REMARK SMILES IDX 77 88 78 89 79 90 80 91 57 92 58 93 66 94 59 95 61 96 67 97
REMARK SMILES IDX 60 98 62 99 63 100 64 101 65 102
REMARK H PARENT 7 19 24 30 28 36 87 55 55 66
REMARK Flexibility Score: inf
ROOT
ATOM      1  C   UNL A   1      37.046  32.015  31.311  1.00  0.00     0.105 C 
ATOM      2  C   UNL A   1      35.535  31.849  31.548  1.00  0.00     0.023 C 
ENDROOT
BRANCH   1   3
ATOM      3  C   UNL A   1      37.717  30.948  30.445  1.00  0.00    -0.033 A 
ATOM      4  C   UNL A   1      38.937  28.821  28.979  1.00  0.00     0.018 A 
ATOM      5  C   UNL A   1      37.570  29.101  28.849  1.00  0.00     0.012 A 
ATOM      6  C   UNL A   1      39.687  29.679  29.793  1.00  0.00     0.131 A 
ATOM      7  C   UNL A   1      36.980  30.165  29.539  1.00  0.00     0.005 A 
ATOM      8  C   UNL A   1      39.098  30.722  30.511  1.00  0.00     0.044 A 
ATOM      9  F   UNL A   1      41.014  29.510  29.913  1.00  0.00    -0.206 F 
BRANCH   4  10
ATOM     10  C   UNL A   1      39.532  27.654  28.308  1.00  0.00    -0.012 A 
ATOM     11  C   UNL A   1      40.813  26.692  26.482  1.00  0.00     0.133 A 
ATOM     12  C   UNL A   1      40.731  25.426  27.053  1.00  0.00     0.047 A 
ATOM     13  C   UNL A   1      40.211  27.795  27.087  1.00  0.00     0.056 A 
ATOM     14  C   UNL A   1      40.062  25.266  28.263  1.00  0.00     0.004 A 
ATOM     15  C   UNL A   1      39.469  26.371  28.884  1.00  0.00     0.009 A 
BRANCH  11  16
ATOM     16  O   UNL A   1      41.427  26.792  25.226  1.00  0.00    -0.410 OA
BRANCH  16  17
ATOM     17  C   UNL A   1      42.375  27.787  25.052  1.00  0.00     0.412 C 
ATOM     18  N   UNL A   1      43.658  27.322  25.090  1.00  0.00    -0.321 N 
ATOM     19  H   UNL A   1      44.373  27.988  24.973  1.00  0.00     0.167 HD
ATOM     20  O   UNL A   1      42.145  28.985  24.892  1.00  0.00    -0.224 OA
BRANCH  18  21
ATOM     21  C   UNL A   1      44.076  25.947  25.284  1.00  0.00     0.119 C 
BRANCH  21  22
ATOM     22  C   UNL A   1      44.855  25.763  26.586  1.00  0.00     0.021 C 
BRANCH  22  23
ATOM     23  C   UNL A   1      45.795  24.551  26.608  1.00  0.00     0.002 C 
BRANCH  23  24
ATOM     24  C   UNL A   1      45.418  23.439  27.593  1.00  0.00    -0.000 C 
BRANCH  24  25
ATOM     25  C   UNL A   1      44.227  23.745  28.507  1.00  0.00    -0.003 C 
ATOM     26  C   UNL A   1      43.051  22.804  28.296  1.00  0.00     0.004 C 
ENDBRANCH  24  25
ENDBRANCH  23  24
ENDBRANCH  22  23
ENDBRANCH  21  22
ENDBRANCH  18  21
ENDBRANCH  16  17
ENDBRANCH  11  16
ENDBRANCH   4  10
ENDBRANCH   1   3
BRANCH   1  27
ATOM     27  C   UNL A   1      37.283  33.455  30.838  1.00  0.00     0.227 C 
ATOM     28  O   UNL A   1      36.848  33.845  29.752  1.00  0.00    -0.274 OA
ATOM     29  N   UNL A   1      37.992  34.342  31.601  1.00  0.00    -0.356 N 
ATOM     30  H   UNL A   1      38.192  35.202  31.167  1.00  0.00     0.163 HD
BRANCH  29  31
ATOM     31  C   UNL A   1      38.494  34.200  32.962  1.00  0.00     0.117 C 
BRANCH  31  32
ATOM     32  C   UNL A   1      37.458  34.571  34.006  1.00  0.00     0.042 C 
BRANCH  32  33
ATOM     33  C   UNL A   1      36.759  33.370  34.623  1.00  0.00     0.118 C 
BRANCH  33  34
ATOM     34  N   UNL A   1      37.144  33.139  36.010  1.00  0.00    -0.352 N 
ATOM     35  C   UNL A   1      38.223  32.450  36.512  1.00  0.00     0.251 C 
ATOM     36  H   UNL A   1      36.545  33.533  36.685  1.00  0.00     0.163 HD
ATOM     37  O   UNL A   1      38.299  32.230  37.717  1.00  0.00    -0.269 OA
BRANCH  35  38
ATOM     38  C   UNL A   1      39.275  31.963  35.596  1.00  0.00     0.039 A 
ATOM     39  C   UNL A   1      38.959  30.976  34.659  1.00  0.00     0.014 A 
ATOM     40  C   UNL A   1      40.570  32.483  35.657  1.00  0.00     0.014 A 
ATOM     41  C   UNL A   1      39.930  30.553  33.748  1.00  0.00     0.010 A 
ATOM     42  C   UNL A   1      41.500  32.139  34.685  1.00  0.00     0.010 A 
ATOM     43  C   UNL A   1      41.200  31.151  33.736  1.00  0.00    -0.014 A 
BRANCH  43  44
ATOM     44  C   UNL A   1      42.248  30.737  32.769  1.00  0.00     0.031 A 
ATOM     45  C   UNL A   1      42.629  31.661  31.642  1.00  0.00     0.074 A 
ATOM     46  C   UNL A   1      42.790  29.506  32.849  1.00  0.00     0.049 A 
ATOM     47  N   UNL A   1      43.459  31.458  30.652  1.00  0.00    -0.248 NA
ATOM     48  C   UNL A   1      41.964  32.976  31.600  1.00  0.00     0.031 C 
ATOM     49  C   UNL A   1      42.444  28.488  33.844  1.00  0.00     0.029 A 
ATOM     50  N   UNL A   1      43.729  28.890  32.060  1.00  0.00    -0.354 N 
ATOM     51  C   UNL A   1      43.382  32.592  29.852  1.00  0.00     0.074 A 
ATOM     52  C   UNL A   1      42.392  33.462  30.445  1.00  0.00     0.031 C 
ATOM     53  C   UNL A   1      43.167  27.381  33.612  1.00  0.00     0.029 A 
ATOM     54  C   UNL A   1      44.003  27.596  32.435  1.00  0.00     0.049 A 
ATOM     55  H   UNL A   1      44.166  29.333  31.296  1.00  0.00     0.167 HD
ATOM     56  C   UNL A   1      44.094  32.900  28.744  1.00  0.00     0.034 A 
ATOM     57  C   UNL A   1      44.834  26.684  31.890  1.00  0.00     0.034 A 
ATOM     58  C   UNL A   1      45.119  32.059  28.191  1.00  0.00     0.049 A 
ATOM     59  C   UNL A   1      45.656  27.074  30.689  1.00  0.00     0.074 A 
ATOM     60  C   UNL A   1      45.964  32.317  27.127  1.00  0.00     0.029 A 
ATOM     61  N   UNL A   1      45.441  30.795  28.661  1.00  0.00    -0.354 N 
ATOM     62  N   UNL A   1      45.680  28.212  30.040  1.00  0.00    -0.248 NA
ATOM     63  C   UNL A   1      46.596  26.068  30.174  1.00  0.00     0.031 C 
ATOM     64  C   UNL A   1      46.784  31.199  26.940  1.00  0.00     0.029 A 
ATOM     65  C   UNL A   1      46.468  30.258  27.908  1.00  0.00     0.049 A 
ATOM     66  H   UNL A   1      45.003  30.346  29.420  1.00  0.00     0.167 HD
ATOM     67  C   UNL A   1      46.663  28.076  29.066  1.00  0.00     0.074 A 
ATOM     68  C   UNL A   1      47.224  26.749  29.224  1.00  0.00     0.031 C 
ATOM     69  C   UNL A   1      47.057  28.961  28.119  1.00  0.00     0.034 A 
BRANCH  56  70
ATOM     70  C   UNL A   1      43.831  34.233  28.090  1.00  0.00     0.023 A 
ATOM     71  C   UNL A   1      43.001  34.300  26.952  1.00  0.00     0.012 A 
ATOM     72  C   UNL A   1      44.362  35.422  28.628  1.00  0.00     0.148 A 
ATOM     73  C   UNL A   1      42.734  35.521  26.337  1.00  0.00     0.002 A 
ATOM     74  C   UNL A   1      44.052  36.641  28.037  1.00  0.00     0.091 A 
ATOM     75  F   UNL A   1      45.167  35.338  29.696  1.00  0.00    -0.205 F 
ATOM     76  C   UNL A   1      43.250  36.691  26.885  1.00  0.00     0.022 A 
BRANCH  74  77
ATOM     77  S   UNL A   1      44.597  38.214  28.714  1.00  0.00     0.127 S 
ATOM     78  O   UNL A   1      46.043  38.138  28.506  1.00  0.00    -0.237 OA
ATOM     79  O   UNL A   1      43.906  39.174  27.854  1.00  0.00    -0.237 OA
ATOM     80  O   UNL A   1      44.166  38.224  30.105  1.00  0.00    -0.744 OA
ENDBRANCH  74  77
ENDBRANCH  56  70
BRANCH  57  81
ATOM     81  C   UNL A   1      44.986  25.341  32.517  1.00  0.00     0.023 A 
ATOM     82  C   UNL A   1      44.157  24.284  32.092  1.00  0.00     0.012 A 
ATOM     83  C   UNL A   1      45.952  25.097  33.512  1.00  0.00     0.148 A 
ATOM     84  C   UNL A   1      44.262  23.019  32.673  1.00  0.00     0.002 A 
ATOM     85  C   UNL A   1      46.088  23.822  34.047  1.00  0.00     0.091 A 
ATOM     86  F   UNL A   1      46.726  26.117  33.909  1.00  0.00    -0.205 F 
ATOM     87  C   UNL A   1      45.232  22.786  33.643  1.00  0.00     0.022 A 
BRANCH  85  88
ATOM     88  S   UNL A   1      47.393  23.397  35.207  1.00  0.00     0.127 S 
ATOM     89  O   UNL A   1      47.239  24.435  36.223  1.00  0.00    -0.237 OA
ATOM     90  O   UNL A   1      46.996  22.054  35.632  1.00  0.00    -0.237 OA
ATOM     91  O   UNL A   1      48.630  23.441  34.439  1.00  0.00    -0.744 OA
ENDBRANCH  85  88
ENDBRANCH  57  81
BRANCH  69  92
ATOM     92  C   UNL A   1      48.183  28.553  27.204  1.00  0.00     0.023 A 
ATOM     93  C   UNL A   1      49.505  28.520  27.687  1.00  0.00     0.012 A 
ATOM     94  C   UNL A   1      47.914  28.126  25.888  1.00  0.00     0.148 A 
ATOM     95  C   UNL A   1      50.548  28.098  26.863  1.00  0.00     0.002 A 
ATOM     96  C   UNL A   1      48.951  27.658  25.091  1.00  0.00     0.091 A 
ATOM     97  F   UNL A   1      46.650  28.182  25.443  1.00  0.00    -0.205 F 
ATOM     98  C   UNL A   1      50.270  27.656  25.572  1.00  0.00     0.022 A 
BRANCH  96  99
ATOM     99  S   UNL A   1      48.671  26.975  23.453  1.00  0.00     0.127 S 
ATOM    100  O   UNL A   1      50.032  26.899  22.926  1.00  0.00    -0.237 OA
ATOM    101  O   UNL A   1      48.062  25.680  23.758  1.00  0.00    -0.237 OA
ATOM    102  O   UNL A   1      47.788  27.912  22.773  1.00  0.00    -0.744 OA
ENDBRANCH  96  99
ENDBRANCH  69  92
ENDBRANCH  43  44
ENDBRANCH  35  38
ENDBRANCH  33  34
ENDBRANCH  32  33
ENDBRANCH  31  32
ENDBRANCH  29  31
ENDBRANCH   1  27
TORSDOF 22
ENDMDL
