MODEL 1
REMARK VINA RESULT:     -11.4      0.000      0.000
REMARK SMILES CC(C)[C@H](NC(N)=O)C(=O)N[C@H](C)C(=O)NCCCNC(=O)c1ccc(-c2c3nc(c(-c4cccc(S(=O)(=O)[O-])c4F)c4ccc([nH]4)c(-c4cccc(S(=O)(=O)[O-])c4F)c4nc(c(-c5cccc(S(=O)(=O)[O-])c5F)c5ccc2[nH]5)C=C4)C=C3)cc1
REMARK SMILES IDX 18 1 17 2 16 3 14 4 15 5 12 7 13 8 11 9 9 10 10 11 4 13 2 14
REMARK SMILES IDX 1 15 3 16 5 17 6 18 7 20 8 21 19 24 20 25 21 26 22 28 23 29
REMARK SMILES IDX 24 30 85 31 25 32 84 33 26 34 27 35 28 36 78 37 29 38 83 39
REMARK SMILES IDX 77 40 79 41 30 42 82 43 76 44 75 45 31 47 63 48 43 49 62 50
REMARK SMILES IDX 44 51 47 52 61 53 80 54 45 55 46 56 60 58 81 59 48 60 32 61
REMARK SMILES IDX 33 62 41 63 34 64 36 65 42 66 35 67 37 68 38 69 39 70 40 71
REMARK SMILES IDX 64 72 65 73 73 74 66 75 68 76 74 77 67 78 69 79 70 80 71 81
REMARK SMILES IDX 72 82 49 83 50 84 58 85 51 86 53 87 59 88 52 89 54 90 55 91
REMARK SMILES IDX 56 92 57 93
REMARK H PARENT 16 6 11 12 5 19 7 22 7 23 20 27 79 46 47 57
REMARK Flexibility Score: inf
ROOT
ATOM      1  C   UNL A   1      36.850  20.010  25.020  1.00  0.00     0.042 C 
ENDROOT
BRANCH   1   2
ATOM      2  C   UNL A   1      35.613  20.895  25.099  1.00  0.00     0.117 C 
BRANCH   2   3
ATOM      3  N   UNL A   1      34.373  20.146  25.240  1.00  0.00    -0.354 N 
ATOM      4  C   UNL A   1      33.071  20.465  24.985  1.00  0.00     0.242 C 
ATOM      5  O   UNL A   1      32.230  19.591  25.230  1.00  0.00    -0.273 OA
ATOM      6  H   UNL A   1      34.498  19.233  25.587  1.00  0.00     0.163 HD
BRANCH   4   7
ATOM      7  C   UNL A   1      32.604  21.897  24.603  1.00  0.00     0.168 C 
ATOM      8  C   UNL A   1      32.148  21.836  23.153  1.00  0.00     0.041 C 
BRANCH   7   9
ATOM      9  N   UNL A   1      31.816  22.520  25.680  1.00  0.00    -0.343 N 
ATOM     10  C   UNL A   1      31.329  23.705  26.117  1.00  0.00     0.243 C 
ATOM     11  O   UNL A   1      30.756  23.638  27.216  1.00  0.00    -0.273 OA
ATOM     12  H   UNL A   1      31.543  21.817  26.314  1.00  0.00     0.164 HD
BRANCH  10  13
ATOM     13  C   UNL A   1      31.282  25.034  25.332  1.00  0.00     0.175 C 
BRANCH  13  14
ATOM     14  C   UNL A   1      32.178  26.089  26.047  1.00  0.00     0.015 C 
ATOM     15  C   UNL A   1      33.283  26.647  25.143  1.00  0.00     0.010 C 
ATOM     16  C   UNL A   1      31.452  27.236  26.734  1.00  0.00     0.010 C 
ENDBRANCH  13  14
BRANCH  13  17
ATOM     17  N   UNL A   1      29.899  25.327  24.989  1.00  0.00    -0.326 N 
ATOM     18  C   UNL A   1      29.464  26.131  23.988  1.00  0.00     0.312 C 
ATOM     19  H   UNL A   1      29.206  24.898  25.541  1.00  0.00     0.166 HD
ATOM     20  N   UNL A   1      28.116  26.264  23.984  1.00  0.00    -0.352 N 
ATOM     21  O   UNL A   1      30.154  26.732  23.183  1.00  0.00    -0.249 OA
ATOM     22  H   UNL A   1      27.571  25.772  24.640  1.00  0.00     0.161 HD
ATOM     23  H   UNL A   1      27.682  26.852  23.324  1.00  0.00     0.161 HD
ENDBRANCH  13  17
ENDBRANCH  10  13
ENDBRANCH   7   9
ENDBRANCH   4   7
ENDBRANCH   2   3
ENDBRANCH   1   2
BRANCH   1  24
ATOM     24  C   UNL A   1      38.176  20.719  25.239  1.00  0.00     0.118 C 
BRANCH  24  25
ATOM     25  N   UNL A   1      39.181  19.876  25.867  1.00  0.00    -0.352 N 
ATOM     26  C   UNL A   1      40.350  20.202  26.514  1.00  0.00     0.251 C 
ATOM     27  H   UNL A   1      38.992  18.911  25.823  1.00  0.00     0.163 HD
ATOM     28  O   UNL A   1      41.119  19.297  26.832  1.00  0.00    -0.269 OA
BRANCH  26  29
ATOM     29  C   UNL A   1      40.705  21.610  26.812  1.00  0.00     0.039 A 
ATOM     30  C   UNL A   1      41.401  21.888  27.994  1.00  0.00     0.014 A 
ATOM     31  C   UNL A   1      40.329  22.662  25.974  1.00  0.00     0.014 A 
ATOM     32  C   UNL A   1      41.769  23.203  28.299  1.00  0.00     0.010 A 
ATOM     33  C   UNL A   1      40.779  23.957  26.229  1.00  0.00     0.010 A 
ATOM     34  C   UNL A   1      41.492  24.245  27.401  1.00  0.00    -0.014 A 
BRANCH  34  35
ATOM     35  C   UNL A   1      41.940  25.638  27.671  1.00  0.00     0.031 A 
ATOM     36  C   UNL A   1      43.337  26.076  27.316  1.00  0.00     0.074 A 
ATOM     37  C   UNL A   1      41.114  26.492  28.310  1.00  0.00     0.049 A 
ATOM     38  N   UNL A   1      43.919  27.229  27.522  1.00  0.00    -0.248 NA
ATOM     39  C   UNL A   1      44.205  25.079  26.666  1.00  0.00     0.031 C 
ATOM     40  C   UNL A   1      39.763  26.170  28.777  1.00  0.00     0.029 A 
ATOM     41  N   UNL A   1      41.297  27.795  28.702  1.00  0.00    -0.354 N 
ATOM     42  C   UNL A   1      45.224  27.087  27.066  1.00  0.00     0.074 A 
ATOM     43  C   UNL A   1      45.361  25.725  26.602  1.00  0.00     0.031 C 
ATOM     44  C   UNL A   1      39.239  27.247  29.383  1.00  0.00     0.029 A 
ATOM     45  C   UNL A   1      40.226  28.322  29.383  1.00  0.00     0.049 A 
ATOM     46  H   UNL A   1      42.119  28.303  28.512  1.00  0.00     0.167 HD
ATOM     47  C   UNL A   1      46.212  28.012  27.010  1.00  0.00     0.034 A 
ATOM     48  C   UNL A   1      40.057  29.531  29.956  1.00  0.00     0.034 A 
ATOM     49  C   UNL A   1      46.063  29.378  27.438  1.00  0.00     0.049 A 
ATOM     50  C   UNL A   1      41.161  30.548  29.858  1.00  0.00     0.074 A 
ATOM     51  C   UNL A   1      46.975  30.413  27.340  1.00  0.00     0.029 A 
ATOM     52  N   UNL A   1      44.936  29.895  28.057  1.00  0.00    -0.354 N 
ATOM     53  N   UNL A   1      42.333  30.441  29.282  1.00  0.00    -0.248 NA
ATOM     54  C   UNL A   1      40.906  31.865  30.461  1.00  0.00     0.031 C 
ATOM     55  C   UNL A   1      46.413  31.549  27.933  1.00  0.00     0.029 A 
ATOM     56  C   UNL A   1      45.135  31.230  28.364  1.00  0.00     0.049 A 
ATOM     57  H   UNL A   1      44.114  29.388  28.250  1.00  0.00     0.167 HD
ATOM     58  C   UNL A   1      42.940  31.685  29.419  1.00  0.00     0.074 A 
ATOM     59  C   UNL A   1      41.997  32.534  30.115  1.00  0.00     0.031 C 
ATOM     60  C   UNL A   1      44.172  32.082  29.014  1.00  0.00     0.034 A 
BRANCH  47  61
ATOM     61  C   UNL A   1      47.537  27.590  26.428  1.00  0.00     0.023 A 
ATOM     62  C   UNL A   1      48.546  27.086  27.274  1.00  0.00     0.012 A 
ATOM     63  C   UNL A   1      47.764  27.636  25.037  1.00  0.00     0.148 A 
ATOM     64  C   UNL A   1      49.772  26.673  26.755  1.00  0.00     0.002 A 
ATOM     65  C   UNL A   1      48.971  27.177  24.522  1.00  0.00     0.091 A 
ATOM     66  F   UNL A   1      46.802  28.135  24.249  1.00  0.00    -0.205 F 
ATOM     67  C   UNL A   1      49.980  26.709  25.378  1.00  0.00     0.022 A 
BRANCH  65  68
ATOM     68  S   UNL A   1      49.306  27.103  22.758  1.00  0.00     0.127 S 
ATOM     69  O   UNL A   1      48.433  26.008  22.338  1.00  0.00    -0.237 OA
ATOM     70  O   UNL A   1      48.881  28.428  22.309  1.00  0.00    -0.237 OA
ATOM     71  O   UNL A   1      50.734  26.846  22.630  1.00  0.00    -0.744 OA
ENDBRANCH  65  68
ENDBRANCH  47  61
BRANCH  48  72
ATOM     72  C   UNL A   1      38.770  29.863  30.631  1.00  0.00     0.023 A 
ATOM     73  C   UNL A   1      38.519  29.373  31.927  1.00  0.00     0.012 A 
ATOM     74  C   UNL A   1      37.807  30.679  30.007  1.00  0.00     0.148 A 
ATOM     75  C   UNL A   1      37.319  29.661  32.576  1.00  0.00     0.002 A 
ATOM     76  C   UNL A   1      36.638  31.010  30.681  1.00  0.00     0.091 A 
ATOM     77  F   UNL A   1      38.062  31.128  28.770  1.00  0.00    -0.205 F 
ATOM     78  C   UNL A   1      36.384  30.488  31.959  1.00  0.00     0.022 A 
BRANCH  76  79
ATOM     79  S   UNL A   1      35.436  32.168  30.019  1.00  0.00     0.127 S 
ATOM     80  O   UNL A   1      34.919  31.433  28.867  1.00  0.00    -0.237 OA
ATOM     81  O   UNL A   1      34.502  32.300  31.137  1.00  0.00    -0.237 OA
ATOM     82  O   UNL A   1      36.185  33.379  29.712  1.00  0.00    -0.744 OA
ENDBRANCH  76  79
ENDBRANCH  48  72
BRANCH  60  83
ATOM     83  C   UNL A   1      44.566  33.513  29.274  1.00  0.00     0.023 A 
ATOM     84  C   UNL A   1      45.137  33.875  30.510  1.00  0.00     0.012 A 
ATOM     85  C   UNL A   1      44.437  34.484  28.261  1.00  0.00     0.148 A 
ATOM     86  C   UNL A   1      45.540  35.190  30.747  1.00  0.00     0.002 A 
ATOM     87  C   UNL A   1      44.889  35.779  28.485  1.00  0.00     0.091 A 
ATOM     88  F   UNL A   1      43.875  34.124  27.098  1.00  0.00    -0.205 F 
ATOM     89  C   UNL A   1      45.427  36.137  29.731  1.00  0.00     0.022 A 
BRANCH  87  90
ATOM     90  S   UNL A   1      44.877  37.040  27.206  1.00  0.00     0.127 S 
ATOM     91  O   UNL A   1      45.783  36.465  26.213  1.00  0.00    -0.237 OA
ATOM     92  O   UNL A   1      43.470  37.062  26.808  1.00  0.00    -0.237 OA
ATOM     93  O   UNL A   1      45.346  38.264  27.843  1.00  0.00    -0.744 OA
ENDBRANCH  87  90
ENDBRANCH  60  83
ENDBRANCH  34  35
ENDBRANCH  26  29
ENDBRANCH  24  25
ENDBRANCH   1  24
TORSDOF 17
ENDMDL
MODEL 2
REMARK VINA RESULT:     -11.3      5.365     10.810
REMARK SMILES CC(C)[C@H](NC(N)=O)C(=O)N[C@H](C)C(=O)NCCCNC(=O)c1ccc(-c2c3nc(c(-c4cccc(S(=O)(=O)[O-])c4F)c4ccc([nH]4)c(-c4cccc(S(=O)(=O)[O-])c4F)c4nc(c(-c5cccc(S(=O)(=O)[O-])c5F)c5ccc2[nH]5)C=C4)C=C3)cc1
REMARK SMILES IDX 18 1 17 2 16 3 14 4 15 5 12 7 13 8 11 9 9 10 10 11 4 13 2 14
REMARK SMILES IDX 1 15 3 16 5 17 6 18 7 20 8 21 19 24 20 25 21 26 22 28 23 29
REMARK SMILES IDX 24 30 85 31 25 32 84 33 26 34 27 35 28 36 78 37 29 38 83 39
REMARK SMILES IDX 77 40 79 41 30 42 82 43 76 44 75 45 31 47 63 48 43 49 62 50
REMARK SMILES IDX 44 51 47 52 61 53 80 54 45 55 46 56 60 58 81 59 48 60 32 61
REMARK SMILES IDX 33 62 41 63 34 64 36 65 42 66 35 67 37 68 38 69 39 70 40 71
REMARK SMILES IDX 64 72 65 73 73 74 66 75 68 76 74 77 67 78 69 79 70 80 71 81
REMARK SMILES IDX 72 82 49 83 50 84 58 85 51 86 53 87 59 88 52 89 54 90 55 91
REMARK SMILES IDX 56 92 57 93
REMARK H PARENT 16 6 11 12 5 19 7 22 7 23 20 27 79 46 47 57
REMARK Flexibility Score: inf
ROOT
ATOM      1  C   UNL A   1      31.313  30.777  25.777  1.00  0.00     0.042 C 
ENDROOT
BRANCH   1   2
ATOM      2  C   UNL A   1      31.721  29.582  24.925  1.00  0.00     0.117 C 
BRANCH   2   3
ATOM      3  N   UNL A   1      31.102  29.572  23.608  1.00  0.00    -0.354 N 
ATOM      4  C   UNL A   1      30.285  28.677  22.982  1.00  0.00     0.242 C 
ATOM      5  O   UNL A   1      29.933  28.960  21.830  1.00  0.00    -0.273 OA
ATOM      6  H   UNL A   1      31.315  30.364  23.063  1.00  0.00     0.163 HD
BRANCH   4   7
ATOM      7  C   UNL A   1      29.953  27.275  23.564  1.00  0.00     0.168 C 
ATOM      8  C   UNL A   1      28.437  27.149  23.566  1.00  0.00     0.041 C 
BRANCH   7   9
ATOM      9  N   UNL A   1      30.857  26.237  23.038  1.00  0.00    -0.343 N 
ATOM     10  C   UNL A   1      31.839  25.376  23.394  1.00  0.00     0.243 C 
ATOM     11  O   UNL A   1      32.327  24.749  22.441  1.00  0.00    -0.273 OA
ATOM     12  H   UNL A   1      30.683  26.131  22.074  1.00  0.00     0.164 HD
BRANCH  10  13
ATOM     13  C   UNL A   1      32.269  25.003  24.830  1.00  0.00     0.175 C 
BRANCH  13  14
ATOM     14  C   UNL A   1      33.738  25.466  25.066  1.00  0.00     0.015 C 
ATOM     15  C   UNL A   1      33.838  26.706  25.962  1.00  0.00     0.010 C 
ATOM     16  C   UNL A   1      34.709  24.403  25.554  1.00  0.00     0.010 C 
ENDBRANCH  13  14
BRANCH  13  17
ATOM     17  N   UNL A   1      31.856  23.636  25.103  1.00  0.00    -0.326 N 
ATOM     18  C   UNL A   1      31.289  23.172  26.243  1.00  0.00     0.312 C 
ATOM     19  H   UNL A   1      32.003  22.978  24.385  1.00  0.00     0.166 HD
ATOM     20  N   UNL A   1      31.100  21.831  26.215  1.00  0.00    -0.352 N 
ATOM     21  O   UNL A   1      31.003  23.823  27.233  1.00  0.00    -0.249 OA
ATOM     22  H   UNL A   1      31.335  21.318  25.408  1.00  0.00     0.161 HD
ATOM     23  H   UNL A   1      30.726  21.371  27.000  1.00  0.00     0.161 HD
ENDBRANCH  13  17
ENDBRANCH  10  13
ENDBRANCH   7   9
ENDBRANCH   4   7
ENDBRANCH   2   3
ENDBRANCH   1   2
BRANCH   1  24
ATOM     24  C   UNL A   1      32.268  31.132  26.905  1.00  0.00     0.118 C 
BRANCH  24  25
ATOM     25  N   UNL A   1      32.511  32.561  27.022  1.00  0.00    -0.352 N 
ATOM     26  C   UNL A   1      33.512  33.253  27.662  1.00  0.00     0.251 C 
ATOM     27  H   UNL A   1      31.847  33.128  26.566  1.00  0.00     0.163 HD
ATOM     28  O   UNL A   1      33.421  34.476  27.751  1.00  0.00    -0.269 OA
BRANCH  26  29
ATOM     29  C   UNL A   1      34.677  32.556  28.258  1.00  0.00     0.039 A 
ATOM     30  C   UNL A   1      35.913  33.213  28.272  1.00  0.00     0.014 A 
ATOM     31  C   UNL A   1      34.585  31.257  28.763  1.00  0.00     0.014 A 
ATOM     32  C   UNL A   1      37.030  32.593  28.843  1.00  0.00     0.010 A 
ATOM     33  C   UNL A   1      35.672  30.680  29.417  1.00  0.00     0.010 A 
ATOM     34  C   UNL A   1      36.911  31.334  29.453  1.00  0.00    -0.014 A 
BRANCH  34  35
ATOM     35  C   UNL A   1      38.069  30.691  30.131  1.00  0.00     0.031 A 
ATOM     36  C   UNL A   1      38.462  31.099  31.527  1.00  0.00     0.074 A 
ATOM     37  C   UNL A   1      38.819  29.792  29.460  1.00  0.00     0.049 A 
ATOM     38  N   UNL A   1      39.468  30.688  32.254  1.00  0.00    -0.248 NA
ATOM     39  C   UNL A   1      37.632  32.123  32.183  1.00  0.00     0.031 C 
ATOM     40  C   UNL A   1      38.592  29.366  28.077  1.00  0.00     0.029 A 
ATOM     41  N   UNL A   1      39.939  29.095  29.841  1.00  0.00    -0.354 N 
ATOM     42  C   UNL A   1      39.415  31.424  33.432  1.00  0.00     0.074 A 
ATOM     43  C   UNL A   1      38.298  32.333  33.309  1.00  0.00     0.031 C 
ATOM     44  C   UNL A   1      39.536  28.478  27.730  1.00  0.00     0.029 A 
ATOM     45  C   UNL A   1      40.456  28.298  28.848  1.00  0.00     0.049 A 
ATOM     46  H   UNL A   1      40.333  29.161  30.741  1.00  0.00     0.167 HD
ATOM     47  C   UNL A   1      40.206  31.335  34.529  1.00  0.00     0.034 A 
ATOM     48  C   UNL A   1      41.555  27.517  28.830  1.00  0.00     0.034 A 
ATOM     49  C   UNL A   1      41.294  30.404  34.664  1.00  0.00     0.049 A 
ATOM     50  C   UNL A   1      42.402  27.417  30.070  1.00  0.00     0.074 A 
ATOM     51  C   UNL A   1      42.096  30.174  35.768  1.00  0.00     0.029 A 
ATOM     52  N   UNL A   1      41.743  29.559  33.661  1.00  0.00    -0.354 N 
ATOM     53  N   UNL A   1      42.241  28.007  31.229  1.00  0.00    -0.248 NA
ATOM     54  C   UNL A   1      43.563  26.517  30.010  1.00  0.00     0.031 C 
ATOM     55  C   UNL A   1      43.054  29.216  35.421  1.00  0.00     0.029 A 
ATOM     56  C   UNL A   1      42.823  28.819  34.113  1.00  0.00     0.049 A 
ATOM     57  H   UNL A   1      41.352  29.494  32.760  1.00  0.00     0.167 HD
ATOM     58  C   UNL A   1      43.256  27.523  32.047  1.00  0.00     0.074 A 
ATOM     59  C   UNL A   1      44.013  26.575  31.256  1.00  0.00     0.031 C 
ATOM     60  C   UNL A   1      43.541  27.844  33.334  1.00  0.00     0.034 A 
BRANCH  47  61
ATOM     61  C   UNL A   1      39.897  32.243  35.693  1.00  0.00     0.023 A 
ATOM     62  C   UNL A   1      40.558  33.484  35.807  1.00  0.00     0.012 A 
ATOM     63  C   UNL A   1      38.913  31.896  36.640  1.00  0.00     0.148 A 
ATOM     64  C   UNL A   1      40.275  34.346  36.865  1.00  0.00     0.002 A 
ATOM     65  C   UNL A   1      38.602  32.783  37.664  1.00  0.00     0.091 A 
ATOM     66  F   UNL A   1      38.308  30.706  36.527  1.00  0.00    -0.205 F 
ATOM     67  C   UNL A   1      39.290  34.000  37.787  1.00  0.00     0.022 A 
BRANCH  65  68
ATOM     68  S   UNL A   1      37.292  32.470  38.854  1.00  0.00     0.127 S 
ATOM     69  O   UNL A   1      37.638  33.403  39.925  1.00  0.00    -0.237 OA
ATOM     70  O   UNL A   1      36.095  32.830  38.094  1.00  0.00    -0.237 OA
ATOM     71  O   UNL A   1      37.391  31.059  39.200  1.00  0.00    -0.744 OA
ENDBRANCH  65  68
ENDBRANCH  47  61
BRANCH  48  72
ATOM     72  C   UNL A   1      41.891  26.729  27.610  1.00  0.00     0.023 A 
ATOM     73  C   UNL A   1      42.473  27.376  26.503  1.00  0.00     0.012 A 
ATOM     74  C   UNL A   1      41.659  25.341  27.551  1.00  0.00     0.148 A 
ATOM     75  C   UNL A   1      42.787  26.662  25.347  1.00  0.00     0.002 A 
ATOM     76  C   UNL A   1      42.027  24.626  26.418  1.00  0.00     0.091 A 
ATOM     77  F   UNL A   1      41.097  24.746  28.613  1.00  0.00    -0.205 F 
ATOM     78  C   UNL A   1      42.574  25.287  25.308  1.00  0.00     0.022 A 
BRANCH  76  79
ATOM     79  S   UNL A   1      41.910  22.836  26.326  1.00  0.00     0.127 S 
ATOM     80  O   UNL A   1      40.466  22.628  26.416  1.00  0.00    -0.237 OA
ATOM     81  O   UNL A   1      42.491  22.567  25.011  1.00  0.00    -0.237 OA
ATOM     82  O   UNL A   1      42.692  22.333  27.447  1.00  0.00    -0.744 OA
ENDBRANCH  76  79
ENDBRANCH  48  72
BRANCH  60  83
ATOM     83  C   UNL A   1      44.698  27.137  33.991  1.00  0.00     0.023 A 
ATOM     84  C   UNL A   1      46.003  27.653  33.869  1.00  0.00     0.012 A 
ATOM     85  C   UNL A   1      44.477  25.999  34.793  1.00  0.00     0.148 A 
ATOM     86  C   UNL A   1      47.076  27.028  34.504  1.00  0.00     0.002 A 
ATOM     87  C   UNL A   1      45.542  25.413  35.467  1.00  0.00     0.091 A 
ATOM     88  F   UNL A   1      43.230  25.513  34.883  1.00  0.00    -0.205 F 
ATOM     89  C   UNL A   1      46.843  25.916  35.312  1.00  0.00     0.022 A 
BRANCH  87  90
ATOM     90  S   UNL A   1      45.325  24.041  36.606  1.00  0.00     0.127 S 
ATOM     91  O   UNL A   1      46.707  23.742  36.979  1.00  0.00    -0.237 OA
ATOM     92  O   UNL A   1      44.523  24.647  37.669  1.00  0.00    -0.237 OA
ATOM     93  O   UNL A   1      44.643  22.996  35.853  1.00  0.00    -0.744 OA
ENDBRANCH  87  90
ENDBRANCH  60  83
ENDBRANCH  34  35
ENDBRANCH  26  29
ENDBRANCH  24  25
ENDBRANCH   1  24
TORSDOF 17
ENDMDL
MODEL 3
REMARK VINA RESULT:     -11.3      5.319     10.447
REMARK SMILES CC(C)[C@H](NC(N)=O)C(=O)N[C@H](C)C(=O)NCCCNC(=O)c1ccc(-c2c3nc(c(-c4cccc(S(=O)(=O)[O-])c4F)c4ccc([nH]4)c(-c4cccc(S(=O)(=O)[O-])c4F)c4nc(c(-c5cccc(S(=O)(=O)[O-])c5F)c5ccc2[nH]5)C=C4)C=C3)cc1
REMARK SMILES IDX 18 1 17 2 16 3 14 4 15 5 12 7 13 8 11 9 9 10 10 11 4 13 2 14
REMARK SMILES IDX 1 15 3 16 5 17 6 18 7 20 8 21 19 24 20 25 21 26 22 28 23 29
REMARK SMILES IDX 24 30 85 31 25 32 84 33 26 34 27 35 28 36 78 37 29 38 83 39
REMARK SMILES IDX 77 40 79 41 30 42 82 43 76 44 75 45 31 47 63 48 43 49 62 50
REMARK SMILES IDX 44 51 47 52 61 53 80 54 45 55 46 56 60 58 81 59 48 60 32 61
REMARK SMILES IDX 33 62 41 63 34 64 36 65 42 66 35 67 37 68 38 69 39 70 40 71
REMARK SMILES IDX 64 72 65 73 73 74 66 75 68 76 74 77 67 78 69 79 70 80 71 81
REMARK SMILES IDX 72 82 49 83 50 84 58 85 51 86 53 87 59 88 52 89 54 90 55 91
REMARK SMILES IDX 56 92 57 93
REMARK H PARENT 16 6 11 12 5 19 7 22 7 23 20 27 79 46 47 57
REMARK Flexibility Score: inf
ROOT
ATOM      1  C   UNL A   1      31.526  29.246  26.281  1.00  0.00     0.042 C 
ENDROOT
BRANCH   1   2
ATOM      2  C   UNL A   1      31.827  28.105  27.244  1.00  0.00     0.117 C 
BRANCH   2   3
ATOM      3  N   UNL A   1      31.072  26.893  26.961  1.00  0.00    -0.354 N 
ATOM      4  C   UNL A   1      31.449  25.651  26.540  1.00  0.00     0.242 C 
ATOM      5  O   UNL A   1      30.544  24.824  26.376  1.00  0.00    -0.273 OA
ATOM      6  H   UNL A   1      30.102  26.988  27.100  1.00  0.00     0.163 HD
BRANCH   4   7
ATOM      7  C   UNL A   1      32.895  25.309  26.084  1.00  0.00     0.168 C 
ATOM      8  C   UNL A   1      32.934  23.808  25.843  1.00  0.00     0.041 C 
BRANCH   7   9
ATOM      9  N   UNL A   1      33.416  26.302  25.129  1.00  0.00    -0.343 N 
ATOM     10  C   UNL A   1      33.128  26.945  23.973  1.00  0.00     0.243 C 
ATOM     11  O   UNL A   1      34.045  27.673  23.562  1.00  0.00    -0.273 OA
ATOM     12  H   UNL A   1      34.295  26.611  25.447  1.00  0.00     0.164 HD
BRANCH  10  13
ATOM     13  C   UNL A   1      31.766  26.979  23.245  1.00  0.00     0.175 C 
BRANCH  13  14
ATOM     14  C   UNL A   1      31.563  25.645  22.466  1.00  0.00     0.015 C 
ATOM     15  C   UNL A   1      32.884  24.984  22.055  1.00  0.00     0.010 C 
ATOM     16  C   UNL A   1      30.659  24.613  23.122  1.00  0.00     0.010 C 
ENDBRANCH  13  14
BRANCH  13  17
ATOM     17  N   UNL A   1      31.618  28.267  22.586  1.00  0.00    -0.326 N 
ATOM     18  C   UNL A   1      30.460  28.928  22.348  1.00  0.00     0.312 C 
ATOM     19  H   UNL A   1      32.446  28.705  22.281  1.00  0.00     0.166 HD
ATOM     20  N   UNL A   1      30.653  30.065  21.639  1.00  0.00    -0.352 N 
ATOM     21  O   UNL A   1      29.337  28.572  22.665  1.00  0.00    -0.249 OA
ATOM     22  H   UNL A   1      31.565  30.342  21.390  1.00  0.00     0.161 HD
ATOM     23  H   UNL A   1      29.881  30.616  21.373  1.00  0.00     0.161 HD
ENDBRANCH  13  17
ENDBRANCH  10  13
ENDBRANCH   7   9
ENDBRANCH   4   7
ENDBRANCH   2   3
ENDBRANCH   1   2
BRANCH   1  24
ATOM     24  C   UNL A   1      32.718  30.103  25.891  1.00  0.00     0.118 C 
BRANCH  24  25
ATOM     25  N   UNL A   1      32.591  31.489  26.313  1.00  0.00    -0.352 N 
ATOM     26  C   UNL A   1      33.290  32.210  27.253  1.00  0.00     0.251 C 
ATOM     27  H   UNL A   1      31.886  31.996  25.849  1.00  0.00     0.163 HD
ATOM     28  O   UNL A   1      32.895  33.337  27.545  1.00  0.00    -0.269 OA
BRANCH  26  29
ATOM     29  C   UNL A   1      34.486  31.651  27.927  1.00  0.00     0.039 A 
ATOM     30  C   UNL A   1      35.603  32.477  28.101  1.00  0.00     0.014 A 
ATOM     31  C   UNL A   1      34.543  30.322  28.351  1.00  0.00     0.014 A 
ATOM     32  C   UNL A   1      36.742  31.988  28.749  1.00  0.00     0.010 A 
ATOM     33  C   UNL A   1      35.640  29.866  29.081  1.00  0.00     0.010 A 
ATOM     34  C   UNL A   1      36.758  30.688  29.277  1.00  0.00    -0.014 A 
BRANCH  34  35
ATOM     35  C   UNL A   1      37.931  30.176  30.035  1.00  0.00     0.031 A 
ATOM     36  C   UNL A   1      38.201  30.648  31.440  1.00  0.00     0.074 A 
ATOM     37  C   UNL A   1      38.803  29.342  29.430  1.00  0.00     0.049 A 
ATOM     38  N   UNL A   1      39.199  30.352  32.233  1.00  0.00    -0.248 NA
ATOM     39  C   UNL A   1      37.239  31.597  32.023  1.00  0.00     0.031 C 
ATOM     40  C   UNL A   1      38.699  28.869  28.048  1.00  0.00     0.029 A 
ATOM     41  N   UNL A   1      39.961  28.766  29.890  1.00  0.00    -0.354 N 
ATOM     42  C   UNL A   1      39.006  31.102  33.387  1.00  0.00     0.074 A 
ATOM     43  C   UNL A   1      37.815  31.895  33.179  1.00  0.00     0.031 C 
ATOM     44  C   UNL A   1      39.743  28.070  27.776  1.00  0.00     0.029 A 
ATOM     45  C   UNL A   1      40.610  28.004  28.948  1.00  0.00     0.049 A 
ATOM     46  H   UNL A   1      40.294  28.888  30.809  1.00  0.00     0.167 HD
ATOM     47  C   UNL A   1      39.737  31.113  34.528  1.00  0.00     0.034 A 
ATOM     48  C   UNL A   1      41.779  27.335  29.012  1.00  0.00     0.034 A 
ATOM     49  C   UNL A   1      40.901  30.297  34.747  1.00  0.00     0.049 A 
ATOM     50  C   UNL A   1      42.558  27.343  30.299  1.00  0.00     0.074 A 
ATOM     51  C   UNL A   1      41.656  30.169  35.899  1.00  0.00     0.029 A 
ATOM     52  N   UNL A   1      41.487  29.481  33.793  1.00  0.00    -0.354 N 
ATOM     53  N   UNL A   1      42.274  27.937  31.432  1.00  0.00    -0.248 NA
ATOM     54  C   UNL A   1      43.802  26.560  30.326  1.00  0.00     0.031 C 
ATOM     55  C   UNL A   1      42.721  29.303  35.630  1.00  0.00     0.029 A 
ATOM     56  C   UNL A   1      42.605  28.859  34.322  1.00  0.00     0.049 A 
ATOM     57  H   UNL A   1      41.157  29.360  32.872  1.00  0.00     0.167 HD
ATOM     58  C   UNL A   1      43.281  27.571  32.317  1.00  0.00     0.074 A 
ATOM     59  C   UNL A   1      44.171  26.688  31.594  1.00  0.00     0.031 C 
ATOM     60  C   UNL A   1      43.459  27.944  33.609  1.00  0.00     0.034 A 
BRANCH  47  61
ATOM     61  C   UNL A   1      39.275  32.009  35.649  1.00  0.00     0.023 A 
ATOM     62  C   UNL A   1      38.362  31.519  36.606  1.00  0.00     0.012 A 
ATOM     63  C   UNL A   1      39.786  33.314  35.790  1.00  0.00     0.148 A 
ATOM     64  C   UNL A   1      37.934  32.324  37.661  1.00  0.00     0.002 A 
ATOM     65  C   UNL A   1      39.393  34.094  36.872  1.00  0.00     0.091 A 
ATOM     66  F   UNL A   1      40.638  33.771  34.862  1.00  0.00    -0.205 F 
ATOM     67  C   UNL A   1      38.458  33.607  37.799  1.00  0.00     0.022 A 
BRANCH  65  68
ATOM     68  S   UNL A   1      40.071  35.728  37.187  1.00  0.00     0.127 S 
ATOM     69  O   UNL A   1      39.646  36.458  35.993  1.00  0.00    -0.237 OA
ATOM     70  O   UNL A   1      39.380  36.115  38.417  1.00  0.00    -0.237 OA
ATOM     71  O   UNL A   1      41.510  35.547  37.328  1.00  0.00    -0.744 OA
ENDBRANCH  65  68
ENDBRANCH  47  61
BRANCH  48  72
ATOM     72  C   UNL A   1      42.259  26.560  27.833  1.00  0.00     0.023 A 
ATOM     73  C   UNL A   1      43.097  27.181  26.887  1.00  0.00     0.012 A 
ATOM     74  C   UNL A   1      41.911  25.207  27.657  1.00  0.00     0.148 A 
ATOM     75  C   UNL A   1      43.552  26.480  25.770  1.00  0.00     0.002 A 
ATOM     76  C   UNL A   1      42.414  24.498  26.574  1.00  0.00     0.091 A 
ATOM     77  F   UNL A   1      41.106  24.637  28.565  1.00  0.00    -0.205 F 
ATOM     78  C   UNL A   1      43.221  25.137  25.619  1.00  0.00     0.022 A 
BRANCH  76  79
ATOM     79  S   UNL A   1      42.145  22.734  26.365  1.00  0.00     0.127 S 
ATOM     80  O   UNL A   1      42.591  22.526  24.990  1.00  0.00    -0.237 OA
ATOM     81  O   UNL A   1      43.026  22.175  27.391  1.00  0.00    -0.237 OA
ATOM     82  O   UNL A   1      40.725  22.522  26.608  1.00  0.00    -0.744 OA
ENDBRANCH  76  79
ENDBRANCH  48  72
BRANCH  60  83
ATOM     83  C   UNL A   1      44.639  27.367  34.348  1.00  0.00     0.023 A 
ATOM     84  C   UNL A   1      45.866  28.059  34.369  1.00  0.00     0.012 A 
ATOM     85  C   UNL A   1      44.506  26.173  35.083  1.00  0.00     0.148 A 
ATOM     86  C   UNL A   1      46.953  27.553  35.080  1.00  0.00     0.002 A 
ATOM     87  C   UNL A   1      45.577  25.702  35.834  1.00  0.00     0.091 A 
ATOM     88  F   UNL A   1      43.336  25.520  35.037  1.00  0.00    -0.205 F 
ATOM     89  C   UNL A   1      46.805  26.382  35.822  1.00  0.00     0.022 A 
BRANCH  87  90
ATOM     90  S   UNL A   1      45.451  24.260  36.897  1.00  0.00     0.127 S 
ATOM     91  O   UNL A   1      46.857  23.977  37.183  1.00  0.00    -0.237 OA
ATOM     92  O   UNL A   1      44.690  24.780  38.033  1.00  0.00    -0.237 OA
ATOM     93  O   UNL A   1      44.757  23.244  36.117  1.00  0.00    -0.744 OA
ENDBRANCH  87  90
ENDBRANCH  60  83
ENDBRANCH  34  35
ENDBRANCH  26  29
ENDBRANCH  24  25
ENDBRANCH   1  24
TORSDOF 17
ENDMDL
