MODEL 1
REMARK VINA RESULT:     -12.3      0.000      0.000
REMARK SMILES O=C(NCCCNC(=O)c1sccc1S(=O)(=O)N1CCO[C@@H]2CCCC[C@@H]21)c1ccc(-c2c3nc(c(-c4cccc(S(=O)(=O)[O-])c4F)c4ccc([nH]4)c(-c4cccc(S(=O)(=O)[O-])c4F)c4nc(c(-c5cccc(S(=O)(=O)[O-])c5F)c5ccc2[nH]5)C=C4)C=C3)cc1
REMARK SMILES IDX 4 1 3 2 1 3 2 4 28 6 29 7 90 8 30 9 89 10 31 11 32 12 33 13
REMARK SMILES IDX 83 14 34 15 88 16 82 17 84 18 35 19 87 20 81 21 80 22 36 24
REMARK SMILES IDX 68 25 48 26 67 27 49 28 52 29 66 30 85 31 50 32 51 33 65 35
REMARK SMILES IDX 86 36 53 37 37 38 38 39 46 40 39 41 41 42 47 43 40 44 42 45
REMARK SMILES IDX 43 46 44 47 45 48 69 49 70 50 78 51 71 52 73 53 79 54 72 55
REMARK SMILES IDX 74 56 75 57 76 58 77 59 54 60 55 61 63 62 56 63 58 64 64 65
REMARK SMILES IDX 57 66 59 67 60 68 61 69 62 70 5 71 6 72 7 73 8 74 9 76 10 77
REMARK SMILES IDX 11 78 14 79 12 80 13 81 15 82 16 83 17 84 18 85 19 86 27 87
REMARK SMILES IDX 20 88 22 89 26 90 21 91 23 92 25 93 24 94
REMARK H PARENT 3 5 84 23 52 34 7 75
REMARK Flexibility Score: inf
ROOT
ATOM      1  C   UNL A   1      39.032  19.932  26.095  1.00  0.00     0.118 C 
ENDROOT
BRANCH   1   2
ATOM      2  N   UNL A   1      40.273  19.183  25.986  1.00  0.00    -0.352 N 
ATOM      3  O   UNL A   1      42.519  18.916  26.210  1.00  0.00    -0.269 OA
ATOM      4  C   UNL A   1      41.541  19.652  26.277  1.00  0.00     0.251 C 
ATOM      5  H   UNL A   1      40.206  18.252  25.674  1.00  0.00     0.163 HD
BRANCH   4   6
ATOM      6  C   UNL A   1      41.704  21.074  26.658  1.00  0.00     0.039 A 
ATOM      7  C   UNL A   1      41.544  22.089  25.708  1.00  0.00     0.014 A 
ATOM      8  C   UNL A   1      42.086  21.385  27.963  1.00  0.00     0.014 A 
ATOM      9  C   UNL A   1      41.864  23.411  26.042  1.00  0.00     0.010 A 
ATOM     10  C   UNL A   1      42.384  22.711  28.299  1.00  0.00     0.010 A 
ATOM     11  C   UNL A   1      42.323  23.728  27.331  1.00  0.00    -0.014 A 
BRANCH  11  12
ATOM     12  C   UNL A   1      42.815  25.095  27.664  1.00  0.00     0.031 A 
ATOM     13  C   UNL A   1      41.872  26.105  28.266  1.00  0.00     0.074 A 
ATOM     14  C   UNL A   1      44.077  25.465  27.376  1.00  0.00     0.049 A 
ATOM     15  N   UNL A   1      42.076  27.368  28.542  1.00  0.00    -0.248 NA
ATOM     16  C   UNL A   1      40.517  25.632  28.591  1.00  0.00     0.031 C 
ATOM     17  C   UNL A   1      45.088  24.608  26.762  1.00  0.00     0.029 A 
ATOM     18  N   UNL A   1      44.706  26.680  27.521  1.00  0.00    -0.354 N 
ATOM     19  C   UNL A   1      40.868  27.852  29.030  1.00  0.00     0.074 A 
ATOM     20  C   UNL A   1      39.934  26.747  29.008  1.00  0.00     0.031 C 
ATOM     21  C   UNL A   1      46.198  25.332  26.545  1.00  0.00     0.029 A 
ATOM     22  C   UNL A   1      45.970  26.710  26.979  1.00  0.00     0.049 A 
ATOM     23  H   UNL A   1      44.292  27.451  27.971  1.00  0.00     0.167 HD
ATOM     24  C   UNL A   1      40.562  29.096  29.473  1.00  0.00     0.034 A 
ATOM     25  C   UNL A   1      46.835  27.732  26.817  1.00  0.00     0.034 A 
ATOM     26  C   UNL A   1      41.493  30.190  29.540  1.00  0.00     0.049 A 
ATOM     27  C   UNL A   1      46.483  29.105  27.328  1.00  0.00     0.074 A 
ATOM     28  C   UNL A   1      41.294  31.456  30.063  1.00  0.00     0.029 A 
ATOM     29  N   UNL A   1      42.792  30.158  29.060  1.00  0.00    -0.354 N 
ATOM     30  N   UNL A   1      45.390  29.504  27.930  1.00  0.00    -0.248 NA
ATOM     31  C   UNL A   1      47.497  30.160  27.167  1.00  0.00     0.031 C 
ATOM     32  C   UNL A   1      42.468  32.196  29.882  1.00  0.00     0.029 A 
ATOM     33  C   UNL A   1      43.402  31.384  29.259  1.00  0.00     0.049 A 
ATOM     34  H   UNL A   1      43.219  29.377  28.638  1.00  0.00     0.167 HD
ATOM     35  C   UNL A   1      45.593  30.844  28.244  1.00  0.00     0.074 A 
ATOM     36  C   UNL A   1      46.920  31.187  27.781  1.00  0.00     0.031 C 
ATOM     37  C   UNL A   1      44.745  31.711  28.851  1.00  0.00     0.034 A 
BRANCH  24  38
ATOM     38  C   UNL A   1      39.161  29.335  29.968  1.00  0.00     0.023 A 
ATOM     39  C   UNL A   1      38.826  28.991  31.293  1.00  0.00     0.012 A 
ATOM     40  C   UNL A   1      38.194  29.946  29.146  1.00  0.00     0.148 A 
ATOM     41  C   UNL A   1      37.541  29.222  31.782  1.00  0.00     0.002 A 
ATOM     42  C   UNL A   1      36.926  30.206  29.654  1.00  0.00     0.091 A 
ATOM     43  F   UNL A   1      38.520  30.243  27.880  1.00  0.00    -0.205 F 
ATOM     44  C   UNL A   1      36.595  29.838  30.967  1.00  0.00     0.022 A 
BRANCH  42  45
ATOM     45  S   UNL A   1      35.675  31.063  28.690  1.00  0.00     0.127 S 
ATOM     46  O   UNL A   1      35.106  29.969  27.906  1.00  0.00    -0.237 OA
ATOM     47  O   UNL A   1      34.787  31.597  29.723  1.00  0.00    -0.237 OA
ATOM     48  O   UNL A   1      36.395  32.080  27.935  1.00  0.00    -0.744 OA
ENDBRANCH  42  45
ENDBRANCH  24  38
BRANCH  25  49
ATOM     49  C   UNL A   1      48.146  27.471  26.159  1.00  0.00     0.023 A 
ATOM     50  C   UNL A   1      49.224  26.988  26.923  1.00  0.00     0.012 A 
ATOM     51  C   UNL A   1      48.303  27.632  24.768  1.00  0.00     0.148 A 
ATOM     52  C   UNL A   1      50.440  26.677  26.314  1.00  0.00     0.002 A 
ATOM     53  C   UNL A   1      49.498  27.268  24.161  1.00  0.00     0.091 A 
ATOM     54  F   UNL A   1      47.268  28.112  24.064  1.00  0.00    -0.205 F 
ATOM     55  C   UNL A   1      50.573  26.803  24.934  1.00  0.00     0.022 A 
BRANCH  53  56
ATOM     56  S   UNL A   1      49.712  27.262  22.377  1.00  0.00     0.127 S 
ATOM     57  O   UNL A   1      51.113  26.870  22.245  1.00  0.00    -0.237 OA
ATOM     58  O   UNL A   1      48.745  26.246  21.961  1.00  0.00    -0.237 OA
ATOM     59  O   UNL A   1      49.391  28.613  21.937  1.00  0.00    -0.744 OA
ENDBRANCH  53  56
ENDBRANCH  25  49
BRANCH  37  60
ATOM     60  C   UNL A   1      45.216  33.124  29.087  1.00  0.00     0.023 A 
ATOM     61  C   UNL A   1      45.930  33.431  30.261  1.00  0.00     0.012 A 
ATOM     62  C   UNL A   1      45.052  34.115  28.097  1.00  0.00     0.148 A 
ATOM     63  C   UNL A   1      46.460  34.708  30.454  1.00  0.00     0.002 A 
ATOM     64  C   UNL A   1      45.616  35.372  28.279  1.00  0.00     0.091 A 
ATOM     65  F   UNL A   1      44.355  33.806  26.994  1.00  0.00    -0.205 F 
ATOM     66  C   UNL A   1      46.314  35.672  29.459  1.00  0.00     0.022 A 
BRANCH  64  67
ATOM     67  S   UNL A   1      45.556  36.650  27.016  1.00  0.00     0.127 S 
ATOM     68  O   UNL A   1      46.185  35.975  25.881  1.00  0.00    -0.237 OA
ATOM     69  O   UNL A   1      44.117  36.877  26.870  1.00  0.00    -0.237 OA
ATOM     70  O   UNL A   1      46.294  37.784  27.555  1.00  0.00    -0.744 OA
ENDBRANCH  64  67
ENDBRANCH  37  60
ENDBRANCH  11  12
ENDBRANCH   4   6
ENDBRANCH   1   2
BRANCH   1  71
ATOM     71  C   UNL A   1      38.147  19.939  24.843  1.00  0.00     0.042 C 
BRANCH  71  72
ATOM     72  C   UNL A   1      37.296  21.180  24.613  1.00  0.00     0.118 C 
BRANCH  72  73
ATOM     73  N   UNL A   1      36.535  21.506  25.797  1.00  0.00    -0.351 N 
ATOM     74  C   UNL A   1      35.449  22.347  25.803  1.00  0.00     0.262 C 
ATOM     75  H   UNL A   1      36.811  21.100  26.650  1.00  0.00     0.163 HD
ATOM     76  O   UNL A   1      35.475  23.399  26.426  1.00  0.00    -0.268 OA
BRANCH  74  77
ATOM     77  C   UNL A   1      34.305  21.864  25.072  1.00  0.00     0.112 A 
ATOM     78  S   UNL A   1      33.506  20.503  25.763  1.00  0.00    -0.137 S 
ATOM     79  C   UNL A   1      33.676  22.318  23.926  1.00  0.00     0.106 A 
ATOM     80  C   UNL A   1      32.187  20.658  24.701  1.00  0.00     0.067 A 
ATOM     81  C   UNL A   1      32.408  21.640  23.760  1.00  0.00     0.034 A 
BRANCH  79  82
ATOM     82  S   UNL A   1      34.153  23.672  22.891  1.00  0.00     0.245 S 
ATOM     83  O   UNL A   1      35.595  23.644  23.035  1.00  0.00    -0.207 OA
ATOM     84  O   UNL A   1      33.537  23.351  21.624  1.00  0.00    -0.207 OA
BRANCH  82  85
ATOM     85  N   UNL A   1      33.587  25.230  23.383  1.00  0.00    -0.190 NA
ATOM     86  C   UNL A   1      33.255  26.167  22.248  1.00  0.00     0.131 C 
ATOM     87  C   UNL A   1      32.687  25.356  24.631  1.00  0.00     0.102 C 
ATOM     88  C   UNL A   1      31.825  26.688  22.267  1.00  0.00     0.177 C 
ATOM     89  C   UNL A   1      31.416  26.255  24.503  1.00  0.00     0.136 C 
ATOM     90  C   UNL A   1      33.500  25.766  25.870  1.00  0.00     0.023 C 
ATOM     91  O   UNL A   1      31.553  27.285  23.524  1.00  0.00    -0.375 OA
ATOM     92  C   UNL A   1      31.031  26.950  25.818  1.00  0.00     0.034 C 
ATOM     93  C   UNL A   1      33.533  27.251  26.168  1.00  0.00     0.002 C 
ATOM     94  C   UNL A   1      32.145  27.842  26.360  1.00  0.00     0.003 C 
ENDBRANCH  82  85
ENDBRANCH  79  82
ENDBRANCH  74  77
ENDBRANCH  72  73
ENDBRANCH  71  72
ENDBRANCH   1  71
TORSDOF 15
ENDMDL
MODEL 2
REMARK VINA RESULT:     -12.2      4.943      8.391
REMARK SMILES O=C(NCCCNC(=O)c1sccc1S(=O)(=O)N1CCO[C@@H]2CCCC[C@@H]21)c1ccc(-c2c3nc(c(-c4cccc(S(=O)(=O)[O-])c4F)c4ccc([nH]4)c(-c4cccc(S(=O)(=O)[O-])c4F)c4nc(c(-c5cccc(S(=O)(=O)[O-])c5F)c5ccc2[nH]5)C=C4)C=C3)cc1
REMARK SMILES IDX 4 1 3 2 1 3 2 4 28 6 29 7 90 8 30 9 89 10 31 11 32 12 33 13
REMARK SMILES IDX 83 14 34 15 88 16 82 17 84 18 35 19 87 20 81 21 80 22 36 24
REMARK SMILES IDX 68 25 48 26 67 27 49 28 52 29 66 30 85 31 50 32 51 33 65 35
REMARK SMILES IDX 86 36 53 37 37 38 38 39 46 40 39 41 41 42 47 43 40 44 42 45
REMARK SMILES IDX 43 46 44 47 45 48 69 49 70 50 78 51 71 52 73 53 79 54 72 55
REMARK SMILES IDX 74 56 75 57 76 58 77 59 54 60 55 61 63 62 56 63 58 64 64 65
REMARK SMILES IDX 57 66 59 67 60 68 61 69 62 70 5 71 6 72 7 73 8 74 9 76 10 77
REMARK SMILES IDX 11 78 14 79 12 80 13 81 15 82 16 83 17 84 18 85 19 86 27 87
REMARK SMILES IDX 20 88 22 89 26 90 21 91 23 92 25 93 24 94
REMARK H PARENT 3 5 84 23 52 34 7 75
REMARK Flexibility Score: inf
ROOT
ATOM      1  C   UNL A   1      33.934  29.340  26.208  1.00  0.00     0.118 C 
ENDROOT
BRANCH   1   2
ATOM      2  N   UNL A   1      33.819  30.606  26.912  1.00  0.00    -0.352 N 
ATOM      3  O   UNL A   1      34.571  32.244  28.296  1.00  0.00    -0.269 OA
ATOM      4  C   UNL A   1      34.736  31.134  27.802  1.00  0.00     0.251 C 
ATOM      5  H   UNL A   1      33.010  31.140  26.739  1.00  0.00     0.163 HD
BRANCH   4   6
ATOM      6  C   UNL A   1      35.922  30.325  28.167  1.00  0.00     0.039 A 
ATOM      7  C   UNL A   1      35.959  29.620  29.375  1.00  0.00     0.014 A 
ATOM      8  C   UNL A   1      37.030  30.330  27.319  1.00  0.00     0.014 A 
ATOM      9  C   UNL A   1      37.147  28.999  29.781  1.00  0.00     0.010 A 
ATOM     10  C   UNL A   1      38.208  29.689  27.718  1.00  0.00     0.010 A 
ATOM     11  C   UNL A   1      38.294  29.059  28.972  1.00  0.00    -0.014 A 
BRANCH  11  12
ATOM     12  C   UNL A   1      39.607  28.542  29.450  1.00  0.00     0.031 A 
ATOM     13  C   UNL A   1      40.353  29.279  30.533  1.00  0.00     0.074 A 
ATOM     14  C   UNL A   1      40.172  27.459  28.885  1.00  0.00     0.049 A 
ATOM     15  N   UNL A   1      41.545  29.049  31.024  1.00  0.00    -0.248 NA
ATOM     16  C   UNL A   1      39.670  30.434  31.138  1.00  0.00     0.031 C 
ATOM     17  C   UNL A   1      39.585  26.668  27.805  1.00  0.00     0.029 A 
ATOM     18  N   UNL A   1      41.393  26.867  29.113  1.00  0.00    -0.354 N 
ATOM     19  C   UNL A   1      41.773  30.051  31.959  1.00  0.00     0.074 A 
ATOM     20  C   UNL A   1      40.598  30.895  31.965  1.00  0.00     0.031 C 
ATOM     21  C   UNL A   1      40.462  25.720  27.436  1.00  0.00     0.029 A 
ATOM     22  C   UNL A   1      41.682  25.851  28.232  1.00  0.00     0.049 A 
ATOM     23  H   UNL A   1      42.000  27.144  29.837  1.00  0.00     0.167 HD
ATOM     24  C   UNL A   1      42.853  30.247  32.755  1.00  0.00     0.034 A 
ATOM     25  C   UNL A   1      42.808  25.129  28.058  1.00  0.00     0.034 A 
ATOM     26  C   UNL A   1      44.007  29.391  32.789  1.00  0.00     0.049 A 
ATOM     27  C   UNL A   1      43.992  25.351  28.961  1.00  0.00     0.074 A 
ATOM     28  C   UNL A   1      45.104  29.461  33.632  1.00  0.00     0.029 A 
ATOM     29  N   UNL A   1      44.226  28.318  31.940  1.00  0.00    -0.354 N 
ATOM     30  N   UNL A   1      44.128  26.205  29.946  1.00  0.00    -0.248 NA
ATOM     31  C   UNL A   1      45.167  24.490  28.751  1.00  0.00     0.031 C 
ATOM     32  C   UNL A   1      45.995  28.441  33.279  1.00  0.00     0.029 A 
ATOM     33  C   UNL A   1      45.445  27.728  32.226  1.00  0.00     0.049 A 
ATOM     34  H   UNL A   1      43.606  28.021  31.235  1.00  0.00     0.167 HD
ATOM     35  C   UNL A   1      45.386  25.966  30.490  1.00  0.00     0.074 A 
ATOM     36  C   UNL A   1      45.969  24.877  29.736  1.00  0.00     0.031 C 
ATOM     37  C   UNL A   1      46.003  26.606  31.515  1.00  0.00     0.034 A 
BRANCH  24  38
ATOM     38  C   UNL A   1      42.819  31.420  33.698  1.00  0.00     0.023 A 
ATOM     39  C   UNL A   1      43.301  32.672  33.264  1.00  0.00     0.012 A 
ATOM     40  C   UNL A   1      42.264  31.301  34.986  1.00  0.00     0.148 A 
ATOM     41  C   UNL A   1      43.261  33.779  34.111  1.00  0.00     0.002 A 
ATOM     42  C   UNL A   1      42.194  32.419  35.810  1.00  0.00     0.091 A 
ATOM     43  F   UNL A   1      41.833  30.099  35.393  1.00  0.00    -0.205 F 
ATOM     44  C   UNL A   1      42.699  33.656  35.378  1.00  0.00     0.022 A 
BRANCH  42  45
ATOM     45  S   UNL A   1      41.417  32.357  37.429  1.00  0.00     0.127 S 
ATOM     46  O   UNL A   1      41.479  33.758  37.841  1.00  0.00    -0.237 OA
ATOM     47  O   UNL A   1      40.071  31.874  37.118  1.00  0.00    -0.237 OA
ATOM     48  O   UNL A   1      42.220  31.427  38.211  1.00  0.00    -0.744 OA
ENDBRANCH  42  45
ENDBRANCH  24  38
BRANCH  25  49
ATOM     49  C   UNL A   1      42.843  24.093  26.987  1.00  0.00     0.023 A 
ATOM     50  C   UNL A   1      43.585  24.330  25.816  1.00  0.00     0.012 A 
ATOM     51  C   UNL A   1      42.204  22.849  27.160  1.00  0.00     0.148 A 
ATOM     52  C   UNL A   1      43.683  23.348  24.829  1.00  0.00     0.002 A 
ATOM     53  C   UNL A   1      42.352  21.858  26.200  1.00  0.00     0.091 A 
ATOM     54  F   UNL A   1      41.487  22.655  28.276  1.00  0.00    -0.205 F 
ATOM     55  C   UNL A   1      43.080  22.109  25.027  1.00  0.00     0.022 A 
BRANCH  53  56
ATOM     56  S   UNL A   1      41.731  20.188  26.433  1.00  0.00     0.127 S 
ATOM     57  O   UNL A   1      40.288  20.388  26.334  1.00  0.00    -0.237 OA
ATOM     58  O   UNL A   1      42.334  19.482  25.302  1.00  0.00    -0.237 OA
ATOM     59  O   UNL A   1      42.222  19.763  27.737  1.00  0.00    -0.744 OA
ENDBRANCH  53  56
ENDBRANCH  25  49
BRANCH  37  60
ATOM     60  C   UNL A   1      47.379  26.142  31.921  1.00  0.00     0.023 A 
ATOM     61  C   UNL A   1      48.512  26.704  31.303  1.00  0.00     0.012 A 
ATOM     62  C   UNL A   1      47.550  25.236  32.988  1.00  0.00     0.148 A 
ATOM     63  C   UNL A   1      49.795  26.362  31.732  1.00  0.00     0.002 A 
ATOM     64  C   UNL A   1      48.830  24.930  33.435  1.00  0.00     0.091 A 
ATOM     65  F   UNL A   1      46.458  24.700  33.552  1.00  0.00    -0.205 F 
ATOM     66  C   UNL A   1      49.954  25.487  32.804  1.00  0.00     0.022 A 
BRANCH  64  67
ATOM     67  S   UNL A   1      49.130  23.882  34.864  1.00  0.00     0.127 S 
ATOM     68  O   UNL A   1      48.575  22.605  34.419  1.00  0.00    -0.237 OA
ATOM     69  O   UNL A   1      50.590  23.909  34.969  1.00  0.00    -0.237 OA
ATOM     70  O   UNL A   1      48.434  24.511  35.978  1.00  0.00    -0.744 OA
ENDBRANCH  64  67
ENDBRANCH  37  60
ENDBRANCH  11  12
ENDBRANCH   4   6
ENDBRANCH   1   2
BRANCH   1  71
ATOM     71  C   UNL A   1      33.313  28.127  26.912  1.00  0.00     0.042 C 
BRANCH  71  72
ATOM     72  C   UNL A   1      31.815  27.924  26.734  1.00  0.00     0.118 C 
BRANCH  72  73
ATOM     73  N   UNL A   1      31.474  26.523  26.828  1.00  0.00    -0.351 N 
ATOM     74  C   UNL A   1      30.503  25.918  26.068  1.00  0.00     0.262 C 
ATOM     75  H   UNL A   1      31.968  25.969  27.474  1.00  0.00     0.163 HD
ATOM     76  O   UNL A   1      29.506  25.440  26.591  1.00  0.00    -0.268 OA
BRANCH  74  77
ATOM     77  C   UNL A   1      30.784  25.865  24.656  1.00  0.00     0.112 A 
ATOM     78  S   UNL A   1      30.487  27.324  23.787  1.00  0.00    -0.137 S 
ATOM     79  C   UNL A   1      31.305  24.869  23.849  1.00  0.00     0.106 A 
ATOM     80  C   UNL A   1      31.275  26.735  22.401  1.00  0.00     0.067 A 
ATOM     81  C   UNL A   1      31.642  25.415  22.551  1.00  0.00     0.034 A 
BRANCH  79  82
ATOM     82  S   UNL A   1      31.747  23.220  24.312  1.00  0.00     0.245 S 
ATOM     83  O   UNL A   1      30.734  22.924  25.304  1.00  0.00    -0.207 OA
ATOM     84  O   UNL A   1      31.764  22.517  23.048  1.00  0.00    -0.207 OA
BRANCH  82  85
ATOM     85  N   UNL A   1      33.301  23.035  25.048  1.00  0.00    -0.190 NA
ATOM     86  C   UNL A   1      33.290  23.047  26.556  1.00  0.00     0.131 C 
ATOM     87  C   UNL A   1      34.346  22.100  24.399  1.00  0.00     0.102 C 
ATOM     88  C   UNL A   1      33.890  21.803  27.194  1.00  0.00     0.177 C 
ATOM     89  C   UNL A   1      35.105  21.118  25.347  1.00  0.00     0.136 C 
ATOM     90  C   UNL A   1      35.350  22.890  23.544  1.00  0.00     0.023 C 
ATOM     91  O   UNL A   1      35.199  21.594  26.690  1.00  0.00    -0.375 OA
ATOM     92  C   UNL A   1      36.540  20.820  24.888  1.00  0.00     0.034 C 
ATOM     93  C   UNL A   1      36.638  23.279  24.241  1.00  0.00     0.002 C 
ATOM     94  C   UNL A   1      37.398  22.079  24.785  1.00  0.00     0.003 C 
ENDBRANCH  82  85
ENDBRANCH  79  82
ENDBRANCH  74  77
ENDBRANCH  72  73
ENDBRANCH  71  72
ENDBRANCH   1  71
TORSDOF 15
ENDMDL
MODEL 3
REMARK VINA RESULT:     -12.1      5.685     11.060
REMARK SMILES O=C(NCCCNC(=O)c1sccc1S(=O)(=O)N1CCO[C@@H]2CCCC[C@@H]21)c1ccc(-c2c3nc(c(-c4cccc(S(=O)(=O)[O-])c4F)c4ccc([nH]4)c(-c4cccc(S(=O)(=O)[O-])c4F)c4nc(c(-c5cccc(S(=O)(=O)[O-])c5F)c5ccc2[nH]5)C=C4)C=C3)cc1
REMARK SMILES IDX 4 1 3 2 1 3 2 4 28 6 29 7 90 8 30 9 89 10 31 11 32 12 33 13
REMARK SMILES IDX 83 14 34 15 88 16 82 17 84 18 35 19 87 20 81 21 80 22 36 24
REMARK SMILES IDX 68 25 48 26 67 27 49 28 52 29 66 30 85 31 50 32 51 33 65 35
REMARK SMILES IDX 86 36 53 37 37 38 38 39 46 40 39 41 41 42 47 43 40 44 42 45
REMARK SMILES IDX 43 46 44 47 45 48 69 49 70 50 78 51 71 52 73 53 79 54 72 55
REMARK SMILES IDX 74 56 75 57 76 58 77 59 54 60 55 61 63 62 56 63 58 64 64 65
REMARK SMILES IDX 57 66 59 67 60 68 61 69 62 70 5 71 6 72 7 73 8 74 9 76 10 77
REMARK SMILES IDX 11 78 14 79 12 80 13 81 15 82 16 83 17 84 18 85 19 86 27 87
REMARK SMILES IDX 20 88 22 89 26 90 21 91 23 92 25 93 24 94
REMARK H PARENT 3 5 84 23 52 34 7 75
REMARK Flexibility Score: inf
ROOT
ATOM      1  C   UNL A   1      32.699  32.781  26.859  1.00  0.00     0.118 C 
ENDROOT
BRANCH   1   2
ATOM      2  N   UNL A   1      32.506  34.005  27.619  1.00  0.00    -0.352 N 
ATOM      3  O   UNL A   1      33.125  35.582  29.133  1.00  0.00    -0.269 OA
ATOM      4  C   UNL A   1      33.350  34.504  28.594  1.00  0.00     0.251 C 
ATOM      5  H   UNL A   1      31.697  34.529  27.421  1.00  0.00     0.163 HD
BRANCH   4   6
ATOM      6  C   UNL A   1      34.530  33.703  28.993  1.00  0.00     0.039 A 
ATOM      7  C   UNL A   1      34.372  32.504  29.698  1.00  0.00     0.014 A 
ATOM      8  C   UNL A   1      35.806  34.195  28.716  1.00  0.00     0.014 A 
ATOM      9  C   UNL A   1      35.497  31.847  30.212  1.00  0.00     0.010 A 
ATOM     10  C   UNL A   1      36.928  33.524  29.213  1.00  0.00     0.010 A 
ATOM     11  C   UNL A   1      36.784  32.371  30.006  1.00  0.00    -0.014 A 
BRANCH  11  12
ATOM     12  C   UNL A   1      37.978  31.778  30.671  1.00  0.00     0.031 A 
ATOM     13  C   UNL A   1      38.771  30.706  29.969  1.00  0.00     0.074 A 
ATOM     14  C   UNL A   1      38.325  32.138  31.921  1.00  0.00     0.049 A 
ATOM     15  N   UNL A   1      39.782  29.999  30.408  1.00  0.00    -0.248 NA
ATOM     16  C   UNL A   1      38.367  30.379  28.592  1.00  0.00     0.031 C 
ATOM     17  C   UNL A   1      37.630  33.134  32.735  1.00  0.00     0.029 A 
ATOM     18  N   UNL A   1      39.324  31.668  32.741  1.00  0.00    -0.354 N 
ATOM     19  C   UNL A   1      40.106  29.117  29.384  1.00  0.00     0.074 A 
ATOM     20  C   UNL A   1      39.180  29.374  28.302  1.00  0.00     0.031 C 
ATOM     21  C   UNL A   1      38.199  33.173  33.951  1.00  0.00     0.029 A 
ATOM     22  C   UNL A   1      39.278  32.188  34.013  1.00  0.00     0.049 A 
ATOM     23  H   UNL A   1      40.007  31.024  32.444  1.00  0.00     0.167 HD
ATOM     24  C   UNL A   1      41.092  28.188  29.337  1.00  0.00     0.034 A 
ATOM     25  C   UNL A   1      39.996  31.886  35.115  1.00  0.00     0.034 A 
ATOM     26  C   UNL A   1      42.043  27.955  30.389  1.00  0.00     0.049 A 
ATOM     27  C   UNL A   1      41.097  30.861  35.039  1.00  0.00     0.074 A 
ATOM     28  C   UNL A   1      43.133  27.100  30.386  1.00  0.00     0.029 A 
ATOM     29  N   UNL A   1      42.017  28.562  31.633  1.00  0.00    -0.354 N 
ATOM     30  N   UNL A   1      41.488  30.148  34.012  1.00  0.00    -0.248 NA
ATOM     31  C   UNL A   1      41.876  30.621  36.265  1.00  0.00     0.031 C 
ATOM     32  C   UNL A   1      43.754  27.177  31.638  1.00  0.00     0.029 A 
ATOM     33  C   UNL A   1      43.060  28.092  32.413  1.00  0.00     0.049 A 
ATOM     34  H   UNL A   1      41.353  29.231  31.921  1.00  0.00     0.167 HD
ATOM     35  C   UNL A   1      42.573  29.398  34.457  1.00  0.00     0.074 A 
ATOM     36  C   UNL A   1      42.789  29.755  35.843  1.00  0.00     0.031 C 
ATOM     37  C   UNL A   1      43.312  28.488  33.775  1.00  0.00     0.034 A 
BRANCH  24  38
ATOM     38  C   UNL A   1      41.222  27.376  28.077  1.00  0.00     0.023 A 
ATOM     39  C   UNL A   1      41.717  27.986  26.906  1.00  0.00     0.012 A 
ATOM     40  C   UNL A   1      40.911  26.003  28.062  1.00  0.00     0.148 A 
ATOM     41  C   UNL A   1      41.869  27.250  25.732  1.00  0.00     0.002 A 
ATOM     42  C   UNL A   1      41.100  25.267  26.896  1.00  0.00     0.091 A 
ATOM     43  F   UNL A   1      40.417  25.442  29.175  1.00  0.00    -0.205 F 
ATOM     44  C   UNL A   1      41.570  25.890  25.730  1.00  0.00     0.022 A 
BRANCH  42  45
ATOM     45  S   UNL A   1      40.808  23.496  26.834  1.00  0.00     0.127 S 
ATOM     46  O   UNL A   1      41.310  23.068  28.139  1.00  0.00    -0.237 OA
ATOM     47  O   UNL A   1      39.353  23.419  26.688  1.00  0.00    -0.237 OA
ATOM     48  O   UNL A   1      41.552  23.018  25.677  1.00  0.00    -0.744 OA
ENDBRANCH  42  45
ENDBRANCH  24  38
BRANCH  25  49
ATOM     49  C   UNL A   1      39.703  32.604  36.387  1.00  0.00     0.023 A 
ATOM     50  C   UNL A   1      40.378  33.803  36.681  1.00  0.00     0.012 A 
ATOM     51  C   UNL A   1      38.705  32.140  37.268  1.00  0.00     0.148 A 
ATOM     52  C   UNL A   1      40.073  34.524  37.836  1.00  0.00     0.002 A 
ATOM     53  C   UNL A   1      38.368  32.891  38.386  1.00  0.00     0.091 A 
ATOM     54  F   UNL A   1      38.089  30.986  36.977  1.00  0.00    -0.205 F 
ATOM     55  C   UNL A   1      39.059  34.077  38.680  1.00  0.00     0.022 A 
BRANCH  53  56
ATOM     56  S   UNL A   1      36.984  32.469  39.451  1.00  0.00     0.127 S 
ATOM     57  O   UNL A   1      35.850  32.616  38.542  1.00  0.00    -0.237 OA
ATOM     58  O   UNL A   1      37.301  31.089  39.824  1.00  0.00    -0.237 OA
ATOM     59  O   UNL A   1      37.033  33.416  40.557  1.00  0.00    -0.744 OA
ENDBRANCH  53  56
ENDBRANCH  25  49
BRANCH  37  60
ATOM     60  C   UNL A   1      44.454  27.814  34.493  1.00  0.00     0.023 A 
ATOM     61  C   UNL A   1      45.702  28.461  34.574  1.00  0.00     0.012 A 
ATOM     62  C   UNL A   1      44.258  26.598  35.180  1.00  0.00     0.148 A 
ATOM     63  C   UNL A   1      46.742  27.901  35.317  1.00  0.00     0.002 A 
ATOM     64  C   UNL A   1      45.287  26.067  35.949  1.00  0.00     0.091 A 
ATOM     65  F   UNL A   1      43.067  25.991  35.076  1.00  0.00    -0.205 F 
ATOM     66  C   UNL A   1      46.531  26.713  36.013  1.00  0.00     0.022 A 
BRANCH  64  67
ATOM     67  S   UNL A   1      45.080  24.588  36.950  1.00  0.00     0.127 S 
ATOM     68  O   UNL A   1      44.234  25.081  38.037  1.00  0.00    -0.237 OA
ATOM     69  O   UNL A   1      44.410  23.674  36.023  1.00  0.00    -0.237 OA
ATOM     70  O   UNL A   1      46.420  24.175  37.341  1.00  0.00    -0.744 OA
ENDBRANCH  64  67
ENDBRANCH  37  60
ENDBRANCH  11  12
ENDBRANCH   4   6
ENDBRANCH   1   2
BRANCH   1  71
ATOM     71  C   UNL A   1      31.507  31.817  26.835  1.00  0.00     0.042 C 
BRANCH  71  72
ATOM     72  C   UNL A   1      31.825  30.338  26.665  1.00  0.00     0.118 C 
BRANCH  72  73
ATOM     73  N   UNL A   1      32.404  30.085  25.365  1.00  0.00    -0.351 N 
ATOM     74  C   UNL A   1      32.453  28.846  24.776  1.00  0.00     0.262 C 
ATOM     75  H   UNL A   1      32.786  30.847  24.873  1.00  0.00     0.163 HD
ATOM     76  O   UNL A   1      33.524  28.304  24.543  1.00  0.00    -0.268 OA
BRANCH  74  77
ATOM     77  C   UNL A   1      31.169  28.289  24.430  1.00  0.00     0.112 A 
ATOM     78  S   UNL A   1      30.237  29.216  23.317  1.00  0.00    -0.137 S 
ATOM     79  C   UNL A   1      30.545  27.106  24.783  1.00  0.00     0.106 A 
ATOM     80  C   UNL A   1      29.121  27.952  23.099  1.00  0.00     0.067 A 
ATOM     81  C   UNL A   1      29.379  26.898  23.949  1.00  0.00     0.034 A 
BRANCH  79  82
ATOM     82  S   UNL A   1      31.128  25.863  25.898  1.00  0.00     0.245 S 
ATOM     83  O   UNL A   1      31.748  26.673  26.927  1.00  0.00    -0.207 OA
ATOM     84  O   UNL A   1      29.937  25.095  26.188  1.00  0.00    -0.207 OA
BRANCH  82  85
ATOM     85  N   UNL A   1      32.320  24.782  25.264  1.00  0.00    -0.190 NA
ATOM     86  C   UNL A   1      32.385  24.730  23.758  1.00  0.00     0.131 C 
ATOM     87  C   UNL A   1      33.673  24.626  25.993  1.00  0.00     0.102 C 
ATOM     88  C   UNL A   1      33.753  25.067  23.181  1.00  0.00     0.177 C 
ATOM     89  C   UNL A   1      34.962  24.661  25.112  1.00  0.00     0.136 C 
ATOM     90  C   UNL A   1      33.684  23.381  26.894  1.00  0.00     0.023 C 
ATOM     91  O   UNL A   1      34.736  24.232  23.769  1.00  0.00    -0.375 OA
ATOM     92  C   UNL A   1      36.098  23.787  25.664  1.00  0.00     0.034 C 
ATOM     93  C   UNL A   1      34.267  22.128  26.271  1.00  0.00     0.002 C 
ATOM     94  C   UNL A   1      35.699  22.319  25.798  1.00  0.00     0.003 C 
ENDBRANCH  82  85
ENDBRANCH  79  82
ENDBRANCH  74  77
ENDBRANCH  72  73
ENDBRANCH  71  72
ENDBRANCH   1  71
TORSDOF 15
ENDMDL
