MODEL 1
REMARK VINA RESULT:     -11.3      0.000      0.000
REMARK SMILES CN(CC(C)(C)O)C(=O)N1CCCC[C@H]1CC(=O)NCCCNC(=O)c1ccc(-c2c3nc(c(-c4cccc(S(=O)(=O)[O-])c4F)c4ccc([nH]4)c(-c4cccc(S(=O)(=O)[O-])c4F)c4nc(c(-c5cccc(S(=O)(=O)[O-])c5F)c5ccc2[nH]5)C=C4)C=C3)cc1
REMARK SMILES IDX 17 1 18 2 19 3 16 5 15 6 10 7 11 8 12 9 14 10 13 11 8 12
REMARK SMILES IDX 9 13 2 14 1 15 3 16 4 17 5 18 6 19 7 20 20 22 21 23 22 24
REMARK SMILES IDX 23 25 24 26 25 28 26 29 27 30 88 31 28 32 87 33 29 34 30 35
REMARK SMILES IDX 31 36 81 37 32 38 86 39 80 40 82 41 33 42 85 43 79 44 78 45
REMARK SMILES IDX 34 47 66 48 46 49 65 50 47 51 50 52 64 53 83 54 48 55 49 56
REMARK SMILES IDX 63 58 84 59 51 60 35 61 36 62 44 63 37 64 39 65 45 66 38 67
REMARK SMILES IDX 40 68 41 69 42 70 43 71 67 72 68 73 76 74 69 75 71 76 77 77
REMARK SMILES IDX 70 78 72 79 73 80 74 81 75 82 52 83 53 84 61 85 54 86 56 87
REMARK SMILES IDX 62 88 55 89 57 90 58 91 59 92 60 93
REMARK H PARENT 19 4 7 21 23 27 82 46 50 57
REMARK Flexibility Score: inf
ROOT
ATOM      1  C   UNL A   1      33.124  26.099  24.167  1.00  0.00     0.222 C 
ATOM      2  O   UNL A   1      33.063  25.973  22.941  1.00  0.00    -0.275 OA
ATOM      3  N   UNL A   1      32.187  26.878  24.780  1.00  0.00    -0.356 N 
ATOM      4  H   UNL A   1      31.518  27.275  24.177  1.00  0.00     0.163 HD
ENDROOT
BRANCH   1   5
ATOM      5  C   UNL A   1      34.223  25.417  24.951  1.00  0.00     0.125 C 
BRANCH   5   6
ATOM      6  C   UNL A   1      33.973  23.906  25.156  1.00  0.00     0.096 C 
ATOM      7  N   UNL A   1      34.052  23.105  23.923  1.00  0.00    -0.321 N 
ATOM      8  C   UNL A   1      35.394  23.074  23.314  1.00  0.00     0.121 C 
ATOM      9  C   UNL A   1      36.436  22.521  24.280  1.00  0.00     0.022 C 
ATOM     10  C   UNL A   1      34.974  23.309  26.172  1.00  0.00     0.026 C 
ATOM     11  C   UNL A   1      36.400  23.259  25.617  1.00  0.00     0.004 C 
BRANCH   7  12
ATOM     12  C   UNL A   1      33.204  22.072  23.543  1.00  0.00     0.320 C 
ATOM     13  O   UNL A   1      32.582  22.182  22.479  1.00  0.00    -0.248 OA
BRANCH  12  14
ATOM     14  N   UNL A   1      32.942  20.986  24.369  1.00  0.00    -0.325 N 
ATOM     15  C   UNL A   1      31.899  21.263  25.365  1.00  0.00     0.148 C 
BRANCH  14  16
ATOM     16  C   UNL A   1      33.759  19.796  24.664  1.00  0.00     0.155 C 
BRANCH  16  17
ATOM     17  C   UNL A   1      33.167  18.426  24.204  1.00  0.00     0.077 C 
ATOM     18  C   UNL A   1      32.524  18.444  22.816  1.00  0.00     0.043 C 
ATOM     19  C   UNL A   1      34.277  17.367  24.231  1.00  0.00     0.043 C 
BRANCH  17  20
ATOM     20  O   UNL A   1      32.166  17.972  25.123  1.00  0.00    -0.389 OA
ATOM     21  H   UNL A   1      31.829  18.726  25.631  1.00  0.00     0.211 HD
ENDBRANCH  17  20
ENDBRANCH  16  17
ENDBRANCH  14  16
ENDBRANCH  12  14
ENDBRANCH   7  12
ENDBRANCH   5   6
ENDBRANCH   1   5
BRANCH   3  22
ATOM     22  C   UNL A   1      32.020  27.213  26.186  1.00  0.00     0.117 C 
BRANCH  22  23
ATOM     23  C   UNL A   1      31.718  28.691  26.410  1.00  0.00     0.042 C 
BRANCH  23  24
ATOM     24  C   UNL A   1      32.622  29.658  25.657  1.00  0.00     0.118 C 
BRANCH  24  25
ATOM     25  N   UNL A   1      32.433  31.027  26.104  1.00  0.00    -0.352 N 
ATOM     26  C   UNL A   1      33.083  31.751  27.074  1.00  0.00     0.251 C 
ATOM     27  H   UNL A   1      31.721  31.518  25.634  1.00  0.00     0.163 HD
ATOM     28  O   UNL A   1      32.561  32.800  27.454  1.00  0.00    -0.269 OA
BRANCH  26  29
ATOM     29  C   UNL A   1      34.382  31.326  27.661  1.00  0.00     0.039 A 
ATOM     30  C   UNL A   1      34.542  29.976  28.002  1.00  0.00     0.014 A 
ATOM     31  C   UNL A   1      35.392  32.232  27.998  1.00  0.00     0.014 A 
ATOM     32  C   UNL A   1      35.697  29.540  28.664  1.00  0.00     0.010 A 
ATOM     33  C   UNL A   1      36.576  31.784  28.594  1.00  0.00     0.010 A 
ATOM     34  C   UNL A   1      36.729  30.440  28.966  1.00  0.00    -0.014 A 
BRANCH  34  35
ATOM     35  C   UNL A   1      37.939  29.997  29.716  1.00  0.00     0.031 A 
ATOM     36  C   UNL A   1      38.196  30.498  31.117  1.00  0.00     0.074 A 
ATOM     37  C   UNL A   1      38.836  29.179  29.131  1.00  0.00     0.049 A 
ATOM     38  N   UNL A   1      39.197  30.234  31.919  1.00  0.00    -0.248 NA
ATOM     39  C   UNL A   1      37.210  31.433  31.684  1.00  0.00     0.031 C 
ATOM     40  C   UNL A   1      38.751  28.672  27.761  1.00  0.00     0.029 A 
ATOM     41  N   UNL A   1      40.007  28.643  29.612  1.00  0.00    -0.354 N 
ATOM     42  C   UNL A   1      38.984  30.997  33.062  1.00  0.00     0.074 A 
ATOM     43  C   UNL A   1      37.773  31.757  32.840  1.00  0.00     0.031 C 
ATOM     44  C   UNL A   1      39.818  27.896  27.513  1.00  0.00     0.029 A 
ATOM     45  C   UNL A   1      40.673  27.862  28.696  1.00  0.00     0.049 A 
ATOM     46  H   UNL A   1      40.337  28.803  30.525  1.00  0.00     0.167 HD
ATOM     47  C   UNL A   1      39.707  31.039  34.208  1.00  0.00     0.034 A 
ATOM     48  C   UNL A   1      41.838  27.190  28.797  1.00  0.00     0.034 A 
ATOM     49  C   UNL A   1      40.874  30.237  34.460  1.00  0.00     0.049 A 
ATOM     50  C   UNL A   1      42.591  27.206  30.102  1.00  0.00     0.074 A 
ATOM     51  C   UNL A   1      41.618  30.145  35.623  1.00  0.00     0.029 A 
ATOM     52  N   UNL A   1      41.465  29.387  33.539  1.00  0.00    -0.354 N 
ATOM     53  N   UNL A   1      42.284  27.809  31.224  1.00  0.00    -0.248 NA
ATOM     54  C   UNL A   1      43.831  26.417  30.165  1.00  0.00     0.031 C 
ATOM     55  C   UNL A   1      42.666  29.243  35.403  1.00  0.00     0.029 A 
ATOM     56  C   UNL A   1      42.566  28.768  34.105  1.00  0.00     0.049 A 
ATOM     57  H   UNL A   1      41.149  29.246  32.617  1.00  0.00     0.167 HD
ATOM     58  C   UNL A   1      43.271  27.445  32.135  1.00  0.00     0.074 A 
ATOM     59  C   UNL A   1      44.174  26.553  31.439  1.00  0.00     0.031 C 
ATOM     60  C   UNL A   1      43.423  27.830  33.426  1.00  0.00     0.034 A 
BRANCH  47  61
ATOM     61  C   UNL A   1      39.213  31.936  35.314  1.00  0.00     0.023 A 
ATOM     62  C   UNL A   1      38.249  31.447  36.219  1.00  0.00     0.012 A 
ATOM     63  C   UNL A   1      39.742  33.228  35.500  1.00  0.00     0.148 A 
ATOM     64  C   UNL A   1      37.793  32.241  37.271  1.00  0.00     0.002 A 
ATOM     65  C   UNL A   1      39.312  34.000  36.575  1.00  0.00     0.091 A 
ATOM     66  F   UNL A   1      40.643  33.686  34.619  1.00  0.00    -0.205 F 
ATOM     67  C   UNL A   1      38.331  33.511  37.455  1.00  0.00     0.022 A 
BRANCH  65  68
ATOM     68  S   UNL A   1      40.000  35.618  36.939  1.00  0.00     0.127 S 
ATOM     69  O   UNL A   1      39.326  35.951  38.192  1.00  0.00    -0.237 OA
ATOM     70  O   UNL A   1      41.427  35.330  37.071  1.00  0.00    -0.237 OA
ATOM     71  O   UNL A   1      39.658  36.460  35.798  1.00  0.00    -0.744 OA
ENDBRANCH  65  68
ENDBRANCH  47  61
BRANCH  48  72
ATOM     72  C   UNL A   1      42.321  26.369  27.651  1.00  0.00     0.023 A 
ATOM     73  C   UNL A   1      43.228  26.936  26.735  1.00  0.00     0.012 A 
ATOM     74  C   UNL A   1      41.918  25.032  27.481  1.00  0.00     0.148 A 
ATOM     75  C   UNL A   1      43.707  26.193  25.656  1.00  0.00     0.002 A 
ATOM     76  C   UNL A   1      42.437  24.281  26.432  1.00  0.00     0.091 A 
ATOM     77  F   UNL A   1      41.040  24.517  28.353  1.00  0.00    -0.205 F 
ATOM     78  C   UNL A   1      43.320  24.864  25.510  1.00  0.00     0.022 A 
BRANCH  76  79
ATOM     79  S   UNL A   1      42.088  22.530  26.236  1.00  0.00     0.127 S 
ATOM     80  O   UNL A   1      40.634  22.524  26.120  1.00  0.00    -0.237 OA
ATOM     81  O   UNL A   1      42.806  22.211  25.002  1.00  0.00    -0.237 OA
ATOM     82  O   UNL A   1      42.634  21.890  27.428  1.00  0.00    -0.744 OA
ENDBRANCH  76  79
ENDBRANCH  48  72
BRANCH  60  83
ATOM     83  C   UNL A   1      44.594  27.274  34.193  1.00  0.00     0.023 A 
ATOM     84  C   UNL A   1      45.819  27.968  34.191  1.00  0.00     0.012 A 
ATOM     85  C   UNL A   1      44.458  26.114  34.980  1.00  0.00     0.148 A 
ATOM     86  C   UNL A   1      46.900  27.501  34.939  1.00  0.00     0.002 A 
ATOM     87  C   UNL A   1      45.525  25.678  35.756  1.00  0.00     0.091 A 
ATOM     88  F   UNL A   1      43.289  25.454  34.952  1.00  0.00    -0.205 F 
ATOM     89  C   UNL A   1      46.750  26.365  35.731  1.00  0.00     0.022 A 
BRANCH  87  90
ATOM     90  S   UNL A   1      45.390  24.276  36.873  1.00  0.00     0.127 S 
ATOM     91  O   UNL A   1      46.720  24.246  37.477  1.00  0.00    -0.237 OA
ATOM     92  O   UNL A   1      44.319  24.695  37.777  1.00  0.00    -0.237 OA
ATOM     93  O   UNL A   1      45.054  23.132  36.034  1.00  0.00    -0.744 OA
ENDBRANCH  87  90
ENDBRANCH  60  83
ENDBRANCH  34  35
ENDBRANCH  26  29
ENDBRANCH  24  25
ENDBRANCH  23  24
ENDBRANCH  22  23
ENDBRANCH   3  22
TORSDOF 19
ENDMDL
MODEL 2
REMARK VINA RESULT:     -11.1      2.834      3.897
REMARK SMILES CN(CC(C)(C)O)C(=O)N1CCCC[C@H]1CC(=O)NCCCNC(=O)c1ccc(-c2c3nc(c(-c4cccc(S(=O)(=O)[O-])c4F)c4ccc([nH]4)c(-c4cccc(S(=O)(=O)[O-])c4F)c4nc(c(-c5cccc(S(=O)(=O)[O-])c5F)c5ccc2[nH]5)C=C4)C=C3)cc1
REMARK SMILES IDX 17 1 18 2 19 3 16 5 15 6 10 7 11 8 12 9 14 10 13 11 8 12
REMARK SMILES IDX 9 13 2 14 1 15 3 16 4 17 5 18 6 19 7 20 20 22 21 23 22 24
REMARK SMILES IDX 23 25 24 26 25 28 26 29 27 30 88 31 28 32 87 33 29 34 30 35
REMARK SMILES IDX 31 36 81 37 32 38 86 39 80 40 82 41 33 42 85 43 79 44 78 45
REMARK SMILES IDX 34 47 66 48 46 49 65 50 47 51 50 52 64 53 83 54 48 55 49 56
REMARK SMILES IDX 63 58 84 59 51 60 35 61 36 62 44 63 37 64 39 65 45 66 38 67
REMARK SMILES IDX 40 68 41 69 42 70 43 71 67 72 68 73 76 74 69 75 71 76 77 77
REMARK SMILES IDX 70 78 72 79 73 80 74 81 75 82 52 83 53 84 61 85 54 86 56 87
REMARK SMILES IDX 62 88 55 89 57 90 58 91 59 92 60 93
REMARK H PARENT 19 4 7 21 23 27 82 46 50 57
REMARK Flexibility Score: inf
ROOT
ATOM      1  C   UNL A   1      33.642  25.914  23.462  1.00  0.00     0.222 C 
ATOM      2  O   UNL A   1      34.041  25.210  22.531  1.00  0.00    -0.275 OA
ATOM      3  N   UNL A   1      33.517  27.255  23.246  1.00  0.00    -0.356 N 
ATOM      4  H   UNL A   1      33.751  27.553  22.338  1.00  0.00     0.163 HD
ENDROOT
BRANCH   1   5
ATOM      5  C   UNL A   1      33.323  25.295  24.806  1.00  0.00     0.125 C 
BRANCH   5   6
ATOM      6  C   UNL A   1      33.285  23.752  24.768  1.00  0.00     0.096 C 
ATOM      7  N   UNL A   1      33.285  23.111  26.093  1.00  0.00    -0.321 N 
ATOM      8  C   UNL A   1      32.078  23.389  26.893  1.00  0.00     0.121 C 
ATOM      9  C   UNL A   1      30.812  22.938  26.173  1.00  0.00     0.022 C 
ATOM     10  C   UNL A   1      32.042  23.245  23.999  1.00  0.00     0.026 C 
ATOM     11  C   UNL A   1      30.742  23.515  24.760  1.00  0.00     0.004 C 
BRANCH   7  12
ATOM     12  C   UNL A   1      34.004  21.985  26.476  1.00  0.00     0.320 C 
ATOM     13  O   UNL A   1      33.877  21.572  27.635  1.00  0.00    -0.248 OA
BRANCH  12  14
ATOM     14  N   UNL A   1      34.944  21.387  25.646  1.00  0.00    -0.325 N 
ATOM     15  C   UNL A   1      34.378  20.316  24.817  1.00  0.00     0.148 C 
BRANCH  14  16
ATOM     16  C   UNL A   1      36.415  21.374  25.730  1.00  0.00     0.155 C 
BRANCH  16  17
ATOM     17  C   UNL A   1      37.150  22.593  25.087  1.00  0.00     0.077 C 
ATOM     18  C   UNL A   1      36.748  22.889  23.641  1.00  0.00     0.043 C 
ATOM     19  C   UNL A   1      36.898  23.839  25.945  1.00  0.00     0.043 C 
BRANCH  17  20
ATOM     20  O   UNL A   1      38.569  22.389  25.093  1.00  0.00    -0.389 OA
ATOM     21  H   UNL A   1      38.824  21.872  24.313  1.00  0.00     0.211 HD
ENDBRANCH  17  20
ENDBRANCH  16  17
ENDBRANCH  14  16
ENDBRANCH  12  14
ENDBRANCH   7  12
ENDBRANCH   5   6
ENDBRANCH   1   5
BRANCH   3  22
ATOM     22  C   UNL A   1      33.090  28.314  24.147  1.00  0.00     0.117 C 
BRANCH  22  23
ATOM     23  C   UNL A   1      34.008  28.468  25.357  1.00  0.00     0.042 C 
BRANCH  23  24
ATOM     24  C   UNL A   1      33.301  28.781  26.670  1.00  0.00     0.118 C 
BRANCH  24  25
ATOM     25  N   UNL A   1      33.434  30.181  27.029  1.00  0.00    -0.352 N 
ATOM     26  C   UNL A   1      34.384  30.827  27.784  1.00  0.00     0.251 C 
ATOM     27  H   UNL A   1      32.726  30.765  26.674  1.00  0.00     0.163 HD
ATOM     28  O   UNL A   1      34.130  31.967  28.173  1.00  0.00    -0.269 OA
BRANCH  26  29
ATOM     29  C   UNL A   1      35.693  30.211  28.130  1.00  0.00     0.039 A 
ATOM     30  C   UNL A   1      35.847  29.666  29.413  1.00  0.00     0.014 A 
ATOM     31  C   UNL A   1      36.801  30.265  27.281  1.00  0.00     0.014 A 
ATOM     32  C   UNL A   1      37.091  29.179  29.835  1.00  0.00     0.010 A 
ATOM     33  C   UNL A   1      38.025  29.711  27.677  1.00  0.00     0.010 A 
ATOM     34  C   UNL A   1      38.194  29.194  28.970  1.00  0.00    -0.014 A 
BRANCH  34  35
ATOM     35  C   UNL A   1      39.534  28.726  29.426  1.00  0.00     0.031 A 
ATOM     36  C   UNL A   1      40.258  29.446  30.537  1.00  0.00     0.074 A 
ATOM     37  C   UNL A   1      40.128  27.679  28.820  1.00  0.00     0.049 A 
ATOM     38  N   UNL A   1      41.432  29.195  31.059  1.00  0.00    -0.248 NA
ATOM     39  C   UNL A   1      39.585  30.616  31.125  1.00  0.00     0.031 C 
ATOM     40  C   UNL A   1      39.575  26.931  27.690  1.00  0.00     0.029 A 
ATOM     41  N   UNL A   1      41.338  27.073  29.059  1.00  0.00    -0.354 N 
ATOM     42  C   UNL A   1      41.655  30.191  32.003  1.00  0.00     0.074 A 
ATOM     43  C   UNL A   1      40.507  31.071  31.963  1.00  0.00     0.031 C 
ATOM     44  C   UNL A   1      40.439  25.965  27.338  1.00  0.00     0.029 A 
ATOM     45  C   UNL A   1      41.614  26.033  28.201  1.00  0.00     0.049 A 
ATOM     46  H   UNL A   1      41.950  27.358  29.776  1.00  0.00     0.167 HD
ATOM     47  C   UNL A   1      42.700  30.346  32.852  1.00  0.00     0.034 A 
ATOM     48  C   UNL A   1      42.689  25.223  28.121  1.00  0.00     0.034 A 
ATOM     49  C   UNL A   1      43.812  29.439  32.942  1.00  0.00     0.049 A 
ATOM     50  C   UNL A   1      43.809  25.378  29.115  1.00  0.00     0.074 A 
ATOM     51  C   UNL A   1      44.871  29.463  33.833  1.00  0.00     0.029 A 
ATOM     52  N   UNL A   1      44.009  28.342  32.118  1.00  0.00    -0.354 N 
ATOM     53  N   UNL A   1      43.923  26.231  30.104  1.00  0.00    -0.248 NA
ATOM     54  C   UNL A   1      44.933  24.435  29.006  1.00  0.00     0.031 C 
ATOM     55  C   UNL A   1      45.714  28.384  33.542  1.00  0.00     0.029 A 
ATOM     56  C   UNL A   1      45.173  27.684  32.476  1.00  0.00     0.049 A 
ATOM     57  H   UNL A   1      43.410  28.073  31.385  1.00  0.00     0.167 HD
ATOM     58  C   UNL A   1      45.109  25.905  30.755  1.00  0.00     0.074 A 
ATOM     59  C   UNL A   1      45.667  24.765  30.060  1.00  0.00     0.031 C 
ATOM     60  C   UNL A   1      45.689  26.510  31.820  1.00  0.00     0.034 A 
BRANCH  47  61
ATOM     61  C   UNL A   1      42.657  31.509  33.810  1.00  0.00     0.023 A 
ATOM     62  C   UNL A   1      43.181  32.754  33.405  1.00  0.00     0.012 A 
ATOM     63  C   UNL A   1      42.049  31.394  35.075  1.00  0.00     0.148 A 
ATOM     64  C   UNL A   1      43.131  33.858  34.257  1.00  0.00     0.002 A 
ATOM     65  C   UNL A   1      41.967  32.509  35.903  1.00  0.00     0.091 A 
ATOM     66  F   UNL A   1      41.575  30.198  35.452  1.00  0.00    -0.205 F 
ATOM     67  C   UNL A   1      42.515  33.738  35.498  1.00  0.00     0.022 A 
BRANCH  65  68
ATOM     68  S   UNL A   1      41.127  32.474  37.490  1.00  0.00     0.127 S 
ATOM     69  O   UNL A   1      41.996  31.590  38.265  1.00  0.00    -0.237 OA
ATOM     70  O   UNL A   1      41.166  33.878  37.897  1.00  0.00    -0.237 OA
ATOM     71  O   UNL A   1      39.789  31.961  37.219  1.00  0.00    -0.744 OA
ENDBRANCH  65  68
ENDBRANCH  47  61
BRANCH  48  72
ATOM     72  C   UNL A   1      42.715  24.127  27.112  1.00  0.00     0.023 A 
ATOM     73  C   UNL A   1      43.446  24.308  25.922  1.00  0.00     0.012 A 
ATOM     74  C   UNL A   1      42.055  22.904  27.333  1.00  0.00     0.148 A 
ATOM     75  C   UNL A   1      43.500  23.299  24.959  1.00  0.00     0.002 A 
ATOM     76  C   UNL A   1      42.153  21.884  26.392  1.00  0.00     0.091 A 
ATOM     77  F   UNL A   1      41.349  22.758  28.464  1.00  0.00    -0.205 F 
ATOM     78  C   UNL A   1      42.863  22.085  25.199  1.00  0.00     0.022 A 
BRANCH  76  79
ATOM     79  S   UNL A   1      41.465  20.249  26.670  1.00  0.00     0.127 S 
ATOM     80  O   UNL A   1      42.139  19.844  27.899  1.00  0.00    -0.237 OA
ATOM     81  O   UNL A   1      40.038  20.538  26.815  1.00  0.00    -0.237 OA
ATOM     82  O   UNL A   1      41.801  19.478  25.477  1.00  0.00    -0.744 OA
ENDBRANCH  76  79
ENDBRANCH  48  72
BRANCH  60  83
ATOM     83  C   UNL A   1      46.987  25.940  32.331  1.00  0.00     0.023 A 
ATOM     84  C   UNL A   1      46.978  25.077  33.444  1.00  0.00     0.012 A 
ATOM     85  C   UNL A   1      48.200  26.191  31.660  1.00  0.00     0.148 A 
ATOM     86  C   UNL A   1      48.160  24.494  33.899  1.00  0.00     0.002 A 
ATOM     87  C   UNL A   1      49.368  25.572  32.093  1.00  0.00     0.091 A 
ATOM     88  F   UNL A   1      48.193  27.031  30.615  1.00  0.00    -0.205 F 
ATOM     89  C   UNL A   1      49.351  24.731  33.217  1.00  0.00     0.022 A 
BRANCH  87  90
ATOM     90  S   UNL A   1      50.928  25.751  31.221  1.00  0.00     0.127 S 
ATOM     91  O   UNL A   1      50.581  25.270  29.885  1.00  0.00    -0.237 OA
ATOM     92  O   UNL A   1      51.175  27.191  31.306  1.00  0.00    -0.237 OA
ATOM     93  O   UNL A   1      51.888  24.934  31.953  1.00  0.00    -0.744 OA
ENDBRANCH  87  90
ENDBRANCH  60  83
ENDBRANCH  34  35
ENDBRANCH  26  29
ENDBRANCH  24  25
ENDBRANCH  23  24
ENDBRANCH  22  23
ENDBRANCH   3  22
TORSDOF 19
ENDMDL
MODEL 3
REMARK VINA RESULT:     -10.9      3.306      8.772
REMARK SMILES CN(CC(C)(C)O)C(=O)N1CCCC[C@H]1CC(=O)NCCCNC(=O)c1ccc(-c2c3nc(c(-c4cccc(S(=O)(=O)[O-])c4F)c4ccc([nH]4)c(-c4cccc(S(=O)(=O)[O-])c4F)c4nc(c(-c5cccc(S(=O)(=O)[O-])c5F)c5ccc2[nH]5)C=C4)C=C3)cc1
REMARK SMILES IDX 17 1 18 2 19 3 16 5 15 6 10 7 11 8 12 9 14 10 13 11 8 12
REMARK SMILES IDX 9 13 2 14 1 15 3 16 4 17 5 18 6 19 7 20 20 22 21 23 22 24
REMARK SMILES IDX 23 25 24 26 25 28 26 29 27 30 88 31 28 32 87 33 29 34 30 35
REMARK SMILES IDX 31 36 81 37 32 38 86 39 80 40 82 41 33 42 85 43 79 44 78 45
REMARK SMILES IDX 34 47 66 48 46 49 65 50 47 51 50 52 64 53 83 54 48 55 49 56
REMARK SMILES IDX 63 58 84 59 51 60 35 61 36 62 44 63 37 64 39 65 45 66 38 67
REMARK SMILES IDX 40 68 41 69 42 70 43 71 67 72 68 73 76 74 69 75 71 76 77 77
REMARK SMILES IDX 70 78 72 79 73 80 74 81 75 82 52 83 53 84 61 85 54 86 56 87
REMARK SMILES IDX 62 88 55 89 57 90 58 91 59 92 60 93
REMARK H PARENT 19 4 7 21 23 27 82 46 50 57
REMARK Flexibility Score: inf
ROOT
ATOM      1  C   UNL A   1      33.563  29.218  26.351  1.00  0.00     0.222 C 
ATOM      2  O   UNL A   1      34.423  28.734  27.092  1.00  0.00    -0.275 OA
ATOM      3  N   UNL A   1      32.701  30.133  26.879  1.00  0.00    -0.356 N 
ATOM      4  H   UNL A   1      32.849  30.343  27.829  1.00  0.00     0.163 HD
ENDROOT
BRANCH   1   5
ATOM      5  C   UNL A   1      33.469  28.783  24.905  1.00  0.00     0.125 C 
BRANCH   5   6
ATOM      6  C   UNL A   1      32.386  27.707  24.665  1.00  0.00     0.096 C 
ATOM      7  N   UNL A   1      32.148  27.390  23.248  1.00  0.00    -0.321 N 
ATOM      8  C   UNL A   1      33.300  26.764  22.573  1.00  0.00     0.121 C 
ATOM      9  C   UNL A   1      33.720  25.470  23.262  1.00  0.00     0.022 C 
ATOM     10  C   UNL A   1      32.741  26.389  25.392  1.00  0.00     0.026 C 
ATOM     11  C   UNL A   1      33.944  25.686  24.758  1.00  0.00     0.004 C 
BRANCH   7  12
ATOM     12  C   UNL A   1      30.919  27.188  22.632  1.00  0.00     0.320 C 
ATOM     13  O   UNL A   1      30.906  26.826  21.448  1.00  0.00    -0.248 OA
BRANCH  12  14
ATOM     14  N   UNL A   1      29.717  27.494  23.257  1.00  0.00    -0.325 N 
ATOM     15  C   UNL A   1      29.319  26.494  24.256  1.00  0.00     0.148 C 
BRANCH  14  16
ATOM     16  C   UNL A   1      28.630  28.396  22.837  1.00  0.00     0.155 C 
BRANCH  16  17
ATOM     17  C   UNL A   1      28.971  29.920  22.817  1.00  0.00     0.077 C 
ATOM     18  C   UNL A   1      29.238  30.493  21.424  1.00  0.00     0.043 C 
ATOM     19  C   UNL A   1      27.823  30.699  23.471  1.00  0.00     0.043 C 
BRANCH  17  20
ATOM     20  O   UNL A   1      30.134  30.189  23.609  1.00  0.00    -0.389 OA
ATOM     21  H   UNL A   1      30.776  30.691  23.083  1.00  0.00     0.211 HD
ENDBRANCH  17  20
ENDBRANCH  16  17
ENDBRANCH  14  16
ENDBRANCH  12  14
ENDBRANCH   7  12
ENDBRANCH   5   6
ENDBRANCH   1   5
BRANCH   3  22
ATOM     22  C   UNL A   1      31.597  30.848  26.258  1.00  0.00     0.117 C 
BRANCH  22  23
ATOM     23  C   UNL A   1      31.513  32.306  26.701  1.00  0.00     0.042 C 
BRANCH  23  24
ATOM     24  C   UNL A   1      32.788  32.871  27.313  1.00  0.00     0.118 C 
BRANCH  24  25
ATOM     25  N   UNL A   1      32.625  34.259  27.706  1.00  0.00    -0.352 N 
ATOM     26  C   UNL A   1      33.118  34.949  28.787  1.00  0.00     0.251 C 
ATOM     27  H   UNL A   1      32.067  34.795  27.097  1.00  0.00     0.163 HD
ATOM     28  O   UNL A   1      32.617  36.043  29.047  1.00  0.00    -0.269 OA
BRANCH  26  29
ATOM     29  C   UNL A   1      34.229  34.434  29.631  1.00  0.00     0.039 A 
ATOM     30  C   UNL A   1      35.540  34.573  29.154  1.00  0.00     0.014 A 
ATOM     31  C   UNL A   1      34.012  33.715  30.810  1.00  0.00     0.014 A 
ATOM     32  C   UNL A   1      36.615  34.004  29.849  1.00  0.00     0.010 A 
ATOM     33  C   UNL A   1      35.093  33.209  31.542  1.00  0.00     0.010 A 
ATOM     34  C   UNL A   1      36.403  33.317  31.053  1.00  0.00    -0.014 A 
BRANCH  34  35
ATOM     35  C   UNL A   1      37.534  32.665  31.773  1.00  0.00     0.031 A 
ATOM     36  C   UNL A   1      38.264  31.499  31.153  1.00  0.00     0.074 A 
ATOM     37  C   UNL A   1      37.885  33.085  33.005  1.00  0.00     0.049 A 
ATOM     38  N   UNL A   1      39.260  30.797  31.632  1.00  0.00    -0.248 NA
ATOM     39  C   UNL A   1      37.802  31.048  29.829  1.00  0.00     0.031 C 
ATOM     40  C   UNL A   1      37.224  34.155  33.753  1.00  0.00     0.029 A 
ATOM     41  N   UNL A   1      38.875  32.649  33.852  1.00  0.00    -0.354 N 
ATOM     42  C   UNL A   1      39.517  29.803  30.693  1.00  0.00     0.074 A 
ATOM     43  C   UNL A   1      38.552  29.973  29.628  1.00  0.00     0.031 C 
ATOM     44  C   UNL A   1      37.829  34.296  34.944  1.00  0.00     0.029 A 
ATOM     45  C   UNL A   1      38.908  33.318  35.054  1.00  0.00     0.049 A 
ATOM     46  H   UNL A   1      39.502  31.926  33.621  1.00  0.00     0.167 HD
ATOM     47  C   UNL A   1      40.485  28.855  30.695  1.00  0.00     0.034 A 
ATOM     48  C   UNL A   1      39.717  33.166  36.122  1.00  0.00     0.034 A 
ATOM     49  C   UNL A   1      41.487  28.722  31.718  1.00  0.00     0.049 A 
ATOM     50  C   UNL A   1      40.823  32.146  36.074  1.00  0.00     0.074 A 
ATOM     51  C   UNL A   1      42.562  27.852  31.760  1.00  0.00     0.029 A 
ATOM     52  N   UNL A   1      41.543  29.481  32.876  1.00  0.00    -0.354 N 
ATOM     53  N   UNL A   1      41.145  31.324  35.105  1.00  0.00    -0.248 NA
ATOM     54  C   UNL A   1      41.701  32.059  37.251  1.00  0.00     0.031 C 
ATOM     55  C   UNL A   1      43.265  28.079  32.950  1.00  0.00     0.029 A 
ATOM     56  C   UNL A   1      42.631  29.099  33.641  1.00  0.00     0.049 A 
ATOM     57  H   UNL A   1      40.901  30.188  33.119  1.00  0.00     0.167 HD
ATOM     58  C   UNL A   1      42.281  30.648  35.540  1.00  0.00     0.074 A 
ATOM     59  C   UNL A   1      42.602  31.172  36.851  1.00  0.00     0.031 C 
ATOM     60  C   UNL A   1      42.982  29.670  34.916  1.00  0.00     0.034 A 
BRANCH  47  61
ATOM     61  C   UNL A   1      40.555  27.924  29.512  1.00  0.00     0.023 A 
ATOM     62  C   UNL A   1      39.697  26.806  29.464  1.00  0.00     0.012 A 
ATOM     63  C   UNL A   1      41.414  28.183  28.426  1.00  0.00     0.148 A 
ATOM     64  C   UNL A   1      39.717  25.941  28.370  1.00  0.00     0.002 A 
ATOM     65  C   UNL A   1      41.400  27.337  27.321  1.00  0.00     0.091 A 
ATOM     66  F   UNL A   1      42.238  29.237  28.498  1.00  0.00    -0.205 F 
ATOM     67  C   UNL A   1      40.558  26.212  27.296  1.00  0.00     0.022 A 
BRANCH  65  68
ATOM     68  S   UNL A   1      42.394  27.645  25.857  1.00  0.00     0.127 S 
ATOM     69  O   UNL A   1      41.966  28.993  25.488  1.00  0.00    -0.237 OA
ATOM     70  O   UNL A   1      43.757  27.560  26.380  1.00  0.00    -0.237 OA
ATOM     71  O   UNL A   1      42.043  26.592  24.911  1.00  0.00    -0.744 OA
ENDBRANCH  65  68
ENDBRANCH  47  61
BRANCH  48  72
ATOM     72  C   UNL A   1      39.565  34.068  37.299  1.00  0.00     0.023 A 
ATOM     73  C   UNL A   1      40.006  35.402  37.202  1.00  0.00     0.012 A 
ATOM     74  C   UNL A   1      38.964  33.628  38.493  1.00  0.00     0.148 A 
ATOM     75  C   UNL A   1      39.872  36.276  38.281  1.00  0.00     0.002 A 
ATOM     76  C   UNL A   1      38.788  34.517  39.548  1.00  0.00     0.091 A 
ATOM     77  F   UNL A   1      38.569  32.349  38.571  1.00  0.00    -0.205 F 
ATOM     78  C   UNL A   1      39.254  35.837  39.449  1.00  0.00     0.022 A 
BRANCH  76  79
ATOM     79  S   UNL A   1      37.898  34.073  41.043  1.00  0.00     0.127 S 
ATOM     80  O   UNL A   1      36.701  33.439  40.503  1.00  0.00    -0.237 OA
ATOM     81  O   UNL A   1      38.837  33.162  41.698  1.00  0.00    -0.237 OA
ATOM     82  O   UNL A   1      37.687  35.328  41.756  1.00  0.00    -0.744 OA
ENDBRANCH  76  79
ENDBRANCH  48  72
BRANCH  60  83
ATOM     83  C   UNL A   1      44.190  29.110  35.622  1.00  0.00     0.023 A 
ATOM     84  C   UNL A   1      45.438  29.744  35.471  1.00  0.00     0.012 A 
ATOM     85  C   UNL A   1      44.072  28.013  36.497  1.00  0.00     0.148 A 
ATOM     86  C   UNL A   1      46.558  29.277  36.159  1.00  0.00     0.002 A 
ATOM     87  C   UNL A   1      45.183  27.579  37.213  1.00  0.00     0.091 A 
ATOM     88  F   UNL A   1      42.880  27.410  36.612  1.00  0.00    -0.205 F 
ATOM     89  C   UNL A   1      46.429  28.205  37.038  1.00  0.00     0.022 A 
BRANCH  87  90
ATOM     90  S   UNL A   1      45.085  26.264  38.432  1.00  0.00     0.127 S 
ATOM     91  O   UNL A   1      44.107  26.801  39.374  1.00  0.00    -0.237 OA
ATOM     92  O   UNL A   1      44.608  25.131  37.637  1.00  0.00    -0.237 OA
ATOM     93  O   UNL A   1      46.438  26.103  38.952  1.00  0.00    -0.744 OA
ENDBRANCH  87  90
ENDBRANCH  60  83
ENDBRANCH  34  35
ENDBRANCH  26  29
ENDBRANCH  24  25
ENDBRANCH  23  24
ENDBRANCH  22  23
ENDBRANCH   3  22
TORSDOF 19
ENDMDL
