MODEL 1
REMARK VINA RESULT:     -11.6      0.000      0.000
REMARK SMILES CCNC(=O)[C@@H](C)Oc1ccc(OC)cc1/C=C/C(=O)NCCCNC(=O)c1ccc(-c2c3nc(c(-c4cccc(S(=O)(=O)[O-])c4F)c4ccc([nH]4)c(-c4cccc(S(=O)(=O)[O-])c4F)c4nc(c(-c5cccc(S(=O)(=O)[O-])c5F)c5ccc2[nH]5)C=C4)C=C3)cc1
REMARK SMILES IDX 22 1 21 2 19 3 20 4 18 6 17 7 16 8 9 9 10 10 11 11 15 12
REMARK SMILES IDX 12 13 8 14 6 15 7 16 4 17 3 18 5 20 2 21 1 22 13 23 14 24
REMARK SMILES IDX 23 25 24 26 25 27 26 28 27 30 28 31 29 32 90 33 30 34 89 35
REMARK SMILES IDX 31 36 32 37 33 38 83 39 34 40 88 41 82 42 84 43 35 44 87 45
REMARK SMILES IDX 81 46 80 47 36 49 68 50 48 51 67 52 49 53 52 54 66 55 85 56
REMARK SMILES IDX 50 57 51 58 65 60 86 61 53 62 37 63 38 64 46 65 39 66 41 67
REMARK SMILES IDX 47 68 40 69 42 70 43 71 44 72 45 73 69 74 70 75 78 76 71 77
REMARK SMILES IDX 73 78 79 79 72 80 74 81 75 82 76 83 77 84 54 85 55 86 63 87
REMARK SMILES IDX 56 88 58 89 64 90 57 91 59 92 60 93 61 94 62 95
REMARK H PARENT 21 5 3 19 25 29 84 48 52 59
REMARK Flexibility Score: inf
ROOT
ATOM      1  C   UNL A   1      34.502  21.565  25.002  1.00  0.00     0.118 C 
ENDROOT
BRANCH   1   2
ATOM      2  N   UNL A   1      33.824  21.571  26.283  1.00  0.00    -0.352 N 
ATOM      3  C   UNL A   1      33.349  22.624  26.996  1.00  0.00     0.244 C 
ATOM      4  O   UNL A   1      32.630  22.425  27.975  1.00  0.00    -0.270 OA
ATOM      5  H   UNL A   1      33.688  20.687  26.693  1.00  0.00     0.163 HD
BRANCH   3   6
ATOM      6  C   UNL A   1      33.549  24.016  26.536  1.00  0.00     0.072 C 
ATOM      7  C   UNL A   1      32.624  24.909  26.141  1.00  0.00     0.018 C 
BRANCH   7   8
ATOM      8  C   UNL A   1      33.021  26.271  25.733  1.00  0.00     0.020 A 
ATOM      9  C   UNL A   1      33.590  26.553  24.477  1.00  0.00     0.127 A 
ATOM     10  C   UNL A   1      33.971  27.862  24.164  1.00  0.00     0.051 A 
ATOM     11  C   UNL A   1      33.674  28.913  25.035  1.00  0.00     0.050 A 
ATOM     12  C   UNL A   1      32.771  27.339  26.615  1.00  0.00     0.058 A 
ATOM     13  C   UNL A   1      33.033  28.657  26.243  1.00  0.00     0.119 A 
BRANCH   9  14
ATOM     14  O   UNL A   1      33.919  25.546  23.620  1.00  0.00    -0.480 OA
BRANCH  14  15
ATOM     15  C   UNL A   1      32.925  25.035  22.730  1.00  0.00     0.258 C 
ATOM     16  C   UNL A   1      32.959  23.540  22.420  1.00  0.00     0.064 C 
BRANCH  15  17
ATOM     17  C   UNL A   1      32.509  25.877  21.505  1.00  0.00     0.260 C 
ATOM     18  N   UNL A   1      31.551  26.840  21.534  1.00  0.00    -0.353 N 
ATOM     19  H   UNL A   1      31.361  27.247  20.659  1.00  0.00     0.163 HD
ATOM     20  O   UNL A   1      33.066  25.706  20.412  1.00  0.00    -0.271 OA
BRANCH  18  21
ATOM     21  C   UNL A   1      30.758  27.373  22.620  1.00  0.00     0.112 C 
ATOM     22  C   UNL A   1      30.042  26.257  23.354  1.00  0.00     0.027 C 
ENDBRANCH  18  21
ENDBRANCH  15  17
ENDBRANCH  14  15
ENDBRANCH   9  14
BRANCH  13  23
ATOM     23  O   UNL A   1      32.719  29.747  27.009  1.00  0.00    -0.497 OA
ATOM     24  C   UNL A   1      31.925  30.723  26.335  1.00  0.00     0.278 C 
ENDBRANCH  13  23
ENDBRANCH   7   8
ENDBRANCH   3   6
ENDBRANCH   1   2
BRANCH   1  25
ATOM     25  C   UNL A   1      35.699  20.633  24.982  1.00  0.00     0.042 C 
BRANCH  25  26
ATOM     26  C   UNL A   1      37.004  21.364  25.258  1.00  0.00     0.118 C 
BRANCH  26  27
ATOM     27  N   UNL A   1      38.112  20.458  25.557  1.00  0.00    -0.352 N 
ATOM     28  C   UNL A   1      39.359  20.697  26.088  1.00  0.00     0.251 C 
ATOM     29  H   UNL A   1      37.937  19.514  25.341  1.00  0.00     0.163 HD
ATOM     30  O   UNL A   1      40.177  19.780  26.151  1.00  0.00    -0.269 OA
BRANCH  28  31
ATOM     31  C   UNL A   1      39.745  22.050  26.550  1.00  0.00     0.039 A 
ATOM     32  C   UNL A   1      40.772  22.179  27.491  1.00  0.00     0.014 A 
ATOM     33  C   UNL A   1      39.118  23.191  26.056  1.00  0.00     0.014 A 
ATOM     34  C   UNL A   1      41.233  23.450  27.852  1.00  0.00     0.010 A 
ATOM     35  C   UNL A   1      39.658  24.445  26.317  1.00  0.00     0.010 A 
ATOM     36  C   UNL A   1      40.720  24.594  27.222  1.00  0.00    -0.014 A 
BRANCH  36  37
ATOM     37  C   UNL A   1      41.270  25.954  27.471  1.00  0.00     0.031 A 
ATOM     38  C   UNL A   1      42.680  26.285  27.052  1.00  0.00     0.074 A 
ATOM     39  C   UNL A   1      40.557  26.847  28.188  1.00  0.00     0.049 A 
ATOM     40  N   UNL A   1      43.395  27.348  27.317  1.00  0.00    -0.248 NA
ATOM     41  C   UNL A   1      43.399  25.267  26.265  1.00  0.00     0.031 C 
ATOM     42  C   UNL A   1      39.213  26.625  28.729  1.00  0.00     0.029 A 
ATOM     43  N   UNL A   1      40.877  28.112  28.618  1.00  0.00    -0.354 N 
ATOM     44  C   UNL A   1      44.654  27.103  26.784  1.00  0.00     0.074 A 
ATOM     45  C   UNL A   1      44.620  25.776  26.212  1.00  0.00     0.031 C 
ATOM     46  C   UNL A   1      38.824  27.713  29.411  1.00  0.00     0.029 A 
ATOM     47  C   UNL A   1      39.902  28.694  29.396  1.00  0.00     0.049 A 
ATOM     48  H   UNL A   1      41.725  28.559  28.393  1.00  0.00     0.167 HD
ATOM     49  C   UNL A   1      45.735  27.919  26.743  1.00  0.00     0.034 A 
ATOM     50  C   UNL A   1      39.883  29.879  30.040  1.00  0.00     0.034 A 
ATOM     51  C   UNL A   1      45.745  29.264  27.249  1.00  0.00     0.049 A 
ATOM     52  C   UNL A   1      41.077  30.789  29.930  1.00  0.00     0.074 A 
ATOM     53  C   UNL A   1      46.751  30.209  27.159  1.00  0.00     0.029 A 
ATOM     54  N   UNL A   1      44.699  29.858  27.937  1.00  0.00    -0.354 N 
ATOM     55  N   UNL A   1      42.203  30.599  29.287  1.00  0.00    -0.248 NA
ATOM     56  C   UNL A   1      40.986  32.090  30.608  1.00  0.00     0.031 C 
ATOM     57  C   UNL A   1      46.321  31.369  27.811  1.00  0.00     0.029 A 
ATOM     58  C   UNL A   1      45.037  31.153  28.287  1.00  0.00     0.049 A 
ATOM     59  H   UNL A   1      43.841  29.422  28.147  1.00  0.00     0.167 HD
ATOM     60  C   UNL A   1      42.941  31.766  29.457  1.00  0.00     0.074 A 
ATOM     61  C   UNL A   1      42.121  32.666  30.241  1.00  0.00     0.031 C 
ATOM     62  C   UNL A   1      44.191  32.058  29.021  1.00  0.00     0.034 A 
BRANCH  49  63
ATOM     63  C   UNL A   1      46.981  27.400  26.071  1.00  0.00     0.023 A 
ATOM     64  C   UNL A   1      47.193  27.666  24.702  1.00  0.00     0.012 A 
ATOM     65  C   UNL A   1      47.966  26.705  26.799  1.00  0.00     0.148 A 
ATOM     66  C   UNL A   1      48.344  27.215  24.059  1.00  0.00     0.002 A 
ATOM     67  C   UNL A   1      49.134  26.301  26.163  1.00  0.00     0.091 A 
ATOM     68  F   UNL A   1      47.740  26.446  28.094  1.00  0.00    -0.205 F 
ATOM     69  C   UNL A   1      49.319  26.543  24.791  1.00  0.00     0.022 A 
BRANCH  67  70
ATOM     70  S   UNL A   1      50.487  25.500  27.032  1.00  0.00     0.127 S 
ATOM     71  O   UNL A   1      51.436  25.260  25.946  1.00  0.00    -0.237 OA
ATOM     72  O   UNL A   1      50.897  26.534  27.982  1.00  0.00    -0.237 OA
ATOM     73  O   UNL A   1      49.920  24.304  27.642  1.00  0.00    -0.744 OA
ENDBRANCH  67  70
ENDBRANCH  49  63
BRANCH  50  74
ATOM     74  C   UNL A   1      38.669  30.301  30.795  1.00  0.00     0.023 A 
ATOM     75  C   UNL A   1      38.561  29.974  32.161  1.00  0.00     0.012 A 
ATOM     76  C   UNL A   1      37.636  31.037  30.184  1.00  0.00     0.148 A 
ATOM     77  C   UNL A   1      37.433  30.340  32.896  1.00  0.00     0.002 A 
ATOM     78  C   UNL A   1      36.540  31.447  30.934  1.00  0.00     0.091 A 
ATOM     79  F   UNL A   1      37.749  31.330  28.880  1.00  0.00    -0.205 F 
ATOM     80  C   UNL A   1      36.428  31.085  32.286  1.00  0.00     0.022 A 
BRANCH  78  81
ATOM     81  S   UNL A   1      35.260  32.519  30.267  1.00  0.00     0.127 S 
ATOM     82  O   UNL A   1      36.020  33.723  29.942  1.00  0.00    -0.237 OA
ATOM     83  O   UNL A   1      34.796  31.752  29.111  1.00  0.00    -0.237 OA
ATOM     84  O   UNL A   1      34.274  32.658  31.330  1.00  0.00    -0.744 OA
ENDBRANCH  78  81
ENDBRANCH  50  74
BRANCH  62  85
ATOM     85  C   UNL A   1      44.746  33.417  29.354  1.00  0.00     0.023 A 
ATOM     86  C   UNL A   1      45.513  33.593  30.522  1.00  0.00     0.012 A 
ATOM     87  C   UNL A   1      44.571  34.502  28.470  1.00  0.00     0.148 A 
ATOM     88  C   UNL A   1      46.072  34.834  30.823  1.00  0.00     0.002 A 
ATOM     89  C   UNL A   1      45.171  35.723  28.753  1.00  0.00     0.091 A 
ATOM     90  F   UNL A   1      43.822  34.319  27.372  1.00  0.00    -0.205 F 
ATOM     91  C   UNL A   1      45.911  35.894  29.935  1.00  0.00     0.022 A 
BRANCH  89  92
ATOM     92  S   UNL A   1      45.100  37.116  27.621  1.00  0.00     0.127 S 
ATOM     93  O   UNL A   1      43.707  37.072  27.181  1.00  0.00    -0.237 OA
ATOM     94  O   UNL A   1      45.429  38.243  28.494  1.00  0.00    -0.237 OA
ATOM     95  O   UNL A   1      46.090  36.843  26.587  1.00  0.00    -0.744 OA
ENDBRANCH  89  92
ENDBRANCH  62  85
ENDBRANCH  36  37
ENDBRANCH  28  31
ENDBRANCH  26  27
ENDBRANCH  25  26
ENDBRANCH   1  25
TORSDOF 19
ENDMDL
MODEL 2
REMARK VINA RESULT:     -11.4      5.207      7.806
REMARK SMILES CCNC(=O)[C@@H](C)Oc1ccc(OC)cc1/C=C/C(=O)NCCCNC(=O)c1ccc(-c2c3nc(c(-c4cccc(S(=O)(=O)[O-])c4F)c4ccc([nH]4)c(-c4cccc(S(=O)(=O)[O-])c4F)c4nc(c(-c5cccc(S(=O)(=O)[O-])c5F)c5ccc2[nH]5)C=C4)C=C3)cc1
REMARK SMILES IDX 22 1 21 2 19 3 20 4 18 6 17 7 16 8 9 9 10 10 11 11 15 12
REMARK SMILES IDX 12 13 8 14 6 15 7 16 4 17 3 18 5 20 2 21 1 22 13 23 14 24
REMARK SMILES IDX 23 25 24 26 25 27 26 28 27 30 28 31 29 32 90 33 30 34 89 35
REMARK SMILES IDX 31 36 32 37 33 38 83 39 34 40 88 41 82 42 84 43 35 44 87 45
REMARK SMILES IDX 81 46 80 47 36 49 68 50 48 51 67 52 49 53 52 54 66 55 85 56
REMARK SMILES IDX 50 57 51 58 65 60 86 61 53 62 37 63 38 64 46 65 39 66 41 67
REMARK SMILES IDX 47 68 40 69 42 70 43 71 44 72 45 73 69 74 70 75 78 76 71 77
REMARK SMILES IDX 73 78 79 79 72 80 74 81 75 82 76 83 77 84 54 85 55 86 63 87
REMARK SMILES IDX 56 88 58 89 64 90 57 91 59 92 60 93 61 94 62 95
REMARK H PARENT 21 5 3 19 25 29 84 48 52 59
REMARK Flexibility Score: inf
ROOT
ATOM      1  C   UNL A   1      32.049  28.334  23.263  1.00  0.00     0.118 C 
ENDROOT
BRANCH   1   2
ATOM      2  N   UNL A   1      32.489  27.745  22.013  1.00  0.00    -0.352 N 
ATOM      3  C   UNL A   1      33.135  26.570  21.800  1.00  0.00     0.244 C 
ATOM      4  O   UNL A   1      33.259  26.140  20.654  1.00  0.00    -0.270 OA
ATOM      5  H   UNL A   1      32.290  28.271  21.205  1.00  0.00     0.163 HD
BRANCH   3   6
ATOM      6  C   UNL A   1      33.562  25.713  22.929  1.00  0.00     0.072 C 
ATOM      7  C   UNL A   1      33.751  24.382  22.944  1.00  0.00     0.018 C 
BRANCH   7   8
ATOM      8  C   UNL A   1      34.204  23.702  24.174  1.00  0.00     0.020 A 
ATOM      9  C   UNL A   1      33.313  23.255  25.168  1.00  0.00     0.127 A 
ATOM     10  C   UNL A   1      33.811  22.643  26.324  1.00  0.00     0.051 A 
ATOM     11  C   UNL A   1      35.172  22.357  26.443  1.00  0.00     0.050 A 
ATOM     12  C   UNL A   1      35.578  23.443  24.335  1.00  0.00     0.058 A 
ATOM     13  C   UNL A   1      36.052  22.718  25.427  1.00  0.00     0.119 A 
BRANCH   9  14
ATOM     14  O   UNL A   1      31.984  23.546  25.094  1.00  0.00    -0.480 OA
BRANCH  14  15
ATOM     15  C   UNL A   1      31.336  24.139  26.222  1.00  0.00     0.258 C 
ATOM     16  C   UNL A   1      30.196  23.356  26.870  1.00  0.00     0.064 C 
BRANCH  15  17
ATOM     17  C   UNL A   1      31.078  25.661  26.225  1.00  0.00     0.260 C 
ATOM     18  N   UNL A   1      30.280  26.299  25.329  1.00  0.00    -0.353 N 
ATOM     19  H   UNL A   1      30.263  27.277  25.430  1.00  0.00     0.163 HD
ATOM     20  O   UNL A   1      31.601  26.379  27.088  1.00  0.00    -0.271 OA
BRANCH  18  21
ATOM     21  C   UNL A   1      29.452  25.799  24.254  1.00  0.00     0.112 C 
ATOM     22  C   UNL A   1      28.811  26.946  23.499  1.00  0.00     0.027 C 
ENDBRANCH  18  21
ENDBRANCH  15  17
ENDBRANCH  14  15
ENDBRANCH   9  14
BRANCH  13  23
ATOM     23  O   UNL A   1      37.358  22.343  25.590  1.00  0.00    -0.497 OA
ATOM     24  C   UNL A   1      37.665  21.055  25.059  1.00  0.00     0.278 C 
ENDBRANCH  13  23
ENDBRANCH   7   8
ENDBRANCH   3   6
ENDBRANCH   1   2
BRANCH   1  25
ATOM     25  C   UNL A   1      33.080  29.279  23.854  1.00  0.00     0.042 C 
BRANCH  25  26
ATOM     26  C   UNL A   1      33.086  29.249  25.373  1.00  0.00     0.118 C 
BRANCH  26  27
ATOM     27  N   UNL A   1      32.619  30.500  25.970  1.00  0.00    -0.352 N 
ATOM     28  C   UNL A   1      33.170  31.299  26.946  1.00  0.00     0.251 C 
ATOM     29  H   UNL A   1      31.764  30.828  25.612  1.00  0.00     0.163 HD
ATOM     30  O   UNL A   1      32.535  32.263  27.369  1.00  0.00    -0.269 OA
BRANCH  28  31
ATOM     31  C   UNL A   1      34.499  30.993  27.521  1.00  0.00     0.039 A 
ATOM     32  C   UNL A   1      35.389  32.043  27.773  1.00  0.00     0.014 A 
ATOM     33  C   UNL A   1      34.874  29.687  27.830  1.00  0.00     0.014 A 
ATOM     34  C   UNL A   1      36.601  31.791  28.425  1.00  0.00     0.010 A 
ATOM     35  C   UNL A   1      36.015  29.455  28.588  1.00  0.00     0.010 A 
ATOM     36  C   UNL A   1      36.898  30.501  28.893  1.00  0.00    -0.014 A 
BRANCH  36  37
ATOM     37  C   UNL A   1      38.108  30.210  29.708  1.00  0.00     0.031 A 
ATOM     38  C   UNL A   1      39.151  29.249  29.194  1.00  0.00     0.074 A 
ATOM     39  C   UNL A   1      38.210  30.702  30.961  1.00  0.00     0.049 A 
ATOM     40  N   UNL A   1      40.187  28.744  29.811  1.00  0.00    -0.248 NA
ATOM     41  C   UNL A   1      38.982  28.757  27.816  1.00  0.00     0.031 C 
ATOM     42  C   UNL A   1      37.230  31.575  31.614  1.00  0.00     0.029 A 
ATOM     43  N   UNL A   1      39.169  30.508  31.925  1.00  0.00    -0.354 N 
ATOM     44  C   UNL A   1      40.755  27.839  28.923  1.00  0.00     0.074 A 
ATOM     45  C   UNL A   1      39.929  27.835  27.738  1.00  0.00     0.031 C 
ATOM     46  C   UNL A   1      37.639  31.844  32.863  1.00  0.00     0.029 A 
ATOM     47  C   UNL A   1      38.886  31.131  33.119  1.00  0.00     0.049 A 
ATOM     48  H   UNL A   1      39.982  29.973  31.776  1.00  0.00     0.167 HD
ATOM     49  C   UNL A   1      41.881  27.099  29.066  1.00  0.00     0.034 A 
ATOM     50  C   UNL A   1      39.546  31.118  34.295  1.00  0.00     0.034 A 
ATOM     51  C   UNL A   1      42.740  27.158  30.216  1.00  0.00     0.049 A 
ATOM     52  C   UNL A   1      40.824  30.333  34.406  1.00  0.00     0.074 A 
ATOM     53  C   UNL A   1      43.959  26.534  30.412  1.00  0.00     0.029 A 
ATOM     54  N   UNL A   1      42.474  27.886  31.365  1.00  0.00    -0.354 N 
ATOM     55  N   UNL A   1      41.427  29.604  33.499  1.00  0.00    -0.248 NA
ATOM     56  C   UNL A   1      41.531  30.392  35.694  1.00  0.00     0.031 C 
ATOM     57  C   UNL A   1      44.421  26.868  31.689  1.00  0.00     0.029 A 
ATOM     58  C   UNL A   1      43.501  27.719  32.279  1.00  0.00     0.049 A 
ATOM     59  H   UNL A   1      41.673  28.439  31.511  1.00  0.00     0.167 HD
ATOM     60  C   UNL A   1      42.597  29.144  34.094  1.00  0.00     0.074 A 
ATOM     61  C   UNL A   1      42.630  29.700  35.431  1.00  0.00     0.031 C 
ATOM     62  C   UNL A   1      43.547  28.321  33.587  1.00  0.00     0.034 A 
BRANCH  49  63
ATOM     63  C   UNL A   1      42.286  26.208  27.919  1.00  0.00     0.023 A 
ATOM     64  C   UNL A   1      43.158  26.705  26.928  1.00  0.00     0.012 A 
ATOM     65  C   UNL A   1      41.854  24.869  27.850  1.00  0.00     0.148 A 
ATOM     66  C   UNL A   1      43.563  25.898  25.867  1.00  0.00     0.002 A 
ATOM     67  C   UNL A   1      42.301  24.055  26.815  1.00  0.00     0.091 A 
ATOM     68  F   UNL A   1      41.011  24.419  28.789  1.00  0.00    -0.205 F 
ATOM     69  C   UNL A   1      43.144  24.571  25.816  1.00  0.00     0.022 A 
BRANCH  67  70
ATOM     70  S   UNL A   1      41.885  22.312  26.701  1.00  0.00     0.127 S 
ATOM     71  O   UNL A   1      40.430  22.344  26.844  1.00  0.00    -0.237 OA
ATOM     72  O   UNL A   1      42.358  21.969  25.360  1.00  0.00    -0.237 OA
ATOM     73  O   UNL A   1      42.604  21.655  27.785  1.00  0.00    -0.744 OA
ENDBRANCH  67  70
ENDBRANCH  49  63
BRANCH  50  74
ATOM     74  C   UNL A   1      39.042  31.924  35.444  1.00  0.00     0.023 A 
ATOM     75  C   UNL A   1      39.224  33.321  35.437  1.00  0.00     0.012 A 
ATOM     76  C   UNL A   1      38.370  31.327  36.528  1.00  0.00     0.148 A 
ATOM     77  C   UNL A   1      38.778  34.105  36.501  1.00  0.00     0.002 A 
ATOM     78  C   UNL A   1      37.879  32.119  37.560  1.00  0.00     0.091 A 
ATOM     79  F   UNL A   1      38.215  29.995  36.525  1.00  0.00    -0.205 F 
ATOM     80  C   UNL A   1      38.097  33.506  37.557  1.00  0.00     0.022 A 
BRANCH  78  81
ATOM     81  S   UNL A   1      36.878  31.453  38.895  1.00  0.00     0.127 S 
ATOM     82  O   UNL A   1      36.678  30.074  38.458  1.00  0.00    -0.237 OA
ATOM     83  O   UNL A   1      37.766  31.611  40.047  1.00  0.00    -0.237 OA
ATOM     84  O   UNL A   1      35.683  32.284  38.941  1.00  0.00    -0.744 OA
ENDBRANCH  78  81
ENDBRANCH  50  74
BRANCH  62  85
ATOM     85  C   UNL A   1      44.723  27.988  34.466  1.00  0.00     0.023 A 
ATOM     86  C   UNL A   1      45.767  28.921  34.619  1.00  0.00     0.012 A 
ATOM     87  C   UNL A   1      44.757  26.784  35.198  1.00  0.00     0.148 A 
ATOM     88  C   UNL A   1      46.843  28.649  35.463  1.00  0.00     0.002 A 
ATOM     89  C   UNL A   1      45.808  26.541  36.074  1.00  0.00     0.091 A 
ATOM     90  F   UNL A   1      43.762  25.901  35.025  1.00  0.00    -0.205 F 
ATOM     91  C   UNL A   1      46.857  27.466  36.199  1.00  0.00     0.022 A 
BRANCH  89  92
ATOM     92  S   UNL A   1      45.862  25.091  37.134  1.00  0.00     0.127 S 
ATOM     93  O   UNL A   1      47.111  25.302  37.863  1.00  0.00    -0.237 OA
ATOM     94  O   UNL A   1      44.651  25.251  37.940  1.00  0.00    -0.237 OA
ATOM     95  O   UNL A   1      45.847  23.941  36.242  1.00  0.00    -0.744 OA
ENDBRANCH  89  92
ENDBRANCH  62  85
ENDBRANCH  36  37
ENDBRANCH  28  31
ENDBRANCH  26  27
ENDBRANCH  25  26
ENDBRANCH   1  25
TORSDOF 19
ENDMDL
MODEL 3
REMARK VINA RESULT:     -11.4      2.143      7.833
REMARK SMILES CCNC(=O)[C@@H](C)Oc1ccc(OC)cc1/C=C/C(=O)NCCCNC(=O)c1ccc(-c2c3nc(c(-c4cccc(S(=O)(=O)[O-])c4F)c4ccc([nH]4)c(-c4cccc(S(=O)(=O)[O-])c4F)c4nc(c(-c5cccc(S(=O)(=O)[O-])c5F)c5ccc2[nH]5)C=C4)C=C3)cc1
REMARK SMILES IDX 22 1 21 2 19 3 20 4 18 6 17 7 16 8 9 9 10 10 11 11 15 12
REMARK SMILES IDX 12 13 8 14 6 15 7 16 4 17 3 18 5 20 2 21 1 22 13 23 14 24
REMARK SMILES IDX 23 25 24 26 25 27 26 28 27 30 28 31 29 32 90 33 30 34 89 35
REMARK SMILES IDX 31 36 32 37 33 38 83 39 34 40 88 41 82 42 84 43 35 44 87 45
REMARK SMILES IDX 81 46 80 47 36 49 68 50 48 51 67 52 49 53 52 54 66 55 85 56
REMARK SMILES IDX 50 57 51 58 65 60 86 61 53 62 37 63 38 64 46 65 39 66 41 67
REMARK SMILES IDX 47 68 40 69 42 70 43 71 44 72 45 73 69 74 70 75 78 76 71 77
REMARK SMILES IDX 73 78 79 79 72 80 74 81 75 82 76 83 77 84 54 85 55 86 63 87
REMARK SMILES IDX 56 88 58 89 64 90 57 91 59 92 60 93 61 94 62 95
REMARK H PARENT 21 5 3 19 25 29 84 48 52 59
REMARK Flexibility Score: inf
ROOT
ATOM      1  C   UNL A   1      36.793  21.775  25.211  1.00  0.00     0.118 C 
ENDROOT
BRANCH   1   2
ATOM      2  N   UNL A   1      35.742  21.511  26.175  1.00  0.00    -0.352 N 
ATOM      3  C   UNL A   1      34.747  22.328  26.602  1.00  0.00     0.244 C 
ATOM      4  O   UNL A   1      33.829  21.871  27.282  1.00  0.00    -0.270 OA
ATOM      5  H   UNL A   1      35.752  20.612  26.575  1.00  0.00     0.163 HD
BRANCH   3   6
ATOM      6  C   UNL A   1      34.653  23.732  26.141  1.00  0.00     0.072 C 
ATOM      7  C   UNL A   1      33.552  24.446  25.848  1.00  0.00     0.018 C 
BRANCH   7   8
ATOM      8  C   UNL A   1      33.662  25.855  25.419  1.00  0.00     0.020 A 
ATOM      9  C   UNL A   1      33.899  26.225  24.082  1.00  0.00     0.127 A 
ATOM     10  C   UNL A   1      34.021  27.579  23.747  1.00  0.00     0.051 A 
ATOM     11  C   UNL A   1      33.785  28.568  24.704  1.00  0.00     0.050 A 
ATOM     12  C   UNL A   1      33.471  26.869  26.377  1.00  0.00     0.058 A 
ATOM     13  C   UNL A   1      33.465  28.214  26.010  1.00  0.00     0.119 A 
BRANCH   9  14
ATOM     14  O   UNL A   1      34.163  25.283  23.134  1.00  0.00    -0.480 OA
BRANCH  14  15
ATOM     15  C   UNL A   1      33.091  24.771  22.341  1.00  0.00     0.258 C 
ATOM     16  C   UNL A   1      33.104  23.278  22.019  1.00  0.00     0.064 C 
BRANCH  15  17
ATOM     17  C   UNL A   1      32.553  25.618  21.168  1.00  0.00     0.260 C 
ATOM     18  N   UNL A   1      31.526  26.501  21.276  1.00  0.00    -0.353 N 
ATOM     19  H   UNL A   1      31.264  26.921  20.426  1.00  0.00     0.163 HD
ATOM     20  O   UNL A   1      33.069  25.527  20.046  1.00  0.00    -0.271 OA
BRANCH  18  21
ATOM     21  C   UNL A   1      30.748  26.935  22.415  1.00  0.00     0.112 C 
ATOM     22  C   UNL A   1      30.645  28.447  22.445  1.00  0.00     0.027 C 
ENDBRANCH  18  21
ENDBRANCH  15  17
ENDBRANCH  14  15
ENDBRANCH   9  14
BRANCH  13  23
ATOM     23  O   UNL A   1      33.183  29.241  26.869  1.00  0.00    -0.497 OA
ATOM     24  C   UNL A   1      31.791  29.522  27.003  1.00  0.00     0.278 C 
ENDBRANCH  13  23
ENDBRANCH   7   8
ENDBRANCH   3   6
ENDBRANCH   1   2
BRANCH   1  25
ATOM     25  C   UNL A   1      37.783  20.630  25.103  1.00  0.00     0.042 C 
BRANCH  25  26
ATOM     26  C   UNL A   1      38.972  20.806  26.033  1.00  0.00     0.118 C 
BRANCH  26  27
ATOM     27  N   UNL A   1      39.921  19.695  25.962  1.00  0.00    -0.352 N 
ATOM     28  C   UNL A   1      41.293  19.668  26.059  1.00  0.00     0.251 C 
ATOM     29  H   UNL A   1      39.506  18.814  25.822  1.00  0.00     0.163 HD
ATOM     30  O   UNL A   1      41.894  18.613  25.860  1.00  0.00    -0.269 OA
BRANCH  28  31
ATOM     31  C   UNL A   1      42.061  20.897  26.362  1.00  0.00     0.039 A 
ATOM     32  C   UNL A   1      42.330  21.801  25.327  1.00  0.00     0.014 A 
ATOM     33  C   UNL A   1      42.504  21.178  27.652  1.00  0.00     0.014 A 
ATOM     34  C   UNL A   1      42.949  23.023  25.611  1.00  0.00     0.010 A 
ATOM     35  C   UNL A   1      43.002  22.440  27.954  1.00  0.00     0.010 A 
ATOM     36  C   UNL A   1      43.236  23.380  26.939  1.00  0.00    -0.014 A 
BRANCH  36  37
ATOM     37  C   UNL A   1      43.768  24.720  27.305  1.00  0.00     0.031 A 
ATOM     38  C   UNL A   1      42.838  25.779  27.843  1.00  0.00     0.074 A 
ATOM     39  C   UNL A   1      45.052  25.031  27.034  1.00  0.00     0.049 A 
ATOM     40  N   UNL A   1      43.069  27.046  28.069  1.00  0.00    -0.248 NA
ATOM     41  C   UNL A   1      41.451  25.368  28.123  1.00  0.00     0.031 C 
ATOM     42  C   UNL A   1      46.038  24.128  26.434  1.00  0.00     0.029 A 
ATOM     43  N   UNL A   1      45.742  26.209  27.194  1.00  0.00    -0.354 N 
ATOM     44  C   UNL A   1      41.852  27.591  28.460  1.00  0.00     0.074 A 
ATOM     45  C   UNL A   1      40.875  26.527  28.405  1.00  0.00     0.031 C 
ATOM     46  C   UNL A   1      47.202  24.779  26.282  1.00  0.00     0.029 A 
ATOM     47  C   UNL A   1      47.038  26.157  26.731  1.00  0.00     0.049 A 
ATOM     48  H   UNL A   1      45.347  27.014  27.600  1.00  0.00     0.167 HD
ATOM     49  C   UNL A   1      41.575  28.855  28.860  1.00  0.00     0.034 A 
ATOM     50  C   UNL A   1      47.984  27.115  26.660  1.00  0.00     0.034 A 
ATOM     51  C   UNL A   1      42.561  29.893  28.982  1.00  0.00     0.049 A 
ATOM     52  C   UNL A   1      47.665  28.495  27.164  1.00  0.00     0.074 A 
ATOM     53  C   UNL A   1      42.404  31.173  29.482  1.00  0.00     0.029 A 
ATOM     54  N   UNL A   1      43.889  29.771  28.605  1.00  0.00    -0.354 N 
ATOM     55  N   UNL A   1      46.546  28.950  27.676  1.00  0.00    -0.248 NA
ATOM     56  C   UNL A   1      48.747  29.490  27.110  1.00  0.00     0.031 C 
ATOM     57  C   UNL A   1      43.634  31.833  29.388  1.00  0.00     0.029 A 
ATOM     58  C   UNL A   1      44.562  30.955  28.851  1.00  0.00     0.049 A 
ATOM     59  H   UNL A   1      44.294  28.961  28.217  1.00  0.00     0.167 HD
ATOM     60  C   UNL A   1      46.799  30.270  28.033  1.00  0.00     0.074 A 
ATOM     61  C   UNL A   1      48.184  30.533  27.703  1.00  0.00     0.031 C 
ATOM     62  C   UNL A   1      45.955  31.187  28.567  1.00  0.00     0.034 A 
BRANCH  49  63
ATOM     63  C   UNL A   1      40.155  29.170  29.259  1.00  0.00     0.023 A 
ATOM     64  C   UNL A   1      39.202  29.460  28.261  1.00  0.00     0.012 A 
ATOM     65  C   UNL A   1      39.750  29.122  30.607  1.00  0.00     0.148 A 
ATOM     66  C   UNL A   1      37.878  29.736  28.599  1.00  0.00     0.002 A 
ATOM     67  C   UNL A   1      38.418  29.351  30.934  1.00  0.00     0.091 A 
ATOM     68  F   UNL A   1      40.673  28.864  31.544  1.00  0.00    -0.205 F 
ATOM     69  C   UNL A   1      37.484  29.671  29.933  1.00  0.00     0.022 A 
BRANCH  67  70
ATOM     70  S   UNL A   1      37.791  29.213  32.611  1.00  0.00     0.127 S 
ATOM     71  O   UNL A   1      36.450  29.780  32.473  1.00  0.00    -0.237 OA
ATOM     72  O   UNL A   1      37.821  27.767  32.832  1.00  0.00    -0.237 OA
ATOM     73  O   UNL A   1      38.708  29.975  33.447  1.00  0.00    -0.744 OA
ENDBRANCH  67  70
ENDBRANCH  49  63
BRANCH  50  74
ATOM     74  C   UNL A   1      49.344  26.786  26.145  1.00  0.00     0.023 A 
ATOM     75  C   UNL A   1      50.219  26.029  26.950  1.00  0.00     0.012 A 
ATOM     76  C   UNL A   1      49.770  27.192  24.866  1.00  0.00     0.148 A 
ATOM     77  C   UNL A   1      51.504  25.714  26.507  1.00  0.00     0.002 A 
ATOM     78  C   UNL A   1      51.032  26.829  24.408  1.00  0.00     0.091 A 
ATOM     79  F   UNL A   1      48.930  27.922  24.118  1.00  0.00    -0.205 F 
ATOM     80  C   UNL A   1      51.906  26.105  25.233  1.00  0.00     0.022 A 
BRANCH  78  81
ATOM     81  S   UNL A   1      51.587  27.176  22.734  1.00  0.00     0.127 S 
ATOM     82  O   UNL A   1      50.506  26.602  21.937  1.00  0.00    -0.237 OA
ATOM     83  O   UNL A   1      51.645  28.638  22.732  1.00  0.00    -0.237 OA
ATOM     84  O   UNL A   1      52.883  26.524  22.608  1.00  0.00    -0.744 OA
ENDBRANCH  78  81
ENDBRANCH  50  74
BRANCH  62  85
ATOM     85  C   UNL A   1      46.507  32.557  28.858  1.00  0.00     0.023 A 
ATOM     86  C   UNL A   1      47.174  32.798  30.075  1.00  0.00     0.012 A 
ATOM     87  C   UNL A   1      46.430  33.584  27.895  1.00  0.00     0.148 A 
ATOM     88  C   UNL A   1      47.730  34.047  30.343  1.00  0.00     0.002 A 
ATOM     89  C   UNL A   1      47.029  34.811  28.149  1.00  0.00     0.091 A 
ATOM     90  F   UNL A   1      45.775  33.340  26.750  1.00  0.00    -0.205 F 
ATOM     91  C   UNL A   1      47.668  35.049  29.377  1.00  0.00     0.022 A 
BRANCH  89  92
ATOM     92  S   UNL A   1      47.084  36.127  26.927  1.00  0.00     0.127 S 
ATOM     93  O   UNL A   1      47.839  37.159  27.635  1.00  0.00    -0.237 OA
ATOM     94  O   UNL A   1      47.803  35.495  25.822  1.00  0.00    -0.237 OA
ATOM     95  O   UNL A   1      45.697  36.460  26.633  1.00  0.00    -0.744 OA
ENDBRANCH  89  92
ENDBRANCH  62  85
ENDBRANCH  36  37
ENDBRANCH  28  31
ENDBRANCH  26  27
ENDBRANCH  25  26
ENDBRANCH   1  25
TORSDOF 19
ENDMDL
