MODEL 1
REMARK VINA RESULT:     -12.1      0.000      0.000
REMARK SMILES O=C(COc1cc(-c2ccccc2)nc(Nc2ccccc2Br)n1)NCCCNC(=O)c1ccc(-c2c3nc(c(-c4cccc(S(=O)(=O)[O-])c4F)c4ccc([nH]4)c(-c4cccc(S(=O)(=O)[O-])c4F)c4nc(c(-c5cccc(S(=O)(=O)[O-])c5F)c5ccc2[nH]5)C=C4)C=C3)cc1
REMARK SMILES IDX 26 1 25 2 1 3 2 4 3 6 4 7 5 8 6 9 24 10 7 11 15 12 14 13
REMARK SMILES IDX 8 14 9 15 13 16 10 17 12 18 11 19 16 20 17 22 18 23 22 24
REMARK SMILES IDX 19 25 21 26 23 27 20 28 27 29 28 30 29 31 30 32 31 34 32 35
REMARK SMILES IDX 33 36 94 37 34 38 93 39 35 40 36 41 37 42 87 43 38 44 92 45
REMARK SMILES IDX 86 46 88 47 39 48 91 49 85 50 84 51 40 53 72 54 52 55 71 56
REMARK SMILES IDX 53 57 56 58 70 59 89 60 54 61 55 62 69 64 90 65 57 66 41 67
REMARK SMILES IDX 42 68 50 69 43 70 45 71 51 72 44 73 46 74 47 75 48 76 49 77
REMARK SMILES IDX 73 78 74 79 82 80 75 81 77 82 83 83 76 84 78 85 79 86 80 87
REMARK SMILES IDX 81 88 58 89 59 90 67 91 60 92 62 93 68 94 61 95 63 96 64 97
REMARK SMILES IDX 65 98 66 99
REMARK H PARENT 25 5 16 21 29 33 88 52 56 63
REMARK Flexibility Score: inf
ROOT
ATOM      1  C   UNL A   1      31.765  27.584  25.781  1.00  0.00     0.117 C 
ENDROOT
BRANCH   1   2
ATOM      2  N   UNL A   1      32.022  26.157  25.785  1.00  0.00    -0.353 N 
ATOM      3  O   UNL A   1      33.363  26.120  23.913  1.00  0.00    -0.271 OA
ATOM      4  C   UNL A   1      32.905  25.561  24.904  1.00  0.00     0.258 C 
ATOM      5  H   UNL A   1      31.551  25.592  26.439  1.00  0.00     0.163 HD
BRANCH   4   6
ATOM      6  C   UNL A   1      33.337  24.154  25.326  1.00  0.00     0.331 C 
BRANCH   6   7
ATOM      7  O   UNL A   1      33.431  23.234  24.238  1.00  0.00    -0.467 OA
BRANCH   7   8
ATOM      8  C   UNL A   1      34.155  22.106  24.543  1.00  0.00     0.219 A 
ATOM      9  C   UNL A   1      33.585  20.863  24.538  1.00  0.00     0.097 A 
ATOM     10  N   UNL A   1      35.469  22.297  24.680  1.00  0.00    -0.177 NA
ATOM     11  C   UNL A   1      34.433  19.792  24.695  1.00  0.00     0.080 A 
ATOM     12  C   UNL A   1      36.233  21.205  24.859  1.00  0.00     0.231 A 
ATOM     13  N   UNL A   1      35.760  19.947  24.861  1.00  0.00    -0.212 NA
BRANCH  11  14
ATOM     14  C   UNL A   1      33.898  18.424  24.668  1.00  0.00     0.000 A 
ATOM     15  C   UNL A   1      34.425  17.456  23.802  1.00  0.00     0.010 A 
ATOM     16  C   UNL A   1      32.901  18.026  25.580  1.00  0.00     0.010 A 
ATOM     17  C   UNL A   1      33.994  16.127  23.868  1.00  0.00     0.001 A 
ATOM     18  C   UNL A   1      32.468  16.701  25.644  1.00  0.00     0.001 A 
ATOM     19  C   UNL A   1      33.021  15.751  24.792  1.00  0.00     0.000 A 
ENDBRANCH  11  14
BRANCH  12  20
ATOM     20  N   UNL A   1      37.614  21.333  24.976  1.00  0.00    -0.323 N 
ATOM     21  H   UNL A   1      38.143  20.725  24.411  1.00  0.00     0.170 HD
BRANCH  20  22
ATOM     22  C   UNL A   1      38.356  22.202  25.785  1.00  0.00     0.055 A 
ATOM     23  C   UNL A   1      37.869  23.508  25.968  1.00  0.00     0.027 A 
ATOM     24  C   UNL A   1      39.525  21.832  26.476  1.00  0.00     0.041 A 
ATOM     25  C   UNL A   1      38.512  24.409  26.822  1.00  0.00     0.002 A 
ATOM     26  C   UNL A   1      40.169  22.736  27.331  1.00  0.00     0.018 A 
ATOM     27  Br  UNL A   1      40.393  20.158  26.202  1.00  0.00    -0.049 Br
ATOM     28  C   UNL A   1      39.659  24.020  27.508  1.00  0.00     0.001 A 
ENDBRANCH  20  22
ENDBRANCH  12  20
ENDBRANCH   7   8
ENDBRANCH   6   7
ENDBRANCH   4   6
ENDBRANCH   1   2
BRANCH   1  29
ATOM     29  C   UNL A   1      32.583  28.349  26.805  1.00  0.00     0.042 C 
BRANCH  29  30
ATOM     30  C   UNL A   1      33.601  29.311  26.205  1.00  0.00     0.118 C 
BRANCH  30  31
ATOM     31  N   UNL A   1      33.360  30.706  26.549  1.00  0.00    -0.352 N 
ATOM     32  C   UNL A   1      34.019  31.524  27.435  1.00  0.00     0.251 C 
ATOM     33  H   UNL A   1      32.608  31.128  26.073  1.00  0.00     0.163 HD
ATOM     34  O   UNL A   1      33.566  32.647  27.662  1.00  0.00    -0.269 OA
BRANCH  32  35
ATOM     35  C   UNL A   1      35.240  31.064  28.135  1.00  0.00     0.039 A 
ATOM     36  C   UNL A   1      36.373  31.882  28.109  1.00  0.00     0.014 A 
ATOM     37  C   UNL A   1      35.284  29.841  28.810  1.00  0.00     0.014 A 
ATOM     38  C   UNL A   1      37.519  31.505  28.815  1.00  0.00     0.010 A 
ATOM     39  C   UNL A   1      36.395  29.510  29.584  1.00  0.00     0.010 A 
ATOM     40  C   UNL A   1      37.528  30.337  29.595  1.00  0.00    -0.014 A 
BRANCH  40  41
ATOM     41  C   UNL A   1      38.698  30.000  30.450  1.00  0.00     0.031 A 
ATOM     42  C   UNL A   1      38.873  30.623  31.809  1.00  0.00     0.074 A 
ATOM     43  C   UNL A   1      39.647  29.170  29.968  1.00  0.00     0.049 A 
ATOM     44  N   UNL A   1      39.824  30.428  32.688  1.00  0.00    -0.248 NA
ATOM     45  C   UNL A   1      37.867  31.610  32.230  1.00  0.00     0.031 C 
ATOM     46  C   UNL A   1      39.647  28.574  28.630  1.00  0.00     0.029 A 
ATOM     47  N   UNL A   1      40.801  28.697  30.541  1.00  0.00    -0.354 N 
ATOM     48  C   UNL A   1      39.548  31.283  33.748  1.00  0.00     0.074 A 
ATOM     49  C   UNL A   1      38.361  32.027  33.388  1.00  0.00     0.031 C 
ATOM     50  C   UNL A   1      40.735  27.799  28.493  1.00  0.00     0.029 A 
ATOM     51  C   UNL A   1      41.526  27.867  29.717  1.00  0.00     0.049 A 
ATOM     52  H   UNL A   1      41.083  28.928  31.455  1.00  0.00     0.167 HD
ATOM     53  C   UNL A   1      40.204  31.417  34.926  1.00  0.00     0.034 A 
ATOM     54  C   UNL A   1      42.697  27.232  29.920  1.00  0.00     0.034 A 
ATOM     55  C   UNL A   1      41.369  30.656  35.294  1.00  0.00     0.049 A 
ATOM     56  C   UNL A   1      43.378  27.364  31.254  1.00  0.00     0.074 A 
ATOM     57  C   UNL A   1      42.055  30.660  36.497  1.00  0.00     0.029 A 
ATOM     58  N   UNL A   1      42.032  29.767  34.462  1.00  0.00    -0.354 N 
ATOM     59  N   UNL A   1      43.009  28.051  32.307  1.00  0.00    -0.248 NA
ATOM     60  C   UNL A   1      44.617  26.594  31.443  1.00  0.00     0.031 C 
ATOM     61  C   UNL A   1      43.150  29.798  36.380  1.00  0.00     0.029 A 
ATOM     62  C   UNL A   1      43.124  29.224  35.121  1.00  0.00     0.049 A 
ATOM     63  H   UNL A   1      41.766  29.553  33.540  1.00  0.00     0.167 HD
ATOM     64  C   UNL A   1      43.946  27.770  33.294  1.00  0.00     0.074 A 
ATOM     65  C   UNL A   1      44.885  26.827  32.720  1.00  0.00     0.031 C 
ATOM     66  C   UNL A   1      44.030  28.256  34.557  1.00  0.00     0.034 A 
BRANCH  53  67
ATOM     67  C   UNL A   1      39.649  32.397  35.930  1.00  0.00     0.023 A 
ATOM     68  C   UNL A   1      38.722  31.955  36.898  1.00  0.00     0.012 A 
ATOM     69  C   UNL A   1      40.091  33.735  35.960  1.00  0.00     0.148 A 
ATOM     70  C   UNL A   1      38.217  32.835  37.853  1.00  0.00     0.002 A 
ATOM     71  C   UNL A   1      39.618  34.594  36.947  1.00  0.00     0.091 A 
ATOM     72  F   UNL A   1      40.957  34.143  35.023  1.00  0.00    -0.205 F 
ATOM     73  C   UNL A   1      38.672  34.150  37.885  1.00  0.00     0.022 A 
BRANCH  71  74
ATOM     74  S   UNL A   1      40.206  36.282  37.126  1.00  0.00     0.127 S 
ATOM     75  O   UNL A   1      39.350  36.779  38.203  1.00  0.00    -0.237 OA
ATOM     76  O   UNL A   1      41.606  36.081  37.503  1.00  0.00    -0.237 OA
ATOM     77  O   UNL A   1      40.009  36.916  35.830  1.00  0.00    -0.744 OA
ENDBRANCH  71  74
ENDBRANCH  53  67
BRANCH  54  78
ATOM     78  C   UNL A   1      43.266  26.360  28.854  1.00  0.00     0.023 A 
ATOM     79  C   UNL A   1      42.900  25.000  28.798  1.00  0.00     0.012 A 
ATOM     80  C   UNL A   1      44.148  26.873  27.884  1.00  0.00     0.148 A 
ATOM     81  C   UNL A   1      43.433  24.159  27.821  1.00  0.00     0.002 A 
ATOM     82  C   UNL A   1      44.628  26.044  26.878  1.00  0.00     0.091 A 
ATOM     83  F   UNL A   1      44.490  28.167  27.959  1.00  0.00    -0.205 F 
ATOM     84  C   UNL A   1      44.287  24.682  26.855  1.00  0.00     0.022 A 
BRANCH  82  85
ATOM     85  S   UNL A   1      45.623  26.661  25.516  1.00  0.00     0.127 S 
ATOM     86  O   UNL A   1      45.761  25.470  24.683  1.00  0.00    -0.237 OA
ATOM     87  O   UNL A   1      44.759  27.705  24.961  1.00  0.00    -0.237 OA
ATOM     88  O   UNL A   1      46.851  27.158  26.119  1.00  0.00    -0.744 OA
ENDBRANCH  82  85
ENDBRANCH  54  78
BRANCH  66  89
ATOM     89  C   UNL A   1      45.152  27.745  35.426  1.00  0.00     0.023 A 
ATOM     90  C   UNL A   1      46.369  28.451  35.498  1.00  0.00     0.012 A 
ATOM     91  C   UNL A   1      44.984  26.580  36.200  1.00  0.00     0.148 A 
ATOM     92  C   UNL A   1      47.419  27.978  36.285  1.00  0.00     0.002 A 
ATOM     93  C   UNL A   1      46.014  26.145  37.025  1.00  0.00     0.091 A 
ATOM     94  F   UNL A   1      43.827  25.908  36.105  1.00  0.00    -0.205 F 
ATOM     95  C   UNL A   1      47.238  26.831  37.056  1.00  0.00     0.022 A 
BRANCH  93  96
ATOM     96  S   UNL A   1      45.832  24.737  38.125  1.00  0.00     0.127 S 
ATOM     97  O   UNL A   1      45.759  23.625  37.178  1.00  0.00    -0.237 OA
ATOM     98  O   UNL A   1      47.069  24.790  38.906  1.00  0.00    -0.237 OA
ATOM     99  O   UNL A   1      44.622  24.985  38.896  1.00  0.00    -0.744 OA
ENDBRANCH  93  96
ENDBRANCH  66  89
ENDBRANCH  40  41
ENDBRANCH  32  35
ENDBRANCH  30  31
ENDBRANCH  29  30
ENDBRANCH   1  29
TORSDOF 18
ENDMDL
MODEL 2
REMARK VINA RESULT:     -11.7      1.185      3.512
REMARK SMILES O=C(COc1cc(-c2ccccc2)nc(Nc2ccccc2Br)n1)NCCCNC(=O)c1ccc(-c2c3nc(c(-c4cccc(S(=O)(=O)[O-])c4F)c4ccc([nH]4)c(-c4cccc(S(=O)(=O)[O-])c4F)c4nc(c(-c5cccc(S(=O)(=O)[O-])c5F)c5ccc2[nH]5)C=C4)C=C3)cc1
REMARK SMILES IDX 26 1 25 2 1 3 2 4 3 6 4 7 5 8 6 9 24 10 7 11 15 12 14 13
REMARK SMILES IDX 8 14 9 15 13 16 10 17 12 18 11 19 16 20 17 22 18 23 22 24
REMARK SMILES IDX 19 25 21 26 23 27 20 28 27 29 28 30 29 31 30 32 31 34 32 35
REMARK SMILES IDX 33 36 94 37 34 38 93 39 35 40 36 41 37 42 87 43 38 44 92 45
REMARK SMILES IDX 86 46 88 47 39 48 91 49 85 50 84 51 40 53 72 54 52 55 71 56
REMARK SMILES IDX 53 57 56 58 70 59 89 60 54 61 55 62 69 64 90 65 57 66 41 67
REMARK SMILES IDX 42 68 50 69 43 70 45 71 51 72 44 73 46 74 47 75 48 76 49 77
REMARK SMILES IDX 73 78 74 79 82 80 75 81 77 82 83 83 76 84 78 85 79 86 80 87
REMARK SMILES IDX 81 88 58 89 59 90 67 91 60 92 62 93 68 94 61 95 63 96 64 97
REMARK SMILES IDX 65 98 66 99
REMARK H PARENT 25 5 16 21 29 33 88 52 56 63
REMARK Flexibility Score: inf
ROOT
ATOM      1  C   UNL A   1      32.256  27.595  24.932  1.00  0.00     0.117 C 
ENDROOT
BRANCH   1   2
ATOM      2  N   UNL A   1      32.462  26.185  24.666  1.00  0.00    -0.353 N 
ATOM      3  O   UNL A   1      33.191  26.426  22.494  1.00  0.00    -0.271 OA
ATOM      4  C   UNL A   1      33.030  25.729  23.490  1.00  0.00     0.258 C 
ATOM      5  H   UNL A   1      32.189  25.528  25.346  1.00  0.00     0.163 HD
BRANCH   4   6
ATOM      6  C   UNL A   1      33.526  24.283  23.569  1.00  0.00     0.331 C 
BRANCH   6   7
ATOM      7  O   UNL A   1      34.890  24.123  23.176  1.00  0.00    -0.467 OA
BRANCH   7   8
ATOM      8  C   UNL A   1      35.588  23.256  23.981  1.00  0.00     0.219 A 
ATOM      9  C   UNL A   1      36.752  23.626  24.598  1.00  0.00     0.097 A 
ATOM     10  N   UNL A   1      34.968  22.103  24.243  1.00  0.00    -0.177 NA
ATOM     11  C   UNL A   1      37.279  22.741  25.509  1.00  0.00     0.080 A 
ATOM     12  C   UNL A   1      35.557  21.275  25.122  1.00  0.00     0.231 A 
ATOM     13  N   UNL A   1      36.695  21.558  25.779  1.00  0.00    -0.212 NA
BRANCH  11  14
ATOM     14  C   UNL A   1      38.509  23.083  26.234  1.00  0.00     0.000 A 
ATOM     15  C   UNL A   1      38.745  24.389  26.687  1.00  0.00     0.010 A 
ATOM     16  C   UNL A   1      39.442  22.084  26.576  1.00  0.00     0.010 A 
ATOM     17  C   UNL A   1      39.858  24.680  27.482  1.00  0.00     0.001 A 
ATOM     18  C   UNL A   1      40.555  22.375  27.366  1.00  0.00     0.001 A 
ATOM     19  C   UNL A   1      40.758  23.673  27.824  1.00  0.00     0.000 A 
ENDBRANCH  11  14
BRANCH  12  20
ATOM     20  N   UNL A   1      34.946  20.070  25.462  1.00  0.00    -0.323 N 
ATOM     21  H   UNL A   1      34.991  19.829  26.415  1.00  0.00     0.170 HD
BRANCH  20  22
ATOM     22  C   UNL A   1      34.279  19.155  24.641  1.00  0.00     0.055 A 
ATOM     23  C   UNL A   1      34.951  17.968  24.296  1.00  0.00     0.027 A 
ATOM     24  C   UNL A   1      32.956  19.317  24.190  1.00  0.00     0.041 A 
ATOM     25  C   UNL A   1      34.323  16.971  23.544  1.00  0.00     0.002 A 
ATOM     26  C   UNL A   1      32.329  18.317  23.435  1.00  0.00     0.018 A 
ATOM     27  Br  UNL A   1      31.979  20.935  24.436  1.00  0.00    -0.049 Br
ATOM     28  C   UNL A   1      33.009  17.144  23.118  1.00  0.00     0.001 A 
ENDBRANCH  20  22
ENDBRANCH  12  20
ENDBRANCH   7   8
ENDBRANCH   6   7
ENDBRANCH   4   6
ENDBRANCH   1   2
BRANCH   1  29
ATOM     29  C   UNL A   1      32.773  28.036  26.289  1.00  0.00     0.042 C 
BRANCH  29  30
ATOM     30  C   UNL A   1      33.977  28.967  26.232  1.00  0.00     0.118 C 
BRANCH  30  31
ATOM     31  N   UNL A   1      33.663  30.349  26.570  1.00  0.00    -0.352 N 
ATOM     32  C   UNL A   1      34.262  31.195  27.473  1.00  0.00     0.251 C 
ATOM     33  H   UNL A   1      32.905  30.738  26.077  1.00  0.00     0.163 HD
ATOM     34  O   UNL A   1      33.753  32.295  27.690  1.00  0.00    -0.269 OA
BRANCH  32  35
ATOM     35  C   UNL A   1      35.485  30.790  28.204  1.00  0.00     0.039 A 
ATOM     36  C   UNL A   1      36.632  31.578  28.075  1.00  0.00     0.014 A 
ATOM     37  C   UNL A   1      35.518  29.646  29.006  1.00  0.00     0.014 A 
ATOM     38  C   UNL A   1      37.782  31.258  28.801  1.00  0.00     0.010 A 
ATOM     39  C   UNL A   1      36.634  29.380  29.797  1.00  0.00     0.010 A 
ATOM     40  C   UNL A   1      37.781  30.181  29.703  1.00  0.00    -0.014 A 
BRANCH  40  41
ATOM     41  C   UNL A   1      38.959  29.916  30.574  1.00  0.00     0.031 A 
ATOM     42  C   UNL A   1      39.085  30.560  31.929  1.00  0.00     0.074 A 
ATOM     43  C   UNL A   1      39.955  29.133  30.112  1.00  0.00     0.049 A 
ATOM     44  N   UNL A   1      40.034  30.425  32.820  1.00  0.00    -0.248 NA
ATOM     45  C   UNL A   1      38.022  31.496  32.329  1.00  0.00     0.031 C 
ATOM     46  C   UNL A   1      40.003  28.525  28.780  1.00  0.00     0.029 A 
ATOM     47  N   UNL A   1      41.127  28.728  30.702  1.00  0.00    -0.354 N 
ATOM     48  C   UNL A   1      39.701  31.275  33.868  1.00  0.00     0.074 A 
ATOM     49  C   UNL A   1      38.480  31.950  33.487  1.00  0.00     0.031 C 
ATOM     50  C   UNL A   1      41.133  27.809  28.663  1.00  0.00     0.029 A 
ATOM     51  C   UNL A   1      41.905  27.931  29.895  1.00  0.00     0.049 A 
ATOM     52  H   UNL A   1      41.386  28.983  31.617  1.00  0.00     0.167 HD
ATOM     53  C   UNL A   1      40.335  31.456  35.052  1.00  0.00     0.034 A 
ATOM     54  C   UNL A   1      43.106  27.361  30.117  1.00  0.00     0.034 A 
ATOM     55  C   UNL A   1      41.535  30.762  35.441  1.00  0.00     0.049 A 
ATOM     56  C   UNL A   1      43.764  27.543  31.457  1.00  0.00     0.074 A 
ATOM     57  C   UNL A   1      42.206  30.815  36.651  1.00  0.00     0.029 A 
ATOM     58  N   UNL A   1      42.254  29.902  34.625  1.00  0.00    -0.354 N 
ATOM     59  N   UNL A   1      43.346  28.220  32.498  1.00  0.00    -0.248 NA
ATOM     60  C   UNL A   1      45.040  26.843  31.667  1.00  0.00     0.031 C 
ATOM     61  C   UNL A   1      43.347  30.012  36.555  1.00  0.00     0.029 A 
ATOM     62  C   UNL A   1      43.366  29.425  35.301  1.00  0.00     0.049 A 
ATOM     63  H   UNL A   1      42.010  29.664  33.702  1.00  0.00     0.167 HD
ATOM     64  C   UNL A   1      44.286  27.999  33.499  1.00  0.00     0.074 A 
ATOM     65  C   UNL A   1      45.281  27.103  32.945  1.00  0.00     0.031 C 
ATOM     66  C   UNL A   1      44.329  28.501  34.757  1.00  0.00     0.034 A 
BRANCH  53  67
ATOM     67  C   UNL A   1      39.717  32.414  36.039  1.00  0.00     0.023 A 
ATOM     68  C   UNL A   1      38.762  31.943  36.964  1.00  0.00     0.012 A 
ATOM     69  C   UNL A   1      40.126  33.762  36.098  1.00  0.00     0.148 A 
ATOM     70  C   UNL A   1      38.197  32.804  37.905  1.00  0.00     0.002 A 
ATOM     71  C   UNL A   1      39.594  34.601  37.071  1.00  0.00     0.091 A 
ATOM     72  F   UNL A   1      41.021  34.197  35.200  1.00  0.00    -0.205 F 
ATOM     73  C   UNL A   1      38.620  34.128  37.965  1.00  0.00     0.022 A 
BRANCH  71  74
ATOM     74  S   UNL A   1      40.135  36.301  37.286  1.00  0.00     0.127 S 
ATOM     75  O   UNL A   1      39.885  36.860  35.958  1.00  0.00    -0.237 OA
ATOM     76  O   UNL A   1      39.229  36.781  38.330  1.00  0.00    -0.237 OA
ATOM     77  O   UNL A   1      41.535  36.231  37.680  1.00  0.00    -0.744 OA
ENDBRANCH  71  74
ENDBRANCH  53  67
BRANCH  54  78
ATOM     78  C   UNL A   1      43.733  26.511  29.066  1.00  0.00     0.023 A 
ATOM     79  C   UNL A   1      43.645  25.107  29.163  1.00  0.00     0.012 A 
ATOM     80  C   UNL A   1      44.395  27.082  27.964  1.00  0.00     0.148 A 
ATOM     81  C   UNL A   1      44.239  24.289  28.202  1.00  0.00     0.002 A 
ATOM     82  C   UNL A   1      44.932  26.262  26.979  1.00  0.00     0.091 A 
ATOM     83  F   UNL A   1      44.475  28.419  27.894  1.00  0.00    -0.205 F 
ATOM     84  C   UNL A   1      44.872  24.866  27.105  1.00  0.00     0.022 A 
BRANCH  82  85
ATOM     85  S   UNL A   1      45.646  26.917  25.466  1.00  0.00     0.127 S 
ATOM     86  O   UNL A   1      44.576  27.785  24.982  1.00  0.00    -0.237 OA
ATOM     87  O   UNL A   1      46.828  27.618  25.970  1.00  0.00    -0.237 OA
ATOM     88  O   UNL A   1      45.945  25.758  24.638  1.00  0.00    -0.744 OA
ENDBRANCH  82  85
ENDBRANCH  54  78
BRANCH  66  89
ATOM     89  C   UNL A   1      45.467  28.060  35.643  1.00  0.00     0.023 A 
ATOM     90  C   UNL A   1      46.674  28.787  35.659  1.00  0.00     0.012 A 
ATOM     91  C   UNL A   1      45.323  26.942  36.488  1.00  0.00     0.148 A 
ATOM     92  C   UNL A   1      47.739  28.377  36.463  1.00  0.00     0.002 A 
ATOM     93  C   UNL A   1      46.368  26.572  37.328  1.00  0.00     0.091 A 
ATOM     94  F   UNL A   1      44.175  26.250  36.447  1.00  0.00    -0.205 F 
ATOM     95  C   UNL A   1      47.582  27.277  37.304  1.00  0.00     0.022 A 
BRANCH  93  96
ATOM     96  S   UNL A   1      46.218  25.231  38.513  1.00  0.00     0.127 S 
ATOM     97  O   UNL A   1      47.061  25.705  39.609  1.00  0.00    -0.237 OA
ATOM     98  O   UNL A   1      44.783  25.232  38.804  1.00  0.00    -0.237 OA
ATOM     99  O   UNL A   1      46.692  24.037  37.828  1.00  0.00    -0.744 OA
ENDBRANCH  93  96
ENDBRANCH  66  89
ENDBRANCH  40  41
ENDBRANCH  32  35
ENDBRANCH  30  31
ENDBRANCH  29  30
ENDBRANCH   1  29
TORSDOF 18
ENDMDL
MODEL 3
REMARK VINA RESULT:     -11.7      3.253      5.610
REMARK SMILES O=C(COc1cc(-c2ccccc2)nc(Nc2ccccc2Br)n1)NCCCNC(=O)c1ccc(-c2c3nc(c(-c4cccc(S(=O)(=O)[O-])c4F)c4ccc([nH]4)c(-c4cccc(S(=O)(=O)[O-])c4F)c4nc(c(-c5cccc(S(=O)(=O)[O-])c5F)c5ccc2[nH]5)C=C4)C=C3)cc1
REMARK SMILES IDX 26 1 25 2 1 3 2 4 3 6 4 7 5 8 6 9 24 10 7 11 15 12 14 13
REMARK SMILES IDX 8 14 9 15 13 16 10 17 12 18 11 19 16 20 17 22 18 23 22 24
REMARK SMILES IDX 19 25 21 26 23 27 20 28 27 29 28 30 29 31 30 32 31 34 32 35
REMARK SMILES IDX 33 36 94 37 34 38 93 39 35 40 36 41 37 42 87 43 38 44 92 45
REMARK SMILES IDX 86 46 88 47 39 48 91 49 85 50 84 51 40 53 72 54 52 55 71 56
REMARK SMILES IDX 53 57 56 58 70 59 89 60 54 61 55 62 69 64 90 65 57 66 41 67
REMARK SMILES IDX 42 68 50 69 43 70 45 71 51 72 44 73 46 74 47 75 48 76 49 77
REMARK SMILES IDX 73 78 74 79 82 80 75 81 77 82 83 83 76 84 78 85 79 86 80 87
REMARK SMILES IDX 81 88 58 89 59 90 67 91 60 92 62 93 68 94 61 95 63 96 64 97
REMARK SMILES IDX 65 98 66 99
REMARK H PARENT 25 5 16 21 29 33 88 52 56 63
REMARK Flexibility Score: inf
ROOT
ATOM      1  C   UNL A   1      34.398  32.699  28.711  1.00  0.00     0.117 C 
ENDROOT
BRANCH   1   2
ATOM      2  N   UNL A   1      34.106  31.500  27.948  1.00  0.00    -0.353 N 
ATOM      3  O   UNL A   1      36.289  30.821  27.668  1.00  0.00    -0.271 OA
ATOM      4  C   UNL A   1      35.086  30.594  27.588  1.00  0.00     0.258 C 
ATOM      5  H   UNL A   1      33.176  31.326  27.677  1.00  0.00     0.163 HD
BRANCH   4   6
ATOM      6  C   UNL A   1      34.534  29.232  27.160  1.00  0.00     0.331 C 
BRANCH   6   7
ATOM      7  O   UNL A   1      33.309  29.314  26.430  1.00  0.00    -0.467 OA
BRANCH   7   8
ATOM      8  C   UNL A   1      33.241  28.427  25.383  1.00  0.00     0.219 A 
ATOM      9  C   UNL A   1      33.903  27.230  25.411  1.00  0.00     0.097 A 
ATOM     10  N   UNL A   1      32.363  28.743  24.429  1.00  0.00    -0.177 NA
ATOM     11  C   UNL A   1      33.635  26.350  24.389  1.00  0.00     0.080 A 
ATOM     12  C   UNL A   1      32.174  27.847  23.446  1.00  0.00     0.231 A 
ATOM     13  N   UNL A   1      32.775  26.646  23.396  1.00  0.00    -0.212 NA
BRANCH  11  14
ATOM     14  C   UNL A   1      34.284  25.033  24.369  1.00  0.00     0.000 A 
ATOM     15  C   UNL A   1      34.320  24.260  23.200  1.00  0.00     0.010 A 
ATOM     16  C   UNL A   1      34.969  24.554  25.503  1.00  0.00     0.010 A 
ATOM     17  C   UNL A   1      35.044  23.064  23.157  1.00  0.00     0.001 A 
ATOM     18  C   UNL A   1      35.688  23.358  25.461  1.00  0.00     0.001 A 
ATOM     19  C   UNL A   1      35.731  22.618  24.284  1.00  0.00     0.000 A 
ENDBRANCH  11  14
BRANCH  12  20
ATOM     20  N   UNL A   1      31.249  28.103  22.437  1.00  0.00    -0.323 N 
ATOM     21  H   UNL A   1      31.487  27.753  21.549  1.00  0.00     0.170 HD
BRANCH  20  22
ATOM     22  C   UNL A   1      30.031  28.789  22.508  1.00  0.00     0.055 A 
ATOM     23  C   UNL A   1      29.977  30.090  21.979  1.00  0.00     0.027 A 
ATOM     24  C   UNL A   1      28.841  28.235  23.017  1.00  0.00     0.041 A 
ATOM     25  C   UNL A   1      28.778  30.809  21.942  1.00  0.00     0.002 A 
ATOM     26  C   UNL A   1      27.642  28.957  22.981  1.00  0.00     0.018 A 
ATOM     27  Br  UNL A   1      28.794  26.552  23.912  1.00  0.00    -0.049 Br
ATOM     28  C   UNL A   1      27.609  30.239  22.438  1.00  0.00     0.001 A 
ENDBRANCH  20  22
ENDBRANCH  12  20
ENDBRANCH   7   8
ENDBRANCH   6   7
ENDBRANCH   4   6
ENDBRANCH   1   2
BRANCH   1  29
ATOM     29  C   UNL A   1      33.486  33.865  28.378  1.00  0.00     0.042 C 
BRANCH  29  30
ATOM     30  C   UNL A   1      33.855  35.170  29.073  1.00  0.00     0.118 C 
BRANCH  30  31
ATOM     31  N   UNL A   1      32.987  35.498  30.197  1.00  0.00    -0.352 N 
ATOM     32  C   UNL A   1      33.126  35.207  31.533  1.00  0.00     0.251 C 
ATOM     33  H   UNL A   1      32.177  36.005  29.964  1.00  0.00     0.163 HD
ATOM     34  O   UNL A   1      32.203  35.477  32.302  1.00  0.00    -0.269 OA
BRANCH  32  35
ATOM     35  C   UNL A   1      34.350  34.552  32.049  1.00  0.00     0.039 A 
ATOM     36  C   UNL A   1      34.269  33.220  32.468  1.00  0.00     0.014 A 
ATOM     37  C   UNL A   1      35.569  35.230  32.130  1.00  0.00     0.014 A 
ATOM     38  C   UNL A   1      35.420  32.555  32.898  1.00  0.00     0.010 A 
ATOM     39  C   UNL A   1      36.731  34.540  32.475  1.00  0.00     0.010 A 
ATOM     40  C   UNL A   1      36.671  33.195  32.866  1.00  0.00    -0.014 A 
BRANCH  40  41
ATOM     41  C   UNL A   1      37.915  32.451  33.199  1.00  0.00     0.031 A 
ATOM     42  C   UNL A   1      38.688  32.750  34.455  1.00  0.00     0.074 A 
ATOM     43  C   UNL A   1      38.388  31.536  32.325  1.00  0.00     0.049 A 
ATOM     44  N   UNL A   1      39.781  32.185  34.904  1.00  0.00    -0.248 NA
ATOM     45  C   UNL A   1      38.186  33.838  35.309  1.00  0.00     0.031 C 
ATOM     46  C   UNL A   1      37.788  31.219  31.027  1.00  0.00     0.029 A 
ATOM     47  N   UNL A   1      39.488  30.718  32.390  1.00  0.00    -0.354 N 
ATOM     48  C   UNL A   1      40.112  32.863  36.071  1.00  0.00     0.074 A 
ATOM     49  C   UNL A   1      39.125  33.908  36.243  1.00  0.00     0.031 C 
ATOM     50  C   UNL A   1      38.515  30.263  30.428  1.00  0.00     0.029 A 
ATOM     51  C   UNL A   1      39.647  29.920  31.281  1.00  0.00     0.049 A 
ATOM     52  H   UNL A   1      40.105  30.704  33.157  1.00  0.00     0.167 HD
ATOM     53  C   UNL A   1      41.126  32.623  36.937  1.00  0.00     0.034 A 
ATOM     54  C   UNL A   1      40.599  29.013  30.981  1.00  0.00     0.034 A 
ATOM     55  C   UNL A   1      42.091  31.566  36.779  1.00  0.00     0.049 A 
ATOM     56  C   UNL A   1      41.685  28.735  31.981  1.00  0.00     0.074 A 
ATOM     57  C   UNL A   1      43.104  31.189  37.645  1.00  0.00     0.029 A 
ATOM     58  N   UNL A   1      42.175  30.726  35.680  1.00  0.00    -0.354 N 
ATOM     59  N   UNL A   1      41.884  29.275  33.158  1.00  0.00    -0.248 NA
ATOM     60  C   UNL A   1      42.655  27.687  31.630  1.00  0.00     0.031 C 
ATOM     61  C   UNL A   1      43.819  30.143  37.053  1.00  0.00     0.029 A 
ATOM     62  C   UNL A   1      43.227  29.839  35.839  1.00  0.00     0.049 A 
ATOM     63  H   UNL A   1      41.574  30.754  34.901  1.00  0.00     0.167 HD
ATOM     64  C   UNL A   1      42.976  28.610  33.704  1.00  0.00     0.074 A 
ATOM     65  C   UNL A   1      43.379  27.609  32.738  1.00  0.00     0.031 C 
ATOM     66  C   UNL A   1      43.596  28.818  34.891  1.00  0.00     0.034 A 
BRANCH  53  67
ATOM     67  C   UNL A   1      41.221  33.493  38.166  1.00  0.00     0.023 A 
ATOM     68  C   UNL A   1      40.551  33.109  39.346  1.00  0.00     0.012 A 
ATOM     69  C   UNL A   1      42.022  34.653  38.174  1.00  0.00     0.148 A 
ATOM     70  C   UNL A   1      40.646  33.882  40.503  1.00  0.00     0.002 A 
ATOM     71  C   UNL A   1      42.150  35.392  39.345  1.00  0.00     0.091 A 
ATOM     72  F   UNL A   1      42.636  35.014  37.039  1.00  0.00    -0.205 F 
ATOM     73  C   UNL A   1      41.453  35.017  40.506  1.00  0.00     0.022 A 
BRANCH  71  74
ATOM     74  S   UNL A   1      43.232  36.820  39.477  1.00  0.00     0.127 S 
ATOM     75  O   UNL A   1      42.617  37.744  38.524  1.00  0.00    -0.237 OA
ATOM     76  O   UNL A   1      43.072  37.198  40.882  1.00  0.00    -0.237 OA
ATOM     77  O   UNL A   1      44.563  36.352  39.120  1.00  0.00    -0.744 OA
ENDBRANCH  71  74
ENDBRANCH  53  67
BRANCH  54  78
ATOM     78  C   UNL A   1      40.526  28.254  29.700  1.00  0.00     0.023 A 
ATOM     79  C   UNL A   1      39.499  27.307  29.510  1.00  0.00     0.012 A 
ATOM     80  C   UNL A   1      41.451  28.480  28.664  1.00  0.00     0.148 A 
ATOM     81  C   UNL A   1      39.421  26.571  28.327  1.00  0.00     0.002 A 
ATOM     82  C   UNL A   1      41.330  27.787  27.465  1.00  0.00     0.091 A 
ATOM     83  F   UNL A   1      42.424  29.379  28.867  1.00  0.00    -0.205 F 
ATOM     84  C   UNL A   1      40.328  26.818  27.302  1.00  0.00     0.022 A 
BRANCH  82  85
ATOM     85  S   UNL A   1      42.370  28.138  26.043  1.00  0.00     0.127 S 
ATOM     86  O   UNL A   1      43.697  27.805  26.553  1.00  0.00    -0.237 OA
ATOM     87  O   UNL A   1      41.840  27.204  25.047  1.00  0.00    -0.237 OA
ATOM     88  O   UNL A   1      42.145  29.541  25.727  1.00  0.00    -0.744 OA
ENDBRANCH  82  85
ENDBRANCH  54  78
BRANCH  66  89
ATOM     89  C   UNL A   1      44.754  27.915  35.238  1.00  0.00     0.023 A 
ATOM     90  C   UNL A   1      46.077  28.337  34.999  1.00  0.00     0.012 A 
ATOM     91  C   UNL A   1      44.528  26.659  35.834  1.00  0.00     0.148 A 
ATOM     92  C   UNL A   1      47.154  27.503  35.301  1.00  0.00     0.002 A 
ATOM     93  C   UNL A   1      45.608  25.856  36.183  1.00  0.00     0.091 A 
ATOM     94  F   UNL A   1      43.262  26.263  36.037  1.00  0.00    -0.205 F 
ATOM     95  C   UNL A   1      46.919  26.268  35.901  1.00  0.00     0.022 A 
BRANCH  93  96
ATOM     96  S   UNL A   1      45.403  24.296  37.049  1.00  0.00     0.127 S 
ATOM     97  O   UNL A   1      46.789  23.864  37.220  1.00  0.00    -0.237 OA
ATOM     98  O   UNL A   1      44.738  24.711  38.285  1.00  0.00    -0.237 OA
ATOM     99  O   UNL A   1      44.587  23.459  36.180  1.00  0.00    -0.744 OA
ENDBRANCH  93  96
ENDBRANCH  66  89
ENDBRANCH  40  41
ENDBRANCH  32  35
ENDBRANCH  30  31
ENDBRANCH  29  30
ENDBRANCH   1  29
TORSDOF 18
ENDMDL
