MODEL 1
REMARK VINA RESULT:     -12.8      0.000      0.000
REMARK SMILES C[C@@H]1[C@@H](C(=O)NCCCNC(=O)c2ccc(-c3c4nc(c(-c5cccc(S(=O)(=O)[O-])c5F)c5ccc([nH]5)c(-c5cccc(S(=O)(=O)[O-])c5F)c5nc(c(-c6cccc(S(=O)(=O)[O-])c6F)c6ccc3[nH]6)C=C5)C=C4)cc2)CCN1C(=O)N1CCC[C@H]2CCC[C@@H]21
REMARK SMILES IDX 8 1 7 2 6 3 4 4 5 5 3 7 1 8 2 9 78 10 76 11 77 12 79 13
REMARK SMILES IDX 80 14 81 15 82 16 89 17 83 18 85 19 88 20 84 21 86 22 87 23
REMARK SMILES IDX 9 24 10 25 11 26 12 28 13 29 14 30 75 31 15 32 74 33 16 34
REMARK SMILES IDX 17 35 18 36 68 37 19 38 73 39 67 40 69 41 20 42 72 43 66 44
REMARK SMILES IDX 65 45 21 47 53 48 33 49 52 50 34 51 37 52 51 53 70 54 35 55
REMARK SMILES IDX 36 56 50 58 71 59 38 60 22 61 23 62 31 63 24 64 26 65 32 66
REMARK SMILES IDX 25 67 27 68 28 69 29 70 30 71 54 72 55 73 63 74 56 75 58 76
REMARK SMILES IDX 64 77 57 78 59 79 60 80 61 81 62 82 39 83 40 84 48 85 41 86
REMARK SMILES IDX 43 87 49 88 42 89 44 90 45 91 46 92 47 93
REMARK H PARENT 6 6 10 27 69 46 37 57
REMARK Flexibility Score: inf
ROOT
ATOM      1  C   UNL A   1      31.687  31.791  26.612  1.00  0.00     0.042 C 
ENDROOT
BRANCH   1   2
ATOM      2  C   UNL A   1      31.948  30.326  26.317  1.00  0.00     0.117 C 
BRANCH   2   3
ATOM      3  N   UNL A   1      32.389  30.067  24.958  1.00  0.00    -0.356 N 
ATOM      4  C   UNL A   1      32.182  28.965  24.179  1.00  0.00     0.225 C 
ATOM      5  O   UNL A   1      32.608  28.993  23.025  1.00  0.00    -0.275 OA
ATOM      6  H   UNL A   1      32.912  30.788  24.539  1.00  0.00     0.163 HD
BRANCH   4   7
ATOM      7  C   UNL A   1      31.536  27.732  24.798  1.00  0.00     0.102 C 
ATOM      8  C   UNL A   1      32.185  25.769  26.188  1.00  0.00     0.032 C 
ATOM      9  C   UNL A   1      32.527  26.548  24.911  1.00  0.00     0.096 C 
ATOM     10  N   UNL A   1      32.304  25.770  23.671  1.00  0.00    -0.321 N 
ATOM     11  C   UNL A   1      30.394  27.120  23.980  1.00  0.00     0.037 C 
ATOM     12  C   UNL A   1      31.101  26.214  22.998  1.00  0.00     0.122 C 
BRANCH  10  13
ATOM     13  C   UNL A   1      33.242  25.120  22.883  1.00  0.00     0.320 C 
ATOM     14  O   UNL A   1      33.933  25.724  22.062  1.00  0.00    -0.248 OA
BRANCH  13  15
ATOM     15  N   UNL A   1      33.449  23.793  23.152  1.00  0.00    -0.321 N 
ATOM     16  C   UNL A   1      32.859  22.747  22.333  1.00  0.00     0.121 C 
ATOM     17  C   UNL A   1      34.591  23.339  23.920  1.00  0.00     0.090 C 
ATOM     18  C   UNL A   1      32.369  21.587  23.206  1.00  0.00     0.022 C 
ATOM     19  C   UNL A   1      34.066  22.304  24.918  1.00  0.00     0.012 C 
ATOM     20  C   UNL A   1      35.338  24.303  24.833  1.00  0.00     0.025 C 
ATOM     21  C   UNL A   1      33.455  21.109  24.188  1.00  0.00     0.007 C 
ATOM     22  C   UNL A   1      35.272  22.037  25.801  1.00  0.00     0.006 C 
ATOM     23  C   UNL A   1      35.986  23.394  25.887  1.00  0.00     0.002 C 
ENDBRANCH  13  15
ENDBRANCH  10  13
ENDBRANCH   4   7
ENDBRANCH   2   3
ENDBRANCH   1   2
BRANCH   1  24
ATOM     24  C   UNL A   1      32.824  32.517  27.311  1.00  0.00     0.118 C 
BRANCH  24  25
ATOM     25  N   UNL A   1      32.528  33.910  27.619  1.00  0.00    -0.352 N 
ATOM     26  C   UNL A   1      33.083  34.760  28.551  1.00  0.00     0.251 C 
ATOM     27  H   UNL A   1      31.815  34.310  27.070  1.00  0.00     0.163 HD
ATOM     28  O   UNL A   1      32.590  35.864  28.730  1.00  0.00    -0.269 OA
BRANCH  26  29
ATOM     29  C   UNL A   1      34.247  34.326  29.360  1.00  0.00     0.039 A 
ATOM     30  C   UNL A   1      34.020  33.700  30.589  1.00  0.00     0.014 A 
ATOM     31  C   UNL A   1      35.553  34.523  28.913  1.00  0.00     0.014 A 
ATOM     32  C   UNL A   1      35.100  33.189  31.318  1.00  0.00     0.010 A 
ATOM     33  C   UNL A   1      36.612  33.913  29.578  1.00  0.00     0.010 A 
ATOM     34  C   UNL A   1      36.401  33.245  30.793  1.00  0.00    -0.014 A 
BRANCH  34  35
ATOM     35  C   UNL A   1      37.554  32.615  31.489  1.00  0.00     0.031 A 
ATOM     36  C   UNL A   1      38.285  31.460  30.854  1.00  0.00     0.074 A 
ATOM     37  C   UNL A   1      37.883  33.013  32.735  1.00  0.00     0.049 A 
ATOM     38  N   UNL A   1      39.257  30.732  31.340  1.00  0.00    -0.248 NA
ATOM     39  C   UNL A   1      37.846  31.047  29.511  1.00  0.00     0.031 C 
ATOM     40  C   UNL A   1      37.202  34.063  33.498  1.00  0.00     0.029 A 
ATOM     41  N   UNL A   1      38.858  32.566  33.592  1.00  0.00    -0.354 N 
ATOM     42  C   UNL A   1      39.515  29.756  30.385  1.00  0.00     0.074 A 
ATOM     43  C   UNL A   1      38.569  29.955  29.311  1.00  0.00     0.031 C 
ATOM     44  C   UNL A   1      37.787  34.186  34.701  1.00  0.00     0.029 A 
ATOM     45  C   UNL A   1      38.859  33.202  34.812  1.00  0.00     0.049 A 
ATOM     46  H   UNL A   1      39.498  31.855  33.356  1.00  0.00     0.167 HD
ATOM     47  C   UNL A   1      40.474  28.798  30.383  1.00  0.00     0.034 A 
ATOM     48  C   UNL A   1      39.627  33.011  35.902  1.00  0.00     0.034 A 
ATOM     49  C   UNL A   1      41.445  28.631  31.429  1.00  0.00     0.049 A 
ATOM     50  C   UNL A   1      40.710  31.967  35.859  1.00  0.00     0.074 A 
ATOM     51  C   UNL A   1      42.511  27.752  31.479  1.00  0.00     0.029 A 
ATOM     52  N   UNL A   1      41.467  29.354  32.611  1.00  0.00    -0.354 N 
ATOM     53  N   UNL A   1      41.036  31.156  34.882  1.00  0.00    -0.248 NA
ATOM     54  C   UNL A   1      41.555  31.834  37.056  1.00  0.00     0.031 C 
ATOM     55  C   UNL A   1      43.162  27.923  32.704  1.00  0.00     0.029 A 
ATOM     56  C   UNL A   1      42.522  28.934  33.403  1.00  0.00     0.049 A 
ATOM     57  H   UNL A   1      40.826  30.062  32.852  1.00  0.00     0.167 HD
ATOM     58  C   UNL A   1      42.146  30.447  35.329  1.00  0.00     0.074 A 
ATOM     59  C   UNL A   1      42.447  30.938  36.657  1.00  0.00     0.031 C 
ATOM     60  C   UNL A   1      42.844  29.468  34.701  1.00  0.00     0.034 A 
BRANCH  47  61
ATOM     61  C   UNL A   1      40.552  27.889  29.183  1.00  0.00     0.023 A 
ATOM     62  C   UNL A   1      39.674  26.790  29.081  1.00  0.00     0.012 A 
ATOM     63  C   UNL A   1      41.453  28.152  28.131  1.00  0.00     0.148 A 
ATOM     64  C   UNL A   1      39.717  25.945  27.974  1.00  0.00     0.002 A 
ATOM     65  C   UNL A   1      41.456  27.334  27.008  1.00  0.00     0.091 A 
ATOM     66  F   UNL A   1      42.293  29.189  28.254  1.00  0.00    -0.205 F 
ATOM     67  C   UNL A   1      40.599  26.223  26.933  1.00  0.00     0.022 A 
BRANCH  65  68
ATOM     68  S   UNL A   1      42.494  27.653  25.577  1.00  0.00     0.127 S 
ATOM     69  O   UNL A   1      43.822  27.717  26.186  1.00  0.00    -0.237 OA
ATOM     70  O   UNL A   1      42.256  26.467  24.755  1.00  0.00    -0.237 OA
ATOM     71  O   UNL A   1      42.012  28.900  25.000  1.00  0.00    -0.744 OA
ENDBRANCH  65  68
ENDBRANCH  47  61
BRANCH  48  72
ATOM     72  C   UNL A   1      39.446  33.872  37.106  1.00  0.00     0.023 A 
ATOM     73  C   UNL A   1      39.892  35.208  37.075  1.00  0.00     0.012 A 
ATOM     74  C   UNL A   1      38.819  33.386  38.270  1.00  0.00     0.148 A 
ATOM     75  C   UNL A   1      39.751  36.033  38.191  1.00  0.00     0.002 A 
ATOM     76  C   UNL A   1      38.629  34.230  39.358  1.00  0.00     0.091 A 
ATOM     77  F   UNL A   1      38.408  32.110  38.284  1.00  0.00    -0.205 F 
ATOM     78  C   UNL A   1      39.111  35.548  39.329  1.00  0.00     0.022 A 
BRANCH  76  79
ATOM     79  S   UNL A   1      37.700  33.733  40.813  1.00  0.00     0.127 S 
ATOM     80  O   UNL A   1      36.520  33.112  40.218  1.00  0.00    -0.237 OA
ATOM     81  O   UNL A   1      38.627  32.805  41.461  1.00  0.00    -0.237 OA
ATOM     82  O   UNL A   1      37.457  34.959  41.563  1.00  0.00    -0.744 OA
ENDBRANCH  76  79
ENDBRANCH  48  72
BRANCH  60  83
ATOM     83  C   UNL A   1      44.035  28.888  35.417  1.00  0.00     0.023 A 
ATOM     84  C   UNL A   1      45.309  29.466  35.249  1.00  0.00     0.012 A 
ATOM     85  C   UNL A   1      43.875  27.816  36.318  1.00  0.00     0.148 A 
ATOM     86  C   UNL A   1      46.411  28.963  35.940  1.00  0.00     0.002 A 
ATOM     87  C   UNL A   1      44.967  27.355  37.042  1.00  0.00     0.091 A 
ATOM     88  F   UNL A   1      42.657  27.269  36.451  1.00  0.00    -0.205 F 
ATOM     89  C   UNL A   1      46.238  27.918  36.844  1.00  0.00     0.022 A 
BRANCH  87  90
ATOM     90  S   UNL A   1      44.822  26.082  38.300  1.00  0.00     0.127 S 
ATOM     91  O   UNL A   1      46.210  25.927  38.730  1.00  0.00    -0.237 OA
ATOM     92  O   UNL A   1      43.944  26.716  39.283  1.00  0.00    -0.237 OA
ATOM     93  O   UNL A   1      44.242  24.922  37.634  1.00  0.00    -0.744 OA
ENDBRANCH  87  90
ENDBRANCH  60  83
ENDBRANCH  34  35
ENDBRANCH  26  29
ENDBRANCH  24  25
ENDBRANCH   1  24
TORSDOF 15
ENDMDL
MODEL 2
REMARK VINA RESULT:     -12.6      6.246     11.542
REMARK SMILES C[C@@H]1[C@@H](C(=O)NCCCNC(=O)c2ccc(-c3c4nc(c(-c5cccc(S(=O)(=O)[O-])c5F)c5ccc([nH]5)c(-c5cccc(S(=O)(=O)[O-])c5F)c5nc(c(-c6cccc(S(=O)(=O)[O-])c6F)c6ccc3[nH]6)C=C5)C=C4)cc2)CCN1C(=O)N1CCC[C@H]2CCC[C@@H]21
REMARK SMILES IDX 8 1 7 2 6 3 4 4 5 5 3 7 1 8 2 9 78 10 76 11 77 12 79 13
REMARK SMILES IDX 80 14 81 15 82 16 89 17 83 18 85 19 88 20 84 21 86 22 87 23
REMARK SMILES IDX 9 24 10 25 11 26 12 28 13 29 14 30 75 31 15 32 74 33 16 34
REMARK SMILES IDX 17 35 18 36 68 37 19 38 73 39 67 40 69 41 20 42 72 43 66 44
REMARK SMILES IDX 65 45 21 47 53 48 33 49 52 50 34 51 37 52 51 53 70 54 35 55
REMARK SMILES IDX 36 56 50 58 71 59 38 60 22 61 23 62 31 63 24 64 26 65 32 66
REMARK SMILES IDX 25 67 27 68 28 69 29 70 30 71 54 72 55 73 63 74 56 75 58 76
REMARK SMILES IDX 64 77 57 78 59 79 60 80 61 81 62 82 39 83 40 84 48 85 41 86
REMARK SMILES IDX 43 87 49 88 42 89 44 90 45 91 46 92 47 93
REMARK H PARENT 6 6 10 27 69 46 37 57
REMARK Flexibility Score: inf
ROOT
ATOM      1  C   UNL A   1      37.411  19.440  24.696  1.00  0.00     0.042 C 
ENDROOT
BRANCH   1   2
ATOM      2  C   UNL A   1      36.027  20.052  24.799  1.00  0.00     0.117 C 
BRANCH   2   3
ATOM      3  N   UNL A   1      35.932  21.138  25.759  1.00  0.00    -0.356 N 
ATOM      4  C   UNL A   1      35.090  22.213  25.763  1.00  0.00     0.225 C 
ATOM      5  O   UNL A   1      35.154  22.984  26.720  1.00  0.00    -0.275 OA
ATOM      6  H   UNL A   1      36.563  21.092  26.513  1.00  0.00     0.163 HD
BRANCH   4   7
ATOM      7  C   UNL A   1      34.200  22.462  24.552  1.00  0.00     0.102 C 
ATOM      8  C   UNL A   1      33.471  24.361  23.115  1.00  0.00     0.032 C 
ATOM      9  C   UNL A   1      33.574  23.878  24.567  1.00  0.00     0.096 C 
ATOM     10  N   UNL A   1      32.258  23.684  25.218  1.00  0.00    -0.321 N 
ATOM     11  C   UNL A   1      32.962  21.563  24.463  1.00  0.00     0.037 C 
ATOM     12  C   UNL A   1      31.939  22.275  25.317  1.00  0.00     0.122 C 
BRANCH  10  13
ATOM     13  C   UNL A   1      31.608  24.524  26.109  1.00  0.00     0.320 C 
ATOM     14  O   UNL A   1      31.552  24.276  27.314  1.00  0.00    -0.248 OA
BRANCH  13  15
ATOM     15  N   UNL A   1      31.137  25.706  25.600  1.00  0.00    -0.321 N 
ATOM     16  C   UNL A   1      29.739  25.881  25.242  1.00  0.00     0.121 C 
ATOM     17  C   UNL A   1      31.831  26.960  25.817  1.00  0.00     0.090 C 
ATOM     18  C   UNL A   1      29.609  26.685  23.945  1.00  0.00     0.022 C 
ATOM     19  C   UNL A   1      31.855  27.687  24.471  1.00  0.00     0.012 C 
ATOM     20  C   UNL A   1      33.305  26.968  26.204  1.00  0.00     0.025 C 
ATOM     21  C   UNL A   1      30.436  27.984  23.990  1.00  0.00     0.007 C 
ATOM     22  C   UNL A   1      32.762  28.875  24.739  1.00  0.00     0.006 C 
ATOM     23  C   UNL A   1      33.809  28.337  25.724  1.00  0.00     0.002 C 
ENDBRANCH  13  15
ENDBRANCH  10  13
ENDBRANCH   4   7
ENDBRANCH   2   3
ENDBRANCH   1   2
BRANCH   1  24
ATOM     24  C   UNL A   1      38.463  20.080  25.586  1.00  0.00     0.118 C 
BRANCH  24  25
ATOM     25  N   UNL A   1      39.637  19.244  25.800  1.00  0.00    -0.352 N 
ATOM     26  C   UNL A   1      40.915  19.576  26.196  1.00  0.00     0.251 C 
ATOM     27  H   UNL A   1      39.494  18.284  25.635  1.00  0.00     0.163 HD
ATOM     28  O   UNL A   1      41.791  18.723  26.187  1.00  0.00    -0.269 OA
BRANCH  26  29
ATOM     29  C   UNL A   1      41.238  20.967  26.595  1.00  0.00     0.039 A 
ATOM     30  C   UNL A   1      42.041  21.179  27.719  1.00  0.00     0.014 A 
ATOM     31  C   UNL A   1      40.765  22.058  25.865  1.00  0.00     0.014 A 
ATOM     32  C   UNL A   1      42.443  22.477  28.050  1.00  0.00     0.010 A 
ATOM     33  C   UNL A   1      41.261  23.331  26.124  1.00  0.00     0.010 A 
ATOM     34  C   UNL A   1      42.099  23.559  27.224  1.00  0.00    -0.014 A 
BRANCH  34  35
ATOM     35  C   UNL A   1      42.602  24.934  27.486  1.00  0.00     0.031 A 
ATOM     36  C   UNL A   1      41.710  25.958  28.139  1.00  0.00     0.074 A 
ATOM     37  C   UNL A   1      43.827  25.294  27.048  1.00  0.00     0.049 A 
ATOM     38  N   UNL A   1      41.941  27.224  28.374  1.00  0.00    -0.248 NA
ATOM     39  C   UNL A   1      40.370  25.510  28.553  1.00  0.00     0.031 C 
ATOM     40  C   UNL A   1      44.758  24.424  26.326  1.00  0.00     0.029 A 
ATOM     41  N   UNL A   1      44.490  26.494  27.122  1.00  0.00    -0.354 N 
ATOM     42  C   UNL A   1      40.768  27.730  28.922  1.00  0.00     0.074 A 
ATOM     43  C   UNL A   1      39.811  26.647  28.944  1.00  0.00     0.031 C 
ATOM     44  C   UNL A   1      45.874  25.114  26.036  1.00  0.00     0.029 A 
ATOM     45  C   UNL A   1      45.725  26.484  26.516  1.00  0.00     0.049 A 
ATOM     46  H   UNL A   1      44.116  27.289  27.568  1.00  0.00     0.167 HD
ATOM     47  C   UNL A   1      40.516  28.974  29.396  1.00  0.00     0.034 A 
ATOM     48  C   UNL A   1      46.633  27.466  26.355  1.00  0.00     0.034 A 
ATOM     49  C   UNL A   1      41.484  30.036  29.418  1.00  0.00     0.049 A 
ATOM     50  C   UNL A   1      46.344  28.829  26.925  1.00  0.00     0.074 A 
ATOM     51  C   UNL A   1      41.357  31.303  29.959  1.00  0.00     0.029 A 
ATOM     52  N   UNL A   1      42.756  29.960  28.872  1.00  0.00    -0.354 N 
ATOM     53  N   UNL A   1      45.285  29.243  27.577  1.00  0.00    -0.248 NA
ATOM     54  C   UNL A   1      47.389  29.851  26.768  1.00  0.00     0.031 C 
ATOM     55  C   UNL A   1      42.542  32.003  29.715  1.00  0.00     0.029 A 
ATOM     56  C   UNL A   1      43.421  31.160  29.054  1.00  0.00     0.049 A 
ATOM     57  H   UNL A   1      43.131  29.169  28.422  1.00  0.00     0.167 HD
ATOM     58  C   UNL A   1      45.552  30.557  27.944  1.00  0.00     0.074 A 
ATOM     59  C   UNL A   1      46.881  30.864  27.456  1.00  0.00     0.031 C 
ATOM     60  C   UNL A   1      44.764  31.435  28.611  1.00  0.00     0.034 A 
BRANCH  47  61
ATOM     61  C   UNL A   1      39.152  29.237  29.980  1.00  0.00     0.023 A 
ATOM     62  C   UNL A   1      38.838  28.749  31.266  1.00  0.00     0.012 A 
ATOM     63  C   UNL A   1      38.202  30.013  29.287  1.00  0.00     0.148 A 
ATOM     64  C   UNL A   1      37.589  28.993  31.835  1.00  0.00     0.002 A 
ATOM     65  C   UNL A   1      36.978  30.294  29.881  1.00  0.00     0.091 A 
ATOM     66  F   UNL A   1      38.511  30.453  28.058  1.00  0.00    -0.205 F 
ATOM     67  C   UNL A   1      36.665  29.775  31.147  1.00  0.00     0.022 A 
BRANCH  65  68
ATOM     68  S   UNL A   1      35.750  31.359  29.116  1.00  0.00     0.127 S 
ATOM     69  O   UNL A   1      35.104  30.439  28.181  1.00  0.00    -0.237 OA
ATOM     70  O   UNL A   1      34.925  31.746  30.260  1.00  0.00    -0.237 OA
ATOM     71  O   UNL A   1      36.491  32.453  28.503  1.00  0.00    -0.744 OA
ENDBRANCH  65  68
ENDBRANCH  47  61
BRANCH  48  72
ATOM     72  C   UNL A   1      47.931  27.182  25.679  1.00  0.00     0.023 A 
ATOM     73  C   UNL A   1      49.005  26.668  26.433  1.00  0.00     0.012 A 
ATOM     74  C   UNL A   1      48.104  27.396  24.299  1.00  0.00     0.148 A 
ATOM     75  C   UNL A   1      50.237  26.407  25.833  1.00  0.00     0.002 A 
ATOM     76  C   UNL A   1      49.317  27.080  23.695  1.00  0.00     0.091 A 
ATOM     77  F   UNL A   1      47.074  27.893  23.599  1.00  0.00    -0.205 F 
ATOM     78  C   UNL A   1      50.391  26.604  24.463  1.00  0.00     0.022 A 
BRANCH  76  79
ATOM     79  S   UNL A   1      49.563  27.175  21.918  1.00  0.00     0.127 S 
ATOM     80  O   UNL A   1      48.634  26.158  21.432  1.00  0.00    -0.237 OA
ATOM     81  O   UNL A   1      49.172  28.556  21.633  1.00  0.00    -0.237 OA
ATOM     82  O   UNL A   1      50.976  26.895  21.701  1.00  0.00    -0.744 OA
ENDBRANCH  76  79
ENDBRANCH  48  72
BRANCH  60  83
ATOM     83  C   UNL A   1      45.326  32.802  28.901  1.00  0.00     0.023 A 
ATOM     84  C   UNL A   1      46.053  33.029  30.086  1.00  0.00     0.012 A 
ATOM     85  C   UNL A   1      45.199  33.842  27.958  1.00  0.00     0.148 A 
ATOM     86  C   UNL A   1      46.614  34.279  30.344  1.00  0.00     0.002 A 
ATOM     87  C   UNL A   1      45.805  35.069  28.198  1.00  0.00     0.091 A 
ATOM     88  F   UNL A   1      44.489  33.611  26.844  1.00  0.00    -0.205 F 
ATOM     89  C   UNL A   1      46.501  35.293  29.396  1.00  0.00     0.022 A 
BRANCH  87  90
ATOM     90  S   UNL A   1      45.798  36.400  26.993  1.00  0.00     0.127 S 
ATOM     91  O   UNL A   1      46.728  37.353  27.595  1.00  0.00    -0.237 OA
ATOM     92  O   UNL A   1      46.299  35.733  25.791  1.00  0.00    -0.237 OA
ATOM     93  O   UNL A   1      44.415  36.851  26.900  1.00  0.00    -0.744 OA
ENDBRANCH  87  90
ENDBRANCH  60  83
ENDBRANCH  34  35
ENDBRANCH  26  29
ENDBRANCH  24  25
ENDBRANCH   1  24
TORSDOF 15
ENDMDL
MODEL 3
REMARK VINA RESULT:     -12.6      2.252      7.894
REMARK SMILES C[C@@H]1[C@@H](C(=O)NCCCNC(=O)c2ccc(-c3c4nc(c(-c5cccc(S(=O)(=O)[O-])c5F)c5ccc([nH]5)c(-c5cccc(S(=O)(=O)[O-])c5F)c5nc(c(-c6cccc(S(=O)(=O)[O-])c6F)c6ccc3[nH]6)C=C5)C=C4)cc2)CCN1C(=O)N1CCC[C@H]2CCC[C@@H]21
REMARK SMILES IDX 8 1 7 2 6 3 4 4 5 5 3 7 1 8 2 9 78 10 76 11 77 12 79 13
REMARK SMILES IDX 80 14 81 15 82 16 89 17 83 18 85 19 88 20 84 21 86 22 87 23
REMARK SMILES IDX 9 24 10 25 11 26 12 28 13 29 14 30 75 31 15 32 74 33 16 34
REMARK SMILES IDX 17 35 18 36 68 37 19 38 73 39 67 40 69 41 20 42 72 43 66 44
REMARK SMILES IDX 65 45 21 47 53 48 33 49 52 50 34 51 37 52 51 53 70 54 35 55
REMARK SMILES IDX 36 56 50 58 71 59 38 60 22 61 23 62 31 63 24 64 26 65 32 66
REMARK SMILES IDX 25 67 27 68 28 69 29 70 30 71 54 72 55 73 63 74 56 75 58 76
REMARK SMILES IDX 64 77 57 78 59 79 60 80 61 81 62 82 39 83 40 84 48 85 41 86
REMARK SMILES IDX 43 87 49 88 42 89 44 90 45 91 46 92 47 93
REMARK H PARENT 6 6 10 27 69 46 37 57
REMARK Flexibility Score: inf
ROOT
ATOM      1  C   UNL A   1      32.184  29.772  25.174  1.00  0.00     0.042 C 
ENDROOT
BRANCH   1   2
ATOM      2  C   UNL A   1      30.861  29.865  24.436  1.00  0.00     0.117 C 
BRANCH   2   3
ATOM      3  N   UNL A   1      30.814  29.089  23.210  1.00  0.00    -0.356 N 
ATOM      4  C   UNL A   1      30.741  27.735  23.049  1.00  0.00     0.225 C 
ATOM      5  O   UNL A   1      30.654  27.300  21.901  1.00  0.00    -0.275 OA
ATOM      6  H   UNL A   1      30.837  29.613  22.377  1.00  0.00     0.163 HD
BRANCH   4   7
ATOM      7  C   UNL A   1      30.875  26.836  24.272  1.00  0.00     0.102 C 
ATOM      8  C   UNL A   1      32.657  25.978  25.786  1.00  0.00     0.032 C 
ATOM      9  C   UNL A   1      32.242  26.109  24.315  1.00  0.00     0.096 C 
ATOM     10  N   UNL A   1      31.980  24.807  23.660  1.00  0.00    -0.321 N 
ATOM     11  C   UNL A   1      29.886  25.667  24.326  1.00  0.00     0.037 C 
ATOM     12  C   UNL A   1      30.556  24.590  23.504  1.00  0.00     0.122 C 
BRANCH  10  13
ATOM     13  C   UNL A   1      32.806  24.093  22.806  1.00  0.00     0.320 C 
ATOM     14  O   UNL A   1      33.263  24.591  21.776  1.00  0.00    -0.248 OA
BRANCH  13  15
ATOM     15  N   UNL A   1      33.187  22.847  23.227  1.00  0.00    -0.321 N 
ATOM     16  C   UNL A   1      32.546  21.641  22.729  1.00  0.00     0.121 C 
ATOM     17  C   UNL A   1      34.499  22.601  23.793  1.00  0.00     0.090 C 
ATOM     18  C   UNL A   1      32.355  20.623  23.857  1.00  0.00     0.022 C 
ATOM     19  C   UNL A   1      34.288  21.725  25.029  1.00  0.00     0.012 C 
ATOM     20  C   UNL A   1      35.321  23.752  24.362  1.00  0.00     0.025 C 
ATOM     21  C   UNL A   1      33.658  20.388  24.644  1.00  0.00     0.007 C 
ATOM     22  C   UNL A   1      35.667  21.687  25.663  1.00  0.00     0.006 C 
ATOM     23  C   UNL A   1      36.251  23.079  25.381  1.00  0.00     0.002 C 
ENDBRANCH  13  15
ENDBRANCH  10  13
ENDBRANCH   4   7
ENDBRANCH   2   3
ENDBRANCH   1   2
BRANCH   1  24
ATOM     24  C   UNL A   1      32.134  30.190  26.634  1.00  0.00     0.118 C 
BRANCH  24  25
ATOM     25  N   UNL A   1      32.164  31.633  26.831  1.00  0.00    -0.352 N 
ATOM     26  C   UNL A   1      33.087  32.433  27.469  1.00  0.00     0.251 C 
ATOM     27  H   UNL A   1      31.397  32.117  26.445  1.00  0.00     0.163 HD
ATOM     28  O   UNL A   1      32.847  33.621  27.631  1.00  0.00    -0.269 OA
BRANCH  26  29
ATOM     29  C   UNL A   1      34.348  31.852  27.989  1.00  0.00     0.039 A 
ATOM     30  C   UNL A   1      35.427  32.702  28.248  1.00  0.00     0.014 A 
ATOM     31  C   UNL A   1      34.469  30.484  28.232  1.00  0.00     0.014 A 
ATOM     32  C   UNL A   1      36.588  32.189  28.838  1.00  0.00     0.010 A 
ATOM     33  C   UNL A   1      35.573  29.999  28.925  1.00  0.00     0.010 A 
ATOM     34  C   UNL A   1      36.651  30.843  29.229  1.00  0.00    -0.014 A 
BRANCH  34  35
ATOM     35  C   UNL A   1      37.826  30.293  29.958  1.00  0.00     0.031 A 
ATOM     36  C   UNL A   1      38.128  30.747  31.362  1.00  0.00     0.074 A 
ATOM     37  C   UNL A   1      38.677  29.461  29.323  1.00  0.00     0.049 A 
ATOM     38  N   UNL A   1      39.146  30.443  32.126  1.00  0.00    -0.248 NA
ATOM     39  C   UNL A   1      37.181  31.690  31.979  1.00  0.00     0.031 C 
ATOM     40  C   UNL A   1      38.547  29.010  27.936  1.00  0.00     0.029 A 
ATOM     41  N   UNL A   1      39.838  28.865  29.754  1.00  0.00    -0.354 N 
ATOM     42  C   UNL A   1      38.984  31.187  33.289  1.00  0.00     0.074 A 
ATOM     43  C   UNL A   1      37.794  31.989  33.115  1.00  0.00     0.031 C 
ATOM     44  C   UNL A   1      39.576  28.201  27.635  1.00  0.00     0.029 A 
ATOM     45  C   UNL A   1      40.460  28.104  28.792  1.00  0.00     0.049 A 
ATOM     46  H   UNL A   1      40.191  28.973  30.667  1.00  0.00     0.167 HD
ATOM     47  C   UNL A   1      39.736  31.181  34.416  1.00  0.00     0.034 A 
ATOM     48  C   UNL A   1      41.616  27.413  28.830  1.00  0.00     0.034 A 
ATOM     49  C   UNL A   1      40.890  30.347  34.606  1.00  0.00     0.049 A 
ATOM     50  C   UNL A   1      42.413  27.392  30.107  1.00  0.00     0.074 A 
ATOM     51  C   UNL A   1      41.665  30.199  35.743  1.00  0.00     0.029 A 
ATOM     52  N   UNL A   1      41.440  29.522  33.637  1.00  0.00    -0.354 N 
ATOM     53  N   UNL A   1      42.157  27.982  31.249  1.00  0.00    -0.248 NA
ATOM     54  C   UNL A   1      43.639  26.580  30.113  1.00  0.00     0.031 C 
ATOM     55  C   UNL A   1      42.702  29.307  35.451  1.00  0.00     0.029 A 
ATOM     56  C   UNL A   1      42.551  28.871  34.145  1.00  0.00     0.049 A 
ATOM     57  H   UNL A   1      41.092  29.416  32.723  1.00  0.00     0.167 HD
ATOM     58  C   UNL A   1      43.165  27.583  32.119  1.00  0.00     0.074 A 
ATOM     59  C   UNL A   1      44.025  26.685  31.377  1.00  0.00     0.031 C 
ATOM     60  C   UNL A   1      43.368  27.938  33.412  1.00  0.00     0.034 A 
BRANCH  47  61
ATOM     61  C   UNL A   1      39.298  32.067  35.554  1.00  0.00     0.023 A 
ATOM     62  C   UNL A   1      38.423  31.560  36.537  1.00  0.00     0.012 A 
ATOM     63  C   UNL A   1      39.796  33.379  35.685  1.00  0.00     0.148 A 
ATOM     64  C   UNL A   1      38.017  32.355  37.608  1.00  0.00     0.002 A 
ATOM     65  C   UNL A   1      39.426  34.148  36.781  1.00  0.00     0.091 A 
ATOM     66  F   UNL A   1      40.612  33.851  34.732  1.00  0.00    -0.205 F 
ATOM     67  C   UNL A   1      38.527  33.644  37.736  1.00  0.00     0.022 A 
BRANCH  65  68
ATOM     68  S   UNL A   1      40.090  35.790  37.084  1.00  0.00     0.127 S 
ATOM     69  O   UNL A   1      39.660  36.507  35.884  1.00  0.00    -0.237 OA
ATOM     70  O   UNL A   1      39.395  36.180  38.310  1.00  0.00    -0.237 OA
ATOM     71  O   UNL A   1      41.529  35.621  37.228  1.00  0.00    -0.744 OA
ENDBRANCH  65  68
ENDBRANCH  47  61
BRANCH  48  72
ATOM     72  C   UNL A   1      42.059  26.629  27.642  1.00  0.00     0.023 A 
ATOM     73  C   UNL A   1      42.793  27.271  26.624  1.00  0.00     0.012 A 
ATOM     74  C   UNL A   1      41.780  25.254  27.522  1.00  0.00     0.148 A 
ATOM     75  C   UNL A   1      43.207  26.567  25.493  1.00  0.00     0.002 A 
ATOM     76  C   UNL A   1      42.246  24.546  26.420  1.00  0.00     0.091 A 
ATOM     77  F   UNL A   1      41.074  24.662  28.497  1.00  0.00    -0.205 F 
ATOM     78  C   UNL A   1      42.942  25.204  25.395  1.00  0.00     0.022 A 
BRANCH  76  79
ATOM     79  S   UNL A   1      42.068  22.765  26.272  1.00  0.00     0.127 S 
ATOM     80  O   UNL A   1      42.790  22.293  27.451  1.00  0.00    -0.237 OA
ATOM     81  O   UNL A   1      40.615  22.601  26.331  1.00  0.00    -0.237 OA
ATOM     82  O   UNL A   1      42.659  22.415  24.988  1.00  0.00    -0.744 OA
ENDBRANCH  76  79
ENDBRANCH  48  72
BRANCH  60  83
ATOM     83  C   UNL A   1      44.539  27.323  34.132  1.00  0.00     0.023 A 
ATOM     84  C   UNL A   1      45.804  27.941  34.079  1.00  0.00     0.012 A 
ATOM     85  C   UNL A   1      44.365  26.171  34.926  1.00  0.00     0.148 A 
ATOM     86  C   UNL A   1      46.885  27.403  34.776  1.00  0.00     0.002 A 
ATOM     87  C   UNL A   1      45.434  25.672  35.660  1.00  0.00     0.091 A 
ATOM     88  F   UNL A   1      43.157  25.588  34.950  1.00  0.00    -0.205 F 
ATOM     89  C   UNL A   1      46.697  26.278  35.575  1.00  0.00     0.022 A 
BRANCH  87  90
ATOM     90  S   UNL A   1      45.263  24.288  36.792  1.00  0.00     0.127 S 
ATOM     91  O   UNL A   1      44.288  24.806  37.750  1.00  0.00    -0.237 OA
ATOM     92  O   UNL A   1      44.758  23.231  35.916  1.00  0.00    -0.237 OA
ATOM     93  O   UNL A   1      46.595  24.041  37.329  1.00  0.00    -0.744 OA
ENDBRANCH  87  90
ENDBRANCH  60  83
ENDBRANCH  34  35
ENDBRANCH  26  29
ENDBRANCH  24  25
ENDBRANCH   1  24
TORSDOF 15
ENDMDL
