MODEL 1
REMARK VINA RESULT:     -11.0      0.000      0.000
REMARK SMILES O=C1NC(=O)/C(=C/c2ccc(OCc3cn(-c4ccc(C(=O)NCCCNC(=O)c5ccc(-c6c7nc(c(-c8cccc(S(=O)(=O)[O-])c8F)c8ccc([nH]8)c(-c8cccc(S(=O)(=O)[O-])c8F)c8nc(c(-c9cccc(S(=O)(=O)[O-])c9F)c9ccc6[nH]9)C=C8)C=C7)cc5)cc4)nn3)cc2)S1
REMARK SMILES IDX 24 1 23 2 21 3 22 4 20 6 17 7 18 8 94 9 19 10 93 11 16 12
REMARK SMILES IDX 14 13 15 14 96 15 95 16 13 17 12 18 11 19 8 20 9 21 98 22
REMARK SMILES IDX 10 23 97 24 7 25 1 26 2 27 3 28 99 29 4 30 6 32 5 33 25 34
REMARK SMILES IDX 26 35 27 36 28 37 29 39 30 40 31 41 92 42 32 43 91 44 33 45
REMARK SMILES IDX 34 46 35 47 85 48 36 49 90 50 84 51 86 52 37 53 89 54 83 55
REMARK SMILES IDX 82 56 38 58 70 59 50 60 69 61 51 62 54 63 68 64 87 65 52 66
REMARK SMILES IDX 53 67 67 69 88 70 55 71 39 72 40 73 48 74 41 75 43 76 49 77
REMARK SMILES IDX 42 78 44 79 45 80 46 81 47 82 71 83 72 84 80 85 73 86 75 87
REMARK SMILES IDX 81 88 74 89 76 90 77 91 78 92 79 93 56 94 57 95 65 96 58 97
REMARK SMILES IDX 60 98 66 99 59 100 61 101 62 102 63 103 64 104
REMARK H PARENT 23 5 3 31 27 38 86 57 54 68
REMARK Flexibility Score: inf
ROOT
ATOM      1  C   UNL A   1      35.451  34.184  33.518  1.00  0.00     0.118 C 
ENDROOT
BRANCH   1   2
ATOM      2  N   UNL A   1      35.909  33.339  34.607  1.00  0.00    -0.352 N 
ATOM      3  C   UNL A   1      37.164  32.945  34.999  1.00  0.00     0.251 C 
ATOM      4  O   UNL A   1      37.275  32.382  36.084  1.00  0.00    -0.269 OA
ATOM      5  H   UNL A   1      35.183  32.983  35.170  1.00  0.00     0.163 HD
BRANCH   3   6
ATOM      6  C   UNL A   1      38.394  33.249  34.218  1.00  0.00     0.039 A 
ATOM      7  C   UNL A   1      40.558  34.083  32.660  1.00  0.00     0.066 A 
ATOM      8  C   UNL A   1      40.227  34.794  33.819  1.00  0.00     0.029 A 
ATOM      9  C   UNL A   1      39.885  32.913  32.329  1.00  0.00     0.029 A 
ATOM     10  C   UNL A   1      39.125  34.392  34.574  1.00  0.00     0.016 A 
ATOM     11  C   UNL A   1      38.854  32.476  33.150  1.00  0.00     0.016 A 
BRANCH   7  12
ATOM     12  N   UNL A   1      41.585  34.541  31.822  1.00  0.00    -0.220 N 
ATOM     13  C   UNL A   1      42.844  35.072  30.126  1.00  0.00     0.120 A 
ATOM     14  C   UNL A   1      41.604  34.563  30.444  1.00  0.00     0.144 A 
ATOM     15  N   UNL A   1      43.496  35.379  31.290  1.00  0.00    -0.131 NA
ATOM     16  N   UNL A   1      42.711  35.090  32.310  1.00  0.00    -0.062 NA
BRANCH  13  17
ATOM     17  C   UNL A   1      43.447  35.420  28.807  1.00  0.00     0.289 C 
BRANCH  17  18
ATOM     18  O   UNL A   1      42.653  36.260  27.951  1.00  0.00    -0.487 OA
BRANCH  18  19
ATOM     19  C   UNL A   1      43.114  37.512  27.652  1.00  0.00     0.119 A 
ATOM     20  C   UNL A   1      43.698  40.131  26.812  1.00  0.00    -0.024 A 
ATOM     21  C   UNL A   1      42.518  39.863  27.509  1.00  0.00     0.012 A 
ATOM     22  C   UNL A   1      44.623  39.103  26.627  1.00  0.00     0.012 A 
ATOM     23  C   UNL A   1      42.226  38.556  27.917  1.00  0.00     0.047 A 
ATOM     24  C   UNL A   1      44.350  37.814  27.083  1.00  0.00     0.047 A 
BRANCH  20  25
ATOM     25  C   UNL A   1      43.985  41.474  26.302  1.00  0.00     0.029 C 
ATOM     26  O   UNL A   1      41.166  43.151  22.473  1.00  0.00    -0.261 OA
ATOM     27  C   UNL A   1      41.958  42.950  23.388  1.00  0.00     0.290 C 
ATOM     28  N   UNL A   1      42.957  43.787  23.754  1.00  0.00    -0.282 N 
ATOM     29  S   UNL A   1      41.965  41.530  24.409  1.00  0.00    -0.022 SA
ATOM     30  C   UNL A   1      43.761  43.413  24.789  1.00  0.00     0.265 C 
ATOM     31  H   UNL A   1      43.099  44.641  23.286  1.00  0.00     0.174 HD
ATOM     32  C   UNL A   1      43.332  42.085  25.303  1.00  0.00     0.083 C 
ATOM     33  O   UNL A   1      44.701  44.064  25.214  1.00  0.00    -0.268 OA
ENDBRANCH  20  25
ENDBRANCH  18  19
ENDBRANCH  17  18
ENDBRANCH  13  17
ENDBRANCH   7  12
ENDBRANCH   3   6
ENDBRANCH   1   2
BRANCH   1  34
ATOM     34  C   UNL A   1      34.382  33.496  32.655  1.00  0.00     0.042 C 
BRANCH  34  35
ATOM     35  C   UNL A   1      34.971  32.355  31.859  1.00  0.00     0.118 C 
BRANCH  35  36
ATOM     36  N   UNL A   1      34.494  32.344  30.463  1.00  0.00    -0.352 N 
ATOM     37  C   UNL A   1      35.188  31.991  29.315  1.00  0.00     0.251 C 
ATOM     38  H   UNL A   1      33.561  32.625  30.328  1.00  0.00     0.163 HD
ATOM     39  O   UNL A   1      34.794  32.327  28.205  1.00  0.00    -0.269 OA
BRANCH  37  40
ATOM     40  C   UNL A   1      36.401  31.176  29.476  1.00  0.00     0.039 A 
ATOM     41  C   UNL A   1      36.431  29.781  29.424  1.00  0.00     0.014 A 
ATOM     42  C   UNL A   1      37.572  31.901  29.588  1.00  0.00     0.014 A 
ATOM     43  C   UNL A   1      37.677  29.160  29.462  1.00  0.00     0.010 A 
ATOM     44  C   UNL A   1      38.718  31.324  29.165  1.00  0.00     0.010 A 
ATOM     45  C   UNL A   1      38.819  29.964  29.344  1.00  0.00    -0.014 A 
BRANCH  45  46
ATOM     46  C   UNL A   1      40.180  29.474  29.359  1.00  0.00     0.031 A 
ATOM     47  C   UNL A   1      40.700  29.243  30.722  1.00  0.00     0.074 A 
ATOM     48  C   UNL A   1      40.765  28.992  28.234  1.00  0.00     0.049 A 
ATOM     49  N   UNL A   1      41.553  29.970  31.359  1.00  0.00    -0.248 NA
ATOM     50  C   UNL A   1      40.044  28.220  31.554  1.00  0.00     0.031 C 
ATOM     51  C   UNL A   1      40.193  28.810  26.886  1.00  0.00     0.029 A 
ATOM     52  N   UNL A   1      41.974  28.397  28.105  1.00  0.00    -0.354 N 
ATOM     53  C   UNL A   1      41.753  29.314  32.568  1.00  0.00     0.074 A 
ATOM     54  C   UNL A   1      40.624  28.438  32.736  1.00  0.00     0.031 C 
ATOM     55  C   UNL A   1      40.937  27.914  26.196  1.00  0.00     0.029 A 
ATOM     56  C   UNL A   1      42.115  27.595  26.977  1.00  0.00     0.049 A 
ATOM     57  H   UNL A   1      42.697  28.522  28.760  1.00  0.00     0.167 HD
ATOM     58  C   UNL A   1      42.976  29.312  33.167  1.00  0.00     0.034 A 
ATOM     59  C   UNL A   1      43.101  26.686  26.762  1.00  0.00     0.034 A 
ATOM     60  C   UNL A   1      43.865  30.264  32.542  1.00  0.00     0.049 A 
ATOM     61  C   UNL A   1      44.214  27.047  27.678  1.00  0.00     0.074 A 
ATOM     62  C   UNL A   1      43.807  31.620  32.281  1.00  0.00     0.029 A 
ATOM     63  N   UNL A   1      44.807  29.757  31.675  1.00  0.00    -0.354 N 
ATOM     64  N   UNL A   1      44.873  28.172  27.587  1.00  0.00    -0.248 NA
ATOM     65  C   UNL A   1      44.232  26.414  28.990  1.00  0.00     0.031 C 
ATOM     66  C   UNL A   1      44.308  31.751  30.951  1.00  0.00     0.029 A 
ATOM     67  C   UNL A   1      44.731  30.492  30.520  1.00  0.00     0.049 A 
ATOM     68  H   UNL A   1      45.420  29.007  31.853  1.00  0.00     0.167 HD
ATOM     69  C   UNL A   1      44.982  28.616  28.900  1.00  0.00     0.074 A 
ATOM     70  C   UNL A   1      44.647  27.451  29.725  1.00  0.00     0.031 C 
ATOM     71  C   UNL A   1      45.010  29.948  29.207  1.00  0.00     0.034 A 
BRANCH  58  72
ATOM     72  C   UNL A   1      43.516  28.196  34.028  1.00  0.00     0.023 A 
ATOM     73  C   UNL A   1      44.102  28.570  35.258  1.00  0.00     0.012 A 
ATOM     74  C   UNL A   1      43.732  26.870  33.591  1.00  0.00     0.148 A 
ATOM     75  C   UNL A   1      44.910  27.688  35.982  1.00  0.00     0.002 A 
ATOM     76  C   UNL A   1      44.471  25.973  34.352  1.00  0.00     0.091 A 
ATOM     77  F   UNL A   1      43.349  26.494  32.368  1.00  0.00    -0.205 F 
ATOM     78  C   UNL A   1      45.091  26.387  35.531  1.00  0.00     0.022 A 
BRANCH  76  79
ATOM     79  S   UNL A   1      44.703  24.268  33.837  1.00  0.00     0.127 S 
ATOM     80  O   UNL A   1      45.683  23.801  34.812  1.00  0.00    -0.237 OA
ATOM     81  O   UNL A   1      43.354  23.723  34.000  1.00  0.00    -0.237 OA
ATOM     82  O   UNL A   1      45.153  24.337  32.453  1.00  0.00    -0.744 OA
ENDBRANCH  76  79
ENDBRANCH  58  72
BRANCH  59  83
ATOM     83  C   UNL A   1      43.017  25.359  26.094  1.00  0.00     0.023 A 
ATOM     84  C   UNL A   1      43.901  25.033  25.045  1.00  0.00     0.012 A 
ATOM     85  C   UNL A   1      42.258  24.311  26.664  1.00  0.00     0.148 A 
ATOM     86  C   UNL A   1      44.040  23.710  24.598  1.00  0.00     0.002 A 
ATOM     87  C   UNL A   1      42.395  23.001  26.213  1.00  0.00     0.091 A 
ATOM     88  F   UNL A   1      41.471  24.585  27.713  1.00  0.00    -0.205 F 
ATOM     89  C   UNL A   1      43.293  22.693  25.185  1.00  0.00     0.022 A 
BRANCH  87  90
ATOM     90  S   UNL A   1      41.481  21.636  26.947  1.00  0.00     0.127 S 
ATOM     91  O   UNL A   1      41.585  20.611  25.906  1.00  0.00    -0.237 OA
ATOM     92  O   UNL A   1      42.258  21.365  28.152  1.00  0.00    -0.237 OA
ATOM     93  O   UNL A   1      40.132  22.142  27.162  1.00  0.00    -0.744 OA
ENDBRANCH  87  90
ENDBRANCH  59  83
BRANCH  71  94
ATOM     94  C   UNL A   1      45.095  30.951  28.079  1.00  0.00     0.023 A 
ATOM     95  C   UNL A   1      43.953  31.495  27.452  1.00  0.00     0.012 A 
ATOM     96  C   UNL A   1      46.350  31.507  27.783  1.00  0.00     0.148 A 
ATOM     97  C   UNL A   1      44.060  32.552  26.542  1.00  0.00     0.002 A 
ATOM     98  C   UNL A   1      46.452  32.583  26.910  1.00  0.00     0.091 A 
ATOM     99  F   UNL A   1      47.428  30.993  28.395  1.00  0.00    -0.205 F 
ATOM    100  C   UNL A   1      45.310  33.104  26.279  1.00  0.00     0.022 A 
BRANCH  98 101
ATOM    101  S   UNL A   1      48.015  33.413  26.622  1.00  0.00     0.127 S 
ATOM    102  O   UNL A   1      47.662  34.374  25.580  1.00  0.00    -0.237 OA
ATOM    103  O   UNL A   1      48.302  34.004  27.930  1.00  0.00    -0.237 OA
ATOM    104  O   UNL A   1      48.955  32.372  26.222  1.00  0.00    -0.744 OA
ENDBRANCH  98 101
ENDBRANCH  71  94
ENDBRANCH  45  46
ENDBRANCH  37  40
ENDBRANCH  35  36
ENDBRANCH  34  35
ENDBRANCH   1  34
TORSDOF 18
ENDMDL
MODEL 2
REMARK VINA RESULT:     -10.5      2.264      2.772
REMARK SMILES O=C1NC(=O)/C(=C/c2ccc(OCc3cn(-c4ccc(C(=O)NCCCNC(=O)c5ccc(-c6c7nc(c(-c8cccc(S(=O)(=O)[O-])c8F)c8ccc([nH]8)c(-c8cccc(S(=O)(=O)[O-])c8F)c8nc(c(-c9cccc(S(=O)(=O)[O-])c9F)c9ccc6[nH]9)C=C8)C=C7)cc5)cc4)nn3)cc2)S1
REMARK SMILES IDX 24 1 23 2 21 3 22 4 20 6 17 7 18 8 94 9 19 10 93 11 16 12
REMARK SMILES IDX 14 13 15 14 96 15 95 16 13 17 12 18 11 19 8 20 9 21 98 22
REMARK SMILES IDX 10 23 97 24 7 25 1 26 2 27 3 28 99 29 4 30 6 32 5 33 25 34
REMARK SMILES IDX 26 35 27 36 28 37 29 39 30 40 31 41 92 42 32 43 91 44 33 45
REMARK SMILES IDX 34 46 35 47 85 48 36 49 90 50 84 51 86 52 37 53 89 54 83 55
REMARK SMILES IDX 82 56 38 58 70 59 50 60 69 61 51 62 54 63 68 64 87 65 52 66
REMARK SMILES IDX 53 67 67 69 88 70 55 71 39 72 40 73 48 74 41 75 43 76 49 77
REMARK SMILES IDX 42 78 44 79 45 80 46 81 47 82 71 83 72 84 80 85 73 86 75 87
REMARK SMILES IDX 81 88 74 89 76 90 77 91 78 92 79 93 56 94 57 95 65 96 58 97
REMARK SMILES IDX 60 98 66 99 59 100 61 101 62 102 63 103 64 104
REMARK H PARENT 23 5 3 31 27 38 86 57 54 68
REMARK Flexibility Score: inf
ROOT
ATOM      1  C   UNL A   1      35.782  34.224  33.852  1.00  0.00     0.118 C 
ENDROOT
BRANCH   1   2
ATOM      2  N   UNL A   1      36.213  33.195  34.781  1.00  0.00    -0.352 N 
ATOM      3  C   UNL A   1      37.451  32.669  35.059  1.00  0.00     0.251 C 
ATOM      4  O   UNL A   1      37.556  31.939  36.041  1.00  0.00    -0.269 OA
ATOM      5  H   UNL A   1      35.483  32.801  35.311  1.00  0.00     0.163 HD
BRANCH   3   6
ATOM      6  C   UNL A   1      38.675  33.014  34.285  1.00  0.00     0.039 A 
ATOM      7  C   UNL A   1      40.818  33.920  32.739  1.00  0.00     0.066 A 
ATOM      8  C   UNL A   1      40.451  34.626  33.889  1.00  0.00     0.029 A 
ATOM      9  C   UNL A   1      40.193  32.722  32.411  1.00  0.00     0.029 A 
ATOM     10  C   UNL A   1      39.358  34.186  34.639  1.00  0.00     0.016 A 
ATOM     11  C   UNL A   1      39.173  32.252  33.227  1.00  0.00     0.016 A 
BRANCH   7  12
ATOM     12  N   UNL A   1      41.834  34.410  31.906  1.00  0.00    -0.220 N 
ATOM     13  C   UNL A   1      43.040  35.076  30.219  1.00  0.00     0.120 A 
ATOM     14  C   UNL A   1      41.780  34.625  30.545  1.00  0.00     0.144 A 
ATOM     15  N   UNL A   1      43.778  35.165  31.370  1.00  0.00    -0.131 NA
ATOM     16  N   UNL A   1      43.027  34.796  32.390  1.00  0.00    -0.062 NA
BRANCH  13  17
ATOM     17  C   UNL A   1      43.599  35.558  28.923  1.00  0.00     0.289 C 
BRANCH  17  18
ATOM     18  O   UNL A   1      42.766  36.459  28.173  1.00  0.00    -0.487 OA
BRANCH  18  19
ATOM     19  C   UNL A   1      42.891  37.803  28.391  1.00  0.00     0.119 A 
ATOM     20  C   UNL A   1      43.221  40.459  29.252  1.00  0.00    -0.024 A 
ATOM     21  C   UNL A   1      44.230  39.520  29.470  1.00  0.00     0.012 A 
ATOM     22  C   UNL A   1      42.095  40.085  28.517  1.00  0.00     0.012 A 
ATOM     23  C   UNL A   1      44.059  38.195  29.049  1.00  0.00     0.047 A 
ATOM     24  C   UNL A   1      41.954  38.777  28.054  1.00  0.00     0.047 A 
BRANCH  20  25
ATOM     25  C   UNL A   1      43.342  41.828  29.757  1.00  0.00     0.029 C 
ATOM     26  O   UNL A   1      42.002  42.659  34.546  1.00  0.00    -0.261 OA
ATOM     27  C   UNL A   1      42.375  42.686  33.378  1.00  0.00     0.290 C 
ATOM     28  N   UNL A   1      42.723  43.801  32.694  1.00  0.00    -0.282 N 
ATOM     29  S   UNL A   1      42.530  41.281  32.347  1.00  0.00    -0.022 SA
ATOM     30  C   UNL A   1      43.109  43.663  31.394  1.00  0.00     0.265 C 
ATOM     31  H   UNL A   1      42.697  44.687  33.124  1.00  0.00     0.174 HD
ATOM     32  C   UNL A   1      43.046  42.230  31.002  1.00  0.00     0.083 C 
ATOM     33  O   UNL A   1      43.436  44.581  30.662  1.00  0.00    -0.268 OA
ENDBRANCH  20  25
ENDBRANCH  18  19
ENDBRANCH  17  18
ENDBRANCH  13  17
ENDBRANCH   7  12
ENDBRANCH   3   6
ENDBRANCH   1   2
BRANCH   1  34
ATOM     34  C   UNL A   1      34.677  33.730  32.906  1.00  0.00     0.042 C 
BRANCH  34  35
ATOM     35  C   UNL A   1      35.105  32.484  32.166  1.00  0.00     0.118 C 
BRANCH  35  36
ATOM     36  N   UNL A   1      34.572  32.440  30.792  1.00  0.00    -0.352 N 
ATOM     37  C   UNL A   1      35.207  32.026  29.630  1.00  0.00     0.251 C 
ATOM     38  H   UNL A   1      33.642  32.746  30.683  1.00  0.00     0.163 HD
ATOM     39  O   UNL A   1      34.779  32.336  28.526  1.00  0.00    -0.269 OA
BRANCH  37  40
ATOM     40  C   UNL A   1      36.401  31.179  29.772  1.00  0.00     0.039 A 
ATOM     41  C   UNL A   1      36.384  29.783  29.794  1.00  0.00     0.014 A 
ATOM     42  C   UNL A   1      37.599  31.868  29.784  1.00  0.00     0.014 A 
ATOM     43  C   UNL A   1      37.609  29.122  29.801  1.00  0.00     0.010 A 
ATOM     44  C   UNL A   1      38.701  31.231  29.334  1.00  0.00     0.010 A 
ATOM     45  C   UNL A   1      38.769  29.879  29.581  1.00  0.00    -0.014 A 
BRANCH  45  46
ATOM     46  C   UNL A   1      40.112  29.344  29.552  1.00  0.00     0.031 A 
ATOM     47  C   UNL A   1      40.671  29.102  30.898  1.00  0.00     0.074 A 
ATOM     48  C   UNL A   1      40.641  28.838  28.411  1.00  0.00     0.049 A 
ATOM     49  N   UNL A   1      41.569  29.802  31.501  1.00  0.00    -0.248 NA
ATOM     50  C   UNL A   1      40.010  28.106  31.757  1.00  0.00     0.031 C 
ATOM     51  C   UNL A   1      40.018  28.668  27.084  1.00  0.00     0.029 A 
ATOM     52  N   UNL A   1      41.824  28.201  28.243  1.00  0.00    -0.354 N 
ATOM     53  C   UNL A   1      41.788  29.146  32.706  1.00  0.00     0.074 A 
ATOM     54  C   UNL A   1      40.637  28.309  32.918  1.00  0.00     0.031 C 
ATOM     55  C   UNL A   1      40.707  27.745  26.373  1.00  0.00     0.029 A 
ATOM     56  C   UNL A   1      41.900  27.390  27.115  1.00  0.00     0.049 A 
ATOM     57  H   UNL A   1      42.574  28.305  28.873  1.00  0.00     0.167 HD
ATOM     58  C   UNL A   1      43.031  29.105  33.262  1.00  0.00     0.034 A 
ATOM     59  C   UNL A   1      42.847  26.447  26.872  1.00  0.00     0.034 A 
ATOM     60  C   UNL A   1      43.929  30.024  32.602  1.00  0.00     0.049 A 
ATOM     61  C   UNL A   1      44.002  26.775  27.748  1.00  0.00     0.074 A 
ATOM     62  C   UNL A   1      43.908  31.380  32.335  1.00  0.00     0.029 A 
ATOM     63  N   UNL A   1      44.823  29.482  31.706  1.00  0.00    -0.354 N 
ATOM     64  N   UNL A   1      44.695  27.876  27.627  1.00  0.00    -0.248 NA
ATOM     65  C   UNL A   1      44.044  26.148  29.062  1.00  0.00     0.031 C 
ATOM     66  C   UNL A   1      44.367  31.488  30.988  1.00  0.00     0.029 A 
ATOM     67  C   UNL A   1      44.732  30.213  30.550  1.00  0.00     0.049 A 
ATOM     68  H   UNL A   1      45.416  28.713  31.867  1.00  0.00     0.167 HD
ATOM     69  C   UNL A   1      44.864  28.323  28.933  1.00  0.00     0.074 A 
ATOM     70  C   UNL A   1      44.518  27.173  29.776  1.00  0.00     0.031 C 
ATOM     71  C   UNL A   1      44.947  29.655  29.231  1.00  0.00     0.034 A 
BRANCH  58  72
ATOM     72  C   UNL A   1      43.563  27.976  34.111  1.00  0.00     0.023 A 
ATOM     73  C   UNL A   1      43.175  26.668  33.745  1.00  0.00     0.012 A 
ATOM     74  C   UNL A   1      44.172  28.134  35.376  1.00  0.00     0.148 A 
ATOM     75  C   UNL A   1      43.329  25.587  34.618  1.00  0.00     0.002 A 
ATOM     76  C   UNL A   1      44.396  27.045  36.208  1.00  0.00     0.091 A 
ATOM     77  F   UNL A   1      44.418  29.356  35.857  1.00  0.00    -0.205 F 
ATOM     78  C   UNL A   1      43.945  25.774  35.849  1.00  0.00     0.022 A 
BRANCH  76  79
ATOM     79  S   UNL A   1      45.224  27.224  37.792  1.00  0.00     0.127 S 
ATOM     80  O   UNL A   1      45.206  25.850  38.286  1.00  0.00    -0.237 OA
ATOM     81  O   UNL A   1      46.539  27.722  37.385  1.00  0.00    -0.237 OA
ATOM     82  O   UNL A   1      44.428  28.187  38.541  1.00  0.00    -0.744 OA
ENDBRANCH  76  79
ENDBRANCH  58  72
BRANCH  59  83
ATOM     83  C   UNL A   1      42.696  25.121  26.215  1.00  0.00     0.023 A 
ATOM     84  C   UNL A   1      43.688  24.645  25.334  1.00  0.00     0.012 A 
ATOM     85  C   UNL A   1      41.718  24.202  26.662  1.00  0.00     0.148 A 
ATOM     86  C   UNL A   1      43.719  23.301  24.932  1.00  0.00     0.002 A 
ATOM     87  C   UNL A   1      41.749  22.871  26.256  1.00  0.00     0.091 A 
ATOM     88  F   UNL A   1      40.812  24.612  27.559  1.00  0.00    -0.205 F 
ATOM     89  C   UNL A   1      42.754  22.412  25.397  1.00  0.00     0.022 A 
BRANCH  87  90
ATOM     90  S   UNL A   1      40.550  21.663  26.840  1.00  0.00     0.127 S 
ATOM     91  O   UNL A   1      40.962  20.457  26.121  1.00  0.00    -0.237 OA
ATOM     92  O   UNL A   1      40.817  21.643  28.275  1.00  0.00    -0.237 OA
ATOM     93  O   UNL A   1      39.248  22.186  26.446  1.00  0.00    -0.744 OA
ENDBRANCH  87  90
ENDBRANCH  59  83
BRANCH  71  94
ATOM     94  C   UNL A   1      45.027  30.649  28.095  1.00  0.00     0.023 A 
ATOM     95  C   UNL A   1      43.885  31.118  27.409  1.00  0.00     0.012 A 
ATOM     96  C   UNL A   1      46.260  31.274  27.850  1.00  0.00     0.148 A 
ATOM     97  C   UNL A   1      43.974  32.170  26.492  1.00  0.00     0.002 A 
ATOM     98  C   UNL A   1      46.339  32.345  26.969  1.00  0.00     0.091 A 
ATOM     99  F   UNL A   1      47.335  30.831  28.518  1.00  0.00    -0.205 F 
ATOM    100  C   UNL A   1      45.200  32.792  26.279  1.00  0.00     0.022 A 
BRANCH  98 101
ATOM    101  S   UNL A   1      47.864  33.261  26.742  1.00  0.00     0.127 S 
ATOM    102  O   UNL A   1      48.825  32.193  26.482  1.00  0.00    -0.237 OA
ATOM    103  O   UNL A   1      47.555  34.103  25.583  1.00  0.00    -0.237 OA
ATOM    104  O   UNL A   1      48.074  34.006  27.978  1.00  0.00    -0.744 OA
ENDBRANCH  98 101
ENDBRANCH  71  94
ENDBRANCH  45  46
ENDBRANCH  37  40
ENDBRANCH  35  36
ENDBRANCH  34  35
ENDBRANCH   1  34
TORSDOF 18
ENDMDL
MODEL 3
REMARK VINA RESULT:     -10.4      4.313      9.853
REMARK SMILES O=C1NC(=O)/C(=C/c2ccc(OCc3cn(-c4ccc(C(=O)NCCCNC(=O)c5ccc(-c6c7nc(c(-c8cccc(S(=O)(=O)[O-])c8F)c8ccc([nH]8)c(-c8cccc(S(=O)(=O)[O-])c8F)c8nc(c(-c9cccc(S(=O)(=O)[O-])c9F)c9ccc6[nH]9)C=C8)C=C7)cc5)cc4)nn3)cc2)S1
REMARK SMILES IDX 24 1 23 2 21 3 22 4 20 6 17 7 18 8 94 9 19 10 93 11 16 12
REMARK SMILES IDX 14 13 15 14 96 15 95 16 13 17 12 18 11 19 8 20 9 21 98 22
REMARK SMILES IDX 10 23 97 24 7 25 1 26 2 27 3 28 99 29 4 30 6 32 5 33 25 34
REMARK SMILES IDX 26 35 27 36 28 37 29 39 30 40 31 41 92 42 32 43 91 44 33 45
REMARK SMILES IDX 34 46 35 47 85 48 36 49 90 50 84 51 86 52 37 53 89 54 83 55
REMARK SMILES IDX 82 56 38 58 70 59 50 60 69 61 51 62 54 63 68 64 87 65 52 66
REMARK SMILES IDX 53 67 67 69 88 70 55 71 39 72 40 73 48 74 41 75 43 76 49 77
REMARK SMILES IDX 42 78 44 79 45 80 46 81 47 82 71 83 72 84 80 85 73 86 75 87
REMARK SMILES IDX 81 88 74 89 76 90 77 91 78 92 79 93 56 94 57 95 65 96 58 97
REMARK SMILES IDX 60 98 66 99 59 100 61 101 62 102 63 103 64 104
REMARK H PARENT 23 5 3 31 27 38 86 57 54 68
REMARK Flexibility Score: inf
ROOT
ATOM      1  C   UNL A   1      33.047  36.914  31.296  1.00  0.00     0.118 C 
ENDROOT
BRANCH   1   2
ATOM      2  N   UNL A   1      33.509  37.428  30.019  1.00  0.00    -0.352 N 
ATOM      3  C   UNL A   1      33.838  36.804  28.841  1.00  0.00     0.251 C 
ATOM      4  O   UNL A   1      34.012  37.505  27.849  1.00  0.00    -0.269 OA
ATOM      5  H   UNL A   1      33.604  38.408  29.992  1.00  0.00     0.163 HD
BRANCH   3   6
ATOM      6  C   UNL A   1      33.902  35.323  28.695  1.00  0.00     0.039 A 
ATOM      7  C   UNL A   1      34.246  32.594  28.205  1.00  0.00     0.066 A 
ATOM      8  C   UNL A   1      35.271  33.319  28.822  1.00  0.00     0.029 A 
ATOM      9  C   UNL A   1      33.024  33.194  27.922  1.00  0.00     0.029 A 
ATOM     10  C   UNL A   1      35.106  34.689  29.034  1.00  0.00     0.016 A 
ATOM     11  C   UNL A   1      32.846  34.535  28.232  1.00  0.00     0.016 A 
BRANCH   7  12
ATOM     12  N   UNL A   1      34.438  31.246  27.873  1.00  0.00    -0.220 N 
ATOM     13  C   UNL A   1      34.305  29.241  27.030  1.00  0.00     0.120 A 
ATOM     14  C   UNL A   1      33.753  30.500  26.938  1.00  0.00     0.144 A 
ATOM     15  N   UNL A   1      35.314  29.280  27.956  1.00  0.00    -0.131 NA
ATOM     16  N   UNL A   1      35.412  30.506  28.432  1.00  0.00    -0.062 NA
BRANCH  13  17
ATOM     17  C   UNL A   1      34.058  28.006  26.233  1.00  0.00     0.289 C 
BRANCH  17  18
ATOM     18  O   UNL A   1      32.733  27.453  26.320  1.00  0.00    -0.487 OA
BRANCH  18  19
ATOM     19  C   UNL A   1      32.536  26.158  25.923  1.00  0.00     0.119 A 
ATOM     20  C   UNL A   1      32.321  23.391  25.477  1.00  0.00    -0.024 A 
ATOM     21  C   UNL A   1      31.775  23.962  26.629  1.00  0.00     0.012 A 
ATOM     22  C   UNL A   1      32.884  24.224  24.510  1.00  0.00     0.012 A 
ATOM     23  C   UNL A   1      31.892  25.339  26.852  1.00  0.00     0.047 A 
ATOM     24  C   UNL A   1      32.951  25.602  24.715  1.00  0.00     0.047 A 
BRANCH  20  25
ATOM     25  C   UNL A   1      32.284  21.943  25.263  1.00  0.00     0.029 C 
ATOM     26  O   UNL A   1      36.701  19.534  24.944  1.00  0.00    -0.261 OA
ATOM     27  C   UNL A   1      35.533  19.907  24.989  1.00  0.00     0.290 C 
ATOM     28  N   UNL A   1      34.453  19.122  24.771  1.00  0.00    -0.282 N 
ATOM     29  S   UNL A   1      35.023  21.543  25.338  1.00  0.00    -0.022 SA
ATOM     30  C   UNL A   1      33.218  19.694  24.849  1.00  0.00     0.265 C 
ATOM     31  H   UNL A   1      34.556  18.166  24.563  1.00  0.00     0.174 HD
ATOM     32  C   UNL A   1      33.354  21.141  25.166  1.00  0.00     0.083 C 
ATOM     33  O   UNL A   1      32.164  19.108  24.666  1.00  0.00    -0.268 OA
ENDBRANCH  20  25
ENDBRANCH  18  19
ENDBRANCH  17  18
ENDBRANCH  13  17
ENDBRANCH   7  12
ENDBRANCH   3   6
ENDBRANCH   1   2
BRANCH   1  34
ATOM     34  C   UNL A   1      33.959  37.334  32.459  1.00  0.00     0.042 C 
BRANCH  34  35
ATOM     35  C   UNL A   1      34.606  36.135  33.109  1.00  0.00     0.118 C 
BRANCH  35  36
ATOM     36  N   UNL A   1      33.618  35.108  33.492  1.00  0.00    -0.352 N 
ATOM     37  C   UNL A   1      33.676  33.736  33.295  1.00  0.00     0.251 C 
ATOM     38  H   UNL A   1      32.811  35.439  33.947  1.00  0.00     0.163 HD
ATOM     39  O   UNL A   1      32.670  33.040  33.362  1.00  0.00    -0.269 OA
BRANCH  37  40
ATOM     40  C   UNL A   1      34.994  33.142  33.026  1.00  0.00     0.039 A 
ATOM     41  C   UNL A   1      35.209  32.020  32.222  1.00  0.00     0.014 A 
ATOM     42  C   UNL A   1      36.061  33.843  33.555  1.00  0.00     0.014 A 
ATOM     43  C   UNL A   1      36.527  31.658  31.957  1.00  0.00     0.010 A 
ATOM     44  C   UNL A   1      37.252  33.755  32.924  1.00  0.00     0.010 A 
ATOM     45  C   UNL A   1      37.544  32.545  32.336  1.00  0.00    -0.014 A 
BRANCH  45  46
ATOM     46  C   UNL A   1      38.957  32.321  32.126  1.00  0.00     0.031 A 
ATOM     47  C   UNL A   1      39.741  32.349  33.378  1.00  0.00     0.074 A 
ATOM     48  C   UNL A   1      39.424  31.829  30.952  1.00  0.00     0.049 A 
ATOM     49  N   UNL A   1      40.527  33.289  33.779  1.00  0.00    -0.248 NA
ATOM     50  C   UNL A   1      39.461  31.325  34.398  1.00  0.00     0.031 C 
ATOM     51  C   UNL A   1      38.676  31.390  29.757  1.00  0.00     0.029 A 
ATOM     52  N   UNL A   1      40.687  31.457  30.640  1.00  0.00    -0.354 N 
ATOM     53  C   UNL A   1      41.061  32.826  34.975  1.00  0.00     0.074 A 
ATOM     54  C   UNL A   1      40.180  31.782  35.426  1.00  0.00     0.031 C 
ATOM     55  C   UNL A   1      39.455  30.574  29.010  1.00  0.00     0.029 A 
ATOM     56  C   UNL A   1      40.791  30.571  29.572  1.00  0.00     0.049 A 
ATOM     57  H   UNL A   1      41.473  31.789  31.132  1.00  0.00     0.167 HD
ATOM     58  C   UNL A   1      42.344  33.119  35.325  1.00  0.00     0.034 A 
ATOM     59  C   UNL A   1      41.889  29.841  29.244  1.00  0.00     0.034 A 
ATOM     60  C   UNL A   1      42.899  34.141  34.468  1.00  0.00     0.049 A 
ATOM     61  C   UNL A   1      43.046  30.505  29.898  1.00  0.00     0.074 A 
ATOM     62  C   UNL A   1      42.523  35.423  34.116  1.00  0.00     0.029 A 
ATOM     63  N   UNL A   1      43.760  33.720  33.479  1.00  0.00    -0.354 N 
ATOM     64  N   UNL A   1      43.437  31.714  29.593  1.00  0.00    -0.248 NA
ATOM     65  C   UNL A   1      43.420  30.042  31.228  1.00  0.00     0.031 C 
ATOM     66  C   UNL A   1      42.749  35.490  32.709  1.00  0.00     0.029 A 
ATOM     67  C   UNL A   1      43.338  34.290  32.305  1.00  0.00     0.049 A 
ATOM     68  H   UNL A   1      44.534  33.122  33.594  1.00  0.00     0.167 HD
ATOM     69  C   UNL A   1      43.680  32.319  30.821  1.00  0.00     0.074 A 
ATOM     70  C   UNL A   1      43.736  31.215  31.785  1.00  0.00     0.031 C 
ATOM     71  C   UNL A   1      43.489  33.660  31.010  1.00  0.00     0.034 A 
BRANCH  58  72
ATOM     72  C   UNL A   1      43.241  32.229  36.152  1.00  0.00     0.023 A 
ATOM     73  C   UNL A   1      44.001  32.857  37.164  1.00  0.00     0.012 A 
ATOM     74  C   UNL A   1      43.586  30.900  35.822  1.00  0.00     0.148 A 
ATOM     75  C   UNL A   1      45.085  32.216  37.770  1.00  0.00     0.002 A 
ATOM     76  C   UNL A   1      44.614  30.239  36.482  1.00  0.00     0.091 A 
ATOM     77  F   UNL A   1      43.023  30.299  34.770  1.00  0.00    -0.205 F 
ATOM     78  C   UNL A   1      45.389  30.904  37.433  1.00  0.00     0.022 A 
BRANCH  76  79
ATOM     79  S   UNL A   1      45.024  28.528  36.114  1.00  0.00     0.127 S 
ATOM     80  O   UNL A   1      45.703  28.663  34.828  1.00  0.00    -0.237 OA
ATOM     81  O   UNL A   1      45.890  28.181  37.242  1.00  0.00    -0.237 OA
ATOM     82  O   UNL A   1      43.752  27.818  36.099  1.00  0.00    -0.744 OA
ENDBRANCH  76  79
ENDBRANCH  58  72
BRANCH  59  83
ATOM     83  C   UNL A   1      41.962  28.454  28.712  1.00  0.00     0.023 A 
ATOM     84  C   UNL A   1      41.160  27.435  29.267  1.00  0.00     0.012 A 
ATOM     85  C   UNL A   1      42.608  28.186  27.483  1.00  0.00     0.148 A 
ATOM     86  C   UNL A   1      40.990  26.206  28.611  1.00  0.00     0.002 A 
ATOM     87  C   UNL A   1      42.442  26.962  26.839  1.00  0.00     0.091 A 
ATOM     88  F   UNL A   1      43.311  29.165  26.900  1.00  0.00    -0.205 F 
ATOM     89  C   UNL A   1      41.625  25.971  27.394  1.00  0.00     0.022 A 
BRANCH  87  90
ATOM     90  S   UNL A   1      43.211  26.604  25.252  1.00  0.00     0.127 S 
ATOM     91  O   UNL A   1      42.724  25.250  24.981  1.00  0.00    -0.237 OA
ATOM     92  O   UNL A   1      42.641  27.642  24.399  1.00  0.00    -0.237 OA
ATOM     93  O   UNL A   1      44.646  26.693  25.487  1.00  0.00    -0.744 OA
ENDBRANCH  87  90
ENDBRANCH  59  83
BRANCH  71  94
ATOM     94  C   UNL A   1      43.172  34.524  29.811  1.00  0.00     0.023 A 
ATOM     95  C   UNL A   1      41.851  34.809  29.403  1.00  0.00     0.012 A 
ATOM     96  C   UNL A   1      44.226  35.227  29.207  1.00  0.00     0.148 A 
ATOM     97  C   UNL A   1      41.589  35.756  28.407  1.00  0.00     0.002 A 
ATOM     98  C   UNL A   1      43.963  36.196  28.246  1.00  0.00     0.091 A 
ATOM     99  F   UNL A   1      45.477  34.960  29.613  1.00  0.00    -0.205 F 
ATOM    100  C   UNL A   1      42.646  36.458  27.836  1.00  0.00     0.022 A 
BRANCH  98 101
ATOM    101  S   UNL A   1      45.269  37.216  27.560  1.00  0.00     0.127 S 
ATOM    102  O   UNL A   1      44.518  38.154  26.729  1.00  0.00    -0.237 OA
ATOM    103  O   UNL A   1      45.870  37.805  28.759  1.00  0.00    -0.237 OA
ATOM    104  O   UNL A   1      46.151  36.307  26.839  1.00  0.00    -0.744 OA
ENDBRANCH  98 101
ENDBRANCH  71  94
ENDBRANCH  45  46
ENDBRANCH  37  40
ENDBRANCH  35  36
ENDBRANCH  34  35
ENDBRANCH   1  34
TORSDOF 18
ENDMDL
