MODEL 1
REMARK VINA RESULT:     -11.6      0.000      0.000
REMARK SMILES CC[C@@H](Nc1ccc([N+](=O)[O-])c(N)n1)C(=O)NCCCNC(=O)c1ccc(-c2c3nc(c(-c4cccc(S(=O)(=O)[O-])c4F)c4ccc([nH]4)c(-c4cccc(S(=O)(=O)[O-])c4F)c4nc(c(-c5cccc(S(=O)(=O)[O-])c5F)c5ccc2[nH]5)C=C4)C=C3)cc1
REMARK SMILES IDX 19 1 18 2 17 3 15 4 16 5 3 7 2 8 1 9 4 10 5 12 6 13 14 14
REMARK SMILES IDX 7 15 12 16 8 17 13 18 9 21 10 22 11 23 20 24 21 25 22 26
REMARK SMILES IDX 23 28 24 29 25 30 86 31 26 32 85 33 27 34 28 35 29 36 79 37
REMARK SMILES IDX 30 38 84 39 78 40 80 41 31 42 83 43 77 44 76 45 32 47 64 48
REMARK SMILES IDX 44 49 63 50 45 51 48 52 62 53 81 54 46 55 47 56 61 58 82 59
REMARK SMILES IDX 49 60 33 61 34 62 42 63 35 64 37 65 43 66 36 67 38 68 39 69
REMARK SMILES IDX 40 70 41 71 65 72 66 73 74 74 67 75 69 76 75 77 68 78 70 79
REMARK SMILES IDX 71 80 72 81 73 82 50 83 51 84 59 85 52 86 54 87 60 88 53 89
REMARK SMILES IDX 55 90 56 91 57 92 58 93
REMARK H PARENT 17 6 4 11 13 19 13 20 21 27 80 46 48 57
REMARK Flexibility Score: inf
ROOT
ATOM      1  C   UNL A   1      31.766  28.977  26.733  1.00  0.00     0.042 C 
ENDROOT
BRANCH   1   2
ATOM      2  C   UNL A   1      32.197  27.525  26.548  1.00  0.00     0.117 C 
BRANCH   2   3
ATOM      3  N   UNL A   1      31.116  26.599  26.832  1.00  0.00    -0.354 N 
ATOM      4  C   UNL A   1      30.274  25.934  25.988  1.00  0.00     0.242 C 
ATOM      5  O   UNL A   1      29.441  25.176  26.497  1.00  0.00    -0.273 OA
ATOM      6  H   UNL A   1      30.964  26.423  27.789  1.00  0.00     0.163 HD
BRANCH   4   7
ATOM      7  C   UNL A   1      30.368  26.076  24.452  1.00  0.00     0.169 C 
BRANCH   7   8
ATOM      8  C   UNL A   1      30.972  24.832  23.786  1.00  0.00     0.031 C 
ATOM      9  C   UNL A   1      32.306  25.109  23.106  1.00  0.00     0.006 C 
ENDBRANCH   7   8
BRANCH   7  10
ATOM     10  N   UNL A   1      29.074  26.431  23.878  1.00  0.00    -0.358 N 
ATOM     11  H   UNL A   1      28.384  25.729  23.861  1.00  0.00     0.162 HD
BRANCH  10  12
ATOM     12  C   UNL A   1      28.732  27.649  23.362  1.00  0.00     0.129 A 
ATOM     13  C   UNL A   1      27.479  28.230  23.501  1.00  0.00     0.054 A 
ATOM     14  N   UNL A   1      29.728  28.285  22.709  1.00  0.00    -0.208 NA
ATOM     15  C   UNL A   1      27.249  29.497  22.970  1.00  0.00     0.093 A 
ATOM     16  C   UNL A   1      29.518  29.516  22.183  1.00  0.00     0.204 A 
ATOM     17  C   UNL A   1      28.288  30.153  22.308  1.00  0.00     0.311 A 
BRANCH  16  18
ATOM     18  N   UNL A   1      30.646  30.076  21.622  1.00  0.00    -0.378 N 
ATOM     19  H   UNL A   1      31.107  30.816  22.078  1.00  0.00     0.158 HD
ATOM     20  H   UNL A   1      30.990  29.736  20.764  1.00  0.00     0.158 HD
ENDBRANCH  16  18
BRANCH  17  21
ATOM     21  N   UNL A   1      28.045  31.480  21.751  1.00  0.00     0.066 N 
ATOM     22  O   UNL A   1      28.148  31.641  20.524  1.00  0.00    -0.258 OA
ATOM     23  O   UNL A   1      27.717  32.380  22.539  1.00  0.00    -0.258 OA
ENDBRANCH  17  21
ENDBRANCH  10  12
ENDBRANCH   7  10
ENDBRANCH   4   7
ENDBRANCH   2   3
ENDBRANCH   1   2
BRANCH   1  24
ATOM     24  C   UNL A   1      32.575  29.976  25.910  1.00  0.00     0.118 C 
BRANCH  24  25
ATOM     25  N   UNL A   1      32.341  31.356  26.316  1.00  0.00    -0.352 N 
ATOM     26  C   UNL A   1      32.994  32.125  27.246  1.00  0.00     0.251 C 
ATOM     27  H   UNL A   1      31.599  31.805  25.852  1.00  0.00     0.163 HD
ATOM     28  O   UNL A   1      32.507  33.211  27.571  1.00  0.00    -0.269 OA
BRANCH  26  29
ATOM     29  C   UNL A   1      34.254  31.666  27.868  1.00  0.00     0.039 A 
ATOM     30  C   UNL A   1      35.310  32.574  27.999  1.00  0.00     0.014 A 
ATOM     31  C   UNL A   1      34.417  30.345  28.295  1.00  0.00     0.014 A 
ATOM     32  C   UNL A   1      36.499  32.176  28.614  1.00  0.00     0.010 A 
ATOM     33  C   UNL A   1      35.573  29.971  28.978  1.00  0.00     0.010 A 
ATOM     34  C   UNL A   1      36.628  30.880  29.142  1.00  0.00    -0.014 A 
BRANCH  34  35
ATOM     35  C   UNL A   1      37.848  30.475  29.890  1.00  0.00     0.031 A 
ATOM     36  C   UNL A   1      38.820  29.489  29.299  1.00  0.00     0.074 A 
ATOM     37  C   UNL A   1      38.040  30.939  31.141  1.00  0.00     0.049 A 
ATOM     38  N   UNL A   1      39.909  28.990  29.824  1.00  0.00    -0.248 NA
ATOM     39  C   UNL A   1      38.518  28.975  27.952  1.00  0.00     0.031 C 
ATOM     40  C   UNL A   1      37.130  31.835  31.860  1.00  0.00     0.029 A 
ATOM     41  N   UNL A   1      39.050  30.703  32.042  1.00  0.00    -0.354 N 
ATOM     42  C   UNL A   1      40.407  28.087  28.890  1.00  0.00     0.074 A 
ATOM     43  C   UNL A   1      39.480  28.080  27.779  1.00  0.00     0.031 C 
ATOM     44  C   UNL A   1      37.623  32.075  33.085  1.00  0.00     0.029 A 
ATOM     45  C   UNL A   1      38.865  31.328  33.253  1.00  0.00     0.049 A 
ATOM     46  H   UNL A   1      39.831  30.141  31.839  1.00  0.00     0.167 HD
ATOM     47  C   UNL A   1      41.545  27.356  28.939  1.00  0.00     0.034 A 
ATOM     48  C   UNL A   1      39.607  31.298  34.378  1.00  0.00     0.034 A 
ATOM     49  C   UNL A   1      42.485  27.395  30.028  1.00  0.00     0.049 A 
ATOM     50  C   UNL A   1      40.885  30.504  34.389  1.00  0.00     0.074 A 
ATOM     51  C   UNL A   1      43.706  26.751  30.133  1.00  0.00     0.029 A 
ATOM     52  N   UNL A   1      42.307  28.107  31.203  1.00  0.00    -0.354 N 
ATOM     53  N   UNL A   1      41.418  29.784  33.432  1.00  0.00    -0.248 NA
ATOM     54  C   UNL A   1      41.685  30.549  35.622  1.00  0.00     0.031 C 
ATOM     55  C   UNL A   1      44.256  27.058  31.382  1.00  0.00     0.029 A 
ATOM     56  C   UNL A   1      43.391  27.914  32.043  1.00  0.00     0.049 A 
ATOM     57  H   UNL A   1      41.525  28.669  31.411  1.00  0.00     0.167 HD
ATOM     58  C   UNL A   1      42.629  29.319  33.934  1.00  0.00     0.074 A 
ATOM     59  C   UNL A   1      42.763  29.864  35.269  1.00  0.00     0.031 C 
ATOM     60  C   UNL A   1      43.538  28.502  33.348  1.00  0.00     0.034 A 
BRANCH  47  61
ATOM     61  C   UNL A   1      41.876  26.488  27.751  1.00  0.00     0.023 A 
ATOM     62  C   UNL A   1      42.622  27.030  26.685  1.00  0.00     0.012 A 
ATOM     63  C   UNL A   1      41.522  25.124  27.724  1.00  0.00     0.148 A 
ATOM     64  C   UNL A   1      42.986  26.237  25.597  1.00  0.00     0.002 A 
ATOM     65  C   UNL A   1      41.928  24.330  26.657  1.00  0.00     0.091 A 
ATOM     66  F   UNL A   1      40.797  24.632  28.739  1.00  0.00    -0.205 F 
ATOM     67  C   UNL A   1      42.649  24.887  25.589  1.00  0.00     0.022 A 
BRANCH  65  68
ATOM     68  S   UNL A   1      41.615  22.562  26.588  1.00  0.00     0.127 S 
ATOM     69  O   UNL A   1      40.154  22.525  26.515  1.00  0.00    -0.237 OA
ATOM     70  O   UNL A   1      42.297  22.179  25.352  1.00  0.00    -0.237 OA
ATOM     71  O   UNL A   1      42.190  22.003  27.802  1.00  0.00    -0.744 OA
ENDBRANCH  65  68
ENDBRANCH  47  61
BRANCH  48  72
ATOM     72  C   UNL A   1      39.188  32.084  35.573  1.00  0.00     0.023 A 
ATOM     73  C   UNL A   1      39.523  33.451  35.658  1.00  0.00     0.012 A 
ATOM     74  C   UNL A   1      38.452  31.494  36.618  1.00  0.00     0.148 A 
ATOM     75  C   UNL A   1      39.169  34.202  36.778  1.00  0.00     0.002 A 
ATOM     76  C   UNL A   1      38.050  32.262  37.704  1.00  0.00     0.091 A 
ATOM     77  F   UNL A   1      38.152  30.190  36.526  1.00  0.00    -0.205 F 
ATOM     78  C   UNL A   1      38.425  33.611  37.797  1.00  0.00     0.022 A 
BRANCH  76  79
ATOM     79  S   UNL A   1      36.974  31.616  38.988  1.00  0.00     0.127 S 
ATOM     80  O   UNL A   1      36.896  30.203  38.631  1.00  0.00    -0.237 OA
ATOM     81  O   UNL A   1      37.741  31.905  40.201  1.00  0.00    -0.237 OA
ATOM     82  O   UNL A   1      35.734  32.372  38.875  1.00  0.00    -0.744 OA
ENDBRANCH  76  79
ENDBRANCH  48  72
BRANCH  60  83
ATOM     83  C   UNL A   1      44.782  28.170  34.132  1.00  0.00     0.023 A 
ATOM     84  C   UNL A   1      45.898  29.030  34.076  1.00  0.00     0.012 A 
ATOM     85  C   UNL A   1      44.823  27.038  34.969  1.00  0.00     0.148 A 
ATOM     86  C   UNL A   1      47.048  28.747  34.810  1.00  0.00     0.002 A 
ATOM     87  C   UNL A   1      45.953  26.791  35.739  1.00  0.00     0.091 A 
ATOM     88  F   UNL A   1      43.760  26.223  34.995  1.00  0.00    -0.205 F 
ATOM     89  C   UNL A   1      47.072  27.636  35.650  1.00  0.00     0.022 A 
BRANCH  87  90
ATOM     90  S   UNL A   1      46.038  25.439  36.919  1.00  0.00     0.127 S 
ATOM     91  O   UNL A   1      47.426  25.526  37.371  1.00  0.00    -0.237 OA
ATOM     92  O   UNL A   1      45.046  25.836  37.918  1.00  0.00    -0.237 OA
ATOM     93  O   UNL A   1      45.697  24.236  36.175  1.00  0.00    -0.744 OA
ENDBRANCH  87  90
ENDBRANCH  60  83
ENDBRANCH  34  35
ENDBRANCH  26  29
ENDBRANCH  24  25
ENDBRANCH   1  24
TORSDOF 18
ENDMDL
MODEL 2
REMARK VINA RESULT:     -11.6      1.133      7.757
REMARK SMILES CC[C@@H](Nc1ccc([N+](=O)[O-])c(N)n1)C(=O)NCCCNC(=O)c1ccc(-c2c3nc(c(-c4cccc(S(=O)(=O)[O-])c4F)c4ccc([nH]4)c(-c4cccc(S(=O)(=O)[O-])c4F)c4nc(c(-c5cccc(S(=O)(=O)[O-])c5F)c5ccc2[nH]5)C=C4)C=C3)cc1
REMARK SMILES IDX 19 1 18 2 17 3 15 4 16 5 3 7 2 8 1 9 4 10 5 12 6 13 14 14
REMARK SMILES IDX 7 15 12 16 8 17 13 18 9 21 10 22 11 23 20 24 21 25 22 26
REMARK SMILES IDX 23 28 24 29 25 30 86 31 26 32 85 33 27 34 28 35 29 36 79 37
REMARK SMILES IDX 30 38 84 39 78 40 80 41 31 42 83 43 77 44 76 45 32 47 64 48
REMARK SMILES IDX 44 49 63 50 45 51 48 52 62 53 81 54 46 55 47 56 61 58 82 59
REMARK SMILES IDX 49 60 33 61 34 62 42 63 35 64 37 65 43 66 36 67 38 68 39 69
REMARK SMILES IDX 40 70 41 71 65 72 66 73 74 74 67 75 69 76 75 77 68 78 70 79
REMARK SMILES IDX 71 80 72 81 73 82 50 83 51 84 59 85 52 86 54 87 60 88 53 89
REMARK SMILES IDX 55 90 56 91 57 92 58 93
REMARK H PARENT 17 6 4 11 13 19 13 20 21 27 80 46 48 57
REMARK Flexibility Score: inf
ROOT
ATOM      1  C   UNL A   1      31.817  29.236  26.396  1.00  0.00     0.042 C 
ENDROOT
BRANCH   1   2
ATOM      2  C   UNL A   1      32.054  28.019  27.285  1.00  0.00     0.117 C 
BRANCH   2   3
ATOM      3  N   UNL A   1      30.970  27.058  27.188  1.00  0.00    -0.354 N 
ATOM      4  C   UNL A   1      30.661  26.167  26.202  1.00  0.00     0.242 C 
ATOM      5  O   UNL A   1      29.680  25.437  26.382  1.00  0.00    -0.273 OA
ATOM      6  H   UNL A   1      30.358  27.048  27.959  1.00  0.00     0.163 HD
BRANCH   4   7
ATOM      7  C   UNL A   1      31.514  26.029  24.920  1.00  0.00     0.169 C 
BRANCH   7   8
ATOM      8  C   UNL A   1      32.307  24.715  24.885  1.00  0.00     0.031 C 
ATOM      9  C   UNL A   1      33.368  24.630  25.974  1.00  0.00     0.006 C 
ENDBRANCH   7   8
BRANCH   7  10
ATOM     10  N   UNL A   1      30.698  26.209  23.725  1.00  0.00    -0.358 N 
ATOM     11  H   UNL A   1      30.469  25.400  23.213  1.00  0.00     0.162 HD
BRANCH  10  12
ATOM     12  C   UNL A   1      30.221  27.398  23.250  1.00  0.00     0.129 A 
ATOM     13  C   UNL A   1      31.017  28.393  22.698  1.00  0.00     0.054 A 
ATOM     14  N   UNL A   1      28.881  27.541  23.330  1.00  0.00    -0.208 NA
ATOM     15  C   UNL A   1      30.422  29.551  22.205  1.00  0.00     0.093 A 
ATOM     16  C   UNL A   1      28.288  28.665  22.861  1.00  0.00     0.204 A 
ATOM     17  C   UNL A   1      29.035  29.686  22.280  1.00  0.00     0.311 A 
BRANCH  16  18
ATOM     18  N   UNL A   1      26.912  28.634  22.931  1.00  0.00    -0.378 N 
ATOM     19  H   UNL A   1      26.428  29.335  23.423  1.00  0.00     0.158 HD
ATOM     20  H   UNL A   1      26.412  27.909  22.488  1.00  0.00     0.158 HD
ENDBRANCH  16  18
BRANCH  17  21
ATOM     21  N   UNL A   1      28.413  30.901  21.765  1.00  0.00     0.066 N 
ATOM     22  O   UNL A   1      28.558  31.960  22.396  1.00  0.00    -0.258 OA
ATOM     23  O   UNL A   1      27.789  30.815  20.697  1.00  0.00    -0.258 OA
ENDBRANCH  17  21
ENDBRANCH  10  12
ENDBRANCH   7  10
ENDBRANCH   4   7
ENDBRANCH   2   3
ENDBRANCH   1   2
BRANCH   1  24
ATOM     24  C   UNL A   1      33.075  30.053  26.112  1.00  0.00     0.118 C 
BRANCH  24  25
ATOM     25  N   UNL A   1      32.969  31.426  26.587  1.00  0.00    -0.352 N 
ATOM     26  C   UNL A   1      33.711  32.095  27.528  1.00  0.00     0.251 C 
ATOM     27  H   UNL A   1      32.253  31.957  26.169  1.00  0.00     0.163 HD
ATOM     28  O   UNL A   1      33.326  33.200  27.918  1.00  0.00    -0.269 OA
BRANCH  26  29
ATOM     29  C   UNL A   1      34.946  31.505  28.085  1.00  0.00     0.039 A 
ATOM     30  C   UNL A   1      36.106  32.286  28.126  1.00  0.00     0.014 A 
ATOM     31  C   UNL A   1      34.982  30.184  28.540  1.00  0.00     0.014 A 
ATOM     32  C   UNL A   1      37.278  31.764  28.678  1.00  0.00     0.010 A 
ATOM     33  C   UNL A   1      36.128  29.692  29.163  1.00  0.00     0.010 A 
ATOM     34  C   UNL A   1      37.290  30.474  29.236  1.00  0.00    -0.014 A 
BRANCH  34  35
ATOM     35  C   UNL A   1      38.499  29.946  29.920  1.00  0.00     0.031 A 
ATOM     36  C   UNL A   1      38.893  30.450  31.283  1.00  0.00     0.074 A 
ATOM     37  C   UNL A   1      39.290  29.064  29.276  1.00  0.00     0.049 A 
ATOM     38  N   UNL A   1      39.936  30.134  32.008  1.00  0.00    -0.248 NA
ATOM     39  C   UNL A   1      38.017  31.457  31.904  1.00  0.00     0.031 C 
ATOM     40  C   UNL A   1      39.065  28.560  27.919  1.00  0.00     0.029 A 
ATOM     41  N   UNL A   1      40.458  28.454  29.664  1.00  0.00    -0.354 N 
ATOM     42  C   UNL A   1      39.858  30.920  33.153  1.00  0.00     0.074 A 
ATOM     43  C   UNL A   1      38.685  31.754  33.010  1.00  0.00     0.031 C 
ATOM     44  C   UNL A   1      40.057  27.718  27.590  1.00  0.00     0.029 A 
ATOM     45  C   UNL A   1      41.005  27.644  28.696  1.00  0.00     0.049 A 
ATOM     46  H   UNL A   1      40.864  28.583  30.551  1.00  0.00     0.167 HD
ATOM     47  C   UNL A   1      40.670  30.925  34.237  1.00  0.00     0.034 A 
ATOM     48  C   UNL A   1      42.147  26.927  28.694  1.00  0.00     0.034 A 
ATOM     49  C   UNL A   1      41.815  30.067  34.392  1.00  0.00     0.049 A 
ATOM     50  C   UNL A   1      43.011  26.925  29.927  1.00  0.00     0.074 A 
ATOM     51  C   UNL A   1      42.652  29.942  35.488  1.00  0.00     0.029 A 
ATOM     52  N   UNL A   1      42.289  29.195  33.426  1.00  0.00    -0.354 N 
ATOM     53  N   UNL A   1      42.829  27.554  31.062  1.00  0.00    -0.248 NA
ATOM     54  C   UNL A   1      44.216  26.085  29.892  1.00  0.00     0.031 C 
ATOM     55  C   UNL A   1      43.647  29.010  35.174  1.00  0.00     0.029 A 
ATOM     56  C   UNL A   1      43.412  28.534  33.894  1.00  0.00     0.049 A 
ATOM     57  H   UNL A   1      41.887  29.065  32.536  1.00  0.00     0.167 HD
ATOM     58  C   UNL A   1      43.877  27.160  31.887  1.00  0.00     0.074 A 
ATOM     59  C   UNL A   1      44.671  26.215  31.130  1.00  0.00     0.031 C 
ATOM     60  C   UNL A   1      44.164  27.557  33.151  1.00  0.00     0.034 A 
BRANCH  47  61
ATOM     61  C   UNL A   1      40.320  31.850  35.375  1.00  0.00     0.023 A 
ATOM     62  C   UNL A   1      41.021  33.065  35.520  1.00  0.00     0.012 A 
ATOM     63  C   UNL A   1      39.253  31.560  36.247  1.00  0.00     0.148 A 
ATOM     64  C   UNL A   1      40.686  33.963  36.532  1.00  0.00     0.002 A 
ATOM     65  C   UNL A   1      38.896  32.480  37.226  1.00  0.00     0.091 A 
ATOM     66  F   UNL A   1      38.611  30.392  36.105  1.00  0.00    -0.205 F 
ATOM     67  C   UNL A   1      39.617  33.676  37.376  1.00  0.00     0.022 A 
BRANCH  65  68
ATOM     68  S   UNL A   1      37.485  32.245  38.314  1.00  0.00     0.127 S 
ATOM     69  O   UNL A   1      37.321  30.791  38.271  1.00  0.00    -0.237 OA
ATOM     70  O   UNL A   1      37.988  32.764  39.585  1.00  0.00    -0.237 OA
ATOM     71  O   UNL A   1      36.393  33.009  37.730  1.00  0.00    -0.744 OA
ENDBRANCH  65  68
ENDBRANCH  47  61
BRANCH  48  72
ATOM     72  C   UNL A   1      42.516  26.110  27.504  1.00  0.00     0.023 A 
ATOM     73  C   UNL A   1      43.255  26.698  26.458  1.00  0.00     0.012 A 
ATOM     74  C   UNL A   1      42.151  24.753  27.406  1.00  0.00     0.148 A 
ATOM     75  C   UNL A   1      43.587  25.962  25.320  1.00  0.00     0.002 A 
ATOM     76  C   UNL A   1      42.537  24.010  26.297  1.00  0.00     0.091 A 
ATOM     77  F   UNL A   1      41.437  24.213  28.405  1.00  0.00    -0.205 F 
ATOM     78  C   UNL A   1      43.237  24.617  25.243  1.00  0.00     0.022 A 
BRANCH  76  79
ATOM     79  S   UNL A   1      42.248  22.240  26.182  1.00  0.00     0.127 S 
ATOM     80  O   UNL A   1      42.814  21.762  27.440  1.00  0.00    -0.237 OA
ATOM     81  O   UNL A   1      40.788  22.176  26.098  1.00  0.00    -0.237 OA
ATOM     82  O   UNL A   1      42.933  21.812  24.971  1.00  0.00    -0.744 OA
ENDBRANCH  76  79
ENDBRANCH  48  72
BRANCH  60  83
ATOM     83  C   UNL A   1      45.371  26.946  33.816  1.00  0.00     0.023 A 
ATOM     84  C   UNL A   1      46.608  27.623  33.783  1.00  0.00     0.012 A 
ATOM     85  C   UNL A   1      45.266  25.733  34.522  1.00  0.00     0.148 A 
ATOM     86  C   UNL A   1      47.728  27.082  34.411  1.00  0.00     0.002 A 
ATOM     87  C   UNL A   1      46.374  25.225  35.189  1.00  0.00     0.091 A 
ATOM     88  F   UNL A   1      44.087  25.095  34.526  1.00  0.00    -0.205 F 
ATOM     89  C   UNL A   1      47.609  25.890  35.123  1.00  0.00     0.022 A 
BRANCH  87  90
ATOM     90  S   UNL A   1      46.292  23.749  36.210  1.00  0.00     0.127 S 
ATOM     91  O   UNL A   1      46.107  22.703  35.205  1.00  0.00    -0.237 OA
ATOM     92  O   UNL A   1      47.602  23.746  36.859  1.00  0.00    -0.237 OA
ATOM     93  O   UNL A   1      45.170  23.951  37.116  1.00  0.00    -0.744 OA
ENDBRANCH  87  90
ENDBRANCH  60  83
ENDBRANCH  34  35
ENDBRANCH  26  29
ENDBRANCH  24  25
ENDBRANCH   1  24
TORSDOF 18
ENDMDL
MODEL 3
REMARK VINA RESULT:     -11.5      4.043     10.175
REMARK SMILES CC[C@@H](Nc1ccc([N+](=O)[O-])c(N)n1)C(=O)NCCCNC(=O)c1ccc(-c2c3nc(c(-c4cccc(S(=O)(=O)[O-])c4F)c4ccc([nH]4)c(-c4cccc(S(=O)(=O)[O-])c4F)c4nc(c(-c5cccc(S(=O)(=O)[O-])c5F)c5ccc2[nH]5)C=C4)C=C3)cc1
REMARK SMILES IDX 19 1 18 2 17 3 15 4 16 5 3 7 2 8 1 9 4 10 5 12 6 13 14 14
REMARK SMILES IDX 7 15 12 16 8 17 13 18 9 21 10 22 11 23 20 24 21 25 22 26
REMARK SMILES IDX 23 28 24 29 25 30 86 31 26 32 85 33 27 34 28 35 29 36 79 37
REMARK SMILES IDX 30 38 84 39 78 40 80 41 31 42 83 43 77 44 76 45 32 47 64 48
REMARK SMILES IDX 44 49 63 50 45 51 48 52 62 53 81 54 46 55 47 56 61 58 82 59
REMARK SMILES IDX 49 60 33 61 34 62 42 63 35 64 37 65 43 66 36 67 38 68 39 69
REMARK SMILES IDX 40 70 41 71 65 72 66 73 74 74 67 75 69 76 75 77 68 78 70 79
REMARK SMILES IDX 71 80 72 81 73 82 50 83 51 84 59 85 52 86 54 87 60 88 53 89
REMARK SMILES IDX 55 90 56 91 57 92 58 93
REMARK H PARENT 17 6 4 11 13 19 13 20 21 27 80 46 48 57
REMARK Flexibility Score: inf
ROOT
ATOM      1  C   UNL A   1      35.484  33.164  28.286  1.00  0.00     0.042 C 
ENDROOT
BRANCH   1   2
ATOM      2  C   UNL A   1      35.447  34.647  28.644  1.00  0.00     0.117 C 
BRANCH   2   3
ATOM      3  N   UNL A   1      34.102  35.188  28.573  1.00  0.00    -0.354 N 
ATOM      4  C   UNL A   1      33.304  35.710  29.549  1.00  0.00     0.242 C 
ATOM      5  O   UNL A   1      32.191  36.128  29.211  1.00  0.00    -0.273 OA
ATOM      6  H   UNL A   1      33.700  35.177  27.674  1.00  0.00     0.163 HD
BRANCH   4   7
ATOM      7  C   UNL A   1      33.768  35.822  31.019  1.00  0.00     0.169 C 
BRANCH   7   8
ATOM      8  C   UNL A   1      32.985  36.888  31.800  1.00  0.00     0.031 C 
ATOM      9  C   UNL A   1      33.887  37.867  32.539  1.00  0.00     0.006 C 
ENDBRANCH   7   8
BRANCH   7  10
ATOM     10  N   UNL A   1      33.733  34.522  31.681  1.00  0.00    -0.358 N 
ATOM     11  H   UNL A   1      32.954  33.948  31.498  1.00  0.00     0.162 HD
BRANCH  10  12
ATOM     12  C   UNL A   1      34.682  34.029  32.531  1.00  0.00     0.129 A 
ATOM     13  C   UNL A   1      35.164  34.709  33.641  1.00  0.00     0.054 A 
ATOM     14  N   UNL A   1      35.118  32.787  32.230  1.00  0.00    -0.208 NA
ATOM     15  C   UNL A   1      36.103  34.095  34.466  1.00  0.00     0.093 A 
ATOM     16  C   UNL A   1      36.035  32.179  33.019  1.00  0.00     0.204 A 
ATOM     17  C   UNL A   1      36.539  32.806  34.154  1.00  0.00     0.311 A 
BRANCH  16  18
ATOM     18  N   UNL A   1      36.322  30.885  32.638  1.00  0.00    -0.378 N 
ATOM     19  H   UNL A   1      36.632  30.233  33.305  1.00  0.00     0.158 HD
ATOM     20  H   UNL A   1      36.215  30.615  31.697  1.00  0.00     0.158 HD
ENDBRANCH  16  18
BRANCH  17  21
ATOM     21  N   UNL A   1      37.524  32.165  35.019  1.00  0.00     0.066 N 
ATOM     22  O   UNL A   1      37.261  32.025  36.224  1.00  0.00    -0.258 OA
ATOM     23  O   UNL A   1      38.573  31.764  34.492  1.00  0.00    -0.258 OA
ENDBRANCH  17  21
ENDBRANCH  10  12
ENDBRANCH   7  10
ENDBRANCH   4   7
ENDBRANCH   2   3
ENDBRANCH   1   2
BRANCH   1  24
ATOM     24  C   UNL A   1      34.394  32.334  28.958  1.00  0.00     0.118 C 
BRANCH  24  25
ATOM     25  N   UNL A   1      33.930  31.236  28.121  1.00  0.00    -0.352 N 
ATOM     26  C   UNL A   1      34.609  30.144  27.642  1.00  0.00     0.251 C 
ATOM     27  H   UNL A   1      32.983  31.284  27.858  1.00  0.00     0.163 HD
ATOM     28  O   UNL A   1      34.072  29.435  26.787  1.00  0.00    -0.269 OA
BRANCH  26  29
ATOM     29  C   UNL A   1      35.970  29.820  28.120  1.00  0.00     0.039 A 
ATOM     30  C   UNL A   1      36.125  29.312  29.413  1.00  0.00     0.014 A 
ATOM     31  C   UNL A   1      37.095  30.041  27.320  1.00  0.00     0.014 A 
ATOM     32  C   UNL A   1      37.396  28.966  29.878  1.00  0.00     0.010 A 
ATOM     33  C   UNL A   1      38.351  29.622  27.755  1.00  0.00     0.010 A 
ATOM     34  C   UNL A   1      38.517  29.084  29.039  1.00  0.00    -0.014 A 
BRANCH  34  35
ATOM     35  C   UNL A   1      39.859  28.622  29.483  1.00  0.00     0.031 A 
ATOM     36  C   UNL A   1      40.608  29.361  30.561  1.00  0.00     0.074 A 
ATOM     37  C   UNL A   1      40.439  27.578  28.858  1.00  0.00     0.049 A 
ATOM     38  N   UNL A   1      41.802  29.128  31.042  1.00  0.00    -0.248 NA
ATOM     39  C   UNL A   1      39.940  30.529  31.161  1.00  0.00     0.031 C 
ATOM     40  C   UNL A   1      39.855  26.829  27.743  1.00  0.00     0.029 A 
ATOM     41  N   UNL A   1      41.661  26.981  29.051  1.00  0.00    -0.354 N 
ATOM     42  C   UNL A   1      42.041  30.130  31.976  1.00  0.00     0.074 A 
ATOM     43  C   UNL A   1      40.882  30.996  31.969  1.00  0.00     0.031 C 
ATOM     44  C   UNL A   1      40.713  25.874  27.355  1.00  0.00     0.029 A 
ATOM     45  C   UNL A   1      41.921  25.959  28.168  1.00  0.00     0.049 A 
ATOM     46  H   UNL A   1      42.290  27.258  29.755  1.00  0.00     0.167 HD
ATOM     47  C   UNL A   1      43.112  30.297  32.788  1.00  0.00     0.034 A 
ATOM     48  C   UNL A   1      43.013  25.181  28.023  1.00  0.00     0.034 A 
ATOM     49  C   UNL A   1      44.247  29.412  32.820  1.00  0.00     0.049 A 
ATOM     50  C   UNL A   1      44.173  25.368  28.963  1.00  0.00     0.074 A 
ATOM     51  C   UNL A   1      45.344  29.453  33.664  1.00  0.00     0.029 A 
ATOM     52  N   UNL A   1      44.436  28.335  31.970  1.00  0.00    -0.354 N 
ATOM     53  N   UNL A   1      44.308  26.222  29.948  1.00  0.00    -0.248 NA
ATOM     54  C   UNL A   1      45.316  24.458  28.797  1.00  0.00     0.031 C 
ATOM     55  C   UNL A   1      46.208  28.412  33.308  1.00  0.00     0.029 A 
ATOM     56  C   UNL A   1      45.635  27.706  32.261  1.00  0.00     0.049 A 
ATOM     57  H   UNL A   1      43.811  28.057  31.262  1.00  0.00     0.167 HD
ATOM     58  C   UNL A   1      45.533  25.931  30.539  1.00  0.00     0.074 A 
ATOM     59  C   UNL A   1      46.085  24.802  29.819  1.00  0.00     0.031 C 
ATOM     60  C   UNL A   1      46.151  26.552  31.573  1.00  0.00     0.034 A 
BRANCH  47  61
ATOM     61  C   UNL A   1      43.089  31.452  33.756  1.00  0.00     0.023 A 
ATOM     62  C   UNL A   1      43.547  32.718  33.335  1.00  0.00     0.012 A 
ATOM     63  C   UNL A   1      42.544  31.309  35.047  1.00  0.00     0.148 A 
ATOM     64  C   UNL A   1      43.490  33.816  34.193  1.00  0.00     0.002 A 
ATOM     65  C   UNL A   1      42.450  32.419  35.880  1.00  0.00     0.091 A 
ATOM     66  F   UNL A   1      42.131  30.094  35.435  1.00  0.00    -0.205 F 
ATOM     67  C   UNL A   1      42.932  33.668  35.459  1.00  0.00     0.022 A 
BRANCH  65  68
ATOM     68  S   UNL A   1      41.674  32.355  37.500  1.00  0.00     0.127 S 
ATOM     69  O   UNL A   1      40.371  31.772  37.179  1.00  0.00    -0.237 OA
ATOM     70  O   UNL A   1      42.574  31.466  38.236  1.00  0.00    -0.237 OA
ATOM     71  O   UNL A   1      41.639  33.727  37.985  1.00  0.00    -0.744 OA
ENDBRANCH  65  68
ENDBRANCH  47  61
BRANCH  48  72
ATOM     72  C   UNL A   1      43.041  24.119  26.978  1.00  0.00     0.023 A 
ATOM     73  C   UNL A   1      43.759  24.337  25.784  1.00  0.00     0.012 A 
ATOM     74  C   UNL A   1      42.376  22.892  27.162  1.00  0.00     0.148 A 
ATOM     75  C   UNL A   1      43.777  23.371  24.779  1.00  0.00     0.002 A 
ATOM     76  C   UNL A   1      42.447  21.910  26.181  1.00  0.00     0.091 A 
ATOM     77  F   UNL A   1      41.688  22.706  28.298  1.00  0.00    -0.205 F 
ATOM     78  C   UNL A   1      43.130  22.155  24.980  1.00  0.00     0.022 A 
BRANCH  76  79
ATOM     79  S   UNL A   1      41.761  20.267  26.419  1.00  0.00     0.127 S 
ATOM     80  O   UNL A   1      42.311  19.545  25.275  1.00  0.00    -0.237 OA
ATOM     81  O   UNL A   1      42.322  19.888  27.716  1.00  0.00    -0.237 OA
ATOM     82  O   UNL A   1      40.316  20.446  26.424  1.00  0.00    -0.744 OA
ENDBRANCH  76  79
ENDBRANCH  48  72
BRANCH  60  83
ATOM     83  C   UNL A   1      47.484  26.007  32.017  1.00  0.00     0.023 A 
ATOM     84  C   UNL A   1      48.667  26.452  31.392  1.00  0.00     0.012 A 
ATOM     85  C   UNL A   1      47.568  25.101  33.091  1.00  0.00     0.148 A 
ATOM     86  C   UNL A   1      49.909  25.973  31.805  1.00  0.00     0.002 A 
ATOM     87  C   UNL A   1      48.813  24.668  33.531  1.00  0.00     0.091 A 
ATOM     88  F   UNL A   1      46.431  24.675  33.660  1.00  0.00    -0.205 F 
ATOM     89  C   UNL A   1      49.983  25.091  32.881  1.00  0.00     0.022 A 
BRANCH  87  90
ATOM     90  S   UNL A   1      49.011  23.608  34.969  1.00  0.00     0.127 S 
ATOM     91  O   UNL A   1      50.457  23.391  34.981  1.00  0.00    -0.237 OA
ATOM     92  O   UNL A   1      48.513  24.456  36.051  1.00  0.00    -0.237 OA
ATOM     93  O   UNL A   1      48.203  22.425  34.708  1.00  0.00    -0.744 OA
ENDBRANCH  87  90
ENDBRANCH  60  83
ENDBRANCH  34  35
ENDBRANCH  26  29
ENDBRANCH  24  25
ENDBRANCH   1  24
TORSDOF 18
ENDMDL
