MODEL 1
REMARK VINA RESULT:     -12.8      0.000      0.000
REMARK SMILES Cc1ccc(C(=O)N[C@@H]2C=C[C@H](C(=O)NCCCNC(=O)c3ccc(-c4c5nc(c(-c6cccc(S(=O)(=O)[O-])c6F)c6ccc([nH]6)c(-c6cccc(S(=O)(=O)[O-])c6F)c6nc(c(-c7cccc(S(=O)(=O)[O-])c7F)c7ccc4[nH]7)C=C6)C=C5)cc3)C2)c(F)c1
REMARK SMILES IDX 17 1 16 2 15 3 13 4 14 5 12 7 9 8 10 9 85 10 11 11 8 12 6 13
REMARK SMILES IDX 7 14 5 16 1 17 2 18 3 19 88 20 4 21 86 22 87 23 18 24 19 25
REMARK SMILES IDX 20 26 21 28 22 29 23 30 84 31 24 32 83 33 25 34 26 35 27 36
REMARK SMILES IDX 77 37 28 38 82 39 76 40 78 41 29 42 81 43 75 44 74 45 30 47
REMARK SMILES IDX 62 48 42 49 61 50 43 51 46 52 60 53 79 54 44 55 45 56 59 58
REMARK SMILES IDX 80 59 47 60 31 61 32 62 40 63 33 64 35 65 41 66 34 67 36 68
REMARK SMILES IDX 37 69 38 70 39 71 63 72 64 73 72 74 65 75 67 76 73 77 66 78
REMARK SMILES IDX 68 79 69 80 70 81 71 82 48 83 49 84 57 85 50 86 52 87 58 88
REMARK SMILES IDX 51 89 53 90 54 91 55 92 56 93
REMARK H PARENT 15 6 8 15 19 27 78 46 46 57
REMARK Flexibility Score: inf
ROOT
ATOM      1  C   UNL A   1      31.608  31.870  26.593  1.00  0.00     0.042 C 
ENDROOT
BRANCH   1   2
ATOM      2  C   UNL A   1      31.796  30.390  26.286  1.00  0.00     0.117 C 
BRANCH   2   3
ATOM      3  N   UNL A   1      31.637  30.064  24.879  1.00  0.00    -0.356 N 
ATOM      4  C   UNL A   1      31.158  28.916  24.307  1.00  0.00     0.227 C 
ATOM      5  O   UNL A   1      30.941  28.918  23.096  1.00  0.00    -0.274 OA
ATOM      6  H   UNL A   1      31.914  30.767  24.247  1.00  0.00     0.163 HD
BRANCH   4   7
ATOM      7  C   UNL A   1      30.980  27.677  25.186  1.00  0.00     0.103 C 
ATOM      8  C   UNL A   1      32.210  25.655  24.456  1.00  0.00     0.106 C 
ATOM      9  C   UNL A   1      30.732  25.540  24.239  1.00  0.00    -0.006 C 
ATOM     10  C   UNL A   1      32.319  26.945  25.287  1.00  0.00     0.047 C 
ATOM     11  C   UNL A   1      30.070  26.641  24.612  1.00  0.00    -0.016 C 
BRANCH   8  12
ATOM     12  N   UNL A   1      32.842  25.604  23.148  1.00  0.00    -0.346 N 
ATOM     13  C   UNL A   1      33.149  24.568  22.298  1.00  0.00     0.254 C 
ATOM     14  O   UNL A   1      33.366  24.810  21.115  1.00  0.00    -0.269 OA
ATOM     15  H   UNL A   1      33.102  26.489  22.803  1.00  0.00     0.164 HD
BRANCH  13  16
ATOM     16  C   UNL A   1      33.317  23.199  22.812  1.00  0.00     0.075 A 
ATOM     17  C   UNL A   1      33.506  19.682  25.265  1.00  0.00     0.044 C 
ATOM     18  C   UNL A   1      33.487  20.856  24.329  1.00  0.00    -0.048 A 
ATOM     19  C   UNL A   1      32.405  21.061  23.460  1.00  0.00     0.004 A 
ATOM     20  C   UNL A   1      34.553  21.761  24.315  1.00  0.00     0.043 A 
ATOM     21  C   UNL A   1      32.329  22.221  22.681  1.00  0.00     0.017 A 
ATOM     22  C   UNL A   1      34.460  22.931  23.568  1.00  0.00     0.136 A 
ATOM     23  F   UNL A   1      35.461  23.819  23.656  1.00  0.00    -0.206 F 
ENDBRANCH  13  16
ENDBRANCH   8  12
ENDBRANCH   4   7
ENDBRANCH   2   3
ENDBRANCH   1   2
BRANCH   1  24
ATOM     24  C   UNL A   1      32.796  32.553  27.261  1.00  0.00     0.118 C 
BRANCH  24  25
ATOM     25  N   UNL A   1      32.536  33.941  27.617  1.00  0.00    -0.352 N 
ATOM     26  C   UNL A   1      33.107  34.730  28.589  1.00  0.00     0.251 C 
ATOM     27  H   UNL A   1      31.842  34.384  27.078  1.00  0.00     0.163 HD
ATOM     28  O   UNL A   1      32.626  35.833  28.829  1.00  0.00    -0.269 OA
BRANCH  26  29
ATOM     29  C   UNL A   1      34.277  34.249  29.359  1.00  0.00     0.039 A 
ATOM     30  C   UNL A   1      34.062  33.598  30.578  1.00  0.00     0.014 A 
ATOM     31  C   UNL A   1      35.579  34.448  28.897  1.00  0.00     0.014 A 
ATOM     32  C   UNL A   1      35.148  33.085  31.293  1.00  0.00     0.010 A 
ATOM     33  C   UNL A   1      36.651  33.861  29.565  1.00  0.00     0.010 A 
ATOM     34  C   UNL A   1      36.450  33.178  30.774  1.00  0.00    -0.014 A 
BRANCH  34  35
ATOM     35  C   UNL A   1      37.611  32.563  31.470  1.00  0.00     0.031 A 
ATOM     36  C   UNL A   1      38.360  31.420  30.837  1.00  0.00     0.074 A 
ATOM     37  C   UNL A   1      37.937  32.972  32.713  1.00  0.00     0.049 A 
ATOM     38  N   UNL A   1      39.348  30.714  31.320  1.00  0.00    -0.248 NA
ATOM     39  C   UNL A   1      37.922  30.997  29.496  1.00  0.00     0.031 C 
ATOM     40  C   UNL A   1      37.248  34.023  33.467  1.00  0.00     0.029 A 
ATOM     41  N   UNL A   1      38.911  32.534  33.576  1.00  0.00    -0.354 N 
ATOM     42  C   UNL A   1      39.621  29.739  30.368  1.00  0.00     0.074 A 
ATOM     43  C   UNL A   1      38.674  29.926  29.291  1.00  0.00     0.031 C 
ATOM     44  C   UNL A   1      37.827  34.155  34.670  1.00  0.00     0.029 A 
ATOM     45  C   UNL A   1      38.900  33.174  34.794  1.00  0.00     0.049 A 
ATOM     46  H   UNL A   1      39.558  31.829  33.344  1.00  0.00     0.167 HD
ATOM     47  C   UNL A   1      40.586  28.789  30.376  1.00  0.00     0.034 A 
ATOM     48  C   UNL A   1      39.658  32.985  35.893  1.00  0.00     0.034 A 
ATOM     49  C   UNL A   1      41.552  28.631  31.430  1.00  0.00     0.049 A 
ATOM     50  C   UNL A   1      40.739  31.937  35.865  1.00  0.00     0.074 A 
ATOM     51  C   UNL A   1      42.627  27.762  31.487  1.00  0.00     0.029 A 
ATOM     52  N   UNL A   1      41.553  29.346  32.618  1.00  0.00    -0.354 N 
ATOM     53  N   UNL A   1      41.081  31.129  34.890  1.00  0.00    -0.248 NA
ATOM     54  C   UNL A   1      41.561  31.799  37.076  1.00  0.00     0.031 C 
ATOM     55  C   UNL A   1      43.253  27.923  32.726  1.00  0.00     0.029 A 
ATOM     56  C   UNL A   1      42.596  28.924  33.422  1.00  0.00     0.049 A 
ATOM     57  H   UNL A   1      40.905  30.048  32.854  1.00  0.00     0.167 HD
ATOM     58  C   UNL A   1      42.183  30.419  35.354  1.00  0.00     0.074 A 
ATOM     59  C   UNL A   1      42.460  30.902  36.690  1.00  0.00     0.031 C 
ATOM     60  C   UNL A   1      42.896  29.449  34.731  1.00  0.00     0.034 A 
BRANCH  47  61
ATOM     61  C   UNL A   1      40.670  27.861  29.191  1.00  0.00     0.023 A 
ATOM     62  C   UNL A   1      39.814  26.744  29.110  1.00  0.00     0.012 A 
ATOM     63  C   UNL A   1      41.554  28.130  28.128  1.00  0.00     0.148 A 
ATOM     64  C   UNL A   1      39.864  25.888  28.011  1.00  0.00     0.002 A 
ATOM     65  C   UNL A   1      41.563  27.301  27.013  1.00  0.00     0.091 A 
ATOM     66  F   UNL A   1      42.376  29.185  28.230  1.00  0.00    -0.205 F 
ATOM     67  C   UNL A   1      40.729  26.173  26.958  1.00  0.00     0.022 A 
BRANCH  65  68
ATOM     68  S   UNL A   1      42.579  27.629  25.568  1.00  0.00     0.127 S 
ATOM     69  O   UNL A   1      42.314  26.449  24.747  1.00  0.00    -0.237 OA
ATOM     70  O   UNL A   1      41.996  28.870  25.058  1.00  0.00    -0.237 OA
ATOM     71  O   UNL A   1      43.945  27.754  26.057  1.00  0.00    -0.744 OA
ENDBRANCH  65  68
ENDBRANCH  47  61
BRANCH  48  72
ATOM     72  C   UNL A   1      39.462  33.846  37.093  1.00  0.00     0.023 A 
ATOM     73  C   UNL A   1      39.915  35.179  37.069  1.00  0.00     0.012 A 
ATOM     74  C   UNL A   1      38.820  33.361  38.249  1.00  0.00     0.148 A 
ATOM     75  C   UNL A   1      39.764  36.004  38.184  1.00  0.00     0.002 A 
ATOM     76  C   UNL A   1      38.619  34.204  39.335  1.00  0.00     0.091 A 
ATOM     77  F   UNL A   1      38.403  32.087  38.255  1.00  0.00    -0.205 F 
ATOM     78  C   UNL A   1      39.108  35.520  39.314  1.00  0.00     0.022 A 
BRANCH  76  79
ATOM     79  S   UNL A   1      37.671  33.710  40.778  1.00  0.00     0.127 S 
ATOM     80  O   UNL A   1      38.552  32.720  41.391  1.00  0.00    -0.237 OA
ATOM     81  O   UNL A   1      37.556  34.971  41.509  1.00  0.00    -0.237 OA
ATOM     82  O   UNL A   1      36.407  33.198  40.265  1.00  0.00    -0.744 OA
ENDBRANCH  76  79
ENDBRANCH  48  72
BRANCH  60  83
ATOM     83  C   UNL A   1      44.083  28.872  35.457  1.00  0.00     0.023 A 
ATOM     84  C   UNL A   1      45.362  29.437  35.285  1.00  0.00     0.012 A 
ATOM     85  C   UNL A   1      43.911  27.815  36.374  1.00  0.00     0.148 A 
ATOM     86  C   UNL A   1      46.458  28.936  35.989  1.00  0.00     0.002 A 
ATOM     87  C   UNL A   1      44.996  27.358  37.111  1.00  0.00     0.091 A 
ATOM     88  F   UNL A   1      42.689  27.280  36.509  1.00  0.00    -0.205 F 
ATOM     89  C   UNL A   1      46.272  27.907  36.910  1.00  0.00     0.022 A 
BRANCH  87  90
ATOM     90  S   UNL A   1      44.833  26.108  38.392  1.00  0.00     0.127 S 
ATOM     91  O   UNL A   1      44.386  24.950  37.621  1.00  0.00    -0.237 OA
ATOM     92  O   UNL A   1      46.201  26.010  38.902  1.00  0.00    -0.237 OA
ATOM     93  O   UNL A   1      43.867  26.632  39.346  1.00  0.00    -0.744 OA
ENDBRANCH  87  90
ENDBRANCH  60  83
ENDBRANCH  34  35
ENDBRANCH  26  29
ENDBRANCH  24  25
ENDBRANCH   1  24
TORSDOF 15
ENDMDL
MODEL 2
REMARK VINA RESULT:     -12.5      6.055     12.198
REMARK SMILES Cc1ccc(C(=O)N[C@@H]2C=C[C@H](C(=O)NCCCNC(=O)c3ccc(-c4c5nc(c(-c6cccc(S(=O)(=O)[O-])c6F)c6ccc([nH]6)c(-c6cccc(S(=O)(=O)[O-])c6F)c6nc(c(-c7cccc(S(=O)(=O)[O-])c7F)c7ccc4[nH]7)C=C6)C=C5)cc3)C2)c(F)c1
REMARK SMILES IDX 17 1 16 2 15 3 13 4 14 5 12 7 9 8 10 9 85 10 11 11 8 12 6 13
REMARK SMILES IDX 7 14 5 16 1 17 2 18 3 19 88 20 4 21 86 22 87 23 18 24 19 25
REMARK SMILES IDX 20 26 21 28 22 29 23 30 84 31 24 32 83 33 25 34 26 35 27 36
REMARK SMILES IDX 77 37 28 38 82 39 76 40 78 41 29 42 81 43 75 44 74 45 30 47
REMARK SMILES IDX 62 48 42 49 61 50 43 51 46 52 60 53 79 54 44 55 45 56 59 58
REMARK SMILES IDX 80 59 47 60 31 61 32 62 40 63 33 64 35 65 41 66 34 67 36 68
REMARK SMILES IDX 37 69 38 70 39 71 63 72 64 73 72 74 65 75 67 76 73 77 66 78
REMARK SMILES IDX 68 79 69 80 70 81 71 82 48 83 49 84 57 85 50 86 52 87 58 88
REMARK SMILES IDX 51 89 53 90 54 91 55 92 56 93
REMARK H PARENT 15 6 8 15 19 27 78 46 46 57
REMARK Flexibility Score: inf
ROOT
ATOM      1  C   UNL A   1      38.306  19.983  25.093  1.00  0.00     0.042 C 
ENDROOT
BRANCH   1   2
ATOM      2  C   UNL A   1      37.432  21.195  24.795  1.00  0.00     0.117 C 
BRANCH   2   3
ATOM      3  N   UNL A   1      36.530  21.542  25.881  1.00  0.00    -0.356 N 
ATOM      4  C   UNL A   1      35.164  21.460  25.929  1.00  0.00     0.227 C 
ATOM      5  O   UNL A   1      34.610  21.638  27.012  1.00  0.00    -0.274 OA
ATOM      6  H   UNL A   1      36.962  21.885  26.697  1.00  0.00     0.163 HD
BRANCH   4   7
ATOM      7  C   UNL A   1      34.398  21.218  24.627  1.00  0.00     0.103 C 
ATOM      8  C   UNL A   1      32.012  21.884  24.646  1.00  0.00     0.106 C 
ATOM      9  C   UNL A   1      32.195  20.396  24.648  1.00  0.00    -0.006 C 
ATOM     10  C   UNL A   1      33.442  22.389  24.391  1.00  0.00     0.047 C 
ATOM     11  C   UNL A   1      33.484  20.037  24.662  1.00  0.00    -0.016 C 
BRANCH   8  12
ATOM     12  N   UNL A   1      31.351  22.237  25.891  1.00  0.00    -0.346 N 
ATOM     13  C   UNL A   1      30.740  23.387  26.331  1.00  0.00     0.254 C 
ATOM     14  O   UNL A   1      29.963  23.326  27.280  1.00  0.00    -0.269 OA
ATOM     15  H   UNL A   1      31.340  21.506  26.551  1.00  0.00     0.164 HD
BRANCH  13  16
ATOM     16  C   UNL A   1      31.083  24.693  25.744  1.00  0.00     0.075 A 
ATOM     17  C   UNL A   1      31.027  28.723  24.270  1.00  0.00     0.044 C 
ATOM     18  C   UNL A   1      31.143  27.302  24.740  1.00  0.00    -0.048 A 
ATOM     19  C   UNL A   1      31.743  27.003  25.974  1.00  0.00     0.004 A 
ATOM     20  C   UNL A   1      30.653  26.258  23.950  1.00  0.00     0.043 A 
ATOM     21  C   UNL A   1      31.736  25.693  26.467  1.00  0.00     0.017 A 
ATOM     22  C   UNL A   1      30.614  24.963  24.457  1.00  0.00     0.136 A 
ATOM     23  F   UNL A   1      30.048  24.007  23.707  1.00  0.00    -0.206 F 
ENDBRANCH  13  16
ENDBRANCH   8  12
ENDBRANCH   4   7
ENDBRANCH   2   3
ENDBRANCH   1   2
BRANCH   1  24
ATOM     24  C   UNL A   1      39.399  20.207  26.131  1.00  0.00     0.118 C 
BRANCH  24  25
ATOM     25  N   UNL A   1      40.440  19.190  26.100  1.00  0.00    -0.352 N 
ATOM     26  C   UNL A   1      41.809  19.318  26.151  1.00  0.00     0.251 C 
ATOM     27  H   UNL A   1      40.112  18.264  26.031  1.00  0.00     0.163 HD
ATOM     28  O   UNL A   1      42.514  18.334  25.948  1.00  0.00    -0.269 OA
BRANCH  26  29
ATOM     29  C   UNL A   1      42.433  20.633  26.423  1.00  0.00     0.039 A 
ATOM     30  C   UNL A   1      42.858  21.415  25.345  1.00  0.00     0.014 A 
ATOM     31  C   UNL A   1      42.616  21.091  27.729  1.00  0.00     0.014 A 
ATOM     32  C   UNL A   1      43.398  22.684  25.576  1.00  0.00     0.010 A 
ATOM     33  C   UNL A   1      43.072  22.387  27.954  1.00  0.00     0.010 A 
ATOM     34  C   UNL A   1      43.473  23.198  26.881  1.00  0.00    -0.014 A 
BRANCH  34  35
ATOM     35  C   UNL A   1      43.959  24.577  27.147  1.00  0.00     0.031 A 
ATOM     36  C   UNL A   1      43.021  25.623  27.687  1.00  0.00     0.074 A 
ATOM     37  C   UNL A   1      45.223  24.915  26.818  1.00  0.00     0.049 A 
ATOM     38  N   UNL A   1      43.243  26.891  27.915  1.00  0.00    -0.248 NA
ATOM     39  C   UNL A   1      41.643  25.195  27.984  1.00  0.00     0.031 C 
ATOM     40  C   UNL A   1      46.213  24.013  26.223  1.00  0.00     0.029 A 
ATOM     41  N   UNL A   1      45.884  26.115  26.908  1.00  0.00    -0.354 N 
ATOM     42  C   UNL A   1      42.029  27.421  28.337  1.00  0.00     0.074 A 
ATOM     43  C   UNL A   1      41.065  26.344  28.306  1.00  0.00     0.031 C 
ATOM     44  C   UNL A   1      47.354  24.687  26.014  1.00  0.00     0.029 A 
ATOM     45  C   UNL A   1      47.169  26.077  26.418  1.00  0.00     0.049 A 
ATOM     46  H   UNL A   1      45.476  26.926  27.289  1.00  0.00     0.167 HD
ATOM     47  C   UNL A   1      41.746  28.684  28.737  1.00  0.00     0.034 A 
ATOM     48  C   UNL A   1      48.091  27.052  26.295  1.00  0.00     0.034 A 
ATOM     49  C   UNL A   1      42.715  29.744  28.805  1.00  0.00     0.049 A 
ATOM     50  C   UNL A   1      47.757  28.441  26.770  1.00  0.00     0.074 A 
ATOM     51  C   UNL A   1      42.549  31.030  29.287  1.00  0.00     0.029 A 
ATOM     52  N   UNL A   1      44.026  29.648  28.366  1.00  0.00    -0.354 N 
ATOM     53  N   UNL A   1      46.648  28.883  27.312  1.00  0.00    -0.248 NA
ATOM     54  C   UNL A   1      48.811  29.458  26.647  1.00  0.00     0.031 C 
ATOM     55  C   UNL A   1      43.747  31.724  29.102  1.00  0.00     0.029 A 
ATOM     56  C   UNL A   1      44.674  30.857  28.547  1.00  0.00     0.049 A 
ATOM     57  H   UNL A   1      44.435  28.839  27.981  1.00  0.00     0.167 HD
ATOM     58  C   UNL A   1      46.886  30.215  27.635  1.00  0.00     0.074 A 
ATOM     59  C   UNL A   1      48.249  30.503  27.241  1.00  0.00     0.031 C 
ATOM     60  C   UNL A   1      46.048  31.118  28.200  1.00  0.00     0.034 A 
BRANCH  47  61
ATOM     61  C   UNL A   1      40.333  28.985  29.166  1.00  0.00     0.023 A 
ATOM     62  C   UNL A   1      39.360  29.316  28.201  1.00  0.00     0.012 A 
ATOM     63  C   UNL A   1      39.953  28.880  30.519  1.00  0.00     0.148 A 
ATOM     64  C   UNL A   1      38.043  29.576  28.578  1.00  0.00     0.002 A 
ATOM     65  C   UNL A   1      38.629  29.092  30.882  1.00  0.00     0.091 A 
ATOM     66  F   UNL A   1      40.895  28.585  31.426  1.00  0.00    -0.205 F 
ATOM     67  C   UNL A   1      37.675  29.453  29.916  1.00  0.00     0.022 A 
BRANCH  65  68
ATOM     68  S   UNL A   1      38.037  28.875  32.564  1.00  0.00     0.127 S 
ATOM     69  O   UNL A   1      38.905  29.790  33.302  1.00  0.00    -0.237 OA
ATOM     70  O   UNL A   1      36.644  29.307  32.457  1.00  0.00    -0.237 OA
ATOM     71  O   UNL A   1      38.213  27.462  32.873  1.00  0.00    -0.744 OA
ENDBRANCH  65  68
ENDBRANCH  47  61
BRANCH  48  72
ATOM     72  C   UNL A   1      49.443  26.739  25.750  1.00  0.00     0.023 A 
ATOM     73  C   UNL A   1      50.365  26.037  26.551  1.00  0.00     0.012 A 
ATOM     74  C   UNL A   1      49.815  27.114  24.445  1.00  0.00     0.148 A 
ATOM     75  C   UNL A   1      51.645  25.746  26.077  1.00  0.00     0.002 A 
ATOM     76  C   UNL A   1      51.070  26.771  23.957  1.00  0.00     0.091 A 
ATOM     77  F   UNL A   1      48.927  27.788  23.701  1.00  0.00    -0.205 F 
ATOM     78  C   UNL A   1      51.994  26.104  24.777  1.00  0.00     0.022 A 
BRANCH  76  79
ATOM     79  S   UNL A   1      51.559  27.073  22.255  1.00  0.00     0.127 S 
ATOM     80  O   UNL A   1      50.434  26.508  21.515  1.00  0.00    -0.237 OA
ATOM     81  O   UNL A   1      51.650  28.532  22.224  1.00  0.00    -0.237 OA
ATOM     82  O   UNL A   1      52.834  26.390  22.083  1.00  0.00    -0.744 OA
ENDBRANCH  76  79
ENDBRANCH  48  72
BRANCH  60  83
ATOM     83  C   UNL A   1      46.588  32.497  28.481  1.00  0.00     0.023 A 
ATOM     84  C   UNL A   1      47.139  32.799  29.742  1.00  0.00     0.012 A 
ATOM     85  C   UNL A   1      46.617  33.471  27.462  1.00  0.00     0.148 A 
ATOM     86  C   UNL A   1      47.680  34.060  29.994  1.00  0.00     0.002 A 
ATOM     87  C   UNL A   1      47.207  34.705  27.704  1.00  0.00     0.091 A 
ATOM     88  F   UNL A   1      46.071  33.169  26.274  1.00  0.00    -0.205 F 
ATOM     89  C   UNL A   1      47.726  35.006  28.972  1.00  0.00     0.022 A 
BRANCH  87  90
ATOM     90  S   UNL A   1      47.402  35.947  26.420  1.00  0.00     0.127 S 
ATOM     91  O   UNL A   1      46.022  36.377  26.210  1.00  0.00    -0.237 OA
ATOM     92  O   UNL A   1      48.256  36.937  27.078  1.00  0.00    -0.237 OA
ATOM     93  O   UNL A   1      48.023  35.267  25.292  1.00  0.00    -0.744 OA
ENDBRANCH  87  90
ENDBRANCH  60  83
ENDBRANCH  34  35
ENDBRANCH  26  29
ENDBRANCH  24  25
ENDBRANCH   1  24
TORSDOF 15
ENDMDL
MODEL 3
REMARK VINA RESULT:     -12.5      2.161      8.066
REMARK SMILES Cc1ccc(C(=O)N[C@@H]2C=C[C@H](C(=O)NCCCNC(=O)c3ccc(-c4c5nc(c(-c6cccc(S(=O)(=O)[O-])c6F)c6ccc([nH]6)c(-c6cccc(S(=O)(=O)[O-])c6F)c6nc(c(-c7cccc(S(=O)(=O)[O-])c7F)c7ccc4[nH]7)C=C6)C=C5)cc3)C2)c(F)c1
REMARK SMILES IDX 17 1 16 2 15 3 13 4 14 5 12 7 9 8 10 9 85 10 11 11 8 12 6 13
REMARK SMILES IDX 7 14 5 16 1 17 2 18 3 19 88 20 4 21 86 22 87 23 18 24 19 25
REMARK SMILES IDX 20 26 21 28 22 29 23 30 84 31 24 32 83 33 25 34 26 35 27 36
REMARK SMILES IDX 77 37 28 38 82 39 76 40 78 41 29 42 81 43 75 44 74 45 30 47
REMARK SMILES IDX 62 48 42 49 61 50 43 51 46 52 60 53 79 54 44 55 45 56 59 58
REMARK SMILES IDX 80 59 47 60 31 61 32 62 40 63 33 64 35 65 41 66 34 67 36 68
REMARK SMILES IDX 37 69 38 70 39 71 63 72 64 73 72 74 65 75 67 76 73 77 66 78
REMARK SMILES IDX 68 79 69 80 70 81 71 82 48 83 49 84 57 85 50 86 52 87 58 88
REMARK SMILES IDX 51 89 53 90 54 91 55 92 56 93
REMARK H PARENT 15 6 8 15 19 27 78 46 46 57
REMARK Flexibility Score: inf
ROOT
ATOM      1  C   UNL A   1      32.406  29.965  25.654  1.00  0.00     0.042 C 
ENDROOT
BRANCH   1   2
ATOM      2  C   UNL A   1      31.039  30.165  25.010  1.00  0.00     0.117 C 
BRANCH   2   3
ATOM      3  N   UNL A   1      30.958  29.660  23.650  1.00  0.00    -0.356 N 
ATOM      4  C   UNL A   1      30.536  28.436  23.207  1.00  0.00     0.227 C 
ATOM      5  O   UNL A   1      30.379  28.278  21.997  1.00  0.00    -0.274 OA
ATOM      6  H   UNL A   1      31.247  30.287  22.948  1.00  0.00     0.163 HD
BRANCH   4   7
ATOM      7  C   UNL A   1      30.347  27.312  24.228  1.00  0.00     0.103 C 
ATOM      8  C   UNL A   1      31.776  25.314  23.904  1.00  0.00     0.106 C 
ATOM      9  C   UNL A   1      30.340  25.056  23.564  1.00  0.00    -0.006 C 
ATOM     10  C   UNL A   1      31.714  26.706  24.556  1.00  0.00     0.047 C 
ATOM     11  C   UNL A   1      29.572  26.141  23.717  1.00  0.00    -0.016 C 
BRANCH   8  12
ATOM     12  N   UNL A   1      32.544  25.143  22.682  1.00  0.00    -0.346 N 
ATOM     13  C   UNL A   1      32.985  24.031  22.004  1.00  0.00     0.254 C 
ATOM     14  O   UNL A   1      33.315  24.142  20.826  1.00  0.00    -0.269 OA
ATOM     15  H   UNL A   1      32.800  25.994  22.256  1.00  0.00     0.164 HD
BRANCH  13  16
ATOM     16  C   UNL A   1      33.159  22.746  22.699  1.00  0.00     0.075 A 
ATOM     17  C   UNL A   1      33.299  19.581  25.594  1.00  0.00     0.044 C 
ATOM     18  C   UNL A   1      33.303  20.623  24.514  1.00  0.00    -0.048 A 
ATOM     19  C   UNL A   1      32.266  20.680  23.570  1.00  0.00     0.004 A 
ATOM     20  C   UNL A   1      34.345  21.554  24.438  1.00  0.00     0.043 A 
ATOM     21  C   UNL A   1      32.205  21.727  22.644  1.00  0.00     0.017 A 
ATOM     22  C   UNL A   1      34.264  22.614  23.542  1.00  0.00     0.136 A 
ATOM     23  F   UNL A   1      35.235  23.538  23.567  1.00  0.00    -0.206 F 
ENDBRANCH  13  16
ENDBRANCH   8  12
ENDBRANCH   4   7
ENDBRANCH   2   3
ENDBRANCH   1   2
BRANCH   1  24
ATOM     24  C   UNL A   1      32.550  30.524  27.064  1.00  0.00     0.118 C 
BRANCH  24  25
ATOM     25  N   UNL A   1      32.762  31.964  27.094  1.00  0.00    -0.352 N 
ATOM     26  C   UNL A   1      33.788  32.699  27.642  1.00  0.00     0.251 C 
ATOM     27  H   UNL A   1      32.061  32.495  26.653  1.00  0.00     0.163 HD
ATOM     28  O   UNL A   1      33.691  33.921  27.696  1.00  0.00    -0.269 OA
BRANCH  26  29
ATOM     29  C   UNL A   1      34.990  32.027  28.186  1.00  0.00     0.039 A 
ATOM     30  C   UNL A   1      36.189  32.743  28.259  1.00  0.00     0.014 A 
ATOM     31  C   UNL A   1      34.947  30.697  28.609  1.00  0.00     0.014 A 
ATOM     32  C   UNL A   1      37.322  32.147  28.822  1.00  0.00     0.010 A 
ATOM     33  C   UNL A   1      36.049  30.135  29.248  1.00  0.00     0.010 A 
ATOM     34  C   UNL A   1      37.252  30.850  29.357  1.00  0.00    -0.014 A 
BRANCH  34  35
ATOM     35  C   UNL A   1      38.415  30.227  30.041  1.00  0.00     0.031 A 
ATOM     36  C   UNL A   1      38.792  30.647  31.437  1.00  0.00     0.074 A 
ATOM     37  C   UNL A   1      39.189  29.348  29.372  1.00  0.00     0.049 A 
ATOM     38  N   UNL A   1      39.809  30.269  32.165  1.00  0.00    -0.248 NA
ATOM     39  C   UNL A   1      37.927  31.643  32.091  1.00  0.00     0.031 C 
ATOM     40  C   UNL A   1      38.973  28.909  27.991  1.00  0.00     0.029 A 
ATOM     41  N   UNL A   1      40.331  28.687  29.753  1.00  0.00    -0.354 N 
ATOM     42  C   UNL A   1      39.735  31.009  33.339  1.00  0.00     0.074 A 
ATOM     43  C   UNL A   1      38.588  31.881  33.215  1.00  0.00     0.031 C 
ATOM     44  C   UNL A   1      39.942  28.046  27.646  1.00  0.00     0.029 A 
ATOM     45  C   UNL A   1      40.871  27.900  28.762  1.00  0.00     0.049 A 
ATOM     46  H   UNL A   1      40.726  28.769  30.651  1.00  0.00     0.167 HD
ATOM     47  C   UNL A   1      40.533  30.954  34.432  1.00  0.00     0.034 A 
ATOM     48  C   UNL A   1      41.994  27.154  28.746  1.00  0.00     0.034 A 
ATOM     49  C   UNL A   1      41.649  30.057  34.569  1.00  0.00     0.049 A 
ATOM     50  C   UNL A   1      42.850  27.092  29.984  1.00  0.00     0.074 A 
ATOM     51  C   UNL A   1      42.460  29.858  35.672  1.00  0.00     0.029 A 
ATOM     52  N   UNL A   1      42.124  29.223  33.569  1.00  0.00    -0.354 N 
ATOM     53  N   UNL A   1      42.672  27.684  31.141  1.00  0.00    -0.248 NA
ATOM     54  C   UNL A   1      44.042  26.235  29.925  1.00  0.00     0.031 C 
ATOM     55  C   UNL A   1      43.449  28.933  35.326  1.00  0.00     0.029 A 
ATOM     56  C   UNL A   1      43.227  28.522  34.022  1.00  0.00     0.049 A 
ATOM     57  H   UNL A   1      41.733  29.143  32.669  1.00  0.00     0.167 HD
ATOM     58  C   UNL A   1      43.703  27.236  31.959  1.00  0.00     0.074 A 
ATOM     59  C   UNL A   1      44.492  26.313  31.171  1.00  0.00     0.031 C 
ATOM     60  C   UNL A   1      43.974  27.566  33.246  1.00  0.00     0.034 A 
BRANCH  47  61
ATOM     61  C   UNL A   1      40.209  31.867  35.586  1.00  0.00     0.023 A 
ATOM     62  C   UNL A   1      40.971  33.035  35.794  1.00  0.00     0.012 A 
ATOM     63  C   UNL A   1      39.112  31.602  36.428  1.00  0.00     0.148 A 
ATOM     64  C   UNL A   1      40.672  33.902  36.845  1.00  0.00     0.002 A 
ATOM     65  C   UNL A   1      38.788  32.496  37.441  1.00  0.00     0.091 A 
ATOM     66  F   UNL A   1      38.410  30.477  36.229  1.00  0.00    -0.205 F 
ATOM     67  C   UNL A   1      39.575  33.639  37.660  1.00  0.00     0.022 A 
BRANCH  65  68
ATOM     68  S   UNL A   1      37.345  32.292  38.492  1.00  0.00     0.127 S 
ATOM     69  O   UNL A   1      37.784  32.942  39.725  1.00  0.00    -0.237 OA
ATOM     70  O   UNL A   1      36.320  33.024  37.749  1.00  0.00    -0.237 OA
ATOM     71  O   UNL A   1      37.119  30.857  38.589  1.00  0.00    -0.744 OA
ENDBRANCH  65  68
ENDBRANCH  47  61
BRANCH  48  72
ATOM     72  C   UNL A   1      42.345  26.357  27.537  1.00  0.00     0.023 A 
ATOM     73  C   UNL A   1      43.068  26.966  26.493  1.00  0.00     0.012 A 
ATOM     74  C   UNL A   1      41.985  25.001  27.421  1.00  0.00     0.148 A 
ATOM     75  C   UNL A   1      43.395  26.252  25.340  1.00  0.00     0.002 A 
ATOM     76  C   UNL A   1      42.363  24.277  26.296  1.00  0.00     0.091 A 
ATOM     77  F   UNL A   1      41.291  24.440  28.421  1.00  0.00    -0.205 F 
ATOM     78  C   UNL A   1      43.051  24.905  25.245  1.00  0.00     0.022 A 
BRANCH  76  79
ATOM     79  S   UNL A   1      42.081  22.510  26.145  1.00  0.00     0.127 S 
ATOM     80  O   UNL A   1      42.764  22.203  24.891  1.00  0.00    -0.237 OA
ATOM     81  O   UNL A   1      42.737  21.997  27.348  1.00  0.00    -0.237 OA
ATOM     82  O   UNL A   1      40.634  22.340  26.133  1.00  0.00    -0.744 OA
ENDBRANCH  76  79
ENDBRANCH  48  72
BRANCH  60  83
ATOM     83  C   UNL A   1      45.144  26.890  33.913  1.00  0.00     0.023 A 
ATOM     84  C   UNL A   1      46.427  27.468  33.850  1.00  0.00     0.012 A 
ATOM     85  C   UNL A   1      44.951  25.717  34.670  1.00  0.00     0.148 A 
ATOM     86  C   UNL A   1      47.506  26.872  34.503  1.00  0.00     0.002 A 
ATOM     87  C   UNL A   1      46.018  25.158  35.362  1.00  0.00     0.091 A 
ATOM     88  F   UNL A   1      43.725  25.172  34.702  1.00  0.00    -0.205 F 
ATOM     89  C   UNL A   1      47.298  25.726  35.269  1.00  0.00     0.022 A 
BRANCH  87  90
ATOM     90  S   UNL A   1      45.825  23.744  36.453  1.00  0.00     0.127 S 
ATOM     91  O   UNL A   1      45.303  22.732  35.537  1.00  0.00    -0.237 OA
ATOM     92  O   UNL A   1      47.198  23.511  36.902  1.00  0.00    -0.237 OA
ATOM     93  O   UNL A   1      44.908  24.167  37.503  1.00  0.00    -0.744 OA
ENDBRANCH  87  90
ENDBRANCH  60  83
ENDBRANCH  34  35
ENDBRANCH  26  29
ENDBRANCH  24  25
ENDBRANCH   1  24
TORSDOF 15
ENDMDL
