MODEL 1
REMARK VINA RESULT:     -10.8      0.000      0.000
REMARK SMILES CC[C@@](C)(NS(=O)(=O)c1ccc(Cl)s1)C(=O)NCCCNC(=O)c1ccc(-c2c3nc(c(-c4cccc(S(=O)(=O)[O-])c4F)c4ccc([nH]4)c(-c4cccc(S(=O)(=O)[O-])c4F)c4nc(c(-c5cccc(S(=O)(=O)[O-])c5F)c5ccc2[nH]5)C=C4)C=C3)cc1
REMARK SMILES IDX 19 1 18 2 17 3 15 4 16 5 3 7 4 8 2 9 1 10 5 11 6 13 7 14
REMARK SMILES IDX 8 15 9 16 10 17 14 18 11 19 12 20 13 21 20 22 21 23 22 24
REMARK SMILES IDX 23 26 24 27 25 28 86 29 26 30 85 31 27 32 28 33 29 34 79 35
REMARK SMILES IDX 30 36 84 37 78 38 80 39 31 40 83 41 77 42 76 43 32 45 64 46
REMARK SMILES IDX 44 47 63 48 45 49 48 50 62 51 81 52 46 53 47 54 61 56 82 57
REMARK SMILES IDX 49 58 33 59 34 60 42 61 35 62 37 63 43 64 36 65 38 66 39 67
REMARK SMILES IDX 40 68 41 69 65 70 66 71 74 72 67 73 69 74 75 75 68 76 70 77
REMARK SMILES IDX 71 78 72 79 73 80 50 81 51 82 59 83 52 84 54 85 60 86 53 87
REMARK SMILES IDX 55 88 56 89 57 90 58 91
REMARK H PARENT 17 6 5 12 21 25 80 44 48 55
REMARK Flexibility Score: inf
ROOT
ATOM      1  C   UNL A   1      33.192  27.440  26.549  1.00  0.00     0.042 C 
ENDROOT
BRANCH   1   2
ATOM      2  C   UNL A   1      32.735  26.298  25.629  1.00  0.00     0.117 C 
BRANCH   2   3
ATOM      3  N   UNL A   1      33.445  26.130  24.365  1.00  0.00    -0.354 N 
ATOM      4  C   UNL A   1      34.007  25.092  23.687  1.00  0.00     0.241 C 
ATOM      5  O   UNL A   1      34.115  25.308  22.469  1.00  0.00    -0.273 OA
ATOM      6  H   UNL A   1      33.542  26.982  23.880  1.00  0.00     0.163 HD
BRANCH   4   7
ATOM      7  C   UNL A   1      34.593  23.787  24.288  1.00  0.00     0.108 C 
ATOM      8  C   UNL A   1      35.385  22.944  23.290  1.00  0.00     0.040 C 
BRANCH   7   9
ATOM      9  C   UNL A   1      35.560  24.159  25.485  1.00  0.00     0.030 C 
ATOM     10  C   UNL A   1      37.003  23.685  25.436  1.00  0.00     0.006 C 
ENDBRANCH   7   9
BRANCH   7  11
ATOM     11  N   UNL A   1      33.608  22.947  25.026  1.00  0.00    -0.195 NA
ATOM     12  H   UNL A   1      33.212  23.573  25.727  1.00  0.00     0.142 HD
BRANCH  11  13
ATOM     13  S   UNL A   1      32.302  22.118  24.424  1.00  0.00     0.251 S 
ATOM     14  O   UNL A   1      31.299  22.101  25.454  1.00  0.00    -0.206 OA
ATOM     15  O   UNL A   1      32.066  22.762  23.149  1.00  0.00    -0.206 OA
BRANCH  13  16
ATOM     16  C   UNL A   1      32.667  20.425  24.031  1.00  0.00     0.136 A 
ATOM     17  C   UNL A   1      32.165  19.487  23.144  1.00  0.00     0.035 A 
ATOM     18  S   UNL A   1      33.950  19.738  24.959  1.00  0.00    -0.110 S 
ATOM     19  C   UNL A   1      32.865  18.245  23.183  1.00  0.00     0.034 A 
ATOM     20  C   UNL A   1      33.814  18.253  24.166  1.00  0.00     0.094 A 
ATOM     21  Cl  UNL A   1      34.818  16.937  24.616  1.00  0.00    -0.072 Cl
ENDBRANCH  13  16
ENDBRANCH  11  13
ENDBRANCH   7  11
ENDBRANCH   4   7
ENDBRANCH   2   3
ENDBRANCH   1   2
BRANCH   1  22
ATOM     22  C   UNL A   1      33.996  28.586  25.932  1.00  0.00     0.118 C 
BRANCH  22  23
ATOM     23  N   UNL A   1      33.721  29.869  26.558  1.00  0.00    -0.352 N 
ATOM     24  C   UNL A   1      34.449  30.571  27.491  1.00  0.00     0.251 C 
ATOM     25  H   UNL A   1      32.884  30.302  26.270  1.00  0.00     0.163 HD
ATOM     26  O   UNL A   1      33.948  31.577  27.993  1.00  0.00    -0.269 OA
BRANCH  24  27
ATOM     27  C   UNL A   1      35.806  30.142  27.926  1.00  0.00     0.039 A 
ATOM     28  C   UNL A   1      35.940  29.562  29.194  1.00  0.00     0.014 A 
ATOM     29  C   UNL A   1      36.952  30.376  27.160  1.00  0.00     0.014 A 
ATOM     30  C   UNL A   1      37.201  29.179  29.672  1.00  0.00     0.010 A 
ATOM     31  C   UNL A   1      38.212  29.965  27.628  1.00  0.00     0.010 A 
ATOM     32  C   UNL A   1      38.352  29.362  28.888  1.00  0.00    -0.014 A 
BRANCH  32  33
ATOM     33  C   UNL A   1      39.678  28.883  29.376  1.00  0.00     0.031 A 
ATOM     34  C   UNL A   1      40.407  29.577  30.496  1.00  0.00     0.074 A 
ATOM     35  C   UNL A   1      40.258  27.819  28.781  1.00  0.00     0.049 A 
ATOM     36  N   UNL A   1      41.536  29.245  31.074  1.00  0.00    -0.248 NA
ATOM     37  C   UNL A   1      39.799  30.803  31.031  1.00  0.00     0.031 C 
ATOM     38  C   UNL A   1      39.706  27.089  27.640  1.00  0.00     0.029 A 
ATOM     39  N   UNL A   1      41.447  27.180  29.040  1.00  0.00    -0.354 N 
ATOM     40  C   UNL A   1      41.783  30.225  32.029  1.00  0.00     0.074 A 
ATOM     41  C   UNL A   1      40.698  31.179  31.935  1.00  0.00     0.031 C 
ATOM     42  C   UNL A   1      40.553  26.105  27.297  1.00  0.00     0.029 A 
ATOM     43  C   UNL A   1      41.715  26.138  28.183  1.00  0.00     0.049 A 
ATOM     44  H   UNL A   1      42.051  27.443  29.773  1.00  0.00     0.167 HD
ATOM     45  C   UNL A   1      42.802  30.312  32.921  1.00  0.00     0.034 A 
ATOM     46  C   UNL A   1      42.768  25.300  28.113  1.00  0.00     0.034 A 
ATOM     47  C   UNL A   1      43.871  29.353  33.041  1.00  0.00     0.049 A 
ATOM     48  C   UNL A   1      43.874  25.404  29.131  1.00  0.00     0.074 A 
ATOM     49  C   UNL A   1      44.891  29.317  33.980  1.00  0.00     0.029 A 
ATOM     50  N   UNL A   1      44.073  28.274  32.197  1.00  0.00    -0.354 N 
ATOM     51  N   UNL A   1      43.985  26.221  30.148  1.00  0.00    -0.248 NA
ATOM     52  C   UNL A   1      44.980  24.439  29.014  1.00  0.00     0.031 C 
ATOM     53  C   UNL A   1      45.719  28.226  33.690  1.00  0.00     0.029 A 
ATOM     54  C   UNL A   1      45.207  27.574  32.580  1.00  0.00     0.049 A 
ATOM     55  H   UNL A   1      43.496  28.038  31.435  1.00  0.00     0.167 HD
ATOM     56  C   UNL A   1      45.152  25.852  30.809  1.00  0.00     0.074 A 
ATOM     57  C   UNL A   1      45.701  24.720  30.091  1.00  0.00     0.031 C 
ATOM     58  C   UNL A   1      45.725  26.414  31.902  1.00  0.00     0.034 A 
BRANCH  45  59
ATOM     59  C   UNL A   1      42.783  31.459  33.900  1.00  0.00     0.023 A 
ATOM     60  C   UNL A   1      43.311  32.705  33.504  1.00  0.00     0.012 A 
ATOM     61  C   UNL A   1      42.171  31.337  35.163  1.00  0.00     0.148 A 
ATOM     62  C   UNL A   1      43.255  33.804  34.360  1.00  0.00     0.002 A 
ATOM     63  C   UNL A   1      42.088  32.447  35.997  1.00  0.00     0.091 A 
ATOM     64  F   UNL A   1      41.689  30.141  35.528  1.00  0.00    -0.205 F 
ATOM     65  C   UNL A   1      42.637  33.679  35.600  1.00  0.00     0.022 A 
BRANCH  63  66
ATOM     66  S   UNL A   1      41.244  32.405  37.582  1.00  0.00     0.127 S 
ATOM     67  O   UNL A   1      41.209  33.823  37.936  1.00  0.00    -0.237 OA
ATOM     68  O   UNL A   1      39.943  31.835  37.228  1.00  0.00    -0.237 OA
ATOM     69  O   UNL A   1      42.058  31.561  38.446  1.00  0.00    -0.744 OA
ENDBRANCH  63  66
ENDBRANCH  45  59
BRANCH  46  70
ATOM     70  C   UNL A   1      42.791  24.226  27.080  1.00  0.00     0.023 A 
ATOM     71  C   UNL A   1      43.563  24.407  25.915  1.00  0.00     0.012 A 
ATOM     72  C   UNL A   1      42.079  23.024  27.253  1.00  0.00     0.148 A 
ATOM     73  C   UNL A   1      43.605  23.421  24.930  1.00  0.00     0.002 A 
ATOM     74  C   UNL A   1      42.167  22.024  26.292  1.00  0.00     0.091 A 
ATOM     75  F   UNL A   1      41.334  22.880  28.358  1.00  0.00    -0.205 F 
ATOM     76  C   UNL A   1      42.917  22.226  25.123  1.00  0.00     0.022 A 
BRANCH  74  77
ATOM     77  S   UNL A   1      41.419  20.406  26.517  1.00  0.00     0.127 S 
ATOM     78  O   UNL A   1      41.826  20.074  27.879  1.00  0.00    -0.237 OA
ATOM     79  O   UNL A   1      39.996  20.703  26.354  1.00  0.00    -0.237 OA
ATOM     80  O   UNL A   1      41.978  19.570  25.464  1.00  0.00    -0.744 OA
ENDBRANCH  74  77
ENDBRANCH  46  70
BRANCH  58  81
ATOM     81  C   UNL A   1      47.009  25.811  32.413  1.00  0.00     0.023 A 
ATOM     82  C   UNL A   1      48.242  26.258  31.897  1.00  0.00     0.012 A 
ATOM     83  C   UNL A   1      47.003  24.856  33.450  1.00  0.00     0.148 A 
ATOM     84  C   UNL A   1      49.444  25.745  32.382  1.00  0.00     0.002 A 
ATOM     85  C   UNL A   1      48.207  24.380  33.958  1.00  0.00     0.091 A 
ATOM     86  F   UNL A   1      45.822  24.425  33.917  1.00  0.00    -0.205 F 
ATOM     87  C   UNL A   1      49.428  24.816  33.419  1.00  0.00     0.022 A 
BRANCH  85  88
ATOM     88  S   UNL A   1      48.283  23.247  35.352  1.00  0.00     0.127 S 
ATOM     89  O   UNL A   1      47.853  21.992  34.741  1.00  0.00    -0.237 OA
ATOM     90  O   UNL A   1      49.699  23.293  35.718  1.00  0.00    -0.237 OA
ATOM     91  O   UNL A   1      47.384  23.796  36.359  1.00  0.00    -0.744 OA
ENDBRANCH  85  88
ENDBRANCH  58  81
ENDBRANCH  32  33
ENDBRANCH  24  27
ENDBRANCH  22  23
ENDBRANCH   1  22
TORSDOF 17
ENDMDL
MODEL 2
REMARK VINA RESULT:     -10.8      2.175      2.733
REMARK SMILES CC[C@@](C)(NS(=O)(=O)c1ccc(Cl)s1)C(=O)NCCCNC(=O)c1ccc(-c2c3nc(c(-c4cccc(S(=O)(=O)[O-])c4F)c4ccc([nH]4)c(-c4cccc(S(=O)(=O)[O-])c4F)c4nc(c(-c5cccc(S(=O)(=O)[O-])c5F)c5ccc2[nH]5)C=C4)C=C3)cc1
REMARK SMILES IDX 19 1 18 2 17 3 15 4 16 5 3 7 4 8 2 9 1 10 5 11 6 13 7 14
REMARK SMILES IDX 8 15 9 16 10 17 14 18 11 19 12 20 13 21 20 22 21 23 22 24
REMARK SMILES IDX 23 26 24 27 25 28 86 29 26 30 85 31 27 32 28 33 29 34 79 35
REMARK SMILES IDX 30 36 84 37 78 38 80 39 31 40 83 41 77 42 76 43 32 45 64 46
REMARK SMILES IDX 44 47 63 48 45 49 48 50 62 51 81 52 46 53 47 54 61 56 82 57
REMARK SMILES IDX 49 58 33 59 34 60 42 61 35 62 37 63 43 64 36 65 38 66 39 67
REMARK SMILES IDX 40 68 41 69 65 70 66 71 74 72 67 73 69 74 75 75 68 76 70 77
REMARK SMILES IDX 71 78 72 79 73 80 50 81 51 82 59 83 52 84 54 85 60 86 53 87
REMARK SMILES IDX 55 88 56 89 57 90 58 91
REMARK H PARENT 17 6 5 12 21 25 80 44 48 55
REMARK Flexibility Score: inf
ROOT
ATOM      1  C   UNL A   1      33.691  28.061  25.813  1.00  0.00     0.042 C 
ENDROOT
BRANCH   1   2
ATOM      2  C   UNL A   1      33.639  26.551  25.540  1.00  0.00     0.117 C 
BRANCH   2   3
ATOM      3  N   UNL A   1      34.010  26.098  24.203  1.00  0.00    -0.354 N 
ATOM      4  C   UNL A   1      34.268  24.899  23.611  1.00  0.00     0.241 C 
ATOM      5  O   UNL A   1      34.115  24.922  22.379  1.00  0.00    -0.273 OA
ATOM      6  H   UNL A   1      34.094  26.847  23.570  1.00  0.00     0.163 HD
BRANCH   4   7
ATOM      7  C   UNL A   1      34.814  23.616  24.291  1.00  0.00     0.108 C 
ATOM      8  C   UNL A   1      35.685  22.752  23.380  1.00  0.00     0.040 C 
BRANCH   7   9
ATOM      9  C   UNL A   1      35.685  24.028  25.548  1.00  0.00     0.030 C 
ATOM     10  C   UNL A   1      37.147  23.618  25.592  1.00  0.00     0.006 C 
ENDBRANCH   7   9
BRANCH   7  11
ATOM     11  N   UNL A   1      33.781  22.788  24.975  1.00  0.00    -0.195 NA
ATOM     12  H   UNL A   1      33.730  23.172  25.919  1.00  0.00     0.142 HD
BRANCH  11  13
ATOM     13  S   UNL A   1      32.199  22.544  24.539  1.00  0.00     0.251 S 
ATOM     14  O   UNL A   1      32.179  22.330  23.116  1.00  0.00    -0.206 OA
ATOM     15  O   UNL A   1      31.760  21.519  25.462  1.00  0.00    -0.206 OA
BRANCH  13  16
ATOM     16  C   UNL A   1      31.157  23.944  24.865  1.00  0.00     0.136 A 
ATOM     17  C   UNL A   1      30.663  24.564  26.001  1.00  0.00     0.035 A 
ATOM     18  S   UNL A   1      30.596  24.760  23.452  1.00  0.00    -0.110 S 
ATOM     19  C   UNL A   1      29.888  25.726  25.717  1.00  0.00     0.034 A 
ATOM     20  C   UNL A   1      29.742  25.894  24.368  1.00  0.00     0.094 A 
ATOM     21  Cl  UNL A   1      28.812  27.109  23.594  1.00  0.00    -0.072 Cl
ENDBRANCH  13  16
ENDBRANCH  11  13
ENDBRANCH   7  11
ENDBRANCH   4   7
ENDBRANCH   2   3
ENDBRANCH   1   2
BRANCH   1  22
ATOM     22  C   UNL A   1      33.355  28.552  27.223  1.00  0.00     0.118 C 
BRANCH  22  23
ATOM     23  N   UNL A   1      33.370  30.002  27.334  1.00  0.00    -0.352 N 
ATOM     24  C   UNL A   1      34.314  30.835  27.890  1.00  0.00     0.251 C 
ATOM     25  H   UNL A   1      32.584  30.457  26.953  1.00  0.00     0.163 HD
ATOM     26  O   UNL A   1      34.048  32.031  28.003  1.00  0.00    -0.269 OA
BRANCH  24  27
ATOM     27  C   UNL A   1      35.628  30.335  28.375  1.00  0.00     0.039 A 
ATOM     28  C   UNL A   1      36.707  30.343  27.481  1.00  0.00     0.014 A 
ATOM     29  C   UNL A   1      35.802  29.781  29.647  1.00  0.00     0.014 A 
ATOM     30  C   UNL A   1      37.958  29.843  27.871  1.00  0.00     0.010 A 
ATOM     31  C   UNL A   1      37.063  29.308  30.046  1.00  0.00     0.010 A 
ATOM     32  C   UNL A   1      38.155  29.332  29.165  1.00  0.00    -0.014 A 
BRANCH  32  33
ATOM     33  C   UNL A   1      39.509  28.873  29.593  1.00  0.00     0.031 A 
ATOM     34  C   UNL A   1      40.280  29.585  30.674  1.00  0.00     0.074 A 
ATOM     35  C   UNL A   1      40.074  27.813  28.979  1.00  0.00     0.049 A 
ATOM     36  N   UNL A   1      41.438  29.271  31.202  1.00  0.00    -0.248 NA
ATOM     37  C   UNL A   1      39.681  30.807  31.229  1.00  0.00     0.031 C 
ATOM     38  C   UNL A   1      39.480  27.067  27.870  1.00  0.00     0.029 A 
ATOM     39  N   UNL A   1      41.282  27.190  29.188  1.00  0.00    -0.354 N 
ATOM     40  C   UNL A   1      41.716  30.261  32.138  1.00  0.00     0.074 A 
ATOM     41  C   UNL A   1      40.615  31.200  32.088  1.00  0.00     0.031 C 
ATOM     42  C   UNL A   1      40.323  26.092  27.495  1.00  0.00     0.029 A 
ATOM     43  C   UNL A   1      41.524  26.146  28.326  1.00  0.00     0.049 A 
ATOM     44  H   UNL A   1      41.916  27.466  29.891  1.00  0.00     0.167 HD
ATOM     45  C   UNL A   1      42.774  30.367  32.982  1.00  0.00     0.034 A 
ATOM     46  C   UNL A   1      42.583  25.321  28.214  1.00  0.00     0.034 A 
ATOM     47  C   UNL A   1      43.859  29.423  33.059  1.00  0.00     0.049 A 
ATOM     48  C   UNL A   1      43.733  25.446  29.179  1.00  0.00     0.074 A 
ATOM     49  C   UNL A   1      44.922  29.406  33.950  1.00  0.00     0.029 A 
ATOM     50  N   UNL A   1      44.036  28.340  32.214  1.00  0.00    -0.354 N 
ATOM     51  N   UNL A   1      43.881  26.272  30.185  1.00  0.00    -0.248 NA
ATOM     52  C   UNL A   1      44.845  24.494  29.017  1.00  0.00     0.031 C 
ATOM     53  C   UNL A   1      45.750  28.324  33.630  1.00  0.00     0.029 A 
ATOM     54  C   UNL A   1      45.195  27.658  32.549  1.00  0.00     0.049 A 
ATOM     55  H   UNL A   1      43.427  28.092  31.480  1.00  0.00     0.167 HD
ATOM     56  C   UNL A   1      45.082  25.922  30.793  1.00  0.00     0.074 A 
ATOM     57  C   UNL A   1      45.611  24.792  30.059  1.00  0.00     0.031 C 
ATOM     58  C   UNL A   1      45.697  26.499  31.855  1.00  0.00     0.034 A 
BRANCH  45  59
ATOM     59  C   UNL A   1      42.784  31.520  33.953  1.00  0.00     0.023 A 
ATOM     60  C   UNL A   1      43.312  32.760  33.537  1.00  0.00     0.012 A 
ATOM     61  C   UNL A   1      42.200  31.411  35.231  1.00  0.00     0.148 A 
ATOM     62  C   UNL A   1      43.283  33.865  34.386  1.00  0.00     0.002 A 
ATOM     63  C   UNL A   1      42.143  32.527  36.058  1.00  0.00     0.091 A 
ATOM     64  F   UNL A   1      41.717  30.221  35.614  1.00  0.00    -0.205 F 
ATOM     65  C   UNL A   1      42.692  33.752  35.641  1.00  0.00     0.022 A 
BRANCH  63  66
ATOM     66  S   UNL A   1      41.334  32.502  37.663  1.00  0.00     0.127 S 
ATOM     67  O   UNL A   1      41.408  33.909  38.053  1.00  0.00    -0.237 OA
ATOM     68  O   UNL A   1      39.989  32.035  37.326  1.00  0.00    -0.237 OA
ATOM     69  O   UNL A   1      42.106  31.580  38.484  1.00  0.00    -0.744 OA
ENDBRANCH  63  66
ENDBRANCH  45  59
BRANCH  46  70
ATOM     70  C   UNL A   1      42.573  24.240  27.187  1.00  0.00     0.023 A 
ATOM     71  C   UNL A   1      43.446  24.328  26.085  1.00  0.00     0.012 A 
ATOM     72  C   UNL A   1      41.728  23.120  27.308  1.00  0.00     0.148 A 
ATOM     73  C   UNL A   1      43.460  23.332  25.109  1.00  0.00     0.002 A 
ATOM     74  C   UNL A   1      41.784  22.106  26.358  1.00  0.00     0.091 A 
ATOM     75  F   UNL A   1      40.890  23.065  28.353  1.00  0.00    -0.205 F 
ATOM     76  C   UNL A   1      42.638  22.218  25.250  1.00  0.00     0.022 A 
BRANCH  74  77
ATOM     77  S   UNL A   1      40.856  20.578  26.529  1.00  0.00     0.127 S 
ATOM     78  O   UNL A   1      41.575  19.688  25.622  1.00  0.00    -0.237 OA
ATOM     79  O   UNL A   1      41.025  20.276  27.951  1.00  0.00    -0.237 OA
ATOM     80  O   UNL A   1      39.490  20.908  26.147  1.00  0.00    -0.744 OA
ENDBRANCH  74  77
ENDBRANCH  46  70
BRANCH  58  81
ATOM     81  C   UNL A   1      47.010  25.916  32.311  1.00  0.00     0.023 A 
ATOM     82  C   UNL A   1      47.040  25.057  33.428  1.00  0.00     0.012 A 
ATOM     83  C   UNL A   1      48.201  26.158  31.597  1.00  0.00     0.148 A 
ATOM     84  C   UNL A   1      48.237  24.473  33.844  1.00  0.00     0.002 A 
ATOM     85  C   UNL A   1      49.383  25.539  31.992  1.00  0.00     0.091 A 
ATOM     86  F   UNL A   1      48.162  26.994  30.549  1.00  0.00    -0.205 F 
ATOM     87  C   UNL A   1      49.404  24.704  33.120  1.00  0.00     0.022 A 
BRANCH  85  88
ATOM     88  S   UNL A   1      50.915  25.710  31.068  1.00  0.00     0.127 S 
ATOM     89  O   UNL A   1      50.527  25.214  29.750  1.00  0.00    -0.237 OA
ATOM     90  O   UNL A   1      51.160  27.152  31.129  1.00  0.00    -0.237 OA
ATOM     91  O   UNL A   1      51.899  24.903  31.779  1.00  0.00    -0.744 OA
ENDBRANCH  85  88
ENDBRANCH  58  81
ENDBRANCH  32  33
ENDBRANCH  24  27
ENDBRANCH  22  23
ENDBRANCH   1  22
TORSDOF 17
ENDMDL
MODEL 3
REMARK VINA RESULT:     -10.8      2.722      3.756
REMARK SMILES CC[C@@](C)(NS(=O)(=O)c1ccc(Cl)s1)C(=O)NCCCNC(=O)c1ccc(-c2c3nc(c(-c4cccc(S(=O)(=O)[O-])c4F)c4ccc([nH]4)c(-c4cccc(S(=O)(=O)[O-])c4F)c4nc(c(-c5cccc(S(=O)(=O)[O-])c5F)c5ccc2[nH]5)C=C4)C=C3)cc1
REMARK SMILES IDX 19 1 18 2 17 3 15 4 16 5 3 7 4 8 2 9 1 10 5 11 6 13 7 14
REMARK SMILES IDX 8 15 9 16 10 17 14 18 11 19 12 20 13 21 20 22 21 23 22 24
REMARK SMILES IDX 23 26 24 27 25 28 86 29 26 30 85 31 27 32 28 33 29 34 79 35
REMARK SMILES IDX 30 36 84 37 78 38 80 39 31 40 83 41 77 42 76 43 32 45 64 46
REMARK SMILES IDX 44 47 63 48 45 49 48 50 62 51 81 52 46 53 47 54 61 56 82 57
REMARK SMILES IDX 49 58 33 59 34 60 42 61 35 62 37 63 43 64 36 65 38 66 39 67
REMARK SMILES IDX 40 68 41 69 65 70 66 71 74 72 67 73 69 74 75 75 68 76 70 77
REMARK SMILES IDX 71 78 72 79 73 80 50 81 51 82 59 83 52 84 54 85 60 86 53 87
REMARK SMILES IDX 55 88 56 89 57 90 58 91
REMARK H PARENT 17 6 5 12 21 25 80 44 48 55
REMARK Flexibility Score: inf
ROOT
ATOM      1  C   UNL A   1      31.864  28.215  25.856  1.00  0.00     0.042 C 
ENDROOT
BRANCH   1   2
ATOM      2  C   UNL A   1      32.485  26.946  26.459  1.00  0.00     0.117 C 
BRANCH   2   3
ATOM      3  N   UNL A   1      31.623  25.774  26.590  1.00  0.00    -0.354 N 
ATOM      4  C   UNL A   1      31.809  24.435  26.743  1.00  0.00     0.241 C 
ATOM      5  O   UNL A   1      30.828  23.863  27.246  1.00  0.00    -0.273 OA
ATOM      6  H   UNL A   1      30.668  26.013  26.558  1.00  0.00     0.163 HD
BRANCH   4   7
ATOM      7  C   UNL A   1      33.024  23.596  26.268  1.00  0.00     0.108 C 
ATOM      8  C   UNL A   1      34.312  24.402  26.107  1.00  0.00     0.040 C 
BRANCH   7   9
ATOM      9  C   UNL A   1      33.300  22.444  27.319  1.00  0.00     0.030 C 
ATOM     10  C   UNL A   1      33.668  21.060  26.810  1.00  0.00     0.006 C 
ENDBRANCH   7   9
BRANCH   7  11
ATOM     11  N   UNL A   1      32.768  22.762  25.060  1.00  0.00    -0.195 NA
ATOM     12  H   UNL A   1      31.760  22.603  25.068  1.00  0.00     0.142 HD
BRANCH  11  13
ATOM     13  S   UNL A   1      33.122  23.105  23.475  1.00  0.00     0.251 S 
ATOM     14  O   UNL A   1      34.528  22.865  23.292  1.00  0.00    -0.206 OA
ATOM     15  O   UNL A   1      32.125  22.348  22.747  1.00  0.00    -0.206 OA
BRANCH  13  16
ATOM     16  C   UNL A   1      32.827  24.803  23.042  1.00  0.00     0.136 A 
ATOM     17  C   UNL A   1      33.620  25.888  22.707  1.00  0.00     0.035 A 
ATOM     18  S   UNL A   1      31.162  25.256  23.027  1.00  0.00    -0.110 S 
ATOM     19  C   UNL A   1      32.868  27.055  22.382  1.00  0.00     0.034 A 
ATOM     20  C   UNL A   1      31.532  26.841  22.575  1.00  0.00     0.094 A 
ATOM     21  Cl  UNL A   1      30.283  28.002  22.391  1.00  0.00    -0.072 Cl
ENDBRANCH  13  16
ENDBRANCH  11  13
ENDBRANCH   7  11
ENDBRANCH   4   7
ENDBRANCH   2   3
ENDBRANCH   1   2
BRANCH   1  22
ATOM     22  C   UNL A   1      32.803  29.341  25.421  1.00  0.00     0.118 C 
BRANCH  22  23
ATOM     23  N   UNL A   1      32.355  30.652  25.863  1.00  0.00    -0.352 N 
ATOM     24  C   UNL A   1      32.851  31.466  26.855  1.00  0.00     0.251 C 
ATOM     25  H   UNL A   1      31.576  31.011  25.378  1.00  0.00     0.163 HD
ATOM     26  O   UNL A   1      32.218  32.478  27.156  1.00  0.00    -0.269 OA
BRANCH  24  27
ATOM     27  C   UNL A   1      34.108  31.153  27.585  1.00  0.00     0.039 A 
ATOM     28  C   UNL A   1      34.261  29.865  28.114  1.00  0.00     0.014 A 
ATOM     29  C   UNL A   1      35.094  32.113  27.837  1.00  0.00     0.014 A 
ATOM     30  C   UNL A   1      35.406  29.528  28.849  1.00  0.00     0.010 A 
ATOM     31  C   UNL A   1      36.255  31.766  28.547  1.00  0.00     0.010 A 
ATOM     32  C   UNL A   1      36.426  30.471  29.062  1.00  0.00    -0.014 A 
BRANCH  32  33
ATOM     33  C   UNL A   1      37.674  30.080  29.780  1.00  0.00     0.031 A 
ATOM     34  C   UNL A   1      37.986  30.595  31.161  1.00  0.00     0.074 A 
ATOM     35  C   UNL A   1      38.563  29.270  29.170  1.00  0.00     0.049 A 
ATOM     36  N   UNL A   1      38.997  30.299  31.941  1.00  0.00    -0.248 NA
ATOM     37  C   UNL A   1      37.051  31.572  31.738  1.00  0.00     0.031 C 
ATOM     38  C   UNL A   1      38.432  28.750  27.809  1.00  0.00     0.029 A 
ATOM     39  N   UNL A   1      39.763  28.759  29.606  1.00  0.00    -0.354 N 
ATOM     40  C   UNL A   1      38.832  31.060  33.093  1.00  0.00     0.074 A 
ATOM     41  C   UNL A   1      37.635  31.852  32.899  1.00  0.00     0.031 C 
ATOM     42  C   UNL A   1      39.505  27.996  27.522  1.00  0.00     0.029 A 
ATOM     43  C   UNL A   1      40.409  27.987  28.670  1.00  0.00     0.049 A 
ATOM     44  H   UNL A   1      40.125  28.929  30.507  1.00  0.00     0.167 HD
ATOM     45  C   UNL A   1      39.588  31.082  34.220  1.00  0.00     0.034 A 
ATOM     46  C   UNL A   1      41.591  27.339  28.723  1.00  0.00     0.034 A 
ATOM     47  C   UNL A   1      40.764  30.277  34.434  1.00  0.00     0.049 A 
ATOM     48  C   UNL A   1      42.398  27.360  29.994  1.00  0.00     0.074 A 
ATOM     49  C   UNL A   1      41.534  30.169  35.581  1.00  0.00     0.029 A 
ATOM     50  N   UNL A   1      41.352  29.457  33.485  1.00  0.00    -0.354 N 
ATOM     51  N   UNL A   1      42.120  27.932  31.139  1.00  0.00    -0.248 NA
ATOM     52  C   UNL A   1      43.664  26.609  29.991  1.00  0.00     0.031 C 
ATOM     53  C   UNL A   1      42.597  29.297  35.320  1.00  0.00     0.029 A 
ATOM     54  C   UNL A   1      42.482  28.851  34.013  1.00  0.00     0.049 A 
ATOM     55  H   UNL A   1      41.017  29.323  32.569  1.00  0.00     0.167 HD
ATOM     56  C   UNL A   1      43.156  27.586  32.001  1.00  0.00     0.074 A 
ATOM     57  C   UNL A   1      44.057  26.734  31.253  1.00  0.00     0.031 C 
ATOM     58  C   UNL A   1      43.350  27.958  33.290  1.00  0.00     0.034 A 
BRANCH  45  59
ATOM     59  C   UNL A   1      39.131  31.962  35.355  1.00  0.00     0.023 A 
ATOM     60  C   UNL A   1      38.224  31.441  36.301  1.00  0.00     0.012 A 
ATOM     61  C   UNL A   1      39.657  33.256  35.540  1.00  0.00     0.148 A 
ATOM     62  C   UNL A   1      37.826  32.204  37.398  1.00  0.00     0.002 A 
ATOM     63  C   UNL A   1      39.282  33.997  36.656  1.00  0.00     0.091 A 
ATOM     64  F   UNL A   1      40.505  33.739  34.623  1.00  0.00    -0.205 F 
ATOM     65  C   UNL A   1      38.361  33.476  37.581  1.00  0.00     0.022 A 
BRANCH  63  66
ATOM     66  S   UNL A   1      39.974  35.615  37.019  1.00  0.00     0.127 S 
ATOM     67  O   UNL A   1      39.285  35.958  38.263  1.00  0.00    -0.237 OA
ATOM     68  O   UNL A   1      41.398  35.318  37.175  1.00  0.00    -0.237 OA
ATOM     69  O   UNL A   1      39.654  36.452  35.872  1.00  0.00    -0.744 OA
ENDBRANCH  63  66
ENDBRANCH  45  59
BRANCH  46  70
ATOM     70  C   UNL A   1      42.049  26.542  27.549  1.00  0.00     0.023 A 
ATOM     71  C   UNL A   1      42.768  27.182  26.520  1.00  0.00     0.012 A 
ATOM     72  C   UNL A   1      41.804  25.159  27.459  1.00  0.00     0.148 A 
ATOM     73  C   UNL A   1      43.211  26.464  25.410  1.00  0.00     0.002 A 
ATOM     74  C   UNL A   1      42.293  24.439  26.375  1.00  0.00     0.091 A 
ATOM     75  F   UNL A   1      41.101  24.573  28.438  1.00  0.00    -0.205 F 
ATOM     76  C   UNL A   1      42.983  25.092  25.342  1.00  0.00     0.022 A 
BRANCH  74  77
ATOM     77  S   UNL A   1      42.159  22.651  26.269  1.00  0.00     0.127 S 
ATOM     78  O   UNL A   1      42.884  22.224  27.462  1.00  0.00    -0.237 OA
ATOM     79  O   UNL A   1      40.710  22.451  26.324  1.00  0.00    -0.237 OA
ATOM     80  O   UNL A   1      42.763  22.291  24.994  1.00  0.00    -0.744 OA
ENDBRANCH  74  77
ENDBRANCH  46  70
BRANCH  58  81
ATOM     81  C   UNL A   1      44.576  27.437  33.996  1.00  0.00     0.023 A 
ATOM     82  C   UNL A   1      45.748  28.219  34.025  1.00  0.00     0.012 A 
ATOM     83  C   UNL A   1      44.550  26.211  34.690  1.00  0.00     0.148 A 
ATOM     84  C   UNL A   1      46.882  27.777  34.706  1.00  0.00     0.002 A 
ATOM     85  C   UNL A   1      45.671  25.796  35.403  1.00  0.00     0.091 A 
ATOM     86  F   UNL A   1      43.436  25.467  34.637  1.00  0.00    -0.205 F 
ATOM     87  C   UNL A   1      46.840  26.573  35.404  1.00  0.00     0.022 A 
BRANCH  85  88
ATOM     88  S   UNL A   1      45.678  24.301  36.402  1.00  0.00     0.127 S 
ATOM     89  O   UNL A   1      44.254  24.112  36.667  1.00  0.00    -0.237 OA
ATOM     90  O   UNL A   1      46.264  23.316  35.491  1.00  0.00    -0.237 OA
ATOM     91  O   UNL A   1      46.500  24.605  37.566  1.00  0.00    -0.744 OA
ENDBRANCH  85  88
ENDBRANCH  58  81
ENDBRANCH  32  33
ENDBRANCH  24  27
ENDBRANCH  22  23
ENDBRANCH   1  22
TORSDOF 17
ENDMDL
