MODEL 1
REMARK VINA RESULT:     -12.2      0.000      0.000
REMARK SMILES O=C(NCCCNC(=O)[C@@H]1CCCC[C@@H]1C(=O)Nc1cccc(C(F)(F)F)c1)c1ccc(-c2c3nc(c(-c4cccc(S(=O)(=O)[O-])c4F)c4ccc([nH]4)c(-c4cccc(S(=O)(=O)[O-])c4F)c4nc(c(-c5cccc(S(=O)(=O)[O-])c5F)c5ccc2[nH]5)C=C4)C=C3)cc1
REMARK SMILES IDX 5 1 4 2 3 3 1 4 2 5 29 7 30 8 91 9 31 10 90 11 32 12 33 13
REMARK SMILES IDX 34 14 84 15 35 16 89 17 83 18 85 19 36 20 88 21 82 22 81 23
REMARK SMILES IDX 37 25 69 26 49 27 68 28 50 29 53 30 67 31 86 32 51 33 52 34
REMARK SMILES IDX 66 36 87 37 54 38 38 39 39 40 47 41 40 42 42 43 48 44 41 45
REMARK SMILES IDX 43 46 44 47 45 48 46 49 70 50 71 51 79 52 72 53 74 54 80 55
REMARK SMILES IDX 73 56 75 57 76 58 77 59 78 60 55 61 56 62 64 63 57 64 59 65
REMARK SMILES IDX 65 66 58 67 60 68 61 69 62 70 63 71 6 72 7 73 8 74 9 76
REMARK SMILES IDX 10 77 11 78 15 79 12 80 14 81 13 82 16 83 17 84 18 85 19 87
REMARK SMILES IDX 20 88 28 89 21 90 23 91 22 92 24 93 25 94 26 95 27 96
REMARK H PARENT 3 6 85 24 53 35 7 75 18 86
REMARK Flexibility Score: inf
ROOT
ATOM      1  C   UNL A   1      31.701  27.883  26.627  1.00  0.00     0.042 C 
ENDROOT
BRANCH   1   2
ATOM      2  C   UNL A   1      32.797  28.713  25.973  1.00  0.00     0.118 C 
BRANCH   2   3
ATOM      3  N   UNL A   1      32.494  30.142  26.017  1.00  0.00    -0.352 N 
ATOM      4  O   UNL A   1      32.437  32.210  26.894  1.00  0.00    -0.269 OA
ATOM      5  C   UNL A   1      33.021  31.137  26.807  1.00  0.00     0.251 C 
ATOM      6  H   UNL A   1      31.803  30.439  25.381  1.00  0.00     0.163 HD
BRANCH   5   7
ATOM      7  C   UNL A   1      34.283  30.905  27.545  1.00  0.00     0.039 A 
ATOM      8  C   UNL A   1      34.550  29.649  28.084  1.00  0.00     0.014 A 
ATOM      9  C   UNL A   1      35.225  31.931  27.670  1.00  0.00     0.014 A 
ATOM     10  C   UNL A   1      35.655  29.468  28.900  1.00  0.00     0.010 A 
ATOM     11  C   UNL A   1      36.409  31.706  28.382  1.00  0.00     0.010 A 
ATOM     12  C   UNL A   1      36.621  30.480  29.027  1.00  0.00    -0.014 A 
BRANCH  12  13
ATOM     13  C   UNL A   1      37.873  30.154  29.756  1.00  0.00     0.031 A 
ATOM     14  C   UNL A   1      38.130  30.636  31.155  1.00  0.00     0.074 A 
ATOM     15  C   UNL A   1      38.762  29.345  29.141  1.00  0.00     0.049 A 
ATOM     16  N   UNL A   1      39.129  30.344  31.948  1.00  0.00    -0.248 NA
ATOM     17  C   UNL A   1      37.155  31.570  31.740  1.00  0.00     0.031 C 
ATOM     18  C   UNL A   1      38.644  28.867  27.759  1.00  0.00     0.029 A 
ATOM     19  N   UNL A   1      39.916  28.761  29.591  1.00  0.00    -0.354 N 
ATOM     20  C   UNL A   1      38.924  31.076  33.111  1.00  0.00     0.074 A 
ATOM     21  C   UNL A   1      37.710  31.841  32.915  1.00  0.00     0.031 C 
ATOM     22  C   UNL A   1      39.644  28.018  27.496  1.00  0.00     0.029 A 
ATOM     23  C   UNL A   1      40.516  27.946  28.660  1.00  0.00     0.049 A 
ATOM     24  H   UNL A   1      40.279  28.909  30.495  1.00  0.00     0.167 HD
ATOM     25  C   UNL A   1      39.669  31.092  34.243  1.00  0.00     0.034 A 
ATOM     26  C   UNL A   1      41.653  27.228  28.724  1.00  0.00     0.034 A 
ATOM     27  C   UNL A   1      40.861  30.305  34.435  1.00  0.00     0.049 A 
ATOM     28  C   UNL A   1      42.430  27.234  30.006  1.00  0.00     0.074 A 
ATOM     29  C   UNL A   1      41.670  30.228  35.555  1.00  0.00     0.029 A 
ATOM     30  N   UNL A   1      41.418  29.462  33.485  1.00  0.00    -0.354 N 
ATOM     31  N   UNL A   1      42.158  27.849  31.131  1.00  0.00    -0.248 NA
ATOM     32  C   UNL A   1      43.656  26.427  30.039  1.00  0.00     0.031 C 
ATOM     33  C   UNL A   1      42.724  29.350  35.277  1.00  0.00     0.029 A 
ATOM     34  C   UNL A   1      42.559  28.860  33.991  1.00  0.00     0.049 A 
ATOM     35  H   UNL A   1      41.056  29.312  32.581  1.00  0.00     0.167 HD
ATOM     36  C   UNL A   1      43.171  27.497  32.011  1.00  0.00     0.074 A 
ATOM     37  C   UNL A   1      44.037  26.576  31.300  1.00  0.00     0.031 C 
ATOM     38  C   UNL A   1      43.386  27.919  33.281  1.00  0.00     0.034 A 
BRANCH  25  39
ATOM     39  C   UNL A   1      39.195  31.952  35.388  1.00  0.00     0.023 A 
ATOM     40  C   UNL A   1      38.294  31.416  36.331  1.00  0.00     0.012 A 
ATOM     41  C   UNL A   1      39.697  33.254  35.578  1.00  0.00     0.148 A 
ATOM     42  C   UNL A   1      37.882  32.168  37.430  1.00  0.00     0.002 A 
ATOM     43  C   UNL A   1      39.312  33.984  36.699  1.00  0.00     0.091 A 
ATOM     44  F   UNL A   1      40.539  33.756  34.663  1.00  0.00    -0.205 F 
ATOM     45  C   UNL A   1      38.399  33.447  37.619  1.00  0.00     0.022 A 
BRANCH  43  46
ATOM     46  S   UNL A   1      39.977  35.611  37.077  1.00  0.00     0.127 S 
ATOM     47  O   UNL A   1      39.272  35.937  38.316  1.00  0.00    -0.237 OA
ATOM     48  O   UNL A   1      41.403  35.328  37.245  1.00  0.00    -0.237 OA
ATOM     49  O   UNL A   1      39.653  36.455  35.936  1.00  0.00    -0.744 OA
ENDBRANCH  43  46
ENDBRANCH  25  39
BRANCH  26  50
ATOM     50  C   UNL A   1      42.099  26.439  27.542  1.00  0.00     0.023 A 
ATOM     51  C   UNL A   1      42.913  27.036  26.561  1.00  0.00     0.012 A 
ATOM     52  C   UNL A   1      41.753  25.080  27.412  1.00  0.00     0.148 A 
ATOM     53  C   UNL A   1      43.349  26.301  25.459  1.00  0.00     0.002 A 
ATOM     54  C   UNL A   1      42.247  24.336  26.348  1.00  0.00     0.091 A 
ATOM     55  F   UNL A   1      40.959  24.532  28.344  1.00  0.00    -0.205 F 
ATOM     56  C   UNL A   1      43.029  24.949  25.359  1.00  0.00     0.022 A 
BRANCH  54  57
ATOM     57  S   UNL A   1      42.010  22.558  26.245  1.00  0.00     0.127 S 
ATOM     58  O   UNL A   1      42.645  22.100  27.477  1.00  0.00    -0.237 OA
ATOM     59  O   UNL A   1      40.550  22.444  26.223  1.00  0.00    -0.237 OA
ATOM     60  O   UNL A   1      42.655  22.155  25.003  1.00  0.00    -0.744 OA
ENDBRANCH  54  57
ENDBRANCH  26  50
BRANCH  38  61
ATOM     61  C   UNL A   1      44.601  27.374  33.982  1.00  0.00     0.023 A 
ATOM     62  C   UNL A   1      45.822  28.073  33.907  1.00  0.00     0.012 A 
ATOM     63  C   UNL A   1      44.528  26.187  34.737  1.00  0.00     0.148 A 
ATOM     64  C   UNL A   1      46.964  27.576  34.533  1.00  0.00     0.002 A 
ATOM     65  C   UNL A   1      45.658  25.724  35.399  1.00  0.00     0.091 A 
ATOM     66  F   UNL A   1      43.363  25.524  34.778  1.00  0.00    -0.205 F 
ATOM     67  C   UNL A   1      46.879  26.408  35.286  1.00  0.00     0.022 A 
BRANCH  65  68
ATOM     68  S   UNL A   1      45.619  24.278  36.464  1.00  0.00     0.127 S 
ATOM     69  O   UNL A   1      46.977  24.268  37.003  1.00  0.00    -0.237 OA
ATOM     70  O   UNL A   1      44.580  24.632  37.431  1.00  0.00    -0.237 OA
ATOM     71  O   UNL A   1      45.278  23.156  35.598  1.00  0.00    -0.744 OA
ENDBRANCH  65  68
ENDBRANCH  38  61
ENDBRANCH  12  13
ENDBRANCH   5   7
ENDBRANCH   2   3
ENDBRANCH   1   2
BRANCH   1  72
ATOM     72  C   UNL A   1      31.950  26.389  26.478  1.00  0.00     0.117 C 
BRANCH  72  73
ATOM     73  N   UNL A   1      33.186  26.122  25.769  1.00  0.00    -0.356 N 
ATOM     74  C   UNL A   1      33.920  25.006  25.568  1.00  0.00     0.223 C 
ATOM     75  H   UNL A   1      33.572  26.922  25.345  1.00  0.00     0.163 HD
ATOM     76  O   UNL A   1      35.008  25.189  25.001  1.00  0.00    -0.275 OA
BRANCH  74  77
ATOM     77  C   UNL A   1      33.467  23.565  25.867  1.00  0.00     0.091 C 
ATOM     78  C   UNL A   1      34.495  22.442  26.010  1.00  0.00     0.014 C 
ATOM     79  C   UNL A   1      32.331  23.213  24.867  1.00  0.00     0.091 C 
ATOM     80  C   UNL A   1      33.873  21.060  26.191  1.00  0.00     0.001 C 
ATOM     81  C   UNL A   1      31.777  21.793  25.056  1.00  0.00     0.014 C 
ATOM     82  C   UNL A   1      32.873  20.738  25.098  1.00  0.00     0.001 C 
BRANCH  79  83
ATOM     83  C   UNL A   1      32.754  23.407  23.400  1.00  0.00     0.228 C 
ATOM     84  O   UNL A   1      33.630  22.704  22.890  1.00  0.00    -0.274 OA
ATOM     85  N   UNL A   1      32.031  24.240  22.583  1.00  0.00    -0.326 N 
ATOM     86  H   UNL A   1      32.151  24.082  21.619  1.00  0.00     0.169 HD
BRANCH  85  87
ATOM     87  C   UNL A   1      31.147  25.279  22.906  1.00  0.00     0.041 A 
ATOM     88  C   UNL A   1      29.932  24.946  23.505  1.00  0.00     0.026 A 
ATOM     89  C   UNL A   1      31.418  26.616  22.612  1.00  0.00     0.039 A 
ATOM     90  C   UNL A   1      29.049  25.950  23.909  1.00  0.00     0.003 A 
ATOM     91  C   UNL A   1      30.549  27.638  23.022  1.00  0.00     0.058 A 
ATOM     92  C   UNL A   1      29.365  27.290  23.686  1.00  0.00     0.013 A 
BRANCH  91  93
ATOM     93  C   UNL A   1      30.883  29.085  22.764  1.00  0.00     0.416 C 
ATOM     94  F   UNL A   1      30.308  29.562  21.625  1.00  0.00    -0.166 F 
ATOM     95  F   UNL A   1      30.444  29.899  23.767  1.00  0.00    -0.166 F 
ATOM     96  F   UNL A   1      32.215  29.336  22.645  1.00  0.00    -0.166 F 
ENDBRANCH  91  93
ENDBRANCH  85  87
ENDBRANCH  79  83
ENDBRANCH  74  77
ENDBRANCH  72  73
ENDBRANCH   1  72
TORSDOF 16
ENDMDL
MODEL 2
REMARK VINA RESULT:     -12.1      2.573      8.008
REMARK SMILES O=C(NCCCNC(=O)[C@@H]1CCCC[C@@H]1C(=O)Nc1cccc(C(F)(F)F)c1)c1ccc(-c2c3nc(c(-c4cccc(S(=O)(=O)[O-])c4F)c4ccc([nH]4)c(-c4cccc(S(=O)(=O)[O-])c4F)c4nc(c(-c5cccc(S(=O)(=O)[O-])c5F)c5ccc2[nH]5)C=C4)C=C3)cc1
REMARK SMILES IDX 5 1 4 2 3 3 1 4 2 5 29 7 30 8 91 9 31 10 90 11 32 12 33 13
REMARK SMILES IDX 34 14 84 15 35 16 89 17 83 18 85 19 36 20 88 21 82 22 81 23
REMARK SMILES IDX 37 25 69 26 49 27 68 28 50 29 53 30 67 31 86 32 51 33 52 34
REMARK SMILES IDX 66 36 87 37 54 38 38 39 39 40 47 41 40 42 42 43 48 44 41 45
REMARK SMILES IDX 43 46 44 47 45 48 46 49 70 50 71 51 79 52 72 53 74 54 80 55
REMARK SMILES IDX 73 56 75 57 76 58 77 59 78 60 55 61 56 62 64 63 57 64 59 65
REMARK SMILES IDX 65 66 58 67 60 68 61 69 62 70 63 71 6 72 7 73 8 74 9 76
REMARK SMILES IDX 10 77 11 78 15 79 12 80 14 81 13 82 16 83 17 84 18 85 19 87
REMARK SMILES IDX 20 88 28 89 21 90 23 91 22 92 24 93 25 94 26 95 27 96
REMARK H PARENT 3 6 85 24 53 35 7 75 18 86
REMARK Flexibility Score: inf
ROOT
ATOM      1  C   UNL A   1      31.393  31.972  26.498  1.00  0.00     0.042 C 
ENDROOT
BRANCH   1   2
ATOM      2  C   UNL A   1      32.652  32.402  27.239  1.00  0.00     0.118 C 
BRANCH   2   3
ATOM      3  N   UNL A   1      32.610  33.816  27.604  1.00  0.00    -0.352 N 
ATOM      4  O   UNL A   1      32.863  35.609  28.935  1.00  0.00    -0.269 OA
ATOM      5  C   UNL A   1      33.249  34.491  28.618  1.00  0.00     0.251 C 
ATOM      6  H   UNL A   1      32.033  34.374  27.034  1.00  0.00     0.163 HD
BRANCH   5   7
ATOM      7  C   UNL A   1      34.391  33.862  29.319  1.00  0.00     0.039 A 
ATOM      8  C   UNL A   1      34.169  32.803  30.197  1.00  0.00     0.014 A 
ATOM      9  C   UNL A   1      35.696  34.302  29.075  1.00  0.00     0.014 A 
ATOM     10  C   UNL A   1      35.211  32.312  30.964  1.00  0.00     0.010 A 
ATOM     11  C   UNL A   1      36.768  33.711  29.754  1.00  0.00     0.010 A 
ATOM     12  C   UNL A   1      36.531  32.729  30.726  1.00  0.00    -0.014 A 
BRANCH  12  13
ATOM     13  C   UNL A   1      37.622  32.023  31.447  1.00  0.00     0.031 A 
ATOM     14  C   UNL A   1      38.416  30.921  30.808  1.00  0.00     0.074 A 
ATOM     15  C   UNL A   1      37.929  32.451  32.689  1.00  0.00     0.049 A 
ATOM     16  N   UNL A   1      39.460  30.288  31.280  1.00  0.00    -0.248 NA
ATOM     17  C   UNL A   1      37.985  30.455  29.481  1.00  0.00     0.031 C 
ATOM     18  C   UNL A   1      37.184  33.475  33.431  1.00  0.00     0.029 A 
ATOM     19  N   UNL A   1      38.949  32.111  33.538  1.00  0.00    -0.354 N 
ATOM     20  C   UNL A   1      39.795  29.334  30.327  1.00  0.00     0.074 A 
ATOM     21  C   UNL A   1      38.832  29.458  29.254  1.00  0.00     0.031 C 
ATOM     22  C   UNL A   1      37.804  33.722  34.591  1.00  0.00     0.029 A 
ATOM     23  C   UNL A   1      38.947  32.828  34.712  1.00  0.00     0.049 A 
ATOM     24  H   UNL A   1      39.619  31.421  33.326  1.00  0.00     0.167 HD
ATOM     25  C   UNL A   1      40.824  28.451  30.339  1.00  0.00     0.034 A 
ATOM     26  C   UNL A   1      39.763  32.764  35.780  1.00  0.00     0.034 A 
ATOM     27  C   UNL A   1      41.792  28.355  31.403  1.00  0.00     0.049 A 
ATOM     28  C   UNL A   1      40.916  31.807  35.743  1.00  0.00     0.074 A 
ATOM     29  C   UNL A   1      42.888  27.515  31.496  1.00  0.00     0.029 A 
ATOM     30  N   UNL A   1      41.781  29.123  32.558  1.00  0.00    -0.354 N 
ATOM     31  N   UNL A   1      41.277  30.990  34.783  1.00  0.00    -0.248 NA
ATOM     32  C   UNL A   1      41.791  31.779  36.922  1.00  0.00     0.031 C 
ATOM     33  C   UNL A   1      43.530  27.764  32.715  1.00  0.00     0.029 A 
ATOM     34  C   UNL A   1      42.849  28.778  33.371  1.00  0.00     0.049 A 
ATOM     35  H   UNL A   1      41.112  29.813  32.771  1.00  0.00     0.167 HD
ATOM     36  C   UNL A   1      42.426  30.358  35.235  1.00  0.00     0.074 A 
ATOM     37  C   UNL A   1      42.727  30.923  36.537  1.00  0.00     0.031 C 
ATOM     38  C   UNL A   1      43.151  29.377  34.644  1.00  0.00     0.034 A 
BRANCH  25  39
ATOM     39  C   UNL A   1      40.990  27.544  29.146  1.00  0.00     0.023 A 
ATOM     40  C   UNL A   1      40.252  26.344  29.079  1.00  0.00     0.012 A 
ATOM     41  C   UNL A   1      41.808  27.911  28.059  1.00  0.00     0.148 A 
ATOM     42  C   UNL A   1      40.343  25.513  27.964  1.00  0.00     0.002 A 
ATOM     43  C   UNL A   1      41.862  27.097  26.932  1.00  0.00     0.091 A 
ATOM     44  F   UNL A   1      42.516  29.047  28.146  1.00  0.00    -0.205 F 
ATOM     45  C   UNL A   1      41.139  25.895  26.886  1.00  0.00     0.022 A 
BRANCH  43  46
ATOM     46  S   UNL A   1      42.797  27.533  25.459  1.00  0.00     0.127 S 
ATOM     47  O   UNL A   1      42.567  26.366  24.609  1.00  0.00    -0.237 OA
ATOM     48  O   UNL A   1      42.119  28.752  25.016  1.00  0.00    -0.237 OA
ATOM     49  O   UNL A   1      44.172  27.724  25.896  1.00  0.00    -0.744 OA
ENDBRANCH  43  46
ENDBRANCH  25  39
BRANCH  26  50
ATOM     50  C   UNL A   1      39.518  33.650  36.953  1.00  0.00     0.023 A 
ATOM     51  C   UNL A   1      39.864  35.013  36.892  1.00  0.00     0.012 A 
ATOM     52  C   UNL A   1      38.899  33.150  38.115  1.00  0.00     0.148 A 
ATOM     53  C   UNL A   1      39.624  35.854  37.979  1.00  0.00     0.002 A 
ATOM     54  C   UNL A   1      38.601  34.007  39.166  1.00  0.00     0.091 A 
ATOM     55  F   UNL A   1      38.595  31.845  38.165  1.00  0.00    -0.205 F 
ATOM     56  C   UNL A   1      38.981  35.356  39.109  1.00  0.00     0.022 A 
BRANCH  54  57
ATOM     57  S   UNL A   1      37.631  33.470  40.580  1.00  0.00     0.127 S 
ATOM     58  O   UNL A   1      38.502  32.460  41.174  1.00  0.00    -0.237 OA
ATOM     59  O   UNL A   1      37.503  34.707  41.352  1.00  0.00    -0.237 OA
ATOM     60  O   UNL A   1      36.375  32.985  40.023  1.00  0.00    -0.744 OA
ENDBRANCH  54  57
ENDBRANCH  26  50
BRANCH  38  61
ATOM     61  C   UNL A   1      44.348  28.866  35.402  1.00  0.00     0.023 A 
ATOM     62  C   UNL A   1      45.614  29.441  35.175  1.00  0.00     0.012 A 
ATOM     63  C   UNL A   1      44.214  27.839  36.356  1.00  0.00     0.148 A 
ATOM     64  C   UNL A   1      46.739  28.970  35.851  1.00  0.00     0.002 A 
ATOM     65  C   UNL A   1      45.331  27.410  37.062  1.00  0.00     0.091 A 
ATOM     66  F   UNL A   1      43.006  27.290  36.542  1.00  0.00    -0.205 F 
ATOM     67  C   UNL A   1      46.595  27.962  36.800  1.00  0.00     0.022 A 
BRANCH  65  68
ATOM     68  S   UNL A   1      45.224  26.180  38.367  1.00  0.00     0.127 S 
ATOM     69  O   UNL A   1      46.609  26.112  38.829  1.00  0.00    -0.237 OA
ATOM     70  O   UNL A   1      44.296  26.805  39.309  1.00  0.00    -0.237 OA
ATOM     71  O   UNL A   1      44.714  24.970  37.732  1.00  0.00    -0.744 OA
ENDBRANCH  65  68
ENDBRANCH  38  61
ENDBRANCH  12  13
ENDBRANCH   5   7
ENDBRANCH   2   3
ENDBRANCH   1   2
BRANCH   1  72
ATOM     72  C   UNL A   1      31.380  30.476  26.215  1.00  0.00     0.117 C 
BRANCH  72  73
ATOM     73  N   UNL A   1      32.397  30.106  25.250  1.00  0.00    -0.356 N 
ATOM     74  C   UNL A   1      33.065  28.959  24.998  1.00  0.00     0.223 C 
ATOM     75  H   UNL A   1      32.655  30.846  24.655  1.00  0.00     0.163 HD
ATOM     76  O   UNL A   1      33.970  29.054  24.156  1.00  0.00    -0.275 OA
BRANCH  74  77
ATOM     77  C   UNL A   1      32.714  27.571  25.563  1.00  0.00     0.091 C 
ATOM     78  C   UNL A   1      33.791  26.494  25.699  1.00  0.00     0.014 C 
ATOM     79  C   UNL A   1      31.451  27.063  24.814  1.00  0.00     0.091 C 
ATOM     80  C   UNL A   1      33.254  25.144  26.167  1.00  0.00     0.001 C 
ATOM     81  C   UNL A   1      30.984  25.678  25.284  1.00  0.00     0.014 C 
ATOM     82  C   UNL A   1      32.110  24.654  25.301  1.00  0.00     0.001 C 
BRANCH  79  83
ATOM     83  C   UNL A   1      31.637  27.050  23.286  1.00  0.00     0.228 C 
ATOM     84  O   UNL A   1      32.599  26.480  22.765  1.00  0.00    -0.274 OA
ATOM     85  N   UNL A   1      30.634  27.510  22.469  1.00  0.00    -0.326 N 
ATOM     86  H   UNL A   1      30.678  27.192  21.539  1.00  0.00     0.169 HD
BRANCH  85  87
ATOM     87  C   UNL A   1      29.556  28.360  22.754  1.00  0.00     0.041 A 
ATOM     88  C   UNL A   1      28.324  27.780  23.058  1.00  0.00     0.026 A 
ATOM     89  C   UNL A   1      29.660  29.751  22.698  1.00  0.00     0.039 A 
ATOM     90  C   UNL A   1      27.239  28.583  23.417  1.00  0.00     0.003 A 
ATOM     91  C   UNL A   1      28.584  30.572  23.068  1.00  0.00     0.058 A 
ATOM     92  C   UNL A   1      27.373  29.971  23.441  1.00  0.00     0.013 A 
BRANCH  91  93
ATOM     93  C   UNL A   1      28.725  32.073  23.075  1.00  0.00     0.416 C 
ATOM     94  F   UNL A   1      29.241  32.557  21.911  1.00  0.00    -0.166 F 
ATOM     95  F   UNL A   1      27.524  32.700  23.235  1.00  0.00    -0.166 F 
ATOM     96  F   UNL A   1      29.523  32.551  24.068  1.00  0.00    -0.166 F 
ENDBRANCH  91  93
ENDBRANCH  85  87
ENDBRANCH  79  83
ENDBRANCH  74  77
ENDBRANCH  72  73
ENDBRANCH   1  72
TORSDOF 16
ENDMDL
MODEL 3
REMARK VINA RESULT:     -12.0      5.221      9.953
REMARK SMILES O=C(NCCCNC(=O)[C@@H]1CCCC[C@@H]1C(=O)Nc1cccc(C(F)(F)F)c1)c1ccc(-c2c3nc(c(-c4cccc(S(=O)(=O)[O-])c4F)c4ccc([nH]4)c(-c4cccc(S(=O)(=O)[O-])c4F)c4nc(c(-c5cccc(S(=O)(=O)[O-])c5F)c5ccc2[nH]5)C=C4)C=C3)cc1
REMARK SMILES IDX 5 1 4 2 3 3 1 4 2 5 29 7 30 8 91 9 31 10 90 11 32 12 33 13
REMARK SMILES IDX 34 14 84 15 35 16 89 17 83 18 85 19 36 20 88 21 82 22 81 23
REMARK SMILES IDX 37 25 69 26 49 27 68 28 50 29 53 30 67 31 86 32 51 33 52 34
REMARK SMILES IDX 66 36 87 37 54 38 38 39 39 40 47 41 40 42 42 43 48 44 41 45
REMARK SMILES IDX 43 46 44 47 45 48 46 49 70 50 71 51 79 52 72 53 74 54 80 55
REMARK SMILES IDX 73 56 75 57 76 58 77 59 78 60 55 61 56 62 64 63 57 64 59 65
REMARK SMILES IDX 65 66 58 67 60 68 61 69 62 70 63 71 6 72 7 73 8 74 9 76
REMARK SMILES IDX 10 77 11 78 15 79 12 80 14 81 13 82 16 83 17 84 18 85 19 87
REMARK SMILES IDX 20 88 28 89 21 90 23 91 22 92 24 93 25 94 26 95 27 96
REMARK H PARENT 3 6 85 24 53 35 7 75 18 86
REMARK Flexibility Score: inf
ROOT
ATOM      1  C   UNL A   1      36.120  22.960  23.921  1.00  0.00     0.042 C 
ENDROOT
BRANCH   1   2
ATOM      2  C   UNL A   1      36.586  22.996  25.370  1.00  0.00     0.118 C 
BRANCH   2   3
ATOM      3  N   UNL A   1      37.391  21.825  25.710  1.00  0.00    -0.352 N 
ATOM      4  O   UNL A   1      39.275  20.658  26.083  1.00  0.00    -0.269 OA
ATOM      5  C   UNL A   1      38.700  21.738  26.126  1.00  0.00     0.251 C 
ATOM      6  H   UNL A   1      36.924  20.963  25.628  1.00  0.00     0.163 HD
BRANCH   5   7
ATOM      7  C   UNL A   1      39.401  22.945  26.617  1.00  0.00     0.039 A 
ATOM      8  C   UNL A   1      39.048  24.201  26.126  1.00  0.00     0.014 A 
ATOM      9  C   UNL A   1      40.390  22.834  27.599  1.00  0.00     0.014 A 
ATOM     10  C   UNL A   1      39.799  25.312  26.469  1.00  0.00     0.010 A 
ATOM     11  C   UNL A   1      41.058  23.981  28.047  1.00  0.00     0.010 A 
ATOM     12  C   UNL A   1      40.787  25.227  27.464  1.00  0.00    -0.014 A 
BRANCH  12  13
ATOM     13  C   UNL A   1      41.419  26.490  27.924  1.00  0.00     0.031 A 
ATOM     14  C   UNL A   1      42.839  26.840  27.583  1.00  0.00     0.074 A 
ATOM     15  C   UNL A   1      40.650  27.360  28.612  1.00  0.00     0.049 A 
ATOM     16  N   UNL A   1      43.487  27.950  27.828  1.00  0.00    -0.248 NA
ATOM     17  C   UNL A   1      43.643  25.820  26.892  1.00  0.00     0.031 C 
ATOM     18  C   UNL A   1      39.275  27.097  29.051  1.00  0.00     0.029 A 
ATOM     19  N   UNL A   1      40.891  28.638  29.040  1.00  0.00    -0.354 N 
ATOM     20  C   UNL A   1      44.777  27.756  27.351  1.00  0.00     0.074 A 
ATOM     21  C   UNL A   1      44.828  26.413  26.815  1.00  0.00     0.031 C 
ATOM     22  C   UNL A   1      38.776  28.196  29.629  1.00  0.00     0.029 A 
ATOM     23  C   UNL A   1      39.813  29.217  29.668  1.00  0.00     0.049 A 
ATOM     24  H   UNL A   1      41.752  29.098  28.909  1.00  0.00     0.167 HD
ATOM     25  C   UNL A   1      45.817  28.627  27.344  1.00  0.00     0.034 A 
ATOM     26  C   UNL A   1      39.674  30.432  30.232  1.00  0.00     0.034 A 
ATOM     27  C   UNL A   1      45.746  29.972  27.858  1.00  0.00     0.049 A 
ATOM     28  C   UNL A   1      40.829  31.386  30.168  1.00  0.00     0.074 A 
ATOM     29  C   UNL A   1      46.733  30.942  27.870  1.00  0.00     0.029 A 
ATOM     30  N   UNL A   1      44.627  30.537  28.451  1.00  0.00    -0.354 N 
ATOM     31  N   UNL A   1      42.005  31.218  29.615  1.00  0.00    -0.248 NA
ATOM     32  C   UNL A   1      40.631  32.705  30.782  1.00  0.00     0.031 C 
ATOM     33  C   UNL A   1      46.216  32.087  28.485  1.00  0.00     0.029 A 
ATOM     34  C   UNL A   1      44.897  31.841  28.834  1.00  0.00     0.049 A 
ATOM     35  H   UNL A   1      43.765  30.079  28.583  1.00  0.00     0.167 HD
ATOM     36  C   UNL A   1      42.686  32.412  29.803  1.00  0.00     0.074 A 
ATOM     37  C   UNL A   1      41.771  33.311  30.480  1.00  0.00     0.031 C 
ATOM     38  C   UNL A   1      43.962  32.730  29.474  1.00  0.00     0.034 A 
BRANCH  25  39
ATOM     39  C   UNL A   1      47.113  28.174  26.720  1.00  0.00     0.023 A 
ATOM     40  C   UNL A   1      48.182  27.782  27.550  1.00  0.00     0.012 A 
ATOM     41  C   UNL A   1      47.248  28.060  25.322  1.00  0.00     0.148 A 
ATOM     42  C   UNL A   1      49.373  27.307  27.002  1.00  0.00     0.002 A 
ATOM     43  C   UNL A   1      48.424  27.546  24.783  1.00  0.00     0.091 A 
ATOM     44  F   UNL A   1      46.228  28.453  24.546  1.00  0.00    -0.205 F 
ATOM     45  C   UNL A   1      49.489  27.178  25.620  1.00  0.00     0.022 A 
BRANCH  43  46
ATOM     46  S   UNL A   1      48.649  27.269  23.021  1.00  0.00     0.127 S 
ATOM     47  O   UNL A   1      48.278  25.860  22.895  1.00  0.00    -0.237 OA
ATOM     48  O   UNL A   1      47.688  28.206  22.438  1.00  0.00    -0.237 OA
ATOM     49  O   UNL A   1      50.045  27.573  22.740  1.00  0.00    -0.744 OA
ENDBRANCH  43  46
ENDBRANCH  25  39
BRANCH  26  50
ATOM     50  C   UNL A   1      38.386  30.804  30.881  1.00  0.00     0.023 A 
ATOM     51  C   UNL A   1      38.189  30.557  32.252  1.00  0.00     0.012 A 
ATOM     52  C   UNL A   1      37.370  31.447  30.147  1.00  0.00     0.148 A 
ATOM     53  C   UNL A   1      36.993  30.916  32.873  1.00  0.00     0.002 A 
ATOM     54  C   UNL A   1      36.210  31.864  30.786  1.00  0.00     0.091 A 
ATOM     55  F   UNL A   1      37.564  31.656  28.837  1.00  0.00    -0.205 F 
ATOM     56  C   UNL A   1      36.010  31.582  32.145  1.00  0.00     0.022 A 
BRANCH  54  57
ATOM     57  S   UNL A   1      34.976  32.867  29.950  1.00  0.00     0.127 S 
ATOM     58  O   UNL A   1      34.486  31.948  28.927  1.00  0.00    -0.237 OA
ATOM     59  O   UNL A   1      34.029  33.152  31.030  1.00  0.00    -0.237 OA
ATOM     60  O   UNL A   1      35.696  34.039  29.467  1.00  0.00    -0.744 OA
ENDBRANCH  54  57
ENDBRANCH  26  50
BRANCH  38  61
ATOM     61  C   UNL A   1      44.433  34.114  29.834  1.00  0.00     0.023 A 
ATOM     62  C   UNL A   1      45.105  34.326  31.055  1.00  0.00     0.012 A 
ATOM     63  C   UNL A   1      44.236  35.196  28.955  1.00  0.00     0.148 A 
ATOM     64  C   UNL A   1      45.532  35.602  31.417  1.00  0.00     0.002 A 
ATOM     65  C   UNL A   1      44.709  36.455  29.300  1.00  0.00     0.091 A 
ATOM     66  F   UNL A   1      43.575  34.979  27.809  1.00  0.00    -0.205 F 
ATOM     67  C   UNL A   1      45.342  36.664  30.536  1.00  0.00     0.022 A 
BRANCH  65  68
ATOM     68  S   UNL A   1      44.588  37.861  28.189  1.00  0.00     0.127 S 
ATOM     69  O   UNL A   1      45.416  38.854  28.872  1.00  0.00    -0.237 OA
ATOM     70  O   UNL A   1      45.166  37.332  26.954  1.00  0.00    -0.237 OA
ATOM     71  O   UNL A   1      43.169  38.179  28.102  1.00  0.00    -0.744 OA
ENDBRANCH  65  68
ENDBRANCH  38  61
ENDBRANCH  12  13
ENDBRANCH   5   7
ENDBRANCH   2   3
ENDBRANCH   1   2
BRANCH   1  72
ATOM     72  C   UNL A   1      34.866  23.796  23.703  1.00  0.00     0.117 C 
BRANCH  72  73
ATOM     73  N   UNL A   1      34.597  24.659  24.836  1.00  0.00    -0.356 N 
ATOM     74  C   UNL A   1      33.716  25.660  25.052  1.00  0.00     0.223 C 
ATOM     75  H   UNL A   1      35.177  24.477  25.609  1.00  0.00     0.163 HD
ATOM     76  O   UNL A   1      33.862  26.264  26.125  1.00  0.00    -0.275 OA
BRANCH  74  77
ATOM     77  C   UNL A   1      32.512  26.009  24.158  1.00  0.00     0.091 C 
ATOM     78  C   UNL A   1      32.068  27.462  23.987  1.00  0.00     0.014 C 
ATOM     79  C   UNL A   1      31.342  25.067  24.555  1.00  0.00     0.091 C 
ATOM     80  C   UNL A   1      30.794  27.621  23.162  1.00  0.00     0.001 C 
ATOM     81  C   UNL A   1      30.068  25.306  23.732  1.00  0.00     0.014 C 
ATOM     82  C   UNL A   1      29.659  26.770  23.696  1.00  0.00     0.001 C 
BRANCH  79  83
ATOM     83  C   UNL A   1      31.006  25.146  26.055  1.00  0.00     0.228 C 
ATOM     84  O   UNL A   1      30.346  26.081  26.514  1.00  0.00    -0.274 OA
ATOM     85  N   UNL A   1      31.274  24.077  26.874  1.00  0.00    -0.326 N 
ATOM     86  H   UNL A   1      30.766  24.063  27.718  1.00  0.00     0.169 HD
BRANCH  85  87
ATOM     87  C   UNL A   1      32.157  23.002  26.697  1.00  0.00     0.041 A 
ATOM     88  C   UNL A   1      33.157  22.810  27.651  1.00  0.00     0.026 A 
ATOM     89  C   UNL A   1      32.099  22.156  25.589  1.00  0.00     0.039 A 
ATOM     90  C   UNL A   1      34.016  21.713  27.556  1.00  0.00     0.003 A 
ATOM     91  C   UNL A   1      32.945  21.042  25.484  1.00  0.00     0.058 A 
ATOM     92  C   UNL A   1      33.899  20.822  26.488  1.00  0.00     0.013 A 
BRANCH  91  93
ATOM     93  C   UNL A   1      32.829  20.090  24.321  1.00  0.00     0.416 C 
ATOM     94  F   UNL A   1      32.685  20.734  23.129  1.00  0.00    -0.166 F 
ATOM     95  F   UNL A   1      33.937  19.307  24.186  1.00  0.00    -0.166 F 
ATOM     96  F   UNL A   1      31.779  19.229  24.411  1.00  0.00    -0.166 F 
ENDBRANCH  91  93
ENDBRANCH  85  87
ENDBRANCH  79  83
ENDBRANCH  74  77
ENDBRANCH  72  73
ENDBRANCH   1  72
TORSDOF 16
ENDMDL
