MODEL 1
REMARK VINA RESULT:     -12.7      0.000      0.000
REMARK SMILES O=C(CCNC(=O)[C@H]1CCCN(S(=O)(=O)c2ccc(Cl)cc2)C1)NCCCNC(=O)c1ccc(-c2c3nc(c(-c4cccc(S(=O)(=O)[O-])c4F)c4ccc([nH]4)c(-c4cccc(S(=O)(=O)[O-])c4F)c4nc(c(-c5cccc(S(=O)(=O)[O-])c5F)c5ccc2[nH]5)C=C4)C=C3)cc1
REMARK SMILES IDX 25 1 24 2 1 3 2 4 3 6 4 7 5 8 6 9 7 11 8 12 9 13 23 14 10 15
REMARK SMILES IDX 12 16 11 17 13 18 14 19 15 20 16 21 17 22 22 23 18 24 21 25
REMARK SMILES IDX 19 26 20 27 26 28 27 29 28 30 29 31 30 33 31 34 32 35 93 36
REMARK SMILES IDX 33 37 92 38 34 39 35 40 36 41 86 42 37 43 91 44 85 45 87 46
REMARK SMILES IDX 38 47 90 48 84 49 83 50 39 52 71 53 51 54 70 55 52 56 55 57
REMARK SMILES IDX 69 58 88 59 53 60 54 61 68 63 89 64 56 65 40 66 41 67 49 68
REMARK SMILES IDX 42 69 44 70 50 71 43 72 45 73 46 74 47 75 48 76 72 77 73 78
REMARK SMILES IDX 81 79 74 80 76 81 82 82 75 83 77 84 78 85 79 86 80 87 57 88
REMARK SMILES IDX 58 89 66 90 59 91 61 92 67 93 60 94 62 95 63 96 64 97 65 98
REMARK H PARENT 24 5 5 10 28 32 87 51 55 62
REMARK Flexibility Score: inf
ROOT
ATOM      1  C   UNL A   1      31.145  30.513  25.399  1.00  0.00     0.117 C 
ENDROOT
BRANCH   1   2
ATOM      2  N   UNL A   1      31.042  29.659  24.233  1.00  0.00    -0.356 N 
ATOM      3  O   UNL A   1      29.021  30.473  23.485  1.00  0.00    -0.275 OA
ATOM      4  C   UNL A   1      29.998  29.747  23.341  1.00  0.00     0.221 C 
ATOM      5  H   UNL A   1      31.745  28.989  24.072  1.00  0.00     0.163 HD
BRANCH   4   6
ATOM      6  C   UNL A   1      30.200  28.926  22.089  1.00  0.00     0.121 C 
BRANCH   6   7
ATOM      7  C   UNL A   1      30.461  27.477  22.488  1.00  0.00     0.125 C 
BRANCH   7   8
ATOM      8  N   UNL A   1      31.507  26.862  21.676  1.00  0.00    -0.355 N 
ATOM      9  C   UNL A   1      32.731  26.337  21.908  1.00  0.00     0.224 C 
ATOM     10  H   UNL A   1      31.259  26.818  20.724  1.00  0.00     0.163 HD
ATOM     11  O   UNL A   1      33.372  26.052  20.889  1.00  0.00    -0.275 OA
BRANCH   9  12
ATOM     12  C   UNL A   1      33.340  26.016  23.273  1.00  0.00     0.093 C 
ATOM     13  C   UNL A   1      33.468  27.130  24.297  1.00  0.00     0.016 C 
ATOM     14  C   UNL A   1      32.544  24.829  23.847  1.00  0.00     0.116 C 
ATOM     15  C   UNL A   1      34.081  26.597  25.580  1.00  0.00     0.018 C 
ATOM     16  N   UNL A   1      33.018  24.389  25.217  1.00  0.00    -0.197 NA
ATOM     17  C   UNL A   1      33.170  25.528  26.163  1.00  0.00     0.102 C 
BRANCH  16  18
ATOM     18  S   UNL A   1      31.994  23.118  25.809  1.00  0.00     0.243 S 
ATOM     19  O   UNL A   1      32.012  23.188  27.256  1.00  0.00    -0.207 OA
ATOM     20  O   UNL A   1      30.746  23.173  25.080  1.00  0.00    -0.207 OA
BRANCH  18  21
ATOM     21  C   UNL A   1      32.828  21.614  25.345  1.00  0.00     0.082 A 
ATOM     22  C   UNL A   1      34.230  21.574  25.376  1.00  0.00     0.023 A 
ATOM     23  C   UNL A   1      32.094  20.464  25.048  1.00  0.00     0.023 A 
ATOM     24  C   UNL A   1      34.898  20.400  25.031  1.00  0.00     0.022 A 
ATOM     25  C   UNL A   1      32.770  19.281  24.730  1.00  0.00     0.022 A 
ATOM     26  C   UNL A   1      34.165  19.258  24.708  1.00  0.00     0.041 A 
ATOM     27  Cl  UNL A   1      34.994  17.809  24.293  1.00  0.00    -0.084 Cl
ENDBRANCH  18  21
ENDBRANCH  16  18
ENDBRANCH   9  12
ENDBRANCH   7   8
ENDBRANCH   6   7
ENDBRANCH   4   6
ENDBRANCH   1   2
BRANCH   1  28
ATOM     28  C   UNL A   1      31.740  29.798  26.604  1.00  0.00     0.042 C 
BRANCH  28  29
ATOM     29  C   UNL A   1      33.151  30.237  26.982  1.00  0.00     0.118 C 
BRANCH  29  30
ATOM     30  N   UNL A   1      33.270  31.666  27.234  1.00  0.00    -0.352 N 
ATOM     31  C   UNL A   1      34.263  32.364  27.880  1.00  0.00     0.251 C 
ATOM     32  H   UNL A   1      32.528  32.215  26.890  1.00  0.00     0.163 HD
ATOM     33  O   UNL A   1      34.110  33.562  28.096  1.00  0.00    -0.269 OA
BRANCH  31  34
ATOM     34  C   UNL A   1      35.490  31.677  28.347  1.00  0.00     0.039 A 
ATOM     35  C   UNL A   1      36.686  32.400  28.377  1.00  0.00     0.014 A 
ATOM     36  C   UNL A   1      35.475  30.339  28.749  1.00  0.00     0.014 A 
ATOM     37  C   UNL A   1      37.847  31.802  28.876  1.00  0.00     0.010 A 
ATOM     38  C   UNL A   1      36.615  29.769  29.316  1.00  0.00     0.010 A 
ATOM     39  C   UNL A   1      37.814  30.494  29.387  1.00  0.00    -0.014 A 
BRANCH  39  40
ATOM     40  C   UNL A   1      39.015  29.898  30.030  1.00  0.00     0.031 A 
ATOM     41  C   UNL A   1      39.469  30.347  31.393  1.00  0.00     0.074 A 
ATOM     42  C   UNL A   1      39.745  28.992  29.348  1.00  0.00     0.049 A 
ATOM     43  N   UNL A   1      40.484  29.925  32.103  1.00  0.00    -0.248 NA
ATOM     44  C   UNL A   1      38.702  31.428  32.033  1.00  0.00     0.031 C 
ATOM     45  C   UNL A   1      39.474  28.545  27.980  1.00  0.00     0.029 A 
ATOM     46  N   UNL A   1      40.875  28.297  29.705  1.00  0.00    -0.354 N 
ATOM     47  C   UNL A   1      40.497  30.703  33.255  1.00  0.00     0.074 A 
ATOM     48  C   UNL A   1      39.409  31.648  33.133  1.00  0.00     0.031 C 
ATOM     49  C   UNL A   1      40.399  27.642  27.619  1.00  0.00     0.029 A 
ATOM     50  C   UNL A   1      41.340  27.458  28.720  1.00  0.00     0.049 A 
ATOM     51  H   UNL A   1      41.309  28.390  30.584  1.00  0.00     0.167 HD
ATOM     52  C   UNL A   1      41.316  30.617  34.330  1.00  0.00     0.034 A 
ATOM     53  C   UNL A   1      42.400  26.626  28.705  1.00  0.00     0.034 A 
ATOM     54  C   UNL A   1      42.369  29.646  34.470  1.00  0.00     0.049 A 
ATOM     55  C   UNL A   1      43.247  26.495  29.941  1.00  0.00     0.074 A 
ATOM     56  C   UNL A   1      43.193  29.420  35.559  1.00  0.00     0.029 A 
ATOM     57  N   UNL A   1      42.746  28.739  33.492  1.00  0.00    -0.354 N 
ATOM     58  N   UNL A   1      43.130  27.116  31.090  1.00  0.00    -0.248 NA
ATOM     59  C   UNL A   1      44.342  25.516  29.896  1.00  0.00     0.031 C 
ATOM     60  C   UNL A   1      44.078  28.386  35.234  1.00  0.00     0.029 A 
ATOM     61  C   UNL A   1      43.791  27.955  33.949  1.00  0.00     0.049 A 
ATOM     62  H   UNL A   1      42.331  28.665  32.602  1.00  0.00     0.167 HD
ATOM     63  C   UNL A   1      44.112  26.579  31.914  1.00  0.00     0.074 A 
ATOM     64  C   UNL A   1      44.796  25.563  31.140  1.00  0.00     0.031 C 
ATOM     65  C   UNL A   1      44.431  26.910  33.191  1.00  0.00     0.034 A 
BRANCH  52  66
ATOM     66  C   UNL A   1      41.063  31.561  35.478  1.00  0.00     0.023 A 
ATOM     67  C   UNL A   1      41.976  32.608  35.727  1.00  0.00     0.012 A 
ATOM     68  C   UNL A   1      39.900  31.459  36.267  1.00  0.00     0.148 A 
ATOM     69  C   UNL A   1      41.754  33.515  36.761  1.00  0.00     0.002 A 
ATOM     70  C   UNL A   1      39.665  32.394  37.269  1.00  0.00     0.091 A 
ATOM     71  F   UNL A   1      39.054  30.446  36.031  1.00  0.00    -0.205 F 
ATOM     72  C   UNL A   1      40.595  33.415  37.524  1.00  0.00     0.022 A 
BRANCH  70  73
ATOM     73  S   UNL A   1      38.162  32.397  38.254  1.00  0.00     0.127 S 
ATOM     74  O   UNL A   1      37.456  33.557  37.711  1.00  0.00    -0.237 OA
ATOM     75  O   UNL A   1      37.565  31.106  37.912  1.00  0.00    -0.237 OA
ATOM     76  O   UNL A   1      38.591  32.517  39.640  1.00  0.00    -0.744 OA
ENDBRANCH  70  73
ENDBRANCH  52  66
BRANCH  53  77
ATOM     77  C   UNL A   1      42.661  25.780  27.506  1.00  0.00     0.023 A 
ATOM     78  C   UNL A   1      43.431  26.301  26.448  1.00  0.00     0.012 A 
ATOM     79  C   UNL A   1      42.185  24.458  27.421  1.00  0.00     0.148 A 
ATOM     80  C   UNL A   1      43.695  25.534  25.313  1.00  0.00     0.002 A 
ATOM     81  C   UNL A   1      42.499  23.679  26.313  1.00  0.00     0.091 A 
ATOM     82  F   UNL A   1      41.443  23.983  28.433  1.00  0.00    -0.205 F 
ATOM     83  C   UNL A   1      43.238  24.220  25.250  1.00  0.00     0.022 A 
BRANCH  81  84
ATOM     84  S   UNL A   1      42.068  21.937  26.213  1.00  0.00     0.127 S 
ATOM     85  O   UNL A   1      42.877  21.495  25.079  1.00  0.00    -0.237 OA
ATOM     86  O   UNL A   1      42.508  21.439  27.516  1.00  0.00    -0.237 OA
ATOM     87  O   UNL A   1      40.625  21.904  26.016  1.00  0.00    -0.744 OA
ENDBRANCH  81  84
ENDBRANCH  53  77
BRANCH  65  88
ATOM     88  C   UNL A   1      45.553  26.147  33.845  1.00  0.00     0.023 A 
ATOM     89  C   UNL A   1      46.873  26.630  33.756  1.00  0.00     0.012 A 
ATOM     90  C   UNL A   1      45.295  24.978  34.589  1.00  0.00     0.148 A 
ATOM     91  C   UNL A   1      47.925  25.942  34.360  1.00  0.00     0.002 A 
ATOM     92  C   UNL A   1      46.342  24.323  35.229  1.00  0.00     0.091 A 
ATOM     93  F   UNL A   1      44.036  24.518  34.647  1.00  0.00    -0.205 F 
ATOM     94  C   UNL A   1      47.658  24.796  35.105  1.00  0.00     0.022 A 
BRANCH  92  95
ATOM     95  S   UNL A   1      46.067  22.893  36.282  1.00  0.00     0.127 S 
ATOM     96  O   UNL A   1      45.381  23.492  37.426  1.00  0.00    -0.237 OA
ATOM     97  O   UNL A   1      45.221  22.042  35.442  1.00  0.00    -0.237 OA
ATOM     98  O   UNL A   1      47.388  22.344  36.553  1.00  0.00    -0.744 OA
ENDBRANCH  92  95
ENDBRANCH  65  88
ENDBRANCH  39  40
ENDBRANCH  31  34
ENDBRANCH  29  30
ENDBRANCH  28  29
ENDBRANCH   1  28
TORSDOF 18
ENDMDL
MODEL 2
REMARK VINA RESULT:     -12.5      2.653      8.124
REMARK SMILES O=C(CCNC(=O)[C@H]1CCCN(S(=O)(=O)c2ccc(Cl)cc2)C1)NCCCNC(=O)c1ccc(-c2c3nc(c(-c4cccc(S(=O)(=O)[O-])c4F)c4ccc([nH]4)c(-c4cccc(S(=O)(=O)[O-])c4F)c4nc(c(-c5cccc(S(=O)(=O)[O-])c5F)c5ccc2[nH]5)C=C4)C=C3)cc1
REMARK SMILES IDX 25 1 24 2 1 3 2 4 3 6 4 7 5 8 6 9 7 11 8 12 9 13 23 14 10 15
REMARK SMILES IDX 12 16 11 17 13 18 14 19 15 20 16 21 17 22 22 23 18 24 21 25
REMARK SMILES IDX 19 26 20 27 26 28 27 29 28 30 29 31 30 33 31 34 32 35 93 36
REMARK SMILES IDX 33 37 92 38 34 39 35 40 36 41 86 42 37 43 91 44 85 45 87 46
REMARK SMILES IDX 38 47 90 48 84 49 83 50 39 52 71 53 51 54 70 55 52 56 55 57
REMARK SMILES IDX 69 58 88 59 53 60 54 61 68 63 89 64 56 65 40 66 41 67 49 68
REMARK SMILES IDX 42 69 44 70 50 71 43 72 45 73 46 74 47 75 48 76 72 77 73 78
REMARK SMILES IDX 81 79 74 80 76 81 82 82 75 83 77 84 78 85 79 86 80 87 57 88
REMARK SMILES IDX 58 89 66 90 59 91 61 92 67 93 60 94 62 95 63 96 64 97 65 98
REMARK H PARENT 24 5 5 10 28 32 87 51 55 62
REMARK Flexibility Score: inf
ROOT
ATOM      1  C   UNL A   1      31.772  30.347  26.403  1.00  0.00     0.117 C 
ENDROOT
BRANCH   1   2
ATOM      2  N   UNL A   1      32.157  30.079  25.033  1.00  0.00    -0.356 N 
ATOM      3  O   UNL A   1      30.442  28.618  24.554  1.00  0.00    -0.275 OA
ATOM      4  C   UNL A   1      31.423  29.264  24.203  1.00  0.00     0.221 C 
ATOM      5  H   UNL A   1      32.977  30.497  24.681  1.00  0.00     0.163 HD
BRANCH   4   6
ATOM      6  C   UNL A   1      31.877  29.300  22.762  1.00  0.00     0.121 C 
BRANCH   6   7
ATOM      7  C   UNL A   1      33.305  28.769  22.683  1.00  0.00     0.125 C 
BRANCH   7   8
ATOM      8  N   UNL A   1      33.397  27.551  21.885  1.00  0.00    -0.355 N 
ATOM      9  C   UNL A   1      33.169  26.235  22.095  1.00  0.00     0.224 C 
ATOM     10  H   UNL A   1      33.701  27.732  20.966  1.00  0.00     0.163 HD
ATOM     11  O   UNL A   1      33.527  25.495  21.170  1.00  0.00    -0.275 OA
BRANCH   9  12
ATOM     12  C   UNL A   1      32.468  25.614  23.304  1.00  0.00     0.093 C 
ATOM     13  C   UNL A   1      30.951  25.537  23.308  1.00  0.00     0.016 C 
ATOM     14  C   UNL A   1      33.091  24.223  23.514  1.00  0.00     0.116 C 
ATOM     15  C   UNL A   1      30.462  24.877  24.586  1.00  0.00     0.018 C 
ATOM     16  N   UNL A   1      32.492  23.460  24.678  1.00  0.00    -0.197 NA
ATOM     17  C   UNL A   1      31.004  23.458  24.656  1.00  0.00     0.102 C 
BRANCH  16  18
ATOM     18  S   UNL A   1      33.195  21.875  24.762  1.00  0.00     0.243 S 
ATOM     19  O   UNL A   1      32.623  21.211  25.916  1.00  0.00    -0.207 OA
ATOM     20  O   UNL A   1      33.112  21.278  23.447  1.00  0.00    -0.207 OA
BRANCH  18  21
ATOM     21  C   UNL A   1      34.916  22.163  25.121  1.00  0.00     0.082 A 
ATOM     22  C   UNL A   1      35.270  23.244  25.941  1.00  0.00     0.023 A 
ATOM     23  C   UNL A   1      35.889  21.268  24.670  1.00  0.00     0.023 A 
ATOM     24  C   UNL A   1      36.612  23.474  26.244  1.00  0.00     0.022 A 
ATOM     25  C   UNL A   1      37.230  21.489  25.000  1.00  0.00     0.022 A 
ATOM     26  C   UNL A   1      37.586  22.596  25.772  1.00  0.00     0.041 A 
ATOM     27  Cl  UNL A   1      39.239  22.879  26.157  1.00  0.00    -0.084 Cl
ENDBRANCH  18  21
ENDBRANCH  16  18
ENDBRANCH   9  12
ENDBRANCH   7   8
ENDBRANCH   6   7
ENDBRANCH   4   6
ENDBRANCH   1   2
BRANCH   1  28
ATOM     28  C   UNL A   1      31.567  31.831  26.680  1.00  0.00     0.042 C 
BRANCH  28  29
ATOM     29  C   UNL A   1      32.763  32.540  27.308  1.00  0.00     0.118 C 
BRANCH  29  30
ATOM     30  N   UNL A   1      32.504  33.934  27.643  1.00  0.00    -0.352 N 
ATOM     31  C   UNL A   1      33.108  34.737  28.581  1.00  0.00     0.251 C 
ATOM     32  H   UNL A   1      31.790  34.365  27.119  1.00  0.00     0.163 HD
ATOM     33  O   UNL A   1      32.652  35.858  28.792  1.00  0.00    -0.269 OA
BRANCH  31  34
ATOM     34  C   UNL A   1      34.270  34.250  29.360  1.00  0.00     0.039 A 
ATOM     35  C   UNL A   1      34.030  33.542  30.541  1.00  0.00     0.014 A 
ATOM     36  C   UNL A   1      35.583  34.484  28.944  1.00  0.00     0.014 A 
ATOM     37  C   UNL A   1      35.102  33.011  31.263  1.00  0.00     0.010 A 
ATOM     38  C   UNL A   1      36.646  33.890  29.625  1.00  0.00     0.010 A 
ATOM     39  C   UNL A   1      36.418  33.146  30.791  1.00  0.00    -0.014 A 
BRANCH  39  40
ATOM     40  C   UNL A   1      37.549  32.478  31.489  1.00  0.00     0.031 A 
ATOM     41  C   UNL A   1      38.291  31.337  30.849  1.00  0.00     0.074 A 
ATOM     42  C   UNL A   1      37.864  32.859  32.744  1.00  0.00     0.049 A 
ATOM     43  N   UNL A   1      39.307  30.653  31.311  1.00  0.00    -0.248 NA
ATOM     44  C   UNL A   1      37.820  30.886  29.529  1.00  0.00     0.031 C 
ATOM     45  C   UNL A   1      37.158  33.882  33.519  1.00  0.00     0.029 A 
ATOM     46  N   UNL A   1      38.846  32.419  33.596  1.00  0.00    -0.354 N 
ATOM     47  C   UNL A   1      39.577  29.676  30.360  1.00  0.00     0.074 A 
ATOM     48  C   UNL A   1      38.595  29.833  29.309  1.00  0.00     0.031 C 
ATOM     49  C   UNL A   1      37.738  34.002  34.724  1.00  0.00     0.029 A 
ATOM     50  C   UNL A   1      38.844  33.054  34.816  1.00  0.00     0.049 A 
ATOM     51  H   UNL A   1      39.492  31.716  33.356  1.00  0.00     0.167 HD
ATOM     52  C   UNL A   1      40.571  28.755  30.345  1.00  0.00     0.034 A 
ATOM     53  C   UNL A   1      39.647  32.900  35.888  1.00  0.00     0.034 A 
ATOM     54  C   UNL A   1      41.574  28.630  31.369  1.00  0.00     0.049 A 
ATOM     55  C   UNL A   1      40.789  31.924  35.812  1.00  0.00     0.074 A 
ATOM     56  C   UNL A   1      42.674  27.790  31.399  1.00  0.00     0.029 A 
ATOM     57  N   UNL A   1      41.602  29.363  32.544  1.00  0.00    -0.354 N 
ATOM     58  N   UNL A   1      41.135  31.133  34.825  1.00  0.00    -0.248 NA
ATOM     59  C   UNL A   1      41.680  31.852  36.979  1.00  0.00     0.031 C 
ATOM     60  C   UNL A   1      43.359  28.006  32.600  1.00  0.00     0.029 A 
ATOM     61  C   UNL A   1      42.696  28.994  33.309  1.00  0.00     0.049 A 
ATOM     62  H   UNL A   1      40.941  30.047  32.799  1.00  0.00     0.167 HD
ATOM     63  C   UNL A   1      42.299  30.496  35.238  1.00  0.00     0.074 A 
ATOM     64  C   UNL A   1      42.615  31.015  36.553  1.00  0.00     0.031 C 
ATOM     65  C   UNL A   1      43.032  29.554  34.593  1.00  0.00     0.034 A 
BRANCH  52  66
ATOM     66  C   UNL A   1      40.663  27.848  29.144  1.00  0.00     0.023 A 
ATOM     67  C   UNL A   1      39.785  26.749  29.039  1.00  0.00     0.012 A 
ATOM     68  C   UNL A   1      41.565  28.113  28.095  1.00  0.00     0.148 A 
ATOM     69  C   UNL A   1      39.825  25.910  27.928  1.00  0.00     0.002 A 
ATOM     70  C   UNL A   1      41.569  27.295  26.969  1.00  0.00     0.091 A 
ATOM     71  F   UNL A   1      42.407  29.148  28.221  1.00  0.00    -0.205 F 
ATOM     72  C   UNL A   1      40.708  26.189  26.889  1.00  0.00     0.022 A 
BRANCH  70  73
ATOM     73  S   UNL A   1      42.615  27.619  25.544  1.00  0.00     0.127 S 
ATOM     74  O   UNL A   1      42.042  28.864  25.035  1.00  0.00    -0.237 OA
ATOM     75  O   UNL A   1      43.936  27.762  26.156  1.00  0.00    -0.237 OA
ATOM     76  O   UNL A   1      42.474  26.462  24.673  1.00  0.00    -0.744 OA
ENDBRANCH  70  73
ENDBRANCH  52  66
BRANCH  53  77
ATOM     77  C   UNL A   1      39.454  33.760  37.089  1.00  0.00     0.023 A 
ATOM     78  C   UNL A   1      39.875  35.103  37.050  1.00  0.00     0.012 A 
ATOM     79  C   UNL A   1      38.828  33.270  38.251  1.00  0.00     0.148 A 
ATOM     80  C   UNL A   1      39.707  35.935  38.157  1.00  0.00     0.002 A 
ATOM     81  C   UNL A   1      38.612  34.120  39.330  1.00  0.00     0.091 A 
ATOM     82  F   UNL A   1      38.445  31.985  38.273  1.00  0.00    -0.205 F 
ATOM     83  C   UNL A   1      39.065  35.447  39.293  1.00  0.00     0.022 A 
BRANCH  81  84
ATOM     84  S   UNL A   1      37.673  33.612  40.776  1.00  0.00     0.127 S 
ATOM     85  O   UNL A   1      38.492  32.521  41.296  1.00  0.00    -0.237 OA
ATOM     86  O   UNL A   1      37.682  34.831  41.587  1.00  0.00    -0.237 OA
ATOM     87  O   UNL A   1      36.357  33.238  40.275  1.00  0.00    -0.744 OA
ENDBRANCH  81  84
ENDBRANCH  53  77
BRANCH  65  88
ATOM     88  C   UNL A   1      44.267  29.040  35.287  1.00  0.00     0.023 A 
ATOM     89  C   UNL A   1      45.517  29.631  35.019  1.00  0.00     0.012 A 
ATOM     90  C   UNL A   1      44.182  28.007  36.241  1.00  0.00     0.148 A 
ATOM     91  C   UNL A   1      46.670  29.174  35.656  1.00  0.00     0.002 A 
ATOM     92  C   UNL A   1      45.328  27.589  36.908  1.00  0.00     0.091 A 
ATOM     93  F   UNL A   1      42.988  27.440  36.470  1.00  0.00    -0.205 F 
ATOM     94  C   UNL A   1      46.574  28.161  36.608  1.00  0.00     0.022 A 
BRANCH  92  95
ATOM     95  S   UNL A   1      45.272  26.355  38.213  1.00  0.00     0.127 S 
ATOM     96  O   UNL A   1      46.661  26.337  38.668  1.00  0.00    -0.237 OA
ATOM     97  O   UNL A   1      44.327  26.945  39.164  1.00  0.00    -0.237 OA
ATOM     98  O   UNL A   1      44.798  25.132  37.579  1.00  0.00    -0.744 OA
ENDBRANCH  92  95
ENDBRANCH  65  88
ENDBRANCH  39  40
ENDBRANCH  31  34
ENDBRANCH  29  30
ENDBRANCH  28  29
ENDBRANCH   1  28
TORSDOF 18
ENDMDL
MODEL 3
REMARK VINA RESULT:     -12.1      2.660      3.478
REMARK SMILES O=C(CCNC(=O)[C@H]1CCCN(S(=O)(=O)c2ccc(Cl)cc2)C1)NCCCNC(=O)c1ccc(-c2c3nc(c(-c4cccc(S(=O)(=O)[O-])c4F)c4ccc([nH]4)c(-c4cccc(S(=O)(=O)[O-])c4F)c4nc(c(-c5cccc(S(=O)(=O)[O-])c5F)c5ccc2[nH]5)C=C4)C=C3)cc1
REMARK SMILES IDX 25 1 24 2 1 3 2 4 3 6 4 7 5 8 6 9 7 11 8 12 9 13 23 14 10 15
REMARK SMILES IDX 12 16 11 17 13 18 14 19 15 20 16 21 17 22 22 23 18 24 21 25
REMARK SMILES IDX 19 26 20 27 26 28 27 29 28 30 29 31 30 33 31 34 32 35 93 36
REMARK SMILES IDX 33 37 92 38 34 39 35 40 36 41 86 42 37 43 91 44 85 45 87 46
REMARK SMILES IDX 38 47 90 48 84 49 83 50 39 52 71 53 51 54 70 55 52 56 55 57
REMARK SMILES IDX 69 58 88 59 53 60 54 61 68 63 89 64 56 65 40 66 41 67 49 68
REMARK SMILES IDX 42 69 44 70 50 71 43 72 45 73 46 74 47 75 48 76 72 77 73 78
REMARK SMILES IDX 81 79 74 80 76 81 82 82 75 83 77 84 78 85 79 86 80 87 57 88
REMARK SMILES IDX 58 89 66 90 59 91 61 92 67 93 60 94 62 95 63 96 64 97 65 98
REMARK H PARENT 24 5 5 10 28 32 87 51 55 62
REMARK Flexibility Score: inf
ROOT
ATOM      1  C   UNL A   1      31.723  30.194  26.841  1.00  0.00     0.117 C 
ENDROOT
BRANCH   1   2
ATOM      2  N   UNL A   1      32.300  29.480  25.720  1.00  0.00    -0.356 N 
ATOM      3  O   UNL A   1      30.561  29.837  24.254  1.00  0.00    -0.275 OA
ATOM      4  C   UNL A   1      31.681  29.402  24.494  1.00  0.00     0.221 C 
ATOM      5  H   UNL A   1      33.169  29.033  25.840  1.00  0.00     0.163 HD
BRANCH   4   6
ATOM      6  C   UNL A   1      32.552  28.806  23.413  1.00  0.00     0.121 C 
BRANCH   6   7
ATOM      7  C   UNL A   1      32.042  27.406  23.086  1.00  0.00     0.125 C 
BRANCH   7   8
ATOM      8  N   UNL A   1      30.808  27.090  23.798  1.00  0.00    -0.355 N 
ATOM      9  C   UNL A   1      30.421  26.163  24.703  1.00  0.00     0.224 C 
ATOM     10  H   UNL A   1      30.075  27.704  23.561  1.00  0.00     0.163 HD
ATOM     11  O   UNL A   1      29.207  26.150  24.942  1.00  0.00    -0.275 OA
BRANCH   9  12
ATOM     12  C   UNL A   1      31.333  25.211  25.477  1.00  0.00     0.093 C 
ATOM     13  C   UNL A   1      30.700  24.122  26.327  1.00  0.00     0.016 C 
ATOM     14  C   UNL A   1      32.318  24.610  24.458  1.00  0.00     0.116 C 
ATOM     15  C   UNL A   1      31.777  23.286  26.996  1.00  0.00     0.018 C 
ATOM     16  N   UNL A   1      33.294  23.625  25.067  1.00  0.00    -0.197 NA
ATOM     17  C   UNL A   1      32.623  22.612  25.927  1.00  0.00     0.102 C 
BRANCH  16  18
ATOM     18  S   UNL A   1      34.288  22.939  23.820  1.00  0.00     0.243 S 
ATOM     19  O   UNL A   1      33.770  21.616  23.535  1.00  0.00    -0.207 OA
ATOM     20  O   UNL A   1      34.427  23.922  22.768  1.00  0.00    -0.207 OA
BRANCH  18  21
ATOM     21  C   UNL A   1      35.884  22.726  24.580  1.00  0.00     0.082 A 
ATOM     22  C   UNL A   1      36.441  23.788  25.307  1.00  0.00     0.023 A 
ATOM     23  C   UNL A   1      36.528  21.487  24.531  1.00  0.00     0.023 A 
ATOM     24  C   UNL A   1      37.683  23.632  25.921  1.00  0.00     0.022 A 
ATOM     25  C   UNL A   1      37.761  21.329  25.173  1.00  0.00     0.022 A 
ATOM     26  C   UNL A   1      38.339  22.404  25.851  1.00  0.00     0.041 A 
ATOM     27  Cl  UNL A   1      39.867  22.214  26.619  1.00  0.00    -0.084 Cl
ENDBRANCH  18  21
ENDBRANCH  16  18
ENDBRANCH   9  12
ENDBRANCH   7   8
ENDBRANCH   6   7
ENDBRANCH   4   6
ENDBRANCH   1   2
BRANCH   1  28
ATOM     28  C   UNL A   1      31.751  31.705  26.656  1.00  0.00     0.042 C 
BRANCH  28  29
ATOM     29  C   UNL A   1      32.920  32.416  27.330  1.00  0.00     0.118 C 
BRANCH  29  30
ATOM     30  N   UNL A   1      32.615  33.780  27.742  1.00  0.00    -0.352 N 
ATOM     31  C   UNL A   1      33.225  34.568  28.688  1.00  0.00     0.251 C 
ATOM     32  H   UNL A   1      31.858  34.199  27.271  1.00  0.00     0.163 HD
ATOM     33  O   UNL A   1      32.730  35.655  28.972  1.00  0.00    -0.269 OA
BRANCH  31  34
ATOM     34  C   UNL A   1      34.444  34.102  29.390  1.00  0.00     0.039 A 
ATOM     35  C   UNL A   1      34.292  33.297  30.523  1.00  0.00     0.014 A 
ATOM     36  C   UNL A   1      35.723  34.449  28.950  1.00  0.00     0.014 A 
ATOM     37  C   UNL A   1      35.421  32.785  31.169  1.00  0.00     0.010 A 
ATOM     38  C   UNL A   1      36.845  33.877  29.549  1.00  0.00     0.010 A 
ATOM     39  C   UNL A   1      36.708  33.038  30.665  1.00  0.00    -0.014 A 
BRANCH  39  40
ATOM     40  C   UNL A   1      37.902  32.395  31.274  1.00  0.00     0.031 A 
ATOM     41  C   UNL A   1      38.516  32.937  32.536  1.00  0.00     0.074 A 
ATOM     42  C   UNL A   1      38.483  31.354  30.642  1.00  0.00     0.049 A 
ATOM     43  N   UNL A   1      39.548  32.491  33.207  1.00  0.00    -0.248 NA
ATOM     44  C   UNL A   1      37.911  34.150  33.110  1.00  0.00     0.031 C 
ATOM     45  C   UNL A   1      38.050  30.796  29.359  1.00  0.00     0.029 A 
ATOM     46  N   UNL A   1      39.572  30.590  30.984  1.00  0.00    -0.354 N 
ATOM     47  C   UNL A   1      39.736  33.379  34.259  1.00  0.00     0.074 A 
ATOM     48  C   UNL A   1      38.731  34.412  34.118  1.00  0.00     0.031 C 
ATOM     49  C   UNL A   1      38.853  29.772  29.030  1.00  0.00     0.029 A 
ATOM     50  C   UNL A   1      39.869  29.610  30.066  1.00  0.00     0.049 A 
ATOM     51  H   UNL A   1      40.090  30.731  31.809  1.00  0.00     0.167 HD
ATOM     52  C   UNL A   1      40.637  33.325  35.269  1.00  0.00     0.034 A 
ATOM     53  C   UNL A   1      40.843  28.679  30.061  1.00  0.00     0.034 A 
ATOM     54  C   UNL A   1      41.605  32.273  35.433  1.00  0.00     0.049 A 
ATOM     55  C   UNL A   1      41.781  28.594  31.233  1.00  0.00     0.074 A 
ATOM     56  C   UNL A   1      42.500  32.080  36.472  1.00  0.00     0.029 A 
ATOM     57  N   UNL A   1      41.809  31.236  34.537  1.00  0.00    -0.354 N 
ATOM     58  N   UNL A   1      41.825  29.340  32.310  1.00  0.00    -0.248 NA
ATOM     59  C   UNL A   1      42.774  27.510  31.212  1.00  0.00     0.031 C 
ATOM     60  C   UNL A   1      43.254  30.934  36.196  1.00  0.00     0.029 A 
ATOM     61  C   UNL A   1      42.815  30.402  34.994  1.00  0.00     0.049 A 
ATOM     62  H   UNL A   1      41.310  31.110  33.696  1.00  0.00     0.167 HD
ATOM     63  C   UNL A   1      42.825  28.796  33.109  1.00  0.00     0.074 A 
ATOM     64  C   UNL A   1      43.341  27.642  32.403  1.00  0.00     0.031 C 
ATOM     65  C   UNL A   1      43.286  29.225  34.310  1.00  0.00     0.034 A 
BRANCH  52  66
ATOM     66  C   UNL A   1      40.576  34.404  36.319  1.00  0.00     0.023 A 
ATOM     67  C   UNL A   1      41.061  35.693  36.015  1.00  0.00     0.012 A 
ATOM     68  C   UNL A   1      39.984  34.169  37.576  1.00  0.00     0.148 A 
ATOM     69  C   UNL A   1      40.990  36.720  36.955  1.00  0.00     0.002 A 
ATOM     70  C   UNL A   1      39.878  35.211  38.492  1.00  0.00     0.091 A 
ATOM     71  F   UNL A   1      39.547  32.933  37.856  1.00  0.00    -0.205 F 
ATOM     72  C   UNL A   1      40.389  36.483  38.187  1.00  0.00     0.022 A 
BRANCH  70  73
ATOM     73  S   UNL A   1      39.050  35.024  40.076  1.00  0.00     0.127 S 
ATOM     74  O   UNL A   1      38.587  36.388  40.328  1.00  0.00    -0.237 OA
ATOM     75  O   UNL A   1      37.987  34.069  39.758  1.00  0.00    -0.237 OA
ATOM     76  O   UNL A   1      40.057  34.523  40.999  1.00  0.00    -0.744 OA
ENDBRANCH  70  73
ENDBRANCH  52  66
BRANCH  53  77
ATOM     77  C   UNL A   1      40.916  27.691  28.948  1.00  0.00     0.023 A 
ATOM     78  C   UNL A   1      40.039  26.589  28.944  1.00  0.00     0.012 A 
ATOM     79  C   UNL A   1      41.821  27.851  27.881  1.00  0.00     0.148 A 
ATOM     80  C   UNL A   1      40.082  25.647  27.916  1.00  0.00     0.002 A 
ATOM     81  C   UNL A   1      41.820  26.941  26.830  1.00  0.00     0.091 A 
ATOM     82  F   UNL A   1      42.656  28.900  27.908  1.00  0.00    -0.205 F 
ATOM     83  C   UNL A   1      40.964  25.829  26.854  1.00  0.00     0.022 A 
BRANCH  81  84
ATOM     84  S   UNL A   1      42.825  27.173  25.359  1.00  0.00     0.127 S 
ATOM     85  O   UNL A   1      44.160  27.327  25.931  1.00  0.00    -0.237 OA
ATOM     86  O   UNL A   1      42.604  25.919  24.638  1.00  0.00    -0.237 OA
ATOM     87  O   UNL A   1      42.278  28.349  24.695  1.00  0.00    -0.744 OA
ENDBRANCH  81  84
ENDBRANCH  53  77
BRANCH  65  88
ATOM     88  C   UNL A   1      44.388  28.425  34.956  1.00  0.00     0.023 A 
ATOM     89  C   UNL A   1      45.728  28.658  34.588  1.00  0.00     0.012 A 
ATOM     90  C   UNL A   1      44.102  27.480  35.959  1.00  0.00     0.148 A 
ATOM     91  C   UNL A   1      46.763  27.933  35.178  1.00  0.00     0.002 A 
ATOM     92  C   UNL A   1      45.143  26.795  36.578  1.00  0.00     0.091 A 
ATOM     93  F   UNL A   1      42.820  27.254  36.284  1.00  0.00    -0.205 F 
ATOM     94  C   UNL A   1      46.471  27.010  36.180  1.00  0.00     0.022 A 
BRANCH  92  95
ATOM     95  S   UNL A   1      44.856  25.658  37.940  1.00  0.00     0.127 S 
ATOM     96  O   UNL A   1      44.097  26.491  38.870  1.00  0.00    -0.237 OA
ATOM     97  O   UNL A   1      44.079  24.592  37.302  1.00  0.00    -0.237 OA
ATOM     98  O   UNL A   1      46.178  25.245  38.393  1.00  0.00    -0.744 OA
ENDBRANCH  92  95
ENDBRANCH  65  88
ENDBRANCH  39  40
ENDBRANCH  31  34
ENDBRANCH  29  30
ENDBRANCH  28  29
ENDBRANCH   1  28
TORSDOF 18
ENDMDL
