MODEL 1
REMARK VINA RESULT:     -11.7      0.000      0.000
REMARK SMILES O=C(CC1(CC(=O)NNC(=O)C2CC2)CCCCC1)NCCCNC(=O)c1ccc(-c2c3nc(c(-c4cccc(S(=O)(=O)[O-])c4F)c4ccc([nH]4)c(-c4cccc(S(=O)(=O)[O-])c4F)c4nc(c(-c5cccc(S(=O)(=O)[O-])c5F)c5ccc2[nH]5)C=C4)C=C3)cc1
REMARK SMILES IDX 21 1 20 2 1 3 2 4 3 6 4 7 15 8 19 9 16 10 18 11 17 12 5 13
REMARK SMILES IDX 6 14 7 15 8 16 9 18 10 19 11 21 12 22 13 23 14 24 22 25
REMARK SMILES IDX 23 26 24 27 25 28 26 30 27 31 28 32 89 33 29 34 88 35 30 36
REMARK SMILES IDX 31 37 32 38 82 39 33 40 87 41 81 42 83 43 34 44 86 45 80 46
REMARK SMILES IDX 79 47 35 49 67 50 47 51 66 52 48 53 51 54 65 55 84 56 49 57
REMARK SMILES IDX 50 58 64 60 85 61 52 62 36 63 37 64 45 65 38 66 40 67 46 68
REMARK SMILES IDX 39 69 41 70 42 71 43 72 44 73 68 74 69 75 77 76 70 77 72 78
REMARK SMILES IDX 78 79 71 80 73 81 74 82 75 83 76 84 53 85 54 86 62 87 55 88
REMARK SMILES IDX 57 89 63 90 56 91 58 92 59 93 60 94 61 95
REMARK H PARENT 20 5 8 17 9 20 24 29 83 48 51 59
REMARK Flexibility Score: inf
ROOT
ATOM      1  C   UNL A   1      32.314  26.987  26.571  1.00  0.00     0.117 C 
ENDROOT
BRANCH   1   2
ATOM      2  N   UNL A   1      32.872  25.946  25.731  1.00  0.00    -0.356 N 
ATOM      3  O   UNL A   1      31.997  24.177  26.910  1.00  0.00    -0.275 OA
ATOM      4  C   UNL A   1      32.604  24.612  25.938  1.00  0.00     0.220 C 
ATOM      5  H   UNL A   1      33.463  26.202  24.985  1.00  0.00     0.163 HD
BRANCH   4   6
ATOM      6  C   UNL A   1      33.078  23.723  24.800  1.00  0.00     0.107 C 
BRANCH   6   7
ATOM      7  C   UNL A   1      34.499  23.095  24.957  1.00  0.00    -0.012 C 
ATOM      8  C   UNL A   1      35.218  23.354  23.588  1.00  0.00     0.008 C 
ATOM      9  C   UNL A   1      35.318  23.867  26.021  1.00  0.00     0.008 C 
ATOM     10  C   UNL A   1      36.695  22.961  23.576  1.00  0.00     0.001 C 
ATOM     11  C   UNL A   1      36.799  23.477  26.052  1.00  0.00     0.001 C 
ATOM     12  C   UNL A   1      37.471  23.643  24.695  1.00  0.00     0.000 C 
BRANCH   7  13
ATOM     13  C   UNL A   1      34.478  21.549  25.197  1.00  0.00     0.109 C 
BRANCH  13  14
ATOM     14  C   UNL A   1      33.496  20.918  26.172  1.00  0.00     0.238 C 
ATOM     15  O   UNL A   1      33.468  21.302  27.346  1.00  0.00    -0.273 OA
ATOM     16  N   UNL A   1      32.601  19.963  25.788  1.00  0.00    -0.268 N 
ATOM     17  H   UNL A   1      32.237  19.370  26.484  1.00  0.00     0.191 HD
BRANCH  16  18
ATOM     18  N   UNL A   1      32.171  19.773  24.491  1.00  0.00    -0.267 N 
ATOM     19  C   UNL A   1      32.463  18.675  23.715  1.00  0.00     0.241 C 
ATOM     20  H   UNL A   1      31.612  20.477  24.090  1.00  0.00     0.191 HD
ATOM     21  O   UNL A   1      32.096  18.627  22.545  1.00  0.00    -0.273 OA
BRANCH  19  22
ATOM     22  C   UNL A   1      33.218  17.531  24.295  1.00  0.00     0.080 C 
ATOM     23  C   UNL A   1      34.023  16.533  23.494  1.00  0.00     0.014 C 
ATOM     24  C   UNL A   1      34.735  17.620  24.234  1.00  0.00     0.014 C 
ENDBRANCH  19  22
ENDBRANCH  16  18
ENDBRANCH  13  14
ENDBRANCH   7  13
ENDBRANCH   6   7
ENDBRANCH   4   6
ENDBRANCH   1   2
BRANCH   1  25
ATOM     25  C   UNL A   1      31.892  28.232  25.801  1.00  0.00     0.042 C 
BRANCH  25  26
ATOM     26  C   UNL A   1      32.913  29.369  25.731  1.00  0.00     0.118 C 
BRANCH  26  27
ATOM     27  N   UNL A   1      32.436  30.643  26.248  1.00  0.00    -0.352 N 
ATOM     28  C   UNL A   1      33.037  31.500  27.145  1.00  0.00     0.251 C 
ATOM     29  H   UNL A   1      31.559  30.936  25.909  1.00  0.00     0.163 HD
ATOM     30  O   UNL A   1      32.452  32.498  27.555  1.00  0.00    -0.269 OA
BRANCH  28  31
ATOM     31  C   UNL A   1      34.408  31.202  27.618  1.00  0.00     0.039 A 
ATOM     32  C   UNL A   1      35.352  32.228  27.707  1.00  0.00     0.014 A 
ATOM     33  C   UNL A   1      34.747  29.904  28.010  1.00  0.00     0.014 A 
ATOM     34  C   UNL A   1      36.601  31.972  28.283  1.00  0.00     0.010 A 
ATOM     35  C   UNL A   1      35.956  29.671  28.655  1.00  0.00     0.010 A 
ATOM     36  C   UNL A   1      36.895  30.703  28.809  1.00  0.00    -0.014 A 
BRANCH  36  37
ATOM     37  C   UNL A   1      38.156  30.422  29.549  1.00  0.00     0.031 A 
ATOM     38  C   UNL A   1      39.160  29.451  28.985  1.00  0.00     0.074 A 
ATOM     39  C   UNL A   1      38.336  30.930  30.785  1.00  0.00     0.049 A 
ATOM     40  N   UNL A   1      40.236  28.959  29.542  1.00  0.00    -0.248 NA
ATOM     41  C   UNL A   1      38.901  28.941  27.629  1.00  0.00     0.031 C 
ATOM     42  C   UNL A   1      37.407  31.824  31.479  1.00  0.00     0.029 A 
ATOM     43  N   UNL A   1      39.347  30.735  31.696  1.00  0.00    -0.354 N 
ATOM     44  C   UNL A   1      40.753  28.048  28.629  1.00  0.00     0.074 A 
ATOM     45  C   UNL A   1      39.858  28.036  27.493  1.00  0.00     0.031 C 
ATOM     46  C   UNL A   1      37.885  32.095  32.704  1.00  0.00     0.029 A 
ATOM     47  C   UNL A   1      39.134  31.365  32.901  1.00  0.00     0.049 A 
ATOM     48  H   UNL A   1      40.147  30.195  31.504  1.00  0.00     0.167 HD
ATOM     49  C   UNL A   1      41.885  27.308  28.714  1.00  0.00     0.034 A 
ATOM     50  C   UNL A   1      39.851  31.343  34.043  1.00  0.00     0.034 A 
ATOM     51  C   UNL A   1      42.802  27.359  29.821  1.00  0.00     0.049 A 
ATOM     52  C   UNL A   1      41.126  30.545  34.096  1.00  0.00     0.074 A 
ATOM     53  C   UNL A   1      44.018  26.715  29.960  1.00  0.00     0.029 A 
ATOM     54  N   UNL A   1      42.604  28.094  30.979  1.00  0.00    -0.354 N 
ATOM     55  N   UNL A   1      41.673  29.802  33.164  1.00  0.00    -0.248 NA
ATOM     56  C   UNL A   1      41.901  30.608  35.345  1.00  0.00     0.031 C 
ATOM     57  C   UNL A   1      44.547  27.043  31.212  1.00  0.00     0.029 A 
ATOM     58  C   UNL A   1      43.672  27.917  31.841  1.00  0.00     0.049 A 
ATOM     59  H   UNL A   1      41.819  28.659  31.163  1.00  0.00     0.167 HD
ATOM     60  C   UNL A   1      42.875  29.349  33.697  1.00  0.00     0.074 A 
ATOM     61  C   UNL A   1      42.982  29.909  35.028  1.00  0.00     0.031 C 
ATOM     62  C   UNL A   1      43.801  28.531  33.137  1.00  0.00     0.034 A 
BRANCH  49  63
ATOM     63  C   UNL A   1      42.225  26.412  27.552  1.00  0.00     0.023 A 
ATOM     64  C   UNL A   1      42.976  26.926  26.474  1.00  0.00     0.012 A 
ATOM     65  C   UNL A   1      41.856  25.053  27.549  1.00  0.00     0.148 A 
ATOM     66  C   UNL A   1      43.321  26.111  25.396  1.00  0.00     0.002 A 
ATOM     67  C   UNL A   1      42.244  24.236  26.493  1.00  0.00     0.091 A 
ATOM     68  F   UNL A   1      41.126  24.586  28.573  1.00  0.00    -0.205 F 
ATOM     69  C   UNL A   1      42.965  24.766  25.411  1.00  0.00     0.022 A 
BRANCH  67  70
ATOM     70  S   UNL A   1      41.905  22.471  26.458  1.00  0.00     0.127 S 
ATOM     71  O   UNL A   1      40.449  22.455  26.314  1.00  0.00    -0.237 OA
ATOM     72  O   UNL A   1      42.640  22.041  25.269  1.00  0.00    -0.237 OA
ATOM     73  O   UNL A   1      42.415  21.939  27.713  1.00  0.00    -0.744 OA
ENDBRANCH  67  70
ENDBRANCH  49  63
BRANCH  50  74
ATOM     74  C   UNL A   1      39.412  32.154  35.215  1.00  0.00     0.023 A 
ATOM     75  C   UNL A   1      39.711  33.531  35.250  1.00  0.00     0.012 A 
ATOM     76  C   UNL A   1      38.690  31.582  36.279  1.00  0.00     0.148 A 
ATOM     77  C   UNL A   1      39.329  34.315  36.340  1.00  0.00     0.002 A 
ATOM     78  C   UNL A   1      38.264  32.380  37.335  1.00  0.00     0.091 A 
ATOM     79  F   UNL A   1      38.424  30.268  36.233  1.00  0.00    -0.205 F 
ATOM     80  C   UNL A   1      38.597  33.743  37.376  1.00  0.00     0.022 A 
BRANCH  78  81
ATOM     81  S   UNL A   1      37.209  31.758  38.649  1.00  0.00     0.127 S 
ATOM     82  O   UNL A   1      36.054  32.648  38.551  1.00  0.00    -0.237 OA
ATOM     83  O   UNL A   1      36.966  30.381  38.217  1.00  0.00    -0.237 OA
ATOM     84  O   UNL A   1      37.994  31.873  39.871  1.00  0.00    -0.744 OA
ENDBRANCH  78  81
ENDBRANCH  50  74
BRANCH  62  85
ATOM     85  C   UNL A   1      45.047  28.231  33.927  1.00  0.00     0.023 A 
ATOM     86  C   UNL A   1      45.086  27.117  34.788  1.00  0.00     0.012 A 
ATOM     87  C   UNL A   1      46.211  29.006  33.746  1.00  0.00     0.148 A 
ATOM     88  C   UNL A   1      46.256  26.795  35.477  1.00  0.00     0.002 A 
ATOM     89  C   UNL A   1      47.385  28.650  34.396  1.00  0.00     0.091 A 
ATOM     90  F   UNL A   1      46.147  30.074  32.937  1.00  0.00    -0.205 F 
ATOM     91  C   UNL A   1      47.407  27.552  35.270  1.00  0.00     0.022 A 
BRANCH  89  92
ATOM     92  S   UNL A   1      48.940  29.507  34.114  1.00  0.00     0.127 S 
ATOM     93  O   UNL A   1      49.836  28.806  35.032  1.00  0.00    -0.237 OA
ATOM     94  O   UNL A   1      49.188  29.240  32.697  1.00  0.00    -0.237 OA
ATOM     95  O   UNL A   1      48.691  30.906  34.431  1.00  0.00    -0.744 OA
ENDBRANCH  89  92
ENDBRANCH  62  85
ENDBRANCH  36  37
ENDBRANCH  28  31
ENDBRANCH  26  27
ENDBRANCH  25  26
ENDBRANCH   1  25
TORSDOF 18
ENDMDL
MODEL 2
REMARK VINA RESULT:     -11.5      3.309      4.955
REMARK SMILES O=C(CC1(CC(=O)NNC(=O)C2CC2)CCCCC1)NCCCNC(=O)c1ccc(-c2c3nc(c(-c4cccc(S(=O)(=O)[O-])c4F)c4ccc([nH]4)c(-c4cccc(S(=O)(=O)[O-])c4F)c4nc(c(-c5cccc(S(=O)(=O)[O-])c5F)c5ccc2[nH]5)C=C4)C=C3)cc1
REMARK SMILES IDX 21 1 20 2 1 3 2 4 3 6 4 7 15 8 19 9 16 10 18 11 17 12 5 13
REMARK SMILES IDX 6 14 7 15 8 16 9 18 10 19 11 21 12 22 13 23 14 24 22 25
REMARK SMILES IDX 23 26 24 27 25 28 26 30 27 31 28 32 89 33 29 34 88 35 30 36
REMARK SMILES IDX 31 37 32 38 82 39 33 40 87 41 81 42 83 43 34 44 86 45 80 46
REMARK SMILES IDX 79 47 35 49 67 50 47 51 66 52 48 53 51 54 65 55 84 56 49 57
REMARK SMILES IDX 50 58 64 60 85 61 52 62 36 63 37 64 45 65 38 66 40 67 46 68
REMARK SMILES IDX 39 69 41 70 42 71 43 72 44 73 68 74 69 75 77 76 70 77 72 78
REMARK SMILES IDX 78 79 71 80 73 81 74 82 75 83 76 84 53 85 54 86 62 87 55 88
REMARK SMILES IDX 57 89 63 90 56 91 58 92 59 93 60 94 61 95
REMARK H PARENT 20 5 8 17 9 20 24 29 83 48 51 59
REMARK Flexibility Score: inf
ROOT
ATOM      1  C   UNL A   1      32.074  29.777  26.942  1.00  0.00     0.117 C 
ENDROOT
BRANCH   1   2
ATOM      2  N   UNL A   1      32.362  29.143  25.670  1.00  0.00    -0.356 N 
ATOM      3  O   UNL A   1      34.575  28.702  26.109  1.00  0.00    -0.275 OA
ATOM      4  C   UNL A   1      33.591  28.591  25.387  1.00  0.00     0.220 C 
ATOM      5  H   UNL A   1      31.655  29.106  24.986  1.00  0.00     0.163 HD
BRANCH   4   6
ATOM      6  C   UNL A   1      33.594  27.763  24.113  1.00  0.00     0.107 C 
BRANCH   6   7
ATOM      7  C   UNL A   1      33.177  26.265  24.259  1.00  0.00    -0.012 C 
ATOM      8  C   UNL A   1      34.081  25.483  23.244  1.00  0.00     0.008 C 
ATOM      9  C   UNL A   1      33.555  25.733  25.663  1.00  0.00     0.008 C 
ATOM     10  C   UNL A   1      33.952  23.964  23.338  1.00  0.00     0.001 C 
ATOM     11  C   UNL A   1      33.412  24.212  25.799  1.00  0.00     0.001 C 
ATOM     12  C   UNL A   1      34.221  23.459  24.750  1.00  0.00     0.000 C 
BRANCH   7  13
ATOM     13  C   UNL A   1      31.685  25.989  23.876  1.00  0.00     0.109 C 
BRANCH  13  14
ATOM     14  C   UNL A   1      30.547  26.717  24.575  1.00  0.00     0.238 C 
ATOM     15  O   UNL A   1      30.339  26.519  25.775  1.00  0.00    -0.273 OA
ATOM     16  N   UNL A   1      29.762  27.628  23.931  1.00  0.00    -0.268 N 
ATOM     17  H   UNL A   1      28.870  27.812  24.306  1.00  0.00     0.191 HD
BRANCH  16  18
ATOM     18  N   UNL A   1      30.131  28.309  22.789  1.00  0.00    -0.267 N 
ATOM     19  C   UNL A   1      29.473  29.400  22.271  1.00  0.00     0.241 C 
ATOM     20  H   UNL A   1      30.928  27.989  22.308  1.00  0.00     0.191 HD
ATOM     21  O   UNL A   1      29.835  29.896  21.209  1.00  0.00    -0.273 OA
BRANCH  19  22
ATOM     22  C   UNL A   1      28.323  29.994  23.005  1.00  0.00     0.080 C 
ATOM     23  C   UNL A   1      28.372  31.287  23.787  1.00  0.00     0.014 C 
ATOM     24  C   UNL A   1      27.743  31.277  22.431  1.00  0.00     0.014 C 
ENDBRANCH  19  22
ENDBRANCH  16  18
ENDBRANCH  13  14
ENDBRANCH   7  13
ENDBRANCH   6   7
ENDBRANCH   4   6
ENDBRANCH   1   2
BRANCH   1  25
ATOM     25  C   UNL A   1      31.865  31.282  26.839  1.00  0.00     0.042 C 
BRANCH  25  26
ATOM     26  C   UNL A   1      32.981  32.166  27.397  1.00  0.00     0.118 C 
BRANCH  26  27
ATOM     27  N   UNL A   1      32.606  33.556  27.606  1.00  0.00    -0.352 N 
ATOM     28  C   UNL A   1      33.123  34.475  28.495  1.00  0.00     0.251 C 
ATOM     29  H   UNL A   1      31.879  33.889  27.032  1.00  0.00     0.163 HD
ATOM     30  O   UNL A   1      32.624  35.590  28.613  1.00  0.00    -0.269 OA
BRANCH  28  31
ATOM     31  C   UNL A   1      34.297  34.100  29.317  1.00  0.00     0.039 A 
ATOM     32  C   UNL A   1      34.115  33.390  30.506  1.00  0.00     0.014 A 
ATOM     33  C   UNL A   1      35.586  34.425  28.886  1.00  0.00     0.014 A 
ATOM     34  C   UNL A   1      35.229  32.919  31.209  1.00  0.00     0.010 A 
ATOM     35  C   UNL A   1      36.688  33.887  29.540  1.00  0.00     0.010 A 
ATOM     36  C   UNL A   1      36.525  33.120  30.704  1.00  0.00    -0.014 A 
BRANCH  36  37
ATOM     37  C   UNL A   1      37.729  32.522  31.345  1.00  0.00     0.031 A 
ATOM     38  C   UNL A   1      38.440  31.370  30.686  1.00  0.00     0.074 A 
ATOM     39  C   UNL A   1      38.100  32.922  32.579  1.00  0.00     0.049 A 
ATOM     40  N   UNL A   1      39.404  30.618  31.153  1.00  0.00    -0.248 NA
ATOM     41  C   UNL A   1      37.984  30.992  29.338  1.00  0.00     0.031 C 
ATOM     42  C   UNL A   1      37.452  33.977  33.360  1.00  0.00     0.029 A 
ATOM     43  N   UNL A   1      39.091  32.459  33.411  1.00  0.00    -0.354 N 
ATOM     44  C   UNL A   1      39.635  29.652  30.181  1.00  0.00     0.074 A 
ATOM     45  C   UNL A   1      38.693  29.896  29.111  1.00  0.00     0.031 C 
ATOM     46  C   UNL A   1      38.055  34.077  34.555  1.00  0.00     0.029 A 
ATOM     47  C   UNL A   1      39.108  33.070  34.644  1.00  0.00     0.049 A 
ATOM     48  H   UNL A   1      39.729  31.756  33.148  1.00  0.00     0.167 HD
ATOM     49  C   UNL A   1      40.564  28.666  30.166  1.00  0.00     0.034 A 
ATOM     50  C   UNL A   1      39.870  32.834  35.731  1.00  0.00     0.034 A 
ATOM     51  C   UNL A   1      41.535  28.456  31.207  1.00  0.00     0.049 A 
ATOM     52  C   UNL A   1      40.922  31.760  35.673  1.00  0.00     0.074 A 
ATOM     53  C   UNL A   1      42.573  27.542  31.242  1.00  0.00     0.029 A 
ATOM     54  N   UNL A   1      41.587  29.167  32.396  1.00  0.00    -0.354 N 
ATOM     55  N   UNL A   1      41.221  30.951  34.686  1.00  0.00    -0.248 NA
ATOM     56  C   UNL A   1      41.767  31.588  36.866  1.00  0.00     0.031 C 
ATOM     57  C   UNL A   1      43.241  27.685  32.463  1.00  0.00     0.029 A 
ATOM     58  C   UNL A   1      42.636  28.710  33.174  1.00  0.00     0.049 A 
ATOM     59  H   UNL A   1      40.969  29.891  32.649  1.00  0.00     0.167 HD
ATOM     60  C   UNL A   1      42.314  30.208  35.119  1.00  0.00     0.074 A 
ATOM     61  C   UNL A   1      42.632  30.672  36.454  1.00  0.00     0.031 C 
ATOM     62  C   UNL A   1      42.986  29.223  34.474  1.00  0.00     0.034 A 
BRANCH  49  63
ATOM     63  C   UNL A   1      40.612  27.766  28.959  1.00  0.00     0.023 A 
ATOM     64  C   UNL A   1      39.655  26.740  28.818  1.00  0.00     0.012 A 
ATOM     65  C   UNL A   1      41.561  27.969  27.939  1.00  0.00     0.148 A 
ATOM     66  C   UNL A   1      39.665  25.907  27.700  1.00  0.00     0.002 A 
ATOM     67  C   UNL A   1      41.536  27.164  26.806  1.00  0.00     0.091 A 
ATOM     68  F   UNL A   1      42.476  28.936  28.099  1.00  0.00    -0.205 F 
ATOM     69  C   UNL A   1      40.598  26.126  26.690  1.00  0.00     0.022 A 
BRANCH  67  70
ATOM     70  S   UNL A   1      42.643  27.418  25.412  1.00  0.00     0.127 S 
ATOM     71  O   UNL A   1      43.934  27.564  26.085  1.00  0.00    -0.237 OA
ATOM     72  O   UNL A   1      42.484  26.171  24.663  1.00  0.00    -0.237 OA
ATOM     73  O   UNL A   1      42.158  28.606  24.725  1.00  0.00    -0.744 OA
ENDBRANCH  67  70
ENDBRANCH  49  63
BRANCH  50  74
ATOM     74  C   UNL A   1      39.707  33.674  36.952  1.00  0.00     0.023 A 
ATOM     75  C   UNL A   1      40.274  34.963  36.981  1.00  0.00     0.012 A 
ATOM     76  C   UNL A   1      38.984  33.218  38.071  1.00  0.00     0.148 A 
ATOM     77  C   UNL A   1      40.154  35.769  38.115  1.00  0.00     0.002 A 
ATOM     78  C   UNL A   1      38.821  34.047  39.175  1.00  0.00     0.091 A 
ATOM     79  F   UNL A   1      38.460  31.984  38.029  1.00  0.00    -0.205 F 
ATOM     80  C   UNL A   1      39.420  35.316  39.206  1.00  0.00     0.022 A 
BRANCH  78  81
ATOM     81  S   UNL A   1      37.786  33.598  40.574  1.00  0.00     0.127 S 
ATOM     82  O   UNL A   1      36.543  33.210  39.913  1.00  0.00    -0.237 OA
ATOM     83  O   UNL A   1      38.541  32.494  41.167  1.00  0.00    -0.237 OA
ATOM     84  O   UNL A   1      37.714  34.791  41.407  1.00  0.00    -0.744 OA
ENDBRANCH  78  81
ENDBRANCH  50  74
BRANCH  62  85
ATOM     85  C   UNL A   1      44.174  28.608  35.166  1.00  0.00     0.023 A 
ATOM     86  C   UNL A   1      45.473  29.076  34.887  1.00  0.00     0.012 A 
ATOM     87  C   UNL A   1      43.990  27.627  36.161  1.00  0.00     0.148 A 
ATOM     88  C   UNL A   1      46.574  28.556  35.569  1.00  0.00     0.002 A 
ATOM     89  C   UNL A   1      45.086  27.151  36.871  1.00  0.00     0.091 A 
ATOM     90  F   UNL A   1      42.748  27.182  36.398  1.00  0.00    -0.205 F 
ATOM     91  C   UNL A   1      46.379  27.605  36.568  1.00  0.00     0.022 A 
BRANCH  89  92
ATOM     92  S   UNL A   1      44.919  26.000  38.241  1.00  0.00     0.127 S 
ATOM     93  O   UNL A   1      44.648  24.745  37.544  1.00  0.00    -0.237 OA
ATOM     94  O   UNL A   1      46.238  26.075  38.871  1.00  0.00    -0.237 OA
ATOM     95  O   UNL A   1      43.828  26.507  39.062  1.00  0.00    -0.744 OA
ENDBRANCH  89  92
ENDBRANCH  62  85
ENDBRANCH  36  37
ENDBRANCH  28  31
ENDBRANCH  26  27
ENDBRANCH  25  26
ENDBRANCH   1  25
TORSDOF 18
ENDMDL
MODEL 3
REMARK VINA RESULT:     -11.5      4.630      7.618
REMARK SMILES O=C(CC1(CC(=O)NNC(=O)C2CC2)CCCCC1)NCCCNC(=O)c1ccc(-c2c3nc(c(-c4cccc(S(=O)(=O)[O-])c4F)c4ccc([nH]4)c(-c4cccc(S(=O)(=O)[O-])c4F)c4nc(c(-c5cccc(S(=O)(=O)[O-])c5F)c5ccc2[nH]5)C=C4)C=C3)cc1
REMARK SMILES IDX 21 1 20 2 1 3 2 4 3 6 4 7 15 8 19 9 16 10 18 11 17 12 5 13
REMARK SMILES IDX 6 14 7 15 8 16 9 18 10 19 11 21 12 22 13 23 14 24 22 25
REMARK SMILES IDX 23 26 24 27 25 28 26 30 27 31 28 32 89 33 29 34 88 35 30 36
REMARK SMILES IDX 31 37 32 38 82 39 33 40 87 41 81 42 83 43 34 44 86 45 80 46
REMARK SMILES IDX 79 47 35 49 67 50 47 51 66 52 48 53 51 54 65 55 84 56 49 57
REMARK SMILES IDX 50 58 64 60 85 61 52 62 36 63 37 64 45 65 38 66 40 67 46 68
REMARK SMILES IDX 39 69 41 70 42 71 43 72 44 73 68 74 69 75 77 76 70 77 72 78
REMARK SMILES IDX 78 79 71 80 73 81 74 82 75 83 76 84 53 85 54 86 62 87 55 88
REMARK SMILES IDX 57 89 63 90 56 91 58 92 59 93 60 94 61 95
REMARK H PARENT 20 5 8 17 9 20 24 29 83 48 51 59
REMARK Flexibility Score: inf
ROOT
ATOM      1  C   UNL A   1      34.190  22.185  24.410  1.00  0.00     0.117 C 
ENDROOT
BRANCH   1   2
ATOM      2  N   UNL A   1      33.824  23.368  25.164  1.00  0.00    -0.356 N 
ATOM      3  O   UNL A   1      31.552  23.031  25.070  1.00  0.00    -0.275 OA
ATOM      4  C   UNL A   1      32.518  23.655  25.491  1.00  0.00     0.220 C 
ATOM      5  H   UNL A   1      34.534  23.987  25.452  1.00  0.00     0.163 HD
BRANCH   4   6
ATOM      6  C   UNL A   1      32.389  24.792  26.492  1.00  0.00     0.107 C 
BRANCH   6   7
ATOM      7  C   UNL A   1      32.429  26.239  25.905  1.00  0.00    -0.012 C 
ATOM      8  C   UNL A   1      31.636  27.122  26.930  1.00  0.00     0.008 C 
ATOM      9  C   UNL A   1      33.878  26.784  25.905  1.00  0.00     0.008 C 
ATOM     10  C   UNL A   1      31.688  28.620  26.633  1.00  0.00     0.001 C 
ATOM     11  C   UNL A   1      33.967  28.280  25.585  1.00  0.00     0.001 C 
ATOM     12  C   UNL A   1      33.121  29.126  26.528  1.00  0.00     0.000 C 
BRANCH   7  13
ATOM     13  C   UNL A   1      31.720  26.372  24.517  1.00  0.00     0.109 C 
BRANCH  13  14
ATOM     14  C   UNL A   1      30.203  26.362  24.405  1.00  0.00     0.238 C 
ATOM     15  O   UNL A   1      29.524  25.920  25.336  1.00  0.00    -0.273 OA
ATOM     16  N   UNL A   1      29.550  26.871  23.320  1.00  0.00    -0.268 N 
ATOM     17  H   UNL A   1      28.635  26.553  23.145  1.00  0.00     0.191 HD
BRANCH  16  18
ATOM     18  N   UNL A   1      30.084  27.800  22.452  1.00  0.00    -0.267 N 
ATOM     19  C   UNL A   1      29.720  29.125  22.391  1.00  0.00     0.241 C 
ATOM     20  H   UNL A   1      30.780  27.491  21.828  1.00  0.00     0.191 HD
ATOM     21  O   UNL A   1      30.200  29.861  21.534  1.00  0.00    -0.273 OA
BRANCH  19  22
ATOM     22  C   UNL A   1      28.748  29.678  23.372  1.00  0.00     0.080 C 
ATOM     23  C   UNL A   1      27.786  30.811  23.092  1.00  0.00     0.014 C 
ATOM     24  C   UNL A   1      27.278  29.405  23.096  1.00  0.00     0.014 C 
ENDBRANCH  19  22
ENDBRANCH  16  18
ENDBRANCH  13  14
ENDBRANCH   7  13
ENDBRANCH   6   7
ENDBRANCH   4   6
ENDBRANCH   1   2
BRANCH   1  25
ATOM     25  C   UNL A   1      35.170  21.276  25.140  1.00  0.00     0.042 C 
BRANCH  25  26
ATOM     26  C   UNL A   1      36.565  21.846  25.400  1.00  0.00     0.118 C 
BRANCH  26  27
ATOM     27  N   UNL A   1      37.614  20.846  25.525  1.00  0.00    -0.352 N 
ATOM     28  C   UNL A   1      38.919  20.999  25.943  1.00  0.00     0.251 C 
ATOM     29  H   UNL A   1      37.357  19.929  25.276  1.00  0.00     0.163 HD
ATOM     30  O   UNL A   1      39.711  20.061  25.898  1.00  0.00    -0.269 OA
BRANCH  28  31
ATOM     31  C   UNL A   1      39.364  22.317  26.449  1.00  0.00     0.039 A 
ATOM     32  C   UNL A   1      40.419  22.392  27.361  1.00  0.00     0.014 A 
ATOM     33  C   UNL A   1      38.754  23.487  25.987  1.00  0.00     0.014 A 
ATOM     34  C   UNL A   1      40.927  23.643  27.731  1.00  0.00     0.010 A 
ATOM     35  C   UNL A   1      39.313  24.723  26.291  1.00  0.00     0.010 A 
ATOM     36  C   UNL A   1      40.411  24.817  27.159  1.00  0.00    -0.014 A 
BRANCH  36  37
ATOM     37  C   UNL A   1      41.007  26.156  27.420  1.00  0.00     0.031 A 
ATOM     38  C   UNL A   1      42.426  26.444  27.004  1.00  0.00     0.074 A 
ATOM     39  C   UNL A   1      40.325  27.065  28.148  1.00  0.00     0.049 A 
ATOM     40  N   UNL A   1      43.172  27.484  27.275  1.00  0.00    -0.248 NA
ATOM     41  C   UNL A   1      43.107  25.409  26.207  1.00  0.00     0.031 C 
ATOM     42  C   UNL A   1      38.971  26.885  28.675  1.00  0.00     0.029 A 
ATOM     43  N   UNL A   1      40.695  28.307  28.605  1.00  0.00    -0.354 N 
ATOM     44  C   UNL A   1      44.419  27.209  26.727  1.00  0.00     0.074 A 
ATOM     45  C   UNL A   1      44.337  25.893  26.132  1.00  0.00     0.031 C 
ATOM     46  C   UNL A   1      38.627  27.971  29.387  1.00  0.00     0.029 A 
ATOM     47  C   UNL A   1      39.746  28.907  29.401  1.00  0.00     0.049 A 
ATOM     48  H   UNL A   1      41.557  28.727  28.384  1.00  0.00     0.167 HD
ATOM     49  C   UNL A   1      45.526  27.990  26.697  1.00  0.00     0.034 A 
ATOM     50  C   UNL A   1      39.778  30.071  30.081  1.00  0.00     0.034 A 
ATOM     51  C   UNL A   1      45.590  29.319  27.243  1.00  0.00     0.049 A 
ATOM     52  C   UNL A   1      41.005  30.938  29.997  1.00  0.00     0.074 A 
ATOM     53  C   UNL A   1      46.637  30.222  27.184  1.00  0.00     0.029 A 
ATOM     54  N   UNL A   1      44.570  29.935  27.950  1.00  0.00    -0.354 N 
ATOM     55  N   UNL A   1      42.125  30.723  29.350  1.00  0.00    -0.248 NA
ATOM     56  C   UNL A   1      40.962  32.226  30.708  1.00  0.00     0.031 C 
ATOM     57  C   UNL A   1      46.257  31.377  27.874  1.00  0.00     0.029 A 
ATOM     58  C   UNL A   1      44.962  31.204  28.337  1.00  0.00     0.049 A 
ATOM     59  H   UNL A   1      43.695  29.529  28.148  1.00  0.00     0.167 HD
ATOM     60  C   UNL A   1      42.899  31.863  29.537  1.00  0.00     0.074 A 
ATOM     61  C   UNL A   1      42.116  32.772  30.348  1.00  0.00     0.031 C 
ATOM     62  C   UNL A   1      44.150  32.128  29.088  1.00  0.00     0.034 A 
BRANCH  49  63
ATOM     63  C   UNL A   1      46.748  27.447  26.004  1.00  0.00     0.023 A 
ATOM     64  C   UNL A   1      46.911  27.652  24.618  1.00  0.00     0.012 A 
ATOM     65  C   UNL A   1      47.761  26.787  26.727  1.00  0.00     0.148 A 
ATOM     66  C   UNL A   1      48.043  27.177  23.957  1.00  0.00     0.002 A 
ATOM     67  C   UNL A   1      48.908  26.358  26.069  1.00  0.00     0.091 A 
ATOM     68  F   UNL A   1      47.580  26.583  28.040  1.00  0.00    -0.205 F 
ATOM     69  C   UNL A   1      49.045  26.540  24.684  1.00  0.00     0.022 A 
BRANCH  67  70
ATOM     70  S   UNL A   1      50.292  25.600  26.930  1.00  0.00     0.127 S 
ATOM     71  O   UNL A   1      51.246  25.404  25.838  1.00  0.00    -0.237 OA
ATOM     72  O   UNL A   1      50.667  26.642  27.887  1.00  0.00    -0.237 OA
ATOM     73  O   UNL A   1      49.772  24.381  27.533  1.00  0.00    -0.744 OA
ENDBRANCH  67  70
ENDBRANCH  49  63
BRANCH  50  74
ATOM     74  C   UNL A   1      38.584  30.516  30.856  1.00  0.00     0.023 A 
ATOM     75  C   UNL A   1      38.511  30.227  32.233  1.00  0.00     0.012 A 
ATOM     76  C   UNL A   1      37.537  31.234  30.249  1.00  0.00     0.148 A 
ATOM     77  C   UNL A   1      37.400  30.616  32.984  1.00  0.00     0.002 A 
ATOM     78  C   UNL A   1      36.459  31.666  31.014  1.00  0.00     0.091 A 
ATOM     79  F   UNL A   1      37.620  31.490  28.935  1.00  0.00    -0.205 F 
ATOM     80  C   UNL A   1      36.380  31.343  32.378  1.00  0.00     0.022 A 
BRANCH  78  81
ATOM     81  S   UNL A   1      35.162  32.717  30.348  1.00  0.00     0.127 S 
ATOM     82  O   UNL A   1      34.624  31.883  29.276  1.00  0.00    -0.237 OA
ATOM     83  O   UNL A   1      34.281  32.879  31.505  1.00  0.00    -0.237 OA
ATOM     84  O   UNL A   1      35.828  33.941  29.924  1.00  0.00    -0.744 OA
ENDBRANCH  78  81
ENDBRANCH  50  74
BRANCH  62  85
ATOM     85  C   UNL A   1      44.743  33.475  29.404  1.00  0.00     0.023 A 
ATOM     86  C   UNL A   1      45.451  33.671  30.606  1.00  0.00     0.012 A 
ATOM     87  C   UNL A   1      44.674  34.523  28.463  1.00  0.00     0.148 A 
ATOM     88  C   UNL A   1      46.057  34.898  30.879  1.00  0.00     0.002 A 
ATOM     89  C   UNL A   1      45.323  35.724  28.720  1.00  0.00     0.091 A 
ATOM     90  F   UNL A   1      43.980  34.323  27.334  1.00  0.00    -0.205 F 
ATOM     91  C   UNL A   1      46.004  35.918  29.932  1.00  0.00     0.022 A 
BRANCH  89  92
ATOM     92  S   UNL A   1      45.392  37.057  27.517  1.00  0.00     0.127 S 
ATOM     93  O   UNL A   1      46.234  38.035  28.204  1.00  0.00    -0.237 OA
ATOM     94  O   UNL A   1      46.025  36.406  26.370  1.00  0.00    -0.237 OA
ATOM     95  O   UNL A   1      44.013  37.469  27.292  1.00  0.00    -0.744 OA
ENDBRANCH  89  92
ENDBRANCH  62  85
ENDBRANCH  36  37
ENDBRANCH  28  31
ENDBRANCH  26  27
ENDBRANCH  25  26
ENDBRANCH   1  25
TORSDOF 18
ENDMDL
