MODEL 1
REMARK VINA RESULT:     -10.8      0.000      0.000
REMARK SMILES C[C@@H](C(=O)NCCCNC(=O)c1ccc(-c2c3nc(c(-c4cccc(S(=O)(=O)[O-])c4F)c4ccc([nH]4)c(-c4cccc(S(=O)(=O)[O-])c4F)c4nc(c(-c5cccc(S(=O)(=O)[O-])c5F)c5ccc2[nH]5)C=C4)C=C3)cc1)c1ccc(OC2CCCC2)cc1F
REMARK SMILES IDX 7 1 6 2 5 3 3 4 4 5 2 7 1 8 75 9 76 10 86 11 77 12 85 13
REMARK SMILES IDX 87 14 78 15 79 16 80 17 81 18 84 19 82 20 83 21 8 22 9 23
REMARK SMILES IDX 10 24 11 26 12 27 13 28 74 29 14 30 73 31 15 32 16 33 17 34
REMARK SMILES IDX 67 35 18 36 72 37 66 38 68 39 19 40 71 41 65 42 64 43 20 45
REMARK SMILES IDX 52 46 32 47 51 48 33 49 36 50 50 51 69 52 34 53 35 54 49 56
REMARK SMILES IDX 70 57 37 58 21 59 22 60 30 61 23 62 25 63 31 64 24 65 26 66
REMARK SMILES IDX 27 67 28 68 29 69 53 70 54 71 62 72 55 73 57 74 63 75 56 76
REMARK SMILES IDX 58 77 59 78 60 79 61 80 38 81 39 82 47 83 40 84 42 85 48 86
REMARK SMILES IDX 41 87 43 88 44 89 45 90 46 91
REMARK H PARENT 5 6 9 25 68 44 36 55
REMARK Flexibility Score: inf
ROOT
ATOM      1  C   UNL A   1      42.287  20.509  27.607  1.00  0.00     0.042 C 
ENDROOT
BRANCH   1   2
ATOM      2  C   UNL A   1      42.315  19.544  26.421  1.00  0.00     0.117 C 
BRANCH   2   3
ATOM      3  N   UNL A   1      43.580  18.834  26.334  1.00  0.00    -0.356 N 
ATOM      4  C   UNL A   1      44.486  18.754  25.312  1.00  0.00     0.227 C 
ATOM      5  O   UNL A   1      45.442  17.996  25.487  1.00  0.00    -0.274 OA
ATOM      6  H   UNL A   1      43.827  18.328  27.142  1.00  0.00     0.163 HD
BRANCH   4   7
ATOM      7  C   UNL A   1      44.320  19.632  24.054  1.00  0.00     0.108 C 
ATOM      8  C   UNL A   1      44.940  18.925  22.842  1.00  0.00     0.023 C 
BRANCH   7   9
ATOM      9  C   UNL A   1      44.828  21.067  24.250  1.00  0.00     0.000 A 
ATOM     10  C   UNL A   1      43.929  22.148  24.287  1.00  0.00     0.011 A 
ATOM     11  C   UNL A   1      46.186  21.384  24.364  1.00  0.00     0.130 A 
ATOM     12  C   UNL A   1      44.381  23.463  24.490  1.00  0.00     0.047 A 
ATOM     13  C   UNL A   1      46.635  22.686  24.535  1.00  0.00     0.086 A 
ATOM     14  F   UNL A   1      47.140  20.446  24.318  1.00  0.00    -0.207 F 
ATOM     15  C   UNL A   1      45.741  23.739  24.636  1.00  0.00     0.122 A 
BRANCH  15  16
ATOM     16  O   UNL A   1      46.064  25.043  24.872  1.00  0.00    -0.490 OA
BRANCH  16  17
ATOM     17  C   UNL A   1      46.561  25.468  26.142  1.00  0.00     0.173 C 
ATOM     18  C   UNL A   1      45.897  24.863  27.380  1.00  0.00     0.045 C 
ATOM     19  C   UNL A   1      48.073  25.339  26.326  1.00  0.00     0.045 C 
ATOM     20  C   UNL A   1      46.927  25.031  28.485  1.00  0.00     0.004 C 
ATOM     21  C   UNL A   1      48.296  25.053  27.809  1.00  0.00     0.004 C 
ENDBRANCH  16  17
ENDBRANCH  15  16
ENDBRANCH   7   9
ENDBRANCH   4   7
ENDBRANCH   2   3
ENDBRANCH   1   2
BRANCH   1  22
ATOM     22  C   UNL A   1      41.723  21.888  27.281  1.00  0.00     0.118 C 
BRANCH  22  23
ATOM     23  N   UNL A   1      40.455  21.814  26.570  1.00  0.00    -0.352 N 
ATOM     24  C   UNL A   1      39.459  22.749  26.448  1.00  0.00     0.251 C 
ATOM     25  H   UNL A   1      40.286  20.962  26.105  1.00  0.00     0.163 HD
ATOM     26  O   UNL A   1      38.370  22.412  25.982  1.00  0.00    -0.269 OA
BRANCH  24  27
ATOM     27  C   UNL A   1      39.673  24.143  26.891  1.00  0.00     0.039 A 
ATOM     28  C   UNL A   1      39.344  24.492  28.203  1.00  0.00     0.014 A 
ATOM     29  C   UNL A   1      40.187  25.111  26.022  1.00  0.00     0.014 A 
ATOM     30  C   UNL A   1      39.608  25.782  28.668  1.00  0.00     0.010 A 
ATOM     31  C   UNL A   1      40.516  26.376  26.506  1.00  0.00     0.010 A 
ATOM     32  C   UNL A   1      40.244  26.721  27.839  1.00  0.00    -0.014 A 
BRANCH  32  33
ATOM     33  C   UNL A   1      40.701  28.031  28.371  1.00  0.00     0.031 A 
ATOM     34  C   UNL A   1      42.163  28.314  28.580  1.00  0.00     0.074 A 
ATOM     35  C   UNL A   1      39.778  28.934  28.764  1.00  0.00     0.049 A 
ATOM     36  N   UNL A   1      42.729  29.373  29.100  1.00  0.00    -0.248 NA
ATOM     37  C   UNL A   1      43.117  27.268  28.172  1.00  0.00     0.031 C 
ATOM     38  C   UNL A   1      38.326  28.745  28.686  1.00  0.00     0.029 A 
ATOM     39  N   UNL A   1      39.917  30.171  29.344  1.00  0.00    -0.354 N 
ATOM     40  C   UNL A   1      44.092  29.110  29.118  1.00  0.00     0.074 A 
ATOM     41  C   UNL A   1      44.274  27.785  28.565  1.00  0.00     0.031 C 
ATOM     42  C   UNL A   1      37.712  29.820  29.204  1.00  0.00     0.029 A 
ATOM     43  C   UNL A   1      38.720  30.755  29.692  1.00  0.00     0.049 A 
ATOM     44  H   UNL A   1      40.791  30.599  29.496  1.00  0.00     0.167 HD
ATOM     45  C   UNL A   1      45.102  29.907  29.542  1.00  0.00     0.034 A 
ATOM     46  C   UNL A   1      38.460  31.899  30.356  1.00  0.00     0.034 A 
ATOM     47  C   UNL A   1      44.921  31.239  30.056  1.00  0.00     0.049 A 
ATOM     48  C   UNL A   1      39.607  32.765  30.801  1.00  0.00     0.074 A 
ATOM     49  C   UNL A   1      45.893  32.163  30.399  1.00  0.00     0.029 A 
ATOM     50  N   UNL A   1      43.697  31.827  30.326  1.00  0.00    -0.354 N 
ATOM     51  N   UNL A   1      40.894  32.584  30.627  1.00  0.00    -0.248 NA
ATOM     52  C   UNL A   1      39.268  34.007  31.511  1.00  0.00     0.031 C 
ATOM     53  C   UNL A   1      45.258  33.293  30.922  1.00  0.00     0.029 A 
ATOM     54  C   UNL A   1      43.889  33.088  30.867  1.00  0.00     0.049 A 
ATOM     55  H   UNL A   1      42.821  31.411  30.159  1.00  0.00     0.167 HD
ATOM     56  C   UNL A   1      41.513  33.697  31.182  1.00  0.00     0.074 A 
ATOM     57  C   UNL A   1      40.460  34.565  31.665  1.00  0.00     0.031 C 
ATOM     58  C   UNL A   1      42.835  33.965  31.303  1.00  0.00     0.034 A 
BRANCH  45  59
ATOM     59  C   UNL A   1      46.513  29.391  29.444  1.00  0.00     0.023 A 
ATOM     60  C   UNL A   1      47.039  28.593  30.478  1.00  0.00     0.012 A 
ATOM     61  C   UNL A   1      47.266  29.590  28.269  1.00  0.00     0.148 A 
ATOM     62  C   UNL A   1      48.299  28.011  30.351  1.00  0.00     0.002 A 
ATOM     63  C   UNL A   1      48.503  28.970  28.132  1.00  0.00     0.091 A 
ATOM     64  F   UNL A   1      46.751  30.366  27.304  1.00  0.00    -0.205 F 
ATOM     65  C   UNL A   1      49.024  28.188  29.174  1.00  0.00     0.022 A 
BRANCH  63  66
ATOM     66  S   UNL A   1      49.477  29.065  26.625  1.00  0.00     0.127 S 
ATOM     67  O   UNL A   1      50.536  28.094  26.899  1.00  0.00    -0.237 OA
ATOM     68  O   UNL A   1      48.512  28.643  25.611  1.00  0.00    -0.237 OA
ATOM     69  O   UNL A   1      49.919  30.447  26.514  1.00  0.00    -0.744 OA
ENDBRANCH  63  66
ENDBRANCH  45  59
BRANCH  46  70
ATOM     70  C   UNL A   1      37.052  32.306  30.637  1.00  0.00     0.023 A 
ATOM     71  C   UNL A   1      36.486  32.029  31.897  1.00  0.00     0.012 A 
ATOM     72  C   UNL A   1      36.269  32.948  29.660  1.00  0.00     0.148 A 
ATOM     73  C   UNL A   1      35.151  32.341  32.160  1.00  0.00     0.002 A 
ATOM     74  C   UNL A   1      34.959  33.313  29.950  1.00  0.00     0.091 A 
ATOM     75  F   UNL A   1      36.818  33.190  28.461  1.00  0.00    -0.205 F 
ATOM     76  C   UNL A   1      34.391  32.990  31.191  1.00  0.00     0.022 A 
BRANCH  74  77
ATOM     77  S   UNL A   1      33.961  34.274  28.809  1.00  0.00     0.127 S 
ATOM     78  O   UNL A   1      34.889  35.330  28.413  1.00  0.00    -0.237 OA
ATOM     79  O   UNL A   1      33.662  33.293  27.765  1.00  0.00    -0.237 OA
ATOM     80  O   UNL A   1      32.797  34.701  29.574  1.00  0.00    -0.744 OA
ENDBRANCH  74  77
ENDBRANCH  46  70
BRANCH  58  81
ATOM     81  C   UNL A   1      43.228  35.260  31.966  1.00  0.00     0.023 A 
ATOM     82  C   UNL A   1      43.333  35.322  33.370  1.00  0.00     0.012 A 
ATOM     83  C   UNL A   1      43.565  36.391  31.197  1.00  0.00     0.148 A 
ATOM     84  C   UNL A   1      43.733  36.499  34.000  1.00  0.00     0.002 A 
ATOM     85  C   UNL A   1      44.014  37.545  31.829  1.00  0.00     0.091 A 
ATOM     86  F   UNL A   1      43.447  36.316  29.864  1.00  0.00    -0.205 F 
ATOM     87  C   UNL A   1      44.085  37.605  33.230  1.00  0.00     0.022 A 
BRANCH  85  88
ATOM     88  S   UNL A   1      44.578  38.989  30.922  1.00  0.00     0.127 S 
ATOM     89  O   UNL A   1      45.669  38.432  30.124  1.00  0.00    -0.237 OA
ATOM     90  O   UNL A   1      43.387  39.357  30.157  1.00  0.00    -0.237 OA
ATOM     91  O   UNL A   1      44.981  39.965  31.926  1.00  0.00    -0.744 OA
ENDBRANCH  85  88
ENDBRANCH  58  81
ENDBRANCH  32  33
ENDBRANCH  24  27
ENDBRANCH  22  23
ENDBRANCH   1  22
TORSDOF 16
ENDMDL
MODEL 2
REMARK VINA RESULT:     -10.8      4.489     10.643
REMARK SMILES C[C@@H](C(=O)NCCCNC(=O)c1ccc(-c2c3nc(c(-c4cccc(S(=O)(=O)[O-])c4F)c4ccc([nH]4)c(-c4cccc(S(=O)(=O)[O-])c4F)c4nc(c(-c5cccc(S(=O)(=O)[O-])c5F)c5ccc2[nH]5)C=C4)C=C3)cc1)c1ccc(OC2CCCC2)cc1F
REMARK SMILES IDX 7 1 6 2 5 3 3 4 4 5 2 7 1 8 75 9 76 10 86 11 77 12 85 13
REMARK SMILES IDX 87 14 78 15 79 16 80 17 81 18 84 19 82 20 83 21 8 22 9 23
REMARK SMILES IDX 10 24 11 26 12 27 13 28 74 29 14 30 73 31 15 32 16 33 17 34
REMARK SMILES IDX 67 35 18 36 72 37 66 38 68 39 19 40 71 41 65 42 64 43 20 45
REMARK SMILES IDX 52 46 32 47 51 48 33 49 36 50 50 51 69 52 34 53 35 54 49 56
REMARK SMILES IDX 70 57 37 58 21 59 22 60 30 61 23 62 25 63 31 64 24 65 26 66
REMARK SMILES IDX 27 67 28 68 29 69 53 70 54 71 62 72 55 73 57 74 63 75 56 76
REMARK SMILES IDX 58 77 59 78 60 79 61 80 38 81 39 82 47 83 40 84 42 85 48 86
REMARK SMILES IDX 41 87 43 88 44 89 45 90 46 91
REMARK H PARENT 5 6 9 25 68 44 36 55
REMARK Flexibility Score: inf
ROOT
ATOM      1  C   UNL A   1      35.750  20.721  25.398  1.00  0.00     0.042 C 
ENDROOT
BRANCH   1   2
ATOM      2  C   UNL A   1      34.622  21.052  24.419  1.00  0.00     0.117 C 
BRANCH   2   3
ATOM      3  N   UNL A   1      33.530  21.754  25.073  1.00  0.00    -0.356 N 
ATOM      4  C   UNL A   1      33.300  23.093  25.228  1.00  0.00     0.227 C 
ATOM      5  O   UNL A   1      32.324  23.404  25.914  1.00  0.00    -0.274 OA
ATOM      6  H   UNL A   1      32.843  21.170  25.468  1.00  0.00     0.163 HD
BRANCH   4   7
ATOM      7  C   UNL A   1      34.197  24.125  24.512  1.00  0.00     0.108 C 
ATOM      8  C   UNL A   1      35.386  24.490  25.410  1.00  0.00     0.023 C 
BRANCH   7   9
ATOM      9  C   UNL A   1      33.420  25.345  24.000  1.00  0.00     0.000 A 
ATOM     10  C   UNL A   1      33.175  26.445  24.843  1.00  0.00     0.011 A 
ATOM     11  C   UNL A   1      32.891  25.422  22.708  1.00  0.00     0.130 A 
ATOM     12  C   UNL A   1      32.486  27.578  24.377  1.00  0.00     0.047 A 
ATOM     13  C   UNL A   1      32.184  26.529  22.257  1.00  0.00     0.086 A 
ATOM     14  F   UNL A   1      33.035  24.430  21.821  1.00  0.00    -0.207 F 
ATOM     15  C   UNL A   1      32.001  27.635  23.070  1.00  0.00     0.122 A 
BRANCH  15  16
ATOM     16  O   UNL A   1      31.386  28.799  22.712  1.00  0.00    -0.490 OA
BRANCH  16  17
ATOM     17  C   UNL A   1      30.014  28.822  22.313  1.00  0.00     0.173 C 
ATOM     18  C   UNL A   1      28.994  28.293  23.322  1.00  0.00     0.045 C 
ATOM     19  C   UNL A   1      29.504  30.175  21.815  1.00  0.00     0.045 C 
ATOM     20  C   UNL A   1      27.679  28.928  22.902  1.00  0.00     0.004 C 
ATOM     21  C   UNL A   1      28.028  30.237  22.199  1.00  0.00     0.004 C 
ENDBRANCH  16  17
ENDBRANCH  15  16
ENDBRANCH   7   9
ENDBRANCH   4   7
ENDBRANCH   2   3
ENDBRANCH   1   2
BRANCH   1  22
ATOM     22  C   UNL A   1      37.144  21.077  24.893  1.00  0.00     0.118 C 
BRANCH  22  23
ATOM     23  N   UNL A   1      38.129  20.054  25.214  1.00  0.00    -0.352 N 
ATOM     24  C   UNL A   1      39.381  20.180  25.758  1.00  0.00     0.251 C 
ATOM     25  H   UNL A   1      37.853  19.132  25.009  1.00  0.00     0.163 HD
ATOM     26  O   UNL A   1      40.141  19.211  25.751  1.00  0.00    -0.269 OA
BRANCH  24  27
ATOM     27  C   UNL A   1      39.833  21.468  26.328  1.00  0.00     0.039 A 
ATOM     28  C   UNL A   1      40.901  21.468  27.229  1.00  0.00     0.014 A 
ATOM     29  C   UNL A   1      39.207  22.671  25.989  1.00  0.00     0.014 A 
ATOM     30  C   UNL A   1      41.395  22.678  27.722  1.00  0.00     0.010 A 
ATOM     31  C   UNL A   1      39.745  23.881  26.425  1.00  0.00     0.010 A 
ATOM     32  C   UNL A   1      40.854  23.898  27.284  1.00  0.00    -0.014 A 
BRANCH  32  33
ATOM     33  C   UNL A   1      41.485  25.194  27.650  1.00  0.00     0.031 A 
ATOM     34  C   UNL A   1      40.705  26.260  28.369  1.00  0.00     0.074 A 
ATOM     35  C   UNL A   1      42.744  25.446  27.234  1.00  0.00     0.049 A 
ATOM     36  N   UNL A   1      41.078  27.469  28.699  1.00  0.00    -0.248 NA
ATOM     37  C   UNL A   1      39.320  25.936  28.754  1.00  0.00     0.031 C 
ATOM     38  C   UNL A   1      43.578  24.523  26.460  1.00  0.00     0.029 A 
ATOM     39  N   UNL A   1      43.531  26.565  27.369  1.00  0.00    -0.354 N 
ATOM     40  C   UNL A   1      39.972  28.064  29.292  1.00  0.00     0.074 A 
ATOM     41  C   UNL A   1      38.905  27.086  29.271  1.00  0.00     0.031 C 
ATOM     42  C   UNL A   1      44.751  25.114  26.181  1.00  0.00     0.029 A 
ATOM     43  C   UNL A   1      44.739  26.471  26.716  1.00  0.00     0.049 A 
ATOM     44  H   UNL A   1      43.255  27.358  27.883  1.00  0.00     0.167 HD
ATOM     45  C   UNL A   1      39.861  29.306  29.820  1.00  0.00     0.034 A 
ATOM     46  C   UNL A   1      45.717  27.381  26.541  1.00  0.00     0.034 A 
ATOM     47  C   UNL A   1      40.936  30.261  29.875  1.00  0.00     0.049 A 
ATOM     48  C   UNL A   1      45.563  28.748  27.153  1.00  0.00     0.074 A 
ATOM     49  C   UNL A   1      40.949  31.499  30.495  1.00  0.00     0.029 A 
ATOM     50  N   UNL A   1      42.171  30.105  29.269  1.00  0.00    -0.354 N 
ATOM     51  N   UNL A   1      44.582  29.219  27.883  1.00  0.00    -0.248 NA
ATOM     52  C   UNL A   1      46.664  29.700  26.941  1.00  0.00     0.031 C 
ATOM     53  C   UNL A   1      42.177  32.111  30.225  1.00  0.00     0.029 A 
ATOM     54  C   UNL A   1      42.941  31.238  29.469  1.00  0.00     0.049 A 
ATOM     55  H   UNL A   1      42.458  29.307  28.770  1.00  0.00     0.167 HD
ATOM     56  C   UNL A   1      44.958  30.509  28.236  1.00  0.00     0.074 A 
ATOM     57  C   UNL A   1      46.272  30.733  27.672  1.00  0.00     0.031 C 
ATOM     58  C   UNL A   1      44.266  31.435  28.944  1.00  0.00     0.034 A 
BRANCH  45  59
ATOM     59  C   UNL A   1      38.544  29.714  30.424  1.00  0.00     0.023 A 
ATOM     60  C   UNL A   1      38.262  29.395  31.766  1.00  0.00     0.012 A 
ATOM     61  C   UNL A   1      37.646  30.524  29.701  1.00  0.00     0.148 A 
ATOM     62  C   UNL A   1      37.100  29.865  32.377  1.00  0.00     0.002 A 
ATOM     63  C   UNL A   1      36.512  31.025  30.329  1.00  0.00     0.091 A 
ATOM     64  F   UNL A   1      37.928  30.803  28.419  1.00  0.00    -0.205 F 
ATOM     65  C   UNL A   1      36.234  30.690  31.664  1.00  0.00     0.022 A 
BRANCH  63  66
ATOM     66  S   UNL A   1      35.378  32.164  29.527  1.00  0.00     0.127 S 
ATOM     67  O   UNL A   1      34.427  32.439  30.604  1.00  0.00    -0.237 OA
ATOM     68  O   UNL A   1      36.256  33.283  29.190  1.00  0.00    -0.237 OA
ATOM     69  O   UNL A   1      34.827  31.450  28.383  1.00  0.00    -0.744 OA
ENDBRANCH  63  66
ENDBRANCH  45  59
BRANCH  46  70
ATOM     70  C   UNL A   1      46.939  27.037  25.757  1.00  0.00     0.023 A 
ATOM     71  C   UNL A   1      47.958  26.271  26.356  1.00  0.00     0.012 A 
ATOM     72  C   UNL A   1      47.103  27.477  24.430  1.00  0.00     0.148 A 
ATOM     73  C   UNL A   1      49.137  25.993  25.665  1.00  0.00     0.002 A 
ATOM     74  C   UNL A   1      48.254  27.142  23.726  1.00  0.00     0.091 A 
ATOM     75  F   UNL A   1      46.130  28.219  23.880  1.00  0.00    -0.205 F 
ATOM     76  C   UNL A   1      49.282  26.420  24.348  1.00  0.00     0.022 A 
BRANCH  74  77
ATOM     77  S   UNL A   1      48.456  27.535  21.985  1.00  0.00     0.127 S 
ATOM     78  O   UNL A   1      48.657  26.211  21.401  1.00  0.00    -0.237 OA
ATOM     79  O   UNL A   1      47.173  28.162  21.664  1.00  0.00    -0.237 OA
ATOM     80  O   UNL A   1      49.594  28.441  21.920  1.00  0.00    -0.744 OA
ENDBRANCH  74  77
ENDBRANCH  46  70
BRANCH  58  81
ATOM     81  C   UNL A   1      44.920  32.774  29.170  1.00  0.00     0.023 A 
ATOM     82  C   UNL A   1      45.779  32.955  30.272  1.00  0.00     0.012 A 
ATOM     83  C   UNL A   1      44.741  33.828  28.252  1.00  0.00     0.148 A 
ATOM     84  C   UNL A   1      46.423  34.174  30.476  1.00  0.00     0.002 A 
ATOM     85  C   UNL A   1      45.428  35.022  28.433  1.00  0.00     0.091 A 
ATOM     86  F   UNL A   1      43.909  33.640  27.217  1.00  0.00    -0.205 F 
ATOM     87  C   UNL A   1      46.258  35.202  29.551  1.00  0.00     0.022 A 
BRANCH  85  88
ATOM     88  S   UNL A   1      45.353  36.371  27.249  1.00  0.00     0.127 S 
ATOM     89  O   UNL A   1      46.234  37.361  27.868  1.00  0.00    -0.237 OA
ATOM     90  O   UNL A   1      45.889  35.749  26.039  1.00  0.00    -0.237 OA
ATOM     91  O   UNL A   1      43.951  36.757  27.164  1.00  0.00    -0.744 OA
ENDBRANCH  85  88
ENDBRANCH  58  81
ENDBRANCH  32  33
ENDBRANCH  24  27
ENDBRANCH  22  23
ENDBRANCH   1  22
TORSDOF 16
ENDMDL
MODEL 3
REMARK VINA RESULT:     -10.8      1.688      2.662
REMARK SMILES C[C@@H](C(=O)NCCCNC(=O)c1ccc(-c2c3nc(c(-c4cccc(S(=O)(=O)[O-])c4F)c4ccc([nH]4)c(-c4cccc(S(=O)(=O)[O-])c4F)c4nc(c(-c5cccc(S(=O)(=O)[O-])c5F)c5ccc2[nH]5)C=C4)C=C3)cc1)c1ccc(OC2CCCC2)cc1F
REMARK SMILES IDX 7 1 6 2 5 3 3 4 4 5 2 7 1 8 75 9 76 10 86 11 77 12 85 13
REMARK SMILES IDX 87 14 78 15 79 16 80 17 81 18 84 19 82 20 83 21 8 22 9 23
REMARK SMILES IDX 10 24 11 26 12 27 13 28 74 29 14 30 73 31 15 32 16 33 17 34
REMARK SMILES IDX 67 35 18 36 72 37 66 38 68 39 19 40 71 41 65 42 64 43 20 45
REMARK SMILES IDX 52 46 32 47 51 48 33 49 36 50 50 51 69 52 34 53 35 54 49 56
REMARK SMILES IDX 70 57 37 58 21 59 22 60 30 61 23 62 25 63 31 64 24 65 26 66
REMARK SMILES IDX 27 67 28 68 29 69 53 70 54 71 62 72 55 73 57 74 63 75 56 76
REMARK SMILES IDX 58 77 59 78 60 79 61 80 38 81 39 82 47 83 40 84 42 85 48 86
REMARK SMILES IDX 41 87 43 88 44 89 45 90 46 91
REMARK H PARENT 5 6 9 25 68 44 36 55
REMARK Flexibility Score: inf
ROOT
ATOM      1  C   UNL A   1      41.093  20.691  25.961  1.00  0.00     0.042 C 
ENDROOT
BRANCH   1   2
ATOM      2  C   UNL A   1      42.568  20.716  26.366  1.00  0.00     0.117 C 
BRANCH   2   3
ATOM      3  N   UNL A   1      43.412  21.218  25.296  1.00  0.00    -0.356 N 
ATOM      4  C   UNL A   1      43.654  22.498  24.880  1.00  0.00     0.227 C 
ATOM      5  O   UNL A   1      44.356  22.623  23.875  1.00  0.00    -0.274 OA
ATOM      6  H   UNL A   1      43.890  20.523  24.787  1.00  0.00     0.163 HD
BRANCH   4   7
ATOM      7  C   UNL A   1      43.115  23.695  25.693  1.00  0.00     0.108 C 
ATOM      8  C   UNL A   1      43.530  25.008  25.018  1.00  0.00     0.023 C 
BRANCH   7   9
ATOM      9  C   UNL A   1      43.485  23.628  27.180  1.00  0.00     0.000 A 
ATOM     10  C   UNL A   1      42.487  23.657  28.171  1.00  0.00     0.011 A 
ATOM     11  C   UNL A   1      44.808  23.573  27.633  1.00  0.00     0.130 A 
ATOM     12  C   UNL A   1      42.813  23.572  29.535  1.00  0.00     0.047 A 
ATOM     13  C   UNL A   1      45.132  23.519  28.982  1.00  0.00     0.086 A 
ATOM     14  F   UNL A   1      45.847  23.566  26.789  1.00  0.00    -0.207 F 
ATOM     15  C   UNL A   1      44.143  23.482  29.950  1.00  0.00     0.122 A 
BRANCH  15  16
ATOM     16  O   UNL A   1      44.342  23.361  31.294  1.00  0.00    -0.490 OA
BRANCH  16  17
ATOM     17  C   UNL A   1      44.719  24.484  32.094  1.00  0.00     0.173 C 
ATOM     18  C   UNL A   1      44.507  25.869  31.481  1.00  0.00     0.045 C 
ATOM     19  C   UNL A   1      44.122  24.510  33.501  1.00  0.00     0.045 C 
ATOM     20  C   UNL A   1      44.450  26.808  32.675  1.00  0.00     0.004 C 
ATOM     21  C   UNL A   1      43.947  25.984  33.858  1.00  0.00     0.004 C 
ENDBRANCH  16  17
ENDBRANCH  15  16
ENDBRANCH   7   9
ENDBRANCH   4   7
ENDBRANCH   2   3
ENDBRANCH   1   2
BRANCH   1  22
ATOM     22  C   UNL A   1      40.171  21.457  26.904  1.00  0.00     0.118 C 
BRANCH  22  23
ATOM     23  N   UNL A   1      38.960  21.919  26.242  1.00  0.00    -0.352 N 
ATOM     24  C   UNL A   1      38.362  23.153  26.263  1.00  0.00     0.251 C 
ATOM     25  H   UNL A   1      38.500  21.242  25.695  1.00  0.00     0.163 HD
ATOM     26  O   UNL A   1      37.224  23.280  25.809  1.00  0.00    -0.269 OA
BRANCH  24  27
ATOM     27  C   UNL A   1      39.058  24.321  26.846  1.00  0.00     0.039 A 
ATOM     28  C   UNL A   1      39.810  25.145  26.005  1.00  0.00     0.014 A 
ATOM     29  C   UNL A   1      38.983  24.604  28.213  1.00  0.00     0.014 A 
ATOM     30  C   UNL A   1      40.414  26.296  26.517  1.00  0.00     0.010 A 
ATOM     31  C   UNL A   1      39.525  25.788  28.709  1.00  0.00     0.010 A 
ATOM     32  C   UNL A   1      40.234  26.655  27.863  1.00  0.00    -0.014 A 
BRANCH  32  33
ATOM     33  C   UNL A   1      40.708  27.966  28.378  1.00  0.00     0.031 A 
ATOM     34  C   UNL A   1      42.175  28.236  28.574  1.00  0.00     0.074 A 
ATOM     35  C   UNL A   1      39.797  28.881  28.770  1.00  0.00     0.049 A 
ATOM     36  N   UNL A   1      42.754  29.295  29.079  1.00  0.00    -0.248 NA
ATOM     37  C   UNL A   1      43.115  27.177  28.168  1.00  0.00     0.031 C 
ATOM     38  C   UNL A   1      38.343  28.706  28.705  1.00  0.00     0.029 A 
ATOM     39  N   UNL A   1      39.953  30.123  29.337  1.00  0.00    -0.354 N 
ATOM     40  C   UNL A   1      44.116  29.019  29.089  1.00  0.00     0.074 A 
ATOM     41  C   UNL A   1      44.280  27.687  28.547  1.00  0.00     0.031 C 
ATOM     42  C   UNL A   1      37.744  29.793  29.218  1.00  0.00     0.029 A 
ATOM     43  C   UNL A   1      38.764  30.722  29.689  1.00  0.00     0.049 A 
ATOM     44  H   UNL A   1      40.832  30.544  29.478  1.00  0.00     0.167 HD
ATOM     45  C   UNL A   1      45.136  29.810  29.498  1.00  0.00     0.034 A 
ATOM     46  C   UNL A   1      38.520  31.875  30.343  1.00  0.00     0.034 A 
ATOM     47  C   UNL A   1      44.972  31.148  29.999  1.00  0.00     0.049 A 
ATOM     48  C   UNL A   1      39.680  32.733  30.771  1.00  0.00     0.074 A 
ATOM     49  C   UNL A   1      45.956  32.066  30.327  1.00  0.00     0.029 A 
ATOM     50  N   UNL A   1      43.756  31.751  30.273  1.00  0.00    -0.354 N 
ATOM     51  N   UNL A   1      40.963  32.538  30.588  1.00  0.00    -0.248 NA
ATOM     52  C   UNL A   1      39.358  33.986  31.471  1.00  0.00     0.031 C 
ATOM     53  C   UNL A   1      45.336  33.208  30.843  1.00  0.00     0.029 A 
ATOM     54  C   UNL A   1      43.965  33.015  30.801  1.00  0.00     0.049 A 
ATOM     55  H   UNL A   1      42.875  31.343  30.117  1.00  0.00     0.167 HD
ATOM     56  C   UNL A   1      41.597  33.650  31.128  1.00  0.00     0.074 A 
ATOM     57  C   UNL A   1      40.557  34.533  31.610  1.00  0.00     0.031 C 
ATOM     58  C   UNL A   1      42.923  33.907  31.236  1.00  0.00     0.034 A 
BRANCH  45  59
ATOM     59  C   UNL A   1      46.541  29.280  29.393  1.00  0.00     0.023 A 
ATOM     60  C   UNL A   1      47.070  28.492  30.434  1.00  0.00     0.012 A 
ATOM     61  C   UNL A   1      47.285  29.453  28.209  1.00  0.00     0.148 A 
ATOM     62  C   UNL A   1      48.324  27.896  30.304  1.00  0.00     0.002 A 
ATOM     63  C   UNL A   1      48.514  28.820  28.068  1.00  0.00     0.091 A 
ATOM     64  F   UNL A   1      46.767  30.219  27.236  1.00  0.00    -0.205 F 
ATOM     65  C   UNL A   1      49.038  28.048  29.117  1.00  0.00     0.022 A 
BRANCH  63  66
ATOM     66  S   UNL A   1      49.474  28.882  26.551  1.00  0.00     0.127 S 
ATOM     67  O   UNL A   1      49.757  30.313  26.441  1.00  0.00    -0.237 OA
ATOM     68  O   UNL A   1      50.632  28.057  26.889  1.00  0.00    -0.237 OA
ATOM     69  O   UNL A   1      48.617  28.339  25.507  1.00  0.00    -0.744 OA
ENDBRANCH  63  66
ENDBRANCH  45  59
BRANCH  46  70
ATOM     70  C   UNL A   1      37.119  32.298  30.632  1.00  0.00     0.023 A 
ATOM     71  C   UNL A   1      36.575  32.081  31.913  1.00  0.00     0.012 A 
ATOM     72  C   UNL A   1      36.320  32.898  29.640  1.00  0.00     0.148 A 
ATOM     73  C   UNL A   1      35.246  32.407  32.185  1.00  0.00     0.002 A 
ATOM     74  C   UNL A   1      35.016  33.280  29.938  1.00  0.00     0.091 A 
ATOM     75  F   UNL A   1      36.847  33.084  28.422  1.00  0.00    -0.205 F 
ATOM     76  C   UNL A   1      34.470  33.014  31.202  1.00  0.00     0.022 A 
BRANCH  74  77
ATOM     77  S   UNL A   1      33.998  34.191  28.773  1.00  0.00     0.127 S 
ATOM     78  O   UNL A   1      33.685  33.165  27.782  1.00  0.00    -0.237 OA
ATOM     79  O   UNL A   1      32.872  34.603  29.610  1.00  0.00    -0.237 OA
ATOM     80  O   UNL A   1      34.830  35.294  28.309  1.00  0.00    -0.744 OA
ENDBRANCH  74  77
ENDBRANCH  46  70
BRANCH  58  81
ATOM     81  C   UNL A   1      43.334  35.204  31.884  1.00  0.00     0.023 A 
ATOM     82  C   UNL A   1      43.522  35.259  33.279  1.00  0.00     0.012 A 
ATOM     83  C   UNL A   1      43.605  36.346  31.104  1.00  0.00     0.148 A 
ATOM     84  C   UNL A   1      43.939  36.439  33.892  1.00  0.00     0.002 A 
ATOM     85  C   UNL A   1      44.073  37.503  31.716  1.00  0.00     0.091 A 
ATOM     86  F   UNL A   1      43.409  36.276  29.779  1.00  0.00    -0.205 F 
ATOM     87  C   UNL A   1      44.227  37.556  33.111  1.00  0.00     0.022 A 
BRANCH  85  88
ATOM     88  S   UNL A   1      44.558  38.961  30.786  1.00  0.00     0.127 S 
ATOM     89  O   UNL A   1      44.959  39.875  31.855  1.00  0.00    -0.237 OA
ATOM     90  O   UNL A   1      45.660  38.454  29.970  1.00  0.00    -0.237 OA
ATOM     91  O   UNL A   1      43.380  39.370  30.032  1.00  0.00    -0.744 OA
ENDBRANCH  85  88
ENDBRANCH  58  81
ENDBRANCH  32  33
ENDBRANCH  24  27
ENDBRANCH  22  23
ENDBRANCH   1  22
TORSDOF 16
ENDMDL
