MODEL 1
REMARK VINA RESULT:     -12.6      0.000      0.000
REMARK SMILES Cc1cc(C)c2c(C(=O)NCCCNC(=O)c3ccc(-c4c5nc(c(-c6cccc(S(=O)(=O)[O-])c6F)c6ccc([nH]6)c(-c6cccc(S(=O)(=O)[O-])c6F)c6nc(c(-c7cccc(S(=O)(=O)[O-])c7F)c7ccc4[nH]7)C=C6)C=C5)cc3)cc(-c3ccco3)nc2c1
REMARK SMILES IDX 13 1 12 2 11 3 10 4 8 5 9 6 7 8 1 9 2 10 3 11 89 12 4 13
REMARK SMILES IDX 88 14 5 15 6 16 87 17 81 18 80 19 82 20 83 21 86 22 84 23
REMARK SMILES IDX 85 24 14 25 15 26 16 28 17 29 18 30 79 31 19 32 78 33 20 34
REMARK SMILES IDX 21 35 22 36 72 37 23 38 77 39 71 40 73 41 24 42 76 43 70 44
REMARK SMILES IDX 69 45 25 47 57 48 37 49 56 50 38 51 41 52 55 53 74 54 39 55
REMARK SMILES IDX 40 56 54 58 75 59 42 60 26 61 27 62 35 63 28 64 30 65 36 66
REMARK SMILES IDX 29 67 31 68 32 69 33 70 34 71 58 72 59 73 67 74 60 75 62 76
REMARK SMILES IDX 68 77 61 78 63 79 64 80 65 81 66 82 43 83 44 84 52 85 45 86
REMARK SMILES IDX 47 87 53 88 46 89 48 90 49 91 50 92 51 93
REMARK H PARENT 10 7 14 27 73 46 41 57
REMARK Flexibility Score: inf
ROOT
ATOM      1  C   UNL A   1      32.828  31.921  27.134  1.00  0.00     0.118 C 
ENDROOT
BRANCH   1   2
ATOM      2  C   UNL A   1      31.668  31.158  26.498  1.00  0.00     0.042 C 
BRANCH   2   3
ATOM      3  C   UNL A   1      32.029  29.765  25.998  1.00  0.00     0.118 C 
BRANCH   3   4
ATOM      4  N   UNL A   1      32.899  29.749  24.826  1.00  0.00    -0.352 N 
ATOM      5  C   UNL A   1      32.891  28.950  23.707  1.00  0.00     0.252 C 
ATOM      6  O   UNL A   1      33.696  29.191  22.807  1.00  0.00    -0.269 OA
ATOM      7  H   UNL A   1      33.613  30.426  24.839  1.00  0.00     0.163 HD
BRANCH   5   8
ATOM      8  C   UNL A   1      32.028  27.749  23.595  1.00  0.00     0.051 A 
ATOM      9  C   UNL A   1      26.366  27.822  23.876  1.00  0.00     0.044 C 
ATOM     10  C   UNL A   1      27.825  27.760  23.541  1.00  0.00    -0.049 A 
ATOM     11  C   UNL A   1      28.464  28.814  22.897  1.00  0.00     0.007 A 
ATOM     12  C   UNL A   1      28.579  26.633  23.880  1.00  0.00     0.032 A 
ATOM     13  C   UNL A   1      29.858  28.806  22.736  1.00  0.00    -0.041 A 
ATOM     14  C   UNL A   1      29.959  26.595  23.737  1.00  0.00     0.072 A 
ATOM     15  C   UNL A   1      30.444  29.833  21.797  1.00  0.00     0.045 C 
ATOM     16  C   UNL A   1      30.633  27.763  23.335  1.00  0.00     0.016 A 
ATOM     17  N   UNL A   1      30.584  25.438  24.009  1.00  0.00    -0.244 NA
ATOM     18  C   UNL A   1      31.930  25.408  23.986  1.00  0.00     0.107 A 
ATOM     19  C   UNL A   1      32.689  26.549  23.877  1.00  0.00     0.046 A 
BRANCH  18  20
ATOM     20  C   UNL A   1      32.544  24.094  24.050  1.00  0.00     0.152 A 
ATOM     21  C   UNL A   1      33.698  23.531  23.543  1.00  0.00     0.052 A 
ATOM     22  O   UNL A   1      31.797  23.127  24.668  1.00  0.00    -0.463 OA
ATOM     23  C   UNL A   1      33.656  22.153  23.874  1.00  0.00     0.043 A 
ATOM     24  C   UNL A   1      32.476  21.958  24.552  1.00  0.00     0.196 A 
ENDBRANCH  18  20
ENDBRANCH   5   8
ENDBRANCH   3   4
ENDBRANCH   2   3
ENDBRANCH   1   2
BRANCH   1  25
ATOM     25  N   UNL A   1      32.545  33.325  27.411  1.00  0.00    -0.352 N 
ATOM     26  C   UNL A   1      33.113  34.211  28.302  1.00  0.00     0.251 C 
ATOM     27  H   UNL A   1      31.821  33.708  26.865  1.00  0.00     0.163 HD
ATOM     28  O   UNL A   1      32.630  35.329  28.433  1.00  0.00    -0.269 OA
BRANCH  26  29
ATOM     29  C   UNL A   1      34.268  33.804  29.133  1.00  0.00     0.039 A 
ATOM     30  C   UNL A   1      34.054  32.947  30.216  1.00  0.00     0.014 A 
ATOM     31  C   UNL A   1      35.555  34.259  28.851  1.00  0.00     0.014 A 
ATOM     32  C   UNL A   1      35.144  32.464  30.947  1.00  0.00     0.010 A 
ATOM     33  C   UNL A   1      36.644  33.697  29.507  1.00  0.00     0.010 A 
ATOM     34  C   UNL A   1      36.453  32.795  30.563  1.00  0.00    -0.014 A 
BRANCH  34  35
ATOM     35  C   UNL A   1      37.644  32.232  31.246  1.00  0.00     0.031 A 
ATOM     36  C   UNL A   1      38.398  31.093  30.614  1.00  0.00     0.074 A 
ATOM     37  C   UNL A   1      37.981  32.665  32.478  1.00  0.00     0.049 A 
ATOM     38  N   UNL A   1      39.366  30.370  31.111  1.00  0.00    -0.248 NA
ATOM     39  C   UNL A   1      37.985  30.689  29.258  1.00  0.00     0.031 C 
ATOM     40  C   UNL A   1      37.287  33.713  33.230  1.00  0.00     0.029 A 
ATOM     41  N   UNL A   1      38.979  32.257  33.328  1.00  0.00    -0.354 N 
ATOM     42  C   UNL A   1      39.641  29.398  30.157  1.00  0.00     0.074 A 
ATOM     43  C   UNL A   1      38.720  29.603  29.062  1.00  0.00     0.031 C 
ATOM     44  C   UNL A   1      37.889  33.877  34.419  1.00  0.00     0.029 A 
ATOM     45  C   UNL A   1      38.992  32.926  34.529  1.00  0.00     0.049 A 
ATOM     46  H   UNL A   1      39.626  31.551  33.098  1.00  0.00     0.167 HD
ATOM     47  C   UNL A   1      40.600  28.445  30.171  1.00  0.00     0.034 A 
ATOM     48  C   UNL A   1      39.800  32.790  35.599  1.00  0.00     0.034 A 
ATOM     49  C   UNL A   1      41.573  28.299  31.216  1.00  0.00     0.049 A 
ATOM     50  C   UNL A   1      40.903  31.770  35.561  1.00  0.00     0.074 A 
ATOM     51  C   UNL A   1      42.642  27.424  31.276  1.00  0.00     0.029 A 
ATOM     52  N   UNL A   1      41.606  29.059  32.374  1.00  0.00    -0.354 N 
ATOM     53  N   UNL A   1      41.213  30.932  34.602  1.00  0.00    -0.248 NA
ATOM     54  C   UNL A   1      41.783  31.690  36.737  1.00  0.00     0.031 C 
ATOM     55  C   UNL A   1      43.328  27.660  32.469  1.00  0.00     0.029 A 
ATOM     56  C   UNL A   1      42.684  28.682  33.150  1.00  0.00     0.049 A 
ATOM     57  H   UNL A   1      40.958  29.762  32.608  1.00  0.00     0.167 HD
ATOM     58  C   UNL A   1      42.336  30.244  35.045  1.00  0.00     0.074 A 
ATOM     59  C   UNL A   1      42.660  30.769  36.355  1.00  0.00     0.031 C 
ATOM     60  C   UNL A   1      43.025  29.256  34.426  1.00  0.00     0.034 A 
BRANCH  47  61
ATOM     61  C   UNL A   1      40.705  27.542  28.974  1.00  0.00     0.023 A 
ATOM     62  C   UNL A   1      39.804  26.466  28.850  1.00  0.00     0.012 A 
ATOM     63  C   UNL A   1      41.638  27.792  27.951  1.00  0.00     0.148 A 
ATOM     64  C   UNL A   1      39.843  25.635  27.732  1.00  0.00     0.002 A 
ATOM     65  C   UNL A   1      41.649  26.978  26.823  1.00  0.00     0.091 A 
ATOM     66  F   UNL A   1      42.493  28.814  28.100  1.00  0.00    -0.205 F 
ATOM     67  C   UNL A   1      40.758  25.896  26.716  1.00  0.00     0.022 A 
BRANCH  65  68
ATOM     68  S   UNL A   1      42.752  27.254  25.432  1.00  0.00     0.127 S 
ATOM     69  O   UNL A   1      44.036  27.442  26.108  1.00  0.00    -0.237 OA
ATOM     70  O   UNL A   1      42.630  25.999  24.693  1.00  0.00    -0.237 OA
ATOM     71  O   UNL A   1      42.243  28.428  24.738  1.00  0.00    -0.744 OA
ENDBRANCH  65  68
ENDBRANCH  47  61
BRANCH  48  72
ATOM     72  C   UNL A   1      39.651  33.718  36.753  1.00  0.00     0.023 A 
ATOM     73  C   UNL A   1      40.058  35.058  36.604  1.00  0.00     0.012 A 
ATOM     74  C   UNL A   1      39.056  33.308  37.962  1.00  0.00     0.148 A 
ATOM     75  C   UNL A   1      39.888  35.972  37.642  1.00  0.00     0.002 A 
ATOM     76  C   UNL A   1      38.857  34.233  38.981  1.00  0.00     0.091 A 
ATOM     77  F   UNL A   1      38.674  32.028  38.077  1.00  0.00    -0.205 F 
ATOM     78  C   UNL A   1      39.281  35.564  38.826  1.00  0.00     0.022 A 
BRANCH  76  79
ATOM     79  S   UNL A   1      37.998  33.832  40.507  1.00  0.00     0.127 S 
ATOM     80  O   UNL A   1      38.950  32.936  41.159  1.00  0.00    -0.237 OA
ATOM     81  O   UNL A   1      37.867  35.150  41.129  1.00  0.00    -0.237 OA
ATOM     82  O   UNL A   1      36.739  33.222  40.106  1.00  0.00    -0.744 OA
ENDBRANCH  76  79
ENDBRANCH  48  72
BRANCH  60  83
ATOM     83  C   UNL A   1      44.217  28.673  35.131  1.00  0.00     0.023 A 
ATOM     84  C   UNL A   1      45.487  29.240  34.915  1.00  0.00     0.012 A 
ATOM     85  C   UNL A   1      44.053  27.676  36.111  1.00  0.00     0.148 A 
ATOM     86  C   UNL A   1      46.582  28.820  35.667  1.00  0.00     0.002 A 
ATOM     87  C   UNL A   1      45.143  27.286  36.881  1.00  0.00     0.091 A 
ATOM     88  F   UNL A   1      42.833  27.149  36.288  1.00  0.00    -0.205 F 
ATOM     89  C   UNL A   1      46.407  27.855  36.657  1.00  0.00     0.022 A 
BRANCH  87  90
ATOM     90  S   UNL A   1      45.002  26.113  38.233  1.00  0.00     0.127 S 
ATOM     91  O   UNL A   1      46.373  26.078  38.741  1.00  0.00    -0.237 OA
ATOM     92  O   UNL A   1      44.040  26.773  39.116  1.00  0.00    -0.237 OA
ATOM     93  O   UNL A   1      44.529  24.868  37.641  1.00  0.00    -0.744 OA
ENDBRANCH  87  90
ENDBRANCH  60  83
ENDBRANCH  34  35
ENDBRANCH  26  29
ENDBRANCH   1  25
TORSDOF 14
ENDMDL
MODEL 2
REMARK VINA RESULT:     -12.6      1.141      2.831
REMARK SMILES Cc1cc(C)c2c(C(=O)NCCCNC(=O)c3ccc(-c4c5nc(c(-c6cccc(S(=O)(=O)[O-])c6F)c6ccc([nH]6)c(-c6cccc(S(=O)(=O)[O-])c6F)c6nc(c(-c7cccc(S(=O)(=O)[O-])c7F)c7ccc4[nH]7)C=C6)C=C5)cc3)cc(-c3ccco3)nc2c1
REMARK SMILES IDX 13 1 12 2 11 3 10 4 8 5 9 6 7 8 1 9 2 10 3 11 89 12 4 13
REMARK SMILES IDX 88 14 5 15 6 16 87 17 81 18 80 19 82 20 83 21 86 22 84 23
REMARK SMILES IDX 85 24 14 25 15 26 16 28 17 29 18 30 79 31 19 32 78 33 20 34
REMARK SMILES IDX 21 35 22 36 72 37 23 38 77 39 71 40 73 41 24 42 76 43 70 44
REMARK SMILES IDX 69 45 25 47 57 48 37 49 56 50 38 51 41 52 55 53 74 54 39 55
REMARK SMILES IDX 40 56 54 58 75 59 42 60 26 61 27 62 35 63 28 64 30 65 36 66
REMARK SMILES IDX 29 67 31 68 32 69 33 70 34 71 58 72 59 73 67 74 60 75 62 76
REMARK SMILES IDX 68 77 61 78 63 79 64 80 65 81 66 82 43 83 44 84 52 85 45 86
REMARK SMILES IDX 47 87 53 88 46 89 48 90 49 91 50 92 51 93
REMARK H PARENT 10 7 14 27 73 46 41 57
REMARK Flexibility Score: inf
ROOT
ATOM      1  C   UNL A   1      33.010  32.477  27.177  1.00  0.00     0.118 C 
ENDROOT
BRANCH   1   2
ATOM      2  C   UNL A   1      31.830  31.541  26.926  1.00  0.00     0.042 C 
BRANCH   2   3
ATOM      3  C   UNL A   1      32.134  30.067  27.158  1.00  0.00     0.118 C 
BRANCH   3   4
ATOM      4  N   UNL A   1      33.219  29.537  26.339  1.00  0.00    -0.352 N 
ATOM      5  C   UNL A   1      33.198  28.845  25.151  1.00  0.00     0.252 C 
ATOM      6  O   UNL A   1      34.270  28.572  24.611  1.00  0.00    -0.269 OA
ATOM      7  H   UNL A   1      34.120  29.703  26.699  1.00  0.00     0.163 HD
BRANCH   5   8
ATOM      8  C   UNL A   1      31.943  28.322  24.558  1.00  0.00     0.051 A 
ATOM      9  C   UNL A   1      31.042  22.885  23.227  1.00  0.00     0.044 C 
ATOM     10  C   UNL A   1      31.114  24.275  23.782  1.00  0.00    -0.049 A 
ATOM     11  C   UNL A   1      31.843  24.557  24.932  1.00  0.00     0.007 A 
ATOM     12  C   UNL A   1      30.448  25.325  23.143  1.00  0.00     0.032 A 
ATOM     13  C   UNL A   1      32.030  25.885  25.344  1.00  0.00    -0.041 A 
ATOM     14  C   UNL A   1      30.616  26.648  23.523  1.00  0.00     0.072 A 
ATOM     15  C   UNL A   1      32.587  26.099  26.732  1.00  0.00     0.045 C 
ATOM     16  C   UNL A   1      31.564  26.955  24.517  1.00  0.00     0.016 A 
ATOM     17  N   UNL A   1      29.868  27.576  22.904  1.00  0.00    -0.244 NA
ATOM     18  C   UNL A   1      30.093  28.876  23.176  1.00  0.00     0.107 A 
ATOM     19  C   UNL A   1      31.171  29.296  23.918  1.00  0.00     0.046 A 
BRANCH  18  20
ATOM     20  C   UNL A   1      29.109  29.817  22.669  1.00  0.00     0.152 A 
ATOM     21  C   UNL A   1      28.030  30.487  23.213  1.00  0.00     0.052 A 
ATOM     22  O   UNL A   1      29.165  30.056  21.323  1.00  0.00    -0.463 OA
ATOM     23  C   UNL A   1      27.401  31.174  22.144  1.00  0.00     0.043 A 
ATOM     24  C   UNL A   1      28.127  30.873  21.016  1.00  0.00     0.196 A 
ENDBRANCH  18  20
ENDBRANCH   5   8
ENDBRANCH   3   4
ENDBRANCH   2   3
ENDBRANCH   1   2
BRANCH   1  25
ATOM     25  N   UNL A   1      32.633  33.824  27.592  1.00  0.00    -0.352 N 
ATOM     26  C   UNL A   1      33.123  34.641  28.589  1.00  0.00     0.251 C 
ATOM     27  H   UNL A   1      31.900  34.219  27.068  1.00  0.00     0.163 HD
ATOM     28  O   UNL A   1      32.568  35.707  28.824  1.00  0.00    -0.269 OA
BRANCH  26  29
ATOM     29  C   UNL A   1      34.282  34.216  29.406  1.00  0.00     0.039 A 
ATOM     30  C   UNL A   1      34.054  33.482  30.574  1.00  0.00     0.014 A 
ATOM     31  C   UNL A   1      35.585  34.534  29.030  1.00  0.00     0.014 A 
ATOM     32  C   UNL A   1      35.137  32.978  31.301  1.00  0.00     0.010 A 
ATOM     33  C   UNL A   1      36.658  33.946  29.691  1.00  0.00     0.010 A 
ATOM     34  C   UNL A   1      36.447  33.163  30.834  1.00  0.00    -0.014 A 
BRANCH  34  35
ATOM     35  C   UNL A   1      37.622  32.567  31.518  1.00  0.00     0.031 A 
ATOM     36  C   UNL A   1      38.368  31.433  30.868  1.00  0.00     0.074 A 
ATOM     37  C   UNL A   1      37.951  32.966  32.763  1.00  0.00     0.049 A 
ATOM     38  N   UNL A   1      39.320  30.684  31.360  1.00  0.00    -0.248 NA
ATOM     39  C   UNL A   1      37.965  31.066  29.499  1.00  0.00     0.031 C 
ATOM     40  C   UNL A   1      37.261  34.007  33.532  1.00  0.00     0.029 A 
ATOM     41  N   UNL A   1      38.932  32.525  33.615  1.00  0.00    -0.354 N 
ATOM     42  C   UNL A   1      39.592  29.732  30.386  1.00  0.00     0.074 A 
ATOM     43  C   UNL A   1      38.687  29.975  29.286  1.00  0.00     0.031 C 
ATOM     44  C   UNL A   1      37.852  34.133  34.731  1.00  0.00     0.029 A 
ATOM     45  C   UNL A   1      38.940  33.165  34.832  1.00  0.00     0.049 A 
ATOM     46  H   UNL A   1      39.572  31.814  33.377  1.00  0.00     0.167 HD
ATOM     47  C   UNL A   1      40.538  28.765  30.388  1.00  0.00     0.034 A 
ATOM     48  C   UNL A   1      39.733  32.993  35.907  1.00  0.00     0.034 A 
ATOM     49  C   UNL A   1      41.496  28.580  31.441  1.00  0.00     0.049 A 
ATOM     50  C   UNL A   1      40.822  31.958  35.859  1.00  0.00     0.074 A 
ATOM     51  C   UNL A   1      42.552  27.689  31.493  1.00  0.00     0.029 A 
ATOM     52  N   UNL A   1      41.525  29.312  32.617  1.00  0.00    -0.354 N 
ATOM     53  N   UNL A   1      41.132  31.139  34.884  1.00  0.00    -0.248 NA
ATOM     54  C   UNL A   1      41.687  31.838  37.042  1.00  0.00     0.031 C 
ATOM     55  C   UNL A   1      43.227  27.887  32.699  1.00  0.00     0.029 A 
ATOM     56  C   UNL A   1      42.589  28.902  33.397  1.00  0.00     0.049 A 
ATOM     57  H   UNL A   1      40.885  30.019  32.860  1.00  0.00     0.167 HD
ATOM     58  C   UNL A   1      42.240  30.425  35.323  1.00  0.00     0.074 A 
ATOM     59  C   UNL A   1      42.556  30.914  36.649  1.00  0.00     0.031 C 
ATOM     60  C   UNL A   1      42.922  29.441  34.689  1.00  0.00     0.034 A 
BRANCH  47  61
ATOM     61  C   UNL A   1      40.644  27.889  29.172  1.00  0.00     0.023 A 
ATOM     62  C   UNL A   1      39.787  26.777  29.054  1.00  0.00     0.012 A 
ATOM     63  C   UNL A   1      41.534  28.197  28.126  1.00  0.00     0.148 A 
ATOM     64  C   UNL A   1      39.827  25.968  27.920  1.00  0.00     0.002 A 
ATOM     65  C   UNL A   1      41.546  27.405  26.983  1.00  0.00     0.091 A 
ATOM     66  F   UNL A   1      42.348  29.252  28.269  1.00  0.00    -0.205 F 
ATOM     67  C   UNL A   1      40.699  26.287  26.883  1.00  0.00     0.022 A 
BRANCH  65  68
ATOM     68  S   UNL A   1      42.592  27.753  25.565  1.00  0.00     0.127 S 
ATOM     69  O   UNL A   1      42.377  26.562  24.743  1.00  0.00    -0.237 OA
ATOM     70  O   UNL A   1      41.992  28.976  25.036  1.00  0.00    -0.237 OA
ATOM     71  O   UNL A   1      43.942  27.907  26.087  1.00  0.00    -0.744 OA
ENDBRANCH  65  68
ENDBRANCH  47  61
BRANCH  48  72
ATOM     72  C   UNL A   1      39.583  33.895  37.082  1.00  0.00     0.023 A 
ATOM     73  C   UNL A   1      40.004  35.234  36.967  1.00  0.00     0.012 A 
ATOM     74  C   UNL A   1      38.974  33.463  38.276  1.00  0.00     0.148 A 
ATOM     75  C   UNL A   1      39.835  36.126  38.024  1.00  0.00     0.002 A 
ATOM     76  C   UNL A   1      38.775  34.367  39.314  1.00  0.00     0.091 A 
ATOM     77  F   UNL A   1      38.579  32.185  38.358  1.00  0.00    -0.205 F 
ATOM     78  C   UNL A   1      39.213  35.697  39.194  1.00  0.00     0.022 A 
BRANCH  76  79
ATOM     79  S   UNL A   1      37.899  33.940  40.823  1.00  0.00     0.127 S 
ATOM     80  O   UNL A   1      37.714  35.251  41.442  1.00  0.00    -0.237 OA
ATOM     81  O   UNL A   1      36.678  33.330  40.296  1.00  0.00    -0.237 OA
ATOM     82  O   UNL A   1      38.772  33.025  41.544  1.00  0.00    -0.744 OA
ENDBRANCH  76  79
ENDBRANCH  48  72
BRANCH  60  83
ATOM     83  C   UNL A   1      44.097  28.825  35.394  1.00  0.00     0.023 A 
ATOM     84  C   UNL A   1      45.374  29.395  35.228  1.00  0.00     0.012 A 
ATOM     85  C   UNL A   1      43.910  27.790  36.330  1.00  0.00     0.148 A 
ATOM     86  C   UNL A   1      46.451  28.940  35.985  1.00  0.00     0.002 A 
ATOM     87  C   UNL A   1      44.982  27.365  37.105  1.00  0.00     0.091 A 
ATOM     88  F   UNL A   1      42.684  27.262  36.460  1.00  0.00    -0.205 F 
ATOM     89  C   UNL A   1      46.253  27.936  36.931  1.00  0.00     0.022 A 
BRANCH  87  90
ATOM     90  S   UNL A   1      44.809  26.138  38.406  1.00  0.00     0.127 S 
ATOM     91  O   UNL A   1      44.373  24.964  37.652  1.00  0.00    -0.237 OA
ATOM     92  O   UNL A   1      46.172  26.054  38.934  1.00  0.00    -0.237 OA
ATOM     93  O   UNL A   1      43.828  26.675  39.340  1.00  0.00    -0.744 OA
ENDBRANCH  87  90
ENDBRANCH  60  83
ENDBRANCH  34  35
ENDBRANCH  26  29
ENDBRANCH   1  25
TORSDOF 14
ENDMDL
MODEL 3
REMARK VINA RESULT:     -12.5      5.410     10.576
REMARK SMILES Cc1cc(C)c2c(C(=O)NCCCNC(=O)c3ccc(-c4c5nc(c(-c6cccc(S(=O)(=O)[O-])c6F)c6ccc([nH]6)c(-c6cccc(S(=O)(=O)[O-])c6F)c6nc(c(-c7cccc(S(=O)(=O)[O-])c7F)c7ccc4[nH]7)C=C6)C=C5)cc3)cc(-c3ccco3)nc2c1
REMARK SMILES IDX 13 1 12 2 11 3 10 4 8 5 9 6 7 8 1 9 2 10 3 11 89 12 4 13
REMARK SMILES IDX 88 14 5 15 6 16 87 17 81 18 80 19 82 20 83 21 86 22 84 23
REMARK SMILES IDX 85 24 14 25 15 26 16 28 17 29 18 30 79 31 19 32 78 33 20 34
REMARK SMILES IDX 21 35 22 36 72 37 23 38 77 39 71 40 73 41 24 42 76 43 70 44
REMARK SMILES IDX 69 45 25 47 57 48 37 49 56 50 38 51 41 52 55 53 74 54 39 55
REMARK SMILES IDX 40 56 54 58 75 59 42 60 26 61 27 62 35 63 28 64 30 65 36 66
REMARK SMILES IDX 29 67 31 68 32 69 33 70 34 71 58 72 59 73 67 74 60 75 62 76
REMARK SMILES IDX 68 77 61 78 63 79 64 80 65 81 66 82 43 83 44 84 52 85 45 86
REMARK SMILES IDX 47 87 53 88 46 89 48 90 49 91 50 92 51 93
REMARK H PARENT 10 7 14 27 73 46 41 57
REMARK Flexibility Score: inf
ROOT
ATOM      1  C   UNL A   1      35.807  22.539  26.136  1.00  0.00     0.118 C 
ENDROOT
BRANCH   1   2
ATOM      2  C   UNL A   1      34.648  22.649  25.147  1.00  0.00     0.042 C 
BRANCH   2   3
ATOM      3  C   UNL A   1      34.079  24.053  24.994  1.00  0.00     0.118 C 
BRANCH   3   4
ATOM      4  N   UNL A   1      34.108  24.574  23.631  1.00  0.00    -0.352 N 
ATOM      5  C   UNL A   1      33.794  25.816  23.133  1.00  0.00     0.252 C 
ATOM      6  O   UNL A   1      33.979  26.033  21.936  1.00  0.00    -0.269 OA
ATOM      7  H   UNL A   1      34.402  23.924  22.953  1.00  0.00     0.163 HD
BRANCH   5   8
ATOM      8  C   UNL A   1      33.141  26.862  23.959  1.00  0.00     0.051 A 
ATOM      9  C   UNL A   1      28.122  29.219  22.776  1.00  0.00     0.044 C 
ATOM     10  C   UNL A   1      29.316  28.468  23.282  1.00  0.00    -0.049 A 
ATOM     11  C   UNL A   1      29.485  27.114  23.018  1.00  0.00     0.007 A 
ATOM     12  C   UNL A   1      30.297  29.125  24.031  1.00  0.00     0.032 A 
ATOM     13  C   UNL A   1      30.682  26.467  23.360  1.00  0.00    -0.041 A 
ATOM     14  C   UNL A   1      31.493  28.516  24.382  1.00  0.00     0.072 A 
ATOM     15  C   UNL A   1      30.688  24.958  23.297  1.00  0.00     0.045 C 
ATOM     16  C   UNL A   1      31.773  27.231  23.882  1.00  0.00     0.016 A 
ATOM     17  N   UNL A   1      32.334  29.200  25.175  1.00  0.00    -0.244 NA
ATOM     18  C   UNL A   1      33.547  28.676  25.436  1.00  0.00     0.107 A 
ATOM     19  C   UNL A   1      34.025  27.566  24.782  1.00  0.00     0.046 A 
BRANCH  18  20
ATOM     20  C   UNL A   1      34.317  29.332  26.479  1.00  0.00     0.152 A 
ATOM     21  C   UNL A   1      35.352  28.953  27.311  1.00  0.00     0.052 A 
ATOM     22  O   UNL A   1      33.896  30.590  26.816  1.00  0.00    -0.463 OA
ATOM     23  C   UNL A   1      35.577  30.038  28.196  1.00  0.00     0.043 A 
ATOM     24  C   UNL A   1      34.660  31.005  27.857  1.00  0.00     0.196 A 
ENDBRANCH  18  20
ENDBRANCH   5   8
ENDBRANCH   3   4
ENDBRANCH   2   3
ENDBRANCH   1   2
BRANCH   1  25
ATOM     25  N   UNL A   1      36.810  21.541  25.779  1.00  0.00    -0.352 N 
ATOM     26  C   UNL A   1      38.187  21.573  25.836  1.00  0.00     0.251 C 
ATOM     27  H   UNL A   1      36.438  20.696  25.439  1.00  0.00     0.163 HD
ATOM     28  O   UNL A   1      38.833  20.640  25.376  1.00  0.00    -0.269 OA
BRANCH  26  29
ATOM     29  C   UNL A   1      38.888  22.746  26.405  1.00  0.00     0.039 A 
ATOM     30  C   UNL A   1      39.998  22.538  27.229  1.00  0.00     0.014 A 
ATOM     31  C   UNL A   1      38.462  24.045  26.131  1.00  0.00     0.014 A 
ATOM     32  C   UNL A   1      40.740  23.631  27.687  1.00  0.00     0.010 A 
ATOM     33  C   UNL A   1      39.258  25.124  26.495  1.00  0.00     0.010 A 
ATOM     34  C   UNL A   1      40.405  24.931  27.279  1.00  0.00    -0.014 A 
BRANCH  34  35
ATOM     35  C   UNL A   1      41.216  26.115  27.660  1.00  0.00     0.031 A 
ATOM     36  C   UNL A   1      40.606  27.193  28.515  1.00  0.00     0.074 A 
ATOM     37  C   UNL A   1      42.454  26.275  27.151  1.00  0.00     0.049 A 
ATOM     38  N   UNL A   1      41.092  28.364  28.834  1.00  0.00    -0.248 NA
ATOM     39  C   UNL A   1      39.257  26.938  29.051  1.00  0.00     0.031 C 
ATOM     40  C   UNL A   1      43.131  25.336  26.252  1.00  0.00     0.029 A 
ATOM     41  N   UNL A   1      43.355  27.300  27.295  1.00  0.00    -0.354 N 
ATOM     42  C   UNL A   1      40.094  29.002  29.560  1.00  0.00     0.074 A 
ATOM     43  C   UNL A   1      38.963  28.103  29.611  1.00  0.00     0.031 C 
ATOM     44  C   UNL A   1      44.344  25.821  25.941  1.00  0.00     0.029 A 
ATOM     45  C   UNL A   1      44.521  27.117  26.589  1.00  0.00     0.049 A 
ATOM     46  H   UNL A   1      43.183  28.093  27.852  1.00  0.00     0.167 HD
ATOM     47  C   UNL A   1      40.127  30.211  30.164  1.00  0.00     0.034 A 
ATOM     48  C   UNL A   1      45.610  27.902  26.477  1.00  0.00     0.034 A 
ATOM     49  C   UNL A   1      41.281  31.065  30.189  1.00  0.00     0.049 A 
ATOM     50  C   UNL A   1      45.651  29.211  27.215  1.00  0.00     0.074 A 
ATOM     51  C   UNL A   1      41.444  32.266  30.854  1.00  0.00     0.029 A 
ATOM     52  N   UNL A   1      42.473  30.798  29.537  1.00  0.00    -0.354 N 
ATOM     53  N   UNL A   1      44.735  29.747  27.986  1.00  0.00    -0.248 NA
ATOM     54  C   UNL A   1      46.878  30.012  27.093  1.00  0.00     0.031 C 
ATOM     55  C   UNL A   1      42.740  32.724  30.610  1.00  0.00     0.029 A 
ATOM     56  C   UNL A   1      43.382  31.806  29.793  1.00  0.00     0.049 A 
ATOM     57  H   UNL A   1      42.647  30.008  28.976  1.00  0.00     0.167 HD
ATOM     58  C   UNL A   1      45.283  30.933  28.460  1.00  0.00     0.074 A 
ATOM     59  C   UNL A   1      46.615  31.034  27.899  1.00  0.00     0.031 C 
ATOM     60  C   UNL A   1      44.724  31.860  29.273  1.00  0.00     0.034 A 
BRANCH  47  61
ATOM     61  C   UNL A   1      38.909  30.644  30.929  1.00  0.00     0.023 A 
ATOM     62  C   UNL A   1      38.672  30.093  32.204  1.00  0.00     0.012 A 
ATOM     63  C   UNL A   1      38.043  31.632  30.426  1.00  0.00     0.148 A 
ATOM     64  C   UNL A   1      37.577  30.503  32.961  1.00  0.00     0.002 A 
ATOM     65  C   UNL A   1      36.970  32.061  31.200  1.00  0.00     0.091 A 
ATOM     66  F   UNL A   1      38.283  32.131  29.204  1.00  0.00    -0.205 F 
ATOM     67  C   UNL A   1      36.733  31.492  32.464  1.00  0.00     0.022 A 
BRANCH  65  68
ATOM     68  S   UNL A   1      35.849  33.364  30.679  1.00  0.00     0.127 S 
ATOM     69  O   UNL A   1      34.554  32.689  30.768  1.00  0.00    -0.237 OA
ATOM     70  O   UNL A   1      36.075  34.386  31.699  1.00  0.00    -0.237 OA
ATOM     71  O   UNL A   1      36.259  33.736  29.333  1.00  0.00    -0.744 OA
ENDBRANCH  65  68
ENDBRANCH  47  61
BRANCH  48  72
ATOM     72  C   UNL A   1      46.789  27.417  25.708  1.00  0.00     0.023 A 
ATOM     73  C   UNL A   1      47.659  26.491  26.315  1.00  0.00     0.012 A 
ATOM     74  C   UNL A   1      47.018  27.809  24.375  1.00  0.00     0.148 A 
ATOM     75  C   UNL A   1      48.745  25.971  25.613  1.00  0.00     0.002 A 
ATOM     76  C   UNL A   1      48.083  27.260  23.669  1.00  0.00     0.091 A 
ATOM     77  F   UNL A   1      46.173  28.689  23.821  1.00  0.00    -0.205 F 
ATOM     78  C   UNL A   1      48.953  26.348  24.289  1.00  0.00     0.022 A 
BRANCH  76  79
ATOM     79  S   UNL A   1      48.380  27.606  21.931  1.00  0.00     0.127 S 
ATOM     80  O   UNL A   1      49.532  28.503  21.999  1.00  0.00    -0.237 OA
ATOM     81  O   UNL A   1      48.669  26.270  21.408  1.00  0.00    -0.237 OA
ATOM     82  O   UNL A   1      47.151  28.202  21.429  1.00  0.00    -0.744 OA
ENDBRANCH  76  79
ENDBRANCH  48  72
BRANCH  60  83
ATOM     83  C   UNL A   1      45.540  33.068  29.638  1.00  0.00     0.023 A 
ATOM     84  C   UNL A   1      46.409  33.000  30.744  1.00  0.00     0.012 A 
ATOM     85  C   UNL A   1      45.558  34.201  28.802  1.00  0.00     0.148 A 
ATOM     86  C   UNL A   1      47.286  34.049  31.014  1.00  0.00     0.002 A 
ATOM     87  C   UNL A   1      46.459  35.227  29.058  1.00  0.00     0.091 A 
ATOM     88  F   UNL A   1      44.713  34.238  27.762  1.00  0.00    -0.205 F 
ATOM     89  C   UNL A   1      47.320  35.153  30.165  1.00  0.00     0.022 A 
BRANCH  87  90
ATOM     90  S   UNL A   1      46.637  36.650  27.978  1.00  0.00     0.127 S 
ATOM     91  O   UNL A   1      45.366  37.343  28.185  1.00  0.00    -0.237 OA
ATOM     92  O   UNL A   1      47.802  37.328  28.548  1.00  0.00    -0.237 OA
ATOM     93  O   UNL A   1      46.841  36.117  26.637  1.00  0.00    -0.744 OA
ENDBRANCH  87  90
ENDBRANCH  60  83
ENDBRANCH  34  35
ENDBRANCH  26  29
ENDBRANCH   1  25
TORSDOF 14
ENDMDL
