MODEL 1
REMARK VINA RESULT:     -10.9      0.000      0.000
REMARK SMILES O=C(COc1ccc2c(c1)CCC2)N[C@@H](CO)C(=O)NCCCNC(=O)c1ccc(-c2c3nc(c(-c4cccc(S(=O)(=O)[O-])c4F)c4ccc([nH]4)c(-c4cccc(S(=O)(=O)[O-])c4F)c4nc(c(-c5cccc(S(=O)(=O)[O-])c5F)c5ccc2[nH]5)C=C4)C=C3)cc1
REMARK SMILES IDX 21 1 20 2 18 3 19 4 15 6 14 7 1 8 2 9 3 11 4 12 5 13 6 14
REMARK SMILES IDX 10 15 7 16 9 17 8 18 11 19 13 20 12 21 16 22 17 23 22 25
REMARK SMILES IDX 23 26 24 27 25 28 26 30 27 31 28 32 89 33 29 34 88 35 30 36
REMARK SMILES IDX 31 37 32 38 82 39 33 40 87 41 81 42 83 43 34 44 86 45 80 46
REMARK SMILES IDX 79 47 35 49 67 50 47 51 66 52 48 53 51 54 65 55 84 56 49 57
REMARK SMILES IDX 50 58 64 60 85 61 52 62 36 63 37 64 45 65 38 66 40 67 46 68
REMARK SMILES IDX 39 69 41 70 42 71 43 72 44 73 68 74 69 75 77 76 70 77 72 78
REMARK SMILES IDX 78 79 71 80 73 81 74 82 75 83 76 84 53 85 54 86 62 87 55 88
REMARK SMILES IDX 57 89 63 90 56 91 58 92 59 93 60 94 61 95
REMARK H PARENT 20 5 14 10 17 24 24 29 83 48 51 59
REMARK Flexibility Score: inf
ROOT
ATOM      1  C   UNL A   1      33.390  34.556  29.213  1.00  0.00     0.117 C 
ENDROOT
BRANCH   1   2
ATOM      2  N   UNL A   1      33.173  35.926  29.644  1.00  0.00    -0.354 N 
ATOM      3  C   UNL A   1      32.854  36.423  30.871  1.00  0.00     0.244 C 
ATOM      4  O   UNL A   1      32.950  37.644  31.031  1.00  0.00    -0.273 OA
ATOM      5  H   UNL A   1      33.274  36.603  28.936  1.00  0.00     0.163 HD
BRANCH   3   6
ATOM      6  C   UNL A   1      32.446  35.513  32.040  1.00  0.00     0.197 C 
BRANCH   6   7
ATOM      7  N   UNL A   1      33.526  35.395  33.021  1.00  0.00    -0.339 N 
ATOM      8  O   UNL A   1      33.794  33.133  32.788  1.00  0.00    -0.271 OA
ATOM      9  C   UNL A   1      34.228  34.216  33.168  1.00  0.00     0.258 C 
ATOM     10  H   UNL A   1      33.756  36.169  33.583  1.00  0.00     0.164 HD
BRANCH   9  11
ATOM     11  C   UNL A   1      35.597  34.381  33.838  1.00  0.00     0.329 C 
BRANCH  11  12
ATOM     12  O   UNL A   1      36.522  33.328  33.558  1.00  0.00    -0.484 OA
BRANCH  12  13
ATOM     13  C   UNL A   1      37.748  33.767  33.123  1.00  0.00     0.120 A 
ATOM     14  C   UNL A   1      38.823  33.960  34.007  1.00  0.00     0.047 A 
ATOM     15  C   UNL A   1      37.936  33.897  31.744  1.00  0.00     0.050 A 
ATOM     16  C   UNL A   1      40.092  34.295  33.530  1.00  0.00     0.008 A 
ATOM     17  C   UNL A   1      39.203  34.225  31.279  1.00  0.00    -0.041 A 
ATOM     18  C   UNL A   1      40.270  34.416  32.165  1.00  0.00    -0.045 A 
ATOM     19  C   UNL A   1      39.650  34.446  29.866  1.00  0.00     0.036 C 
ATOM     20  C   UNL A   1      41.528  34.756  31.429  1.00  0.00     0.036 C 
ATOM     21  C   UNL A   1      41.174  34.298  30.009  1.00  0.00     0.010 C 
ENDBRANCH  12  13
ENDBRANCH  11  12
ENDBRANCH   9  11
ENDBRANCH   6   7
BRANCH   6  22
ATOM     22  C   UNL A   1      31.062  35.860  32.608  1.00  0.00     0.191 C 
BRANCH  22  23
ATOM     23  O   UNL A   1      31.070  36.872  33.610  1.00  0.00    -0.394 OA
ATOM     24  H   UNL A   1      31.093  36.459  34.487  1.00  0.00     0.210 HD
ENDBRANCH  22  23
ENDBRANCH   6  22
ENDBRANCH   3   6
ENDBRANCH   1   2
BRANCH   1  25
ATOM     25  C   UNL A   1      34.841  34.128  29.336  1.00  0.00     0.042 C 
BRANCH  25  26
ATOM     26  C   UNL A   1      35.315  33.236  28.203  1.00  0.00     0.118 C 
BRANCH  26  27
ATOM     27  N   UNL A   1      34.392  32.141  27.925  1.00  0.00    -0.352 N 
ATOM     28  C   UNL A   1      34.620  30.790  27.867  1.00  0.00     0.251 C 
ATOM     29  H   UNL A   1      33.462  32.415  27.754  1.00  0.00     0.163 HD
ATOM     30  O   UNL A   1      33.741  30.047  27.427  1.00  0.00    -0.269 OA
BRANCH  28  31
ATOM     31  C   UNL A   1      35.911  30.226  28.312  1.00  0.00     0.039 A 
ATOM     32  C   UNL A   1      37.002  30.246  27.440  1.00  0.00     0.014 A 
ATOM     33  C   UNL A   1      36.046  29.662  29.582  1.00  0.00     0.014 A 
ATOM     34  C   UNL A   1      38.234  29.741  27.860  1.00  0.00     0.010 A 
ATOM     35  C   UNL A   1      37.298  29.277  30.042  1.00  0.00     0.010 A 
ATOM     36  C   UNL A   1      38.398  29.273  29.174  1.00  0.00    -0.014 A 
BRANCH  36  37
ATOM     37  C   UNL A   1      39.693  28.721  29.647  1.00  0.00     0.031 A 
ATOM     38  C   UNL A   1      40.444  29.415  30.754  1.00  0.00     0.074 A 
ATOM     39  C   UNL A   1      40.231  27.650  29.036  1.00  0.00     0.049 A 
ATOM     40  N   UNL A   1      41.609  29.122  31.271  1.00  0.00    -0.248 NA
ATOM     41  C   UNL A   1      39.825  30.622  31.328  1.00  0.00     0.031 C 
ATOM     42  C   UNL A   1      39.650  26.948  27.890  1.00  0.00     0.029 A 
ATOM     43  N   UNL A   1      41.403  26.978  29.278  1.00  0.00    -0.354 N 
ATOM     44  C   UNL A   1      41.875  30.125  32.197  1.00  0.00     0.074 A 
ATOM     45  C   UNL A   1      40.783  31.068  32.124  1.00  0.00     0.031 C 
ATOM     46  C   UNL A   1      40.463  25.941  27.533  1.00  0.00     0.029 A 
ATOM     47  C   UNL A   1      41.634  25.943  28.404  1.00  0.00     0.049 A 
ATOM     48  H   UNL A   1      42.019  27.215  30.008  1.00  0.00     0.167 HD
ATOM     49  C   UNL A   1      42.912  30.235  33.062  1.00  0.00     0.034 A 
ATOM     50  C   UNL A   1      42.676  25.094  28.311  1.00  0.00     0.034 A 
ATOM     51  C   UNL A   1      43.975  29.274  33.157  1.00  0.00     0.049 A 
ATOM     52  C   UNL A   1      43.789  25.193  29.317  1.00  0.00     0.074 A 
ATOM     53  C   UNL A   1      45.032  29.242  34.049  1.00  0.00     0.029 A 
ATOM     54  N   UNL A   1      44.123  28.176  32.323  1.00  0.00    -0.354 N 
ATOM     55  N   UNL A   1      43.950  26.063  30.286  1.00  0.00    -0.248 NA
ATOM     56  C   UNL A   1      44.840  24.168  29.248  1.00  0.00     0.031 C 
ATOM     57  C   UNL A   1      45.833  28.138  33.736  1.00  0.00     0.029 A 
ATOM     58  C   UNL A   1      45.253  27.460  32.676  1.00  0.00     0.049 A 
ATOM     59  H   UNL A   1      43.512  27.940  31.588  1.00  0.00     0.167 HD
ATOM     60  C   UNL A   1      45.096  25.667  30.967  1.00  0.00     0.074 A 
ATOM     61  C   UNL A   1      45.579  24.471  30.307  1.00  0.00     0.031 C 
ATOM     62  C   UNL A   1      45.697  26.246  32.037  1.00  0.00     0.034 A 
BRANCH  49  63
ATOM     63  C   UNL A   1      42.907  31.417  34.000  1.00  0.00     0.023 A 
ATOM     64  C   UNL A   1      43.535  32.621  33.613  1.00  0.00     0.012 A 
ATOM     65  C   UNL A   1      42.278  31.344  35.257  1.00  0.00     0.148 A 
ATOM     66  C   UNL A   1      43.592  33.708  34.483  1.00  0.00     0.002 A 
ATOM     67  C   UNL A   1      42.290  32.452  36.099  1.00  0.00     0.091 A 
ATOM     68  F   UNL A   1      41.703  30.190  35.622  1.00  0.00    -0.205 F 
ATOM     69  C   UNL A   1      42.962  33.626  35.721  1.00  0.00     0.022 A 
BRANCH  67  70
ATOM     70  S   UNL A   1      41.434  32.477  37.677  1.00  0.00     0.127 S 
ATOM     71  O   UNL A   1      41.546  33.887  38.050  1.00  0.00    -0.237 OA
ATOM     72  O   UNL A   1      40.085  32.050  37.302  1.00  0.00    -0.237 OA
ATOM     73  O   UNL A   1      42.147  31.542  38.534  1.00  0.00    -0.744 OA
ENDBRANCH  67  70
ENDBRANCH  49  63
BRANCH  50  74
ATOM     74  C   UNL A   1      42.670  24.037  27.261  1.00  0.00     0.023 A 
ATOM     75  C   UNL A   1      43.290  24.283  26.021  1.00  0.00     0.012 A 
ATOM     76  C   UNL A   1      42.104  22.773  27.509  1.00  0.00     0.148 A 
ATOM     77  C   UNL A   1      43.324  23.295  25.036  1.00  0.00     0.002 A 
ATOM     78  C   UNL A   1      42.192  21.775  26.547  1.00  0.00     0.091 A 
ATOM     79  F   UNL A   1      41.517  22.564  28.696  1.00  0.00    -0.205 F 
ATOM     80  C   UNL A   1      42.784  22.038  25.303  1.00  0.00     0.022 A 
BRANCH  78  81
ATOM     81  S   UNL A   1      41.650  20.090  26.852  1.00  0.00     0.127 S 
ATOM     82  O   UNL A   1      40.370  20.303  27.523  1.00  0.00    -0.237 OA
ATOM     83  O   UNL A   1      41.553  19.557  25.491  1.00  0.00    -0.237 OA
ATOM     84  O   UNL A   1      42.692  19.478  27.664  1.00  0.00    -0.744 OA
ENDBRANCH  78  81
ENDBRANCH  50  74
BRANCH  62  85
ATOM     85  C   UNL A   1      46.918  25.569  32.602  1.00  0.00     0.023 A 
ATOM     86  C   UNL A   1      48.200  25.897  32.118  1.00  0.00     0.012 A 
ATOM     87  C   UNL A   1      46.794  24.651  33.663  1.00  0.00     0.148 A 
ATOM     88  C   UNL A   1      49.336  25.290  32.653  1.00  0.00     0.002 A 
ATOM     89  C   UNL A   1      47.934  24.092  34.229  1.00  0.00     0.091 A 
ATOM     90  F   UNL A   1      45.565  24.337  34.098  1.00  0.00    -0.205 F 
ATOM     91  C   UNL A   1      49.204  24.399  33.717  1.00  0.00     0.022 A 
BRANCH  89  92
ATOM     92  S   UNL A   1      47.862  23.016  35.665  1.00  0.00     0.127 S 
ATOM     93  O   UNL A   1      46.732  22.151  35.333  1.00  0.00    -0.237 OA
ATOM     94  O   UNL A   1      49.168  22.355  35.622  1.00  0.00    -0.237 OA
ATOM     95  O   UNL A   1      47.667  23.891  36.813  1.00  0.00    -0.744 OA
ENDBRANCH  89  92
ENDBRANCH  62  85
ENDBRANCH  36  37
ENDBRANCH  28  31
ENDBRANCH  26  27
ENDBRANCH  25  26
ENDBRANCH   1  25
TORSDOF 19
ENDMDL
MODEL 2
REMARK VINA RESULT:     -10.3      1.726      2.072
REMARK SMILES O=C(COc1ccc2c(c1)CCC2)N[C@@H](CO)C(=O)NCCCNC(=O)c1ccc(-c2c3nc(c(-c4cccc(S(=O)(=O)[O-])c4F)c4ccc([nH]4)c(-c4cccc(S(=O)(=O)[O-])c4F)c4nc(c(-c5cccc(S(=O)(=O)[O-])c5F)c5ccc2[nH]5)C=C4)C=C3)cc1
REMARK SMILES IDX 21 1 20 2 18 3 19 4 15 6 14 7 1 8 2 9 3 11 4 12 5 13 6 14
REMARK SMILES IDX 10 15 7 16 9 17 8 18 11 19 13 20 12 21 16 22 17 23 22 25
REMARK SMILES IDX 23 26 24 27 25 28 26 30 27 31 28 32 89 33 29 34 88 35 30 36
REMARK SMILES IDX 31 37 32 38 82 39 33 40 87 41 81 42 83 43 34 44 86 45 80 46
REMARK SMILES IDX 79 47 35 49 67 50 47 51 66 52 48 53 51 54 65 55 84 56 49 57
REMARK SMILES IDX 50 58 64 60 85 61 52 62 36 63 37 64 45 65 38 66 40 67 46 68
REMARK SMILES IDX 39 69 41 70 42 71 43 72 44 73 68 74 69 75 77 76 70 77 72 78
REMARK SMILES IDX 78 79 71 80 73 81 74 82 75 83 76 84 53 85 54 86 62 87 55 88
REMARK SMILES IDX 57 89 63 90 56 91 58 92 59 93 60 94 61 95
REMARK H PARENT 20 5 14 10 17 24 24 29 83 48 51 59
REMARK Flexibility Score: inf
ROOT
ATOM      1  C   UNL A   1      33.432  34.782  29.220  1.00  0.00     0.117 C 
ENDROOT
BRANCH   1   2
ATOM      2  N   UNL A   1      33.493  36.086  29.857  1.00  0.00    -0.354 N 
ATOM      3  C   UNL A   1      33.223  36.452  31.140  1.00  0.00     0.244 C 
ATOM      4  O   UNL A   1      33.572  37.585  31.492  1.00  0.00    -0.273 OA
ATOM      5  H   UNL A   1      33.774  36.822  29.266  1.00  0.00     0.163 HD
BRANCH   3   6
ATOM      6  C   UNL A   1      32.568  35.491  32.144  1.00  0.00     0.197 C 
BRANCH   6   7
ATOM      7  N   UNL A   1      33.474  35.185  33.253  1.00  0.00    -0.339 N 
ATOM      8  O   UNL A   1      33.534  32.927  32.874  1.00  0.00    -0.271 OA
ATOM      9  C   UNL A   1      34.019  33.926  33.398  1.00  0.00     0.258 C 
ATOM     10  H   UNL A   1      33.698  35.888  33.903  1.00  0.00     0.164 HD
BRANCH   9  11
ATOM     11  C   UNL A   1      35.284  33.887  34.263  1.00  0.00     0.329 C 
BRANCH  11  12
ATOM     12  O   UNL A   1      36.233  32.891  33.876  1.00  0.00    -0.484 OA
BRANCH  12  13
ATOM     13  C   UNL A   1      37.371  33.402  33.304  1.00  0.00     0.120 A 
ATOM     14  C   UNL A   1      38.490  33.767  34.074  1.00  0.00     0.047 A 
ATOM     15  C   UNL A   1      37.436  33.432  31.908  1.00  0.00     0.050 A 
ATOM     16  C   UNL A   1      39.677  34.176  33.464  1.00  0.00     0.008 A 
ATOM     17  C   UNL A   1      38.624  33.834  31.311  1.00  0.00    -0.041 A 
ATOM     18  C   UNL A   1      39.733  34.195  32.083  1.00  0.00    -0.045 A 
ATOM     19  C   UNL A   1      38.933  33.974  29.852  1.00  0.00     0.036 C 
ATOM     20  C   UNL A   1      40.890  34.586  31.217  1.00  0.00     0.036 C 
ATOM     21  C   UNL A   1      40.471  33.979  29.872  1.00  0.00     0.010 C 
ENDBRANCH  12  13
ENDBRANCH  11  12
ENDBRANCH   9  11
ENDBRANCH   6   7
BRANCH   6  22
ATOM     22  C   UNL A   1      31.148  35.923  32.540  1.00  0.00     0.191 C 
BRANCH  22  23
ATOM     23  O   UNL A   1      31.089  36.831  33.636  1.00  0.00    -0.394 OA
ATOM     24  H   UNL A   1      30.204  37.222  33.685  1.00  0.00     0.210 HD
ENDBRANCH  22  23
ENDBRANCH   6  22
ENDBRANCH   3   6
ENDBRANCH   1   2
BRANCH   1  25
ATOM     25  C   UNL A   1      34.619  33.904  29.573  1.00  0.00     0.042 C 
BRANCH  25  26
ATOM     26  C   UNL A   1      35.308  33.292  28.368  1.00  0.00     0.118 C 
BRANCH  26  27
ATOM     27  N   UNL A   1      34.494  32.277  27.709  1.00  0.00    -0.352 N 
ATOM     28  C   UNL A   1      34.768  30.958  27.449  1.00  0.00     0.251 C 
ATOM     29  H   UNL A   1      33.610  32.587  27.404  1.00  0.00     0.163 HD
ATOM     30  O   UNL A   1      34.019  30.319  26.709  1.00  0.00    -0.269 OA
BRANCH  28  31
ATOM     31  C   UNL A   1      35.959  30.310  28.037  1.00  0.00     0.039 A 
ATOM     32  C   UNL A   1      37.144  30.257  27.298  1.00  0.00     0.014 A 
ATOM     33  C   UNL A   1      35.907  29.737  29.309  1.00  0.00     0.014 A 
ATOM     34  C   UNL A   1      38.281  29.671  27.856  1.00  0.00     0.010 A 
ATOM     35  C   UNL A   1      37.068  29.269  29.909  1.00  0.00     0.010 A 
ATOM     36  C   UNL A   1      38.259  29.192  29.176  1.00  0.00    -0.014 A 
BRANCH  36  37
ATOM     37  C   UNL A   1      39.450  28.555  29.792  1.00  0.00     0.031 A 
ATOM     38  C   UNL A   1      40.079  29.168  31.017  1.00  0.00     0.074 A 
ATOM     39  C   UNL A   1      40.013  27.478  29.212  1.00  0.00     0.049 A 
ATOM     40  N   UNL A   1      41.148  28.794  31.670  1.00  0.00    -0.248 NA
ATOM     41  C   UNL A   1      39.447  30.384  31.555  1.00  0.00     0.031 C 
ATOM     42  C   UNL A   1      39.558  26.850  27.970  1.00  0.00     0.029 A 
ATOM     43  N   UNL A   1      41.108  26.737  29.578  1.00  0.00    -0.354 N 
ATOM     44  C   UNL A   1      41.336  29.747  32.665  1.00  0.00     0.074 A 
ATOM     45  C   UNL A   1      40.310  30.749  32.489  1.00  0.00     0.031 C 
ATOM     46  C   UNL A   1      40.362  25.815  27.681  1.00  0.00     0.029 A 
ATOM     47  C   UNL A   1      41.404  25.723  28.699  1.00  0.00     0.049 A 
ATOM     48  H   UNL A   1      41.631  26.914  30.393  1.00  0.00     0.167 HD
ATOM     49  C   UNL A   1      42.251  29.770  33.664  1.00  0.00     0.034 A 
ATOM     50  C   UNL A   1      42.407  24.823  28.709  1.00  0.00     0.034 A 
ATOM     51  C   UNL A   1      43.244  28.751  33.858  1.00  0.00     0.049 A 
ATOM     52  C   UNL A   1      43.378  24.826  29.856  1.00  0.00     0.074 A 
ATOM     53  C   UNL A   1      44.169  28.629  34.880  1.00  0.00     0.029 A 
ATOM     54  N   UNL A   1      43.449  27.676  33.004  1.00  0.00    -0.354 N 
ATOM     55  N   UNL A   1      43.449  25.650  30.874  1.00  0.00    -0.248 NA
ATOM     56  C   UNL A   1      44.378  23.749  29.883  1.00  0.00     0.031 C 
ATOM     57  C   UNL A   1      44.950  27.496  34.628  1.00  0.00     0.029 A 
ATOM     58  C   UNL A   1      44.485  26.889  33.473  1.00  0.00     0.049 A 
ATOM     59  H   UNL A   1      42.932  27.501  32.186  1.00  0.00     0.167 HD
ATOM     60  C   UNL A   1      44.473  25.169  31.683  1.00  0.00     0.074 A 
ATOM     61  C   UNL A   1      44.982  23.973  31.042  1.00  0.00     0.031 C 
ATOM     62  C   UNL A   1      44.952  25.676  32.847  1.00  0.00     0.034 A 
BRANCH  49  63
ATOM     63  C   UNL A   1      42.178  30.916  34.642  1.00  0.00     0.023 A 
ATOM     64  C   UNL A   1      41.432  30.775  35.832  1.00  0.00     0.012 A 
ATOM     65  C   UNL A   1      42.850  32.128  34.394  1.00  0.00     0.148 A 
ATOM     66  C   UNL A   1      41.303  31.837  36.726  1.00  0.00     0.002 A 
ATOM     67  C   UNL A   1      42.763  33.165  35.317  1.00  0.00     0.091 A 
ATOM     68  F   UNL A   1      43.538  32.258  33.251  1.00  0.00    -0.205 F 
ATOM     69  C   UNL A   1      41.976  33.028  36.472  1.00  0.00     0.022 A 
BRANCH  67  70
ATOM     70  S   UNL A   1      43.663  34.708  35.126  1.00  0.00     0.127 S 
ATOM     71  O   UNL A   1      45.041  34.232  35.005  1.00  0.00    -0.237 OA
ATOM     72  O   UNL A   1      43.092  35.245  33.891  1.00  0.00    -0.237 OA
ATOM     73  O   UNL A   1      43.372  35.491  36.318  1.00  0.00    -0.744 OA
ENDBRANCH  67  70
ENDBRANCH  49  63
BRANCH  50  74
ATOM     74  C   UNL A   1      42.490  23.806  27.623  1.00  0.00     0.023 A 
ATOM     75  C   UNL A   1      41.433  22.895  27.438  1.00  0.00     0.012 A 
ATOM     76  C   UNL A   1      43.585  23.780  26.738  1.00  0.00     0.148 A 
ATOM     77  C   UNL A   1      41.478  21.956  26.406  1.00  0.00     0.002 A 
ATOM     78  C   UNL A   1      43.596  22.882  25.678  1.00  0.00     0.091 A 
ATOM     79  F   UNL A   1      44.580  24.656  26.936  1.00  0.00    -0.205 F 
ATOM     80  C   UNL A   1      42.553  21.957  25.520  1.00  0.00     0.022 A 
BRANCH  78  81
ATOM     81  S   UNL A   1      44.868  22.901  24.410  1.00  0.00     0.127 S 
ATOM     82  O   UNL A   1      45.883  22.025  24.990  1.00  0.00    -0.237 OA
ATOM     83  O   UNL A   1      44.153  22.341  23.262  1.00  0.00    -0.237 OA
ATOM     84  O   UNL A   1      45.255  24.296  24.256  1.00  0.00    -0.744 OA
ENDBRANCH  78  81
ENDBRANCH  50  74
BRANCH  62  85
ATOM     85  C   UNL A   1      46.052  24.915  33.539  1.00  0.00     0.023 A 
ATOM     86  C   UNL A   1      47.398  25.291  33.360  1.00  0.00     0.012 A 
ATOM     87  C   UNL A   1      45.740  23.861  34.422  1.00  0.00     0.148 A 
ATOM     88  C   UNL A   1      48.418  24.604  34.017  1.00  0.00     0.002 A 
ATOM     89  C   UNL A   1      46.758  23.218  35.115  1.00  0.00     0.091 A 
ATOM     90  F   UNL A   1      44.455  23.506  34.565  1.00  0.00    -0.205 F 
ATOM     91  C   UNL A   1      48.098  23.578  34.903  1.00  0.00     0.022 A 
BRANCH  89  92
ATOM     92  S   UNL A   1      46.428  21.956  36.350  1.00  0.00     0.127 S 
ATOM     93  O   UNL A   1      47.779  21.596  36.775  1.00  0.00    -0.237 OA
ATOM     94  O   UNL A   1      45.652  22.695  37.348  1.00  0.00    -0.237 OA
ATOM     95  O   UNL A   1      45.685  20.908  35.664  1.00  0.00    -0.744 OA
ENDBRANCH  89  92
ENDBRANCH  62  85
ENDBRANCH  36  37
ENDBRANCH  28  31
ENDBRANCH  26  27
ENDBRANCH  25  26
ENDBRANCH   1  25
TORSDOF 19
ENDMDL
MODEL 3
REMARK VINA RESULT:     -10.1      5.787     11.482
REMARK SMILES O=C(COc1ccc2c(c1)CCC2)N[C@@H](CO)C(=O)NCCCNC(=O)c1ccc(-c2c3nc(c(-c4cccc(S(=O)(=O)[O-])c4F)c4ccc([nH]4)c(-c4cccc(S(=O)(=O)[O-])c4F)c4nc(c(-c5cccc(S(=O)(=O)[O-])c5F)c5ccc2[nH]5)C=C4)C=C3)cc1
REMARK SMILES IDX 21 1 20 2 18 3 19 4 15 6 14 7 1 8 2 9 3 11 4 12 5 13 6 14
REMARK SMILES IDX 10 15 7 16 9 17 8 18 11 19 13 20 12 21 16 22 17 23 22 25
REMARK SMILES IDX 23 26 24 27 25 28 26 30 27 31 28 32 89 33 29 34 88 35 30 36
REMARK SMILES IDX 31 37 32 38 82 39 33 40 87 41 81 42 83 43 34 44 86 45 80 46
REMARK SMILES IDX 79 47 35 49 67 50 47 51 66 52 48 53 51 54 65 55 84 56 49 57
REMARK SMILES IDX 50 58 64 60 85 61 52 62 36 63 37 64 45 65 38 66 40 67 46 68
REMARK SMILES IDX 39 69 41 70 42 71 43 72 44 73 68 74 69 75 77 76 70 77 72 78
REMARK SMILES IDX 78 79 71 80 73 81 74 82 75 83 76 84 53 85 54 86 62 87 55 88
REMARK SMILES IDX 57 89 63 90 56 91 58 92 59 93 60 94 61 95
REMARK H PARENT 20 5 14 10 17 24 24 29 83 48 51 59
REMARK Flexibility Score: inf
ROOT
ATOM      1  C   UNL A   1      34.229  23.649  25.415  1.00  0.00     0.117 C 
ENDROOT
BRANCH   1   2
ATOM      2  N   UNL A   1      34.461  23.478  23.992  1.00  0.00    -0.354 N 
ATOM      3  C   UNL A   1      33.625  23.041  23.009  1.00  0.00     0.244 C 
ATOM      4  O   UNL A   1      33.990  23.203  21.840  1.00  0.00    -0.273 OA
ATOM      5  H   UNL A   1      35.367  23.715  23.689  1.00  0.00     0.163 HD
BRANCH   3   6
ATOM      6  C   UNL A   1      32.252  22.425  23.319  1.00  0.00     0.197 C 
BRANCH   6   7
ATOM      7  N   UNL A   1      31.175  23.391  23.094  1.00  0.00    -0.339 N 
ATOM      8  O   UNL A   1      30.730  23.752  25.311  1.00  0.00    -0.271 OA
ATOM      9  C   UNL A   1      30.631  24.107  24.140  1.00  0.00     0.258 C 
ATOM     10  H   UNL A   1      30.835  23.532  22.182  1.00  0.00     0.164 HD
BRANCH   9  11
ATOM     11  C   UNL A   1      29.902  25.387  23.712  1.00  0.00     0.329 C 
BRANCH  11  12
ATOM     12  O   UNL A   1      30.743  26.371  23.106  1.00  0.00    -0.484 OA
BRANCH  12  13
ATOM     13  C   UNL A   1      31.696  26.882  23.951  1.00  0.00     0.120 A 
ATOM     14  C   UNL A   1      33.059  26.900  23.609  1.00  0.00     0.047 A 
ATOM     15  C   UNL A   1      31.253  27.509  25.120  1.00  0.00     0.050 A 
ATOM     16  C   UNL A   1      33.996  27.529  24.432  1.00  0.00     0.008 A 
ATOM     17  C   UNL A   1      32.193  28.137  25.928  1.00  0.00    -0.041 A 
ATOM     18  C   UNL A   1      33.548  28.151  25.582  1.00  0.00    -0.045 A 
ATOM     19  C   UNL A   1      31.977  28.846  27.230  1.00  0.00     0.036 C 
ATOM     20  C   UNL A   1      34.358  28.887  26.602  1.00  0.00     0.036 C 
ATOM     21  C   UNL A   1      33.266  29.678  27.333  1.00  0.00     0.010 C 
ENDBRANCH  12  13
ENDBRANCH  11  12
ENDBRANCH   9  11
ENDBRANCH   6   7
BRANCH   6  22
ATOM     22  C   UNL A   1      32.060  21.046  22.672  1.00  0.00     0.191 C 
BRANCH  22  23
ATOM     23  O   UNL A   1      31.673  21.084  21.301  1.00  0.00    -0.394 OA
ATOM     24  H   UNL A   1      32.419  21.389  20.763  1.00  0.00     0.210 HD
ENDBRANCH  22  23
ENDBRANCH   6  22
ENDBRANCH   3   6
ENDBRANCH   1   2
BRANCH   1  25
ATOM     25  C   UNL A   1      35.417  23.218  26.256  1.00  0.00     0.042 C 
BRANCH  25  26
ATOM     26  C   UNL A   1      36.757  23.652  25.692  1.00  0.00     0.118 C 
BRANCH  26  27
ATOM     27  N   UNL A   1      37.808  22.665  25.913  1.00  0.00    -0.352 N 
ATOM     28  C   UNL A   1      39.091  22.831  26.368  1.00  0.00     0.251 C 
ATOM     29  H   UNL A   1      37.556  21.736  25.704  1.00  0.00     0.163 HD
ATOM     30  O   UNL A   1      39.883  21.889  26.302  1.00  0.00    -0.269 OA
BRANCH  28  31
ATOM     31  C   UNL A   1      39.530  24.130  26.919  1.00  0.00     0.039 A 
ATOM     32  C   UNL A   1      40.112  25.072  26.067  1.00  0.00     0.014 A 
ATOM     33  C   UNL A   1      39.387  24.416  28.278  1.00  0.00     0.014 A 
ATOM     34  C   UNL A   1      40.505  26.313  26.573  1.00  0.00     0.010 A 
ATOM     35  C   UNL A   1      39.661  25.691  28.752  1.00  0.00     0.010 A 
ATOM     36  C   UNL A   1      40.261  26.642  27.916  1.00  0.00    -0.014 A 
BRANCH  36  37
ATOM     37  C   UNL A   1      40.676  27.949  28.484  1.00  0.00     0.031 A 
ATOM     38  C   UNL A   1      42.140  28.253  28.676  1.00  0.00     0.074 A 
ATOM     39  C   UNL A   1      39.746  28.829  28.899  1.00  0.00     0.049 A 
ATOM     40  N   UNL A   1      42.702  29.310  29.200  1.00  0.00    -0.248 NA
ATOM     41  C   UNL A   1      43.098  27.213  28.261  1.00  0.00     0.031 C 
ATOM     42  C   UNL A   1      38.298  28.613  28.858  1.00  0.00     0.029 A 
ATOM     43  N   UNL A   1      39.881  30.073  29.460  1.00  0.00    -0.354 N 
ATOM     44  C   UNL A   1      44.067  29.046  29.213  1.00  0.00     0.074 A 
ATOM     45  C   UNL A   1      44.243  27.705  28.705  1.00  0.00     0.031 C 
ATOM     46  C   UNL A   1      37.679  29.689  29.366  1.00  0.00     0.029 A 
ATOM     47  C   UNL A   1      38.683  30.658  29.794  1.00  0.00     0.049 A 
ATOM     48  H   UNL A   1      40.752  30.505  29.611  1.00  0.00     0.167 HD
ATOM     49  C   UNL A   1      45.090  29.857  29.574  1.00  0.00     0.034 A 
ATOM     50  C   UNL A   1      38.422  31.842  30.384  1.00  0.00     0.034 A 
ATOM     51  C   UNL A   1      44.913  31.204  30.042  1.00  0.00     0.049 A 
ATOM     52  C   UNL A   1      39.567  32.755  30.723  1.00  0.00     0.074 A 
ATOM     53  C   UNL A   1      45.878  32.142  30.359  1.00  0.00     0.029 A 
ATOM     54  N   UNL A   1      43.683  31.804  30.269  1.00  0.00    -0.354 N 
ATOM     55  N   UNL A   1      40.856  32.547  30.589  1.00  0.00    -0.248 NA
ATOM     56  C   UNL A   1      39.225  34.083  31.251  1.00  0.00     0.031 C 
ATOM     57  C   UNL A   1      45.231  33.301  30.803  1.00  0.00     0.029 A 
ATOM     58  C   UNL A   1      43.863  33.098  30.723  1.00  0.00     0.049 A 
ATOM     59  H   UNL A   1      42.810  31.372  30.126  1.00  0.00     0.167 HD
ATOM     60  C   UNL A   1      41.476  33.730  30.977  1.00  0.00     0.074 A 
ATOM     61  C   UNL A   1      40.419  34.653  31.337  1.00  0.00     0.031 C 
ATOM     62  C   UNL A   1      42.799  34.021  31.036  1.00  0.00     0.034 A 
BRANCH  49  63
ATOM     63  C   UNL A   1      46.489  29.312  29.428  1.00  0.00     0.023 A 
ATOM     64  C   UNL A   1      47.032  28.491  30.440  1.00  0.00     0.012 A 
ATOM     65  C   UNL A   1      47.267  29.603  28.290  1.00  0.00     0.148 A 
ATOM     66  C   UNL A   1      48.341  28.021  30.354  1.00  0.00     0.002 A 
ATOM     67  C   UNL A   1      48.553  29.084  28.184  1.00  0.00     0.091 A 
ATOM     68  F   UNL A   1      46.749  30.400  27.345  1.00  0.00    -0.205 F 
ATOM     69  C   UNL A   1      49.097  28.310  29.222  1.00  0.00     0.022 A 
BRANCH  67  70
ATOM     70  S   UNL A   1      49.576  29.325  26.728  1.00  0.00     0.127 S 
ATOM     71  O   UNL A   1      48.825  28.588  25.714  1.00  0.00    -0.237 OA
ATOM     72  O   UNL A   1      49.549  30.780  26.571  1.00  0.00    -0.237 OA
ATOM     73  O   UNL A   1      50.883  28.778  27.063  1.00  0.00    -0.744 OA
ENDBRANCH  67  70
ENDBRANCH  49  63
BRANCH  50  74
ATOM     74  C   UNL A   1      37.009  32.247  30.623  1.00  0.00     0.023 A 
ATOM     75  C   UNL A   1      36.452  32.108  31.909  1.00  0.00     0.012 A 
ATOM     76  C   UNL A   1      36.236  32.823  29.597  1.00  0.00     0.148 A 
ATOM     77  C   UNL A   1      35.140  32.511  32.161  1.00  0.00     0.002 A 
ATOM     78  C   UNL A   1      34.952  33.275  29.869  1.00  0.00     0.091 A 
ATOM     79  F   UNL A   1      36.788  32.942  28.381  1.00  0.00    -0.205 F 
ATOM     80  C   UNL A   1      34.394  33.104  31.145  1.00  0.00     0.022 A 
BRANCH  78  81
ATOM     81  S   UNL A   1      33.969  34.173  28.663  1.00  0.00     0.127 S 
ATOM     82  O   UNL A   1      32.818  34.585  29.462  1.00  0.00    -0.237 OA
ATOM     83  O   UNL A   1      34.878  35.257  28.286  1.00  0.00    -0.237 OA
ATOM     84  O   UNL A   1      33.687  33.225  27.594  1.00  0.00    -0.744 OA
ENDBRANCH  78  81
ENDBRANCH  50  74
BRANCH  62  85
ATOM     85  C   UNL A   1      43.189  35.414  31.457  1.00  0.00     0.023 A 
ATOM     86  C   UNL A   1      43.390  35.714  32.819  1.00  0.00     0.012 A 
ATOM     87  C   UNL A   1      43.418  36.411  30.487  1.00  0.00     0.148 A 
ATOM     88  C   UNL A   1      43.773  36.997  33.212  1.00  0.00     0.002 A 
ATOM     89  C   UNL A   1      43.854  37.670  30.883  1.00  0.00     0.091 A 
ATOM     90  F   UNL A   1      43.204  36.112  29.199  1.00  0.00    -0.205 F 
ATOM     91  C   UNL A   1      44.017  37.969  32.244  1.00  0.00     0.022 A 
BRANCH  89  92
ATOM     92  S   UNL A   1      44.289  38.949  29.699  1.00  0.00     0.127 S 
ATOM     93  O   UNL A   1      44.428  40.119  30.563  1.00  0.00    -0.237 OA
ATOM     94  O   UNL A   1      45.548  38.446  29.148  1.00  0.00    -0.237 OA
ATOM     95  O   UNL A   1      43.191  39.001  28.743  1.00  0.00    -0.744 OA
ENDBRANCH  89  92
ENDBRANCH  62  85
ENDBRANCH  36  37
ENDBRANCH  28  31
ENDBRANCH  26  27
ENDBRANCH  25  26
ENDBRANCH   1  25
TORSDOF 19
ENDMDL
