MODEL 1
REMARK VINA RESULT:     -13.2      0.000      0.000
REMARK SMILES C[N@@H+]1CCN(C(=O)c2ccc3[nH]c4c(c3c2)CSCC4)C[C@H]1C(=O)NCCCNC(=O)c1ccc(-c2c3nc(c(-c4cccc(S(=O)(=O)[O-])c4F)c4ccc([nH]4)c(-c4cccc(S(=O)(=O)[O-])c4F)c4nc(c(-c5cccc(S(=O)(=O)[O-])c5F)c5ccc2[nH]5)C=C4)C=C3)cc1
REMARK SMILES IDX 27 1 26 2 25 3 23 4 24 5 22 7 1 8 2 9 3 10 4 12 21 13 5 14
REMARK SMILES IDX 6 15 7 16 8 17 9 18 16 19 10 20 15 21 11 22 14 23 12 24
REMARK SMILES IDX 13 25 17 26 20 28 18 29 19 30 28 31 29 32 30 33 31 35 32 36
REMARK SMILES IDX 33 37 94 38 34 39 93 40 35 41 36 42 37 43 87 44 38 45 92 46
REMARK SMILES IDX 86 47 88 48 39 49 91 50 85 51 84 52 40 54 72 55 52 56 71 57
REMARK SMILES IDX 53 58 56 59 70 60 89 61 54 62 55 63 69 65 90 66 57 67 41 68
REMARK SMILES IDX 42 69 50 70 43 71 45 72 51 73 44 74 46 75 47 76 48 77 49 78
REMARK SMILES IDX 73 79 74 80 82 81 75 82 77 83 83 84 76 85 78 86 79 87 80 88
REMARK SMILES IDX 81 89 58 90 59 91 67 92 60 93 62 94 68 95 61 96 63 97 64 98
REMARK SMILES IDX 65 99 66 100
REMARK H PARENT 25 6 2 11 12 27 29 34 88 53 56 64
REMARK Flexibility Score: inf
ROOT
ATOM      1  C   UNL A   1      38.186  22.125  25.382  1.00  0.00     0.042 C 
ENDROOT
BRANCH   1   2
ATOM      2  C   UNL A   1      36.939  21.280  25.142  1.00  0.00     0.118 C 
BRANCH   2   3
ATOM      3  N   UNL A   1      35.992  21.337  26.245  1.00  0.00    -0.351 N 
ATOM      4  C   UNL A   1      34.677  21.695  26.255  1.00  0.00     0.280 C 
ATOM      5  O   UNL A   1      34.078  21.643  27.336  1.00  0.00    -0.268 OA
ATOM      6  H   UNL A   1      36.358  21.075  27.120  1.00  0.00     0.163 HD
BRANCH   4   7
ATOM      7  C   UNL A   1      33.936  22.116  24.977  1.00  0.00     0.293 C 
ATOM      8  C   UNL A   1      32.681  20.024  24.803  1.00  0.00     0.333 C 
ATOM      9  N   UNL A   1      32.585  21.486  24.868  1.00  0.00    -0.324 N 
ATOM     10  C   UNL A   1      31.907  21.993  23.651  1.00  0.00     0.284 C 
ATOM     11  H   UNL A   1      32.049  21.731  25.700  1.00  0.00     0.348 HD
ATOM     12  C   UNL A   1      31.839  23.529  23.586  1.00  0.00     0.181 C 
ATOM     13  C   UNL A   1      33.919  23.658  24.897  1.00  0.00     0.195 C 
ATOM     14  N   UNL A   1      33.159  24.145  23.740  1.00  0.00    -0.326 N 
BRANCH  14  15
ATOM     15  C   UNL A   1      33.447  25.295  23.012  1.00  0.00     0.254 C 
ATOM     16  O   UNL A   1      34.024  25.293  21.927  1.00  0.00    -0.269 OA
BRANCH  15  17
ATOM     17  C   UNL A   1      33.022  26.603  23.550  1.00  0.00     0.040 A 
ATOM     18  C   UNL A   1      33.851  27.315  24.420  1.00  0.00     0.016 A 
ATOM     19  C   UNL A   1      31.786  27.120  23.136  1.00  0.00     0.024 A 
ATOM     20  C   UNL A   1      33.431  28.530  24.966  1.00  0.00     0.027 A 
ATOM     21  C   UNL A   1      31.358  28.357  23.656  1.00  0.00     0.004 A 
ATOM     22  C   UNL A   1      32.182  29.022  24.567  1.00  0.00     0.046 A 
ATOM     23  C   UNL A   1      30.201  29.174  23.449  1.00  0.00    -0.009 A 
ATOM     24  N   UNL A   1      31.532  30.177  24.936  1.00  0.00    -0.358 N 
ATOM     25  C   UNL A   1      30.364  30.298  24.238  1.00  0.00     0.021 A 
ATOM     26  C   UNL A   1      29.062  28.907  22.517  1.00  0.00     0.107 C 
ATOM     27  H   UNL A   1      31.859  30.820  25.606  1.00  0.00     0.166 HD
ATOM     28  C   UNL A   1      29.451  31.470  24.341  1.00  0.00     0.065 C 
ATOM     29  S   UNL A   1      27.680  30.103  22.678  1.00  0.00    -0.157 SA
ATOM     30  C   UNL A   1      28.631  31.620  23.057  1.00  0.00     0.076 C 
ENDBRANCH  15  17
ENDBRANCH  14  15
ENDBRANCH   4   7
ENDBRANCH   2   3
ENDBRANCH   1   2
BRANCH   1  31
ATOM     31  C   UNL A   1      39.238  21.480  26.285  1.00  0.00     0.118 C 
BRANCH  31  32
ATOM     32  N   UNL A   1      40.610  21.716  25.879  1.00  0.00    -0.352 N 
ATOM     33  C   UNL A   1      41.555  22.666  26.157  1.00  0.00     0.251 C 
ATOM     34  H   UNL A   1      40.940  21.031  25.255  1.00  0.00     0.163 HD
ATOM     35  O   UNL A   1      42.689  22.418  25.740  1.00  0.00    -0.269 OA
BRANCH  33  36
ATOM     36  C   UNL A   1      41.310  23.958  26.856  1.00  0.00     0.039 A 
ATOM     37  C   UNL A   1      40.290  24.860  26.557  1.00  0.00     0.014 A 
ATOM     38  C   UNL A   1      42.244  24.314  27.850  1.00  0.00     0.014 A 
ATOM     39  C   UNL A   1      40.257  26.113  27.163  1.00  0.00     0.010 A 
ATOM     40  C   UNL A   1      42.204  25.558  28.475  1.00  0.00     0.010 A 
ATOM     41  C   UNL A   1      41.233  26.478  28.097  1.00  0.00    -0.014 A 
BRANCH  41  42
ATOM     42  C   UNL A   1      41.142  27.813  28.684  1.00  0.00     0.031 A 
ATOM     43  C   UNL A   1      42.183  28.783  28.246  1.00  0.00     0.074 A 
ATOM     44  C   UNL A   1      40.174  28.214  29.532  1.00  0.00     0.049 A 
ATOM     45  N   UNL A   1      43.171  29.251  28.942  1.00  0.00    -0.248 NA
ATOM     46  C   UNL A   1      42.183  29.210  26.841  1.00  0.00     0.031 C 
ATOM     47  C   UNL A   1      38.925  27.537  29.883  1.00  0.00     0.029 A 
ATOM     48  N   UNL A   1      40.079  29.403  30.195  1.00  0.00    -0.354 N 
ATOM     49  C   UNL A   1      43.802  30.188  28.127  1.00  0.00     0.074 A 
ATOM     50  C   UNL A   1      43.238  30.026  26.810  1.00  0.00     0.031 C 
ATOM     51  C   UNL A   1      38.102  28.416  30.500  1.00  0.00     0.029 A 
ATOM     52  C   UNL A   1      38.818  29.661  30.719  1.00  0.00     0.049 A 
ATOM     53  H   UNL A   1      40.836  30.022  30.295  1.00  0.00     0.167 HD
ATOM     54  C   UNL A   1      44.607  31.164  28.631  1.00  0.00     0.034 A 
ATOM     55  C   UNL A   1      38.393  30.837  31.240  1.00  0.00     0.034 A 
ATOM     56  C   UNL A   1      44.977  30.917  29.996  1.00  0.00     0.049 A 
ATOM     57  C   UNL A   1      39.603  31.578  31.670  1.00  0.00     0.074 A 
ATOM     58  C   UNL A   1      45.646  29.918  30.672  1.00  0.00     0.029 A 
ATOM     59  N   UNL A   1      44.345  31.666  30.959  1.00  0.00    -0.354 N 
ATOM     60  N   UNL A   1      40.369  31.210  32.658  1.00  0.00    -0.248 NA
ATOM     61  C   UNL A   1      40.174  32.561  30.764  1.00  0.00     0.031 C 
ATOM     62  C   UNL A   1      44.990  29.830  31.934  1.00  0.00     0.029 A 
ATOM     63  C   UNL A   1      43.985  30.800  31.952  1.00  0.00     0.049 A 
ATOM     64  H   UNL A   1      44.183  32.636  30.937  1.00  0.00     0.167 HD
ATOM     65  C   UNL A   1      41.647  31.580  32.264  1.00  0.00     0.074 A 
ATOM     66  C   UNL A   1      41.450  32.505  31.153  1.00  0.00     0.031 C 
ATOM     67  C   UNL A   1      42.744  30.887  32.687  1.00  0.00     0.034 A 
BRANCH  54  68
ATOM     68  C   UNL A   1      44.812  32.527  28.021  1.00  0.00     0.023 A 
ATOM     69  C   UNL A   1      46.109  32.854  27.558  1.00  0.00     0.012 A 
ATOM     70  C   UNL A   1      43.889  33.586  28.155  1.00  0.00     0.148 A 
ATOM     71  C   UNL A   1      46.481  34.174  27.288  1.00  0.00     0.002 A 
ATOM     72  C   UNL A   1      44.244  34.888  27.819  1.00  0.00     0.091 A 
ATOM     73  F   UNL A   1      42.707  33.366  28.741  1.00  0.00    -0.205 F 
ATOM     74  C   UNL A   1      45.544  35.193  27.412  1.00  0.00     0.022 A 
BRANCH  72  75
ATOM     75  S   UNL A   1      43.061  36.235  27.935  1.00  0.00     0.127 S 
ATOM     76  O   UNL A   1      43.832  37.347  27.394  1.00  0.00    -0.237 OA
ATOM     77  O   UNL A   1      41.973  35.756  27.083  1.00  0.00    -0.237 OA
ATOM     78  O   UNL A   1      42.715  36.314  29.351  1.00  0.00    -0.744 OA
ENDBRANCH  72  75
ENDBRANCH  54  68
BRANCH  55  79
ATOM     79  C   UNL A   1      37.053  31.475  31.225  1.00  0.00     0.023 A 
ATOM     80  C   UNL A   1      36.574  32.097  32.398  1.00  0.00     0.012 A 
ATOM     81  C   UNL A   1      36.373  31.736  30.015  1.00  0.00     0.148 A 
ATOM     82  C   UNL A   1      35.496  32.989  32.359  1.00  0.00     0.002 A 
ATOM     83  C   UNL A   1      35.292  32.615  29.984  1.00  0.00     0.091 A 
ATOM     84  F   UNL A   1      36.842  31.206  28.878  1.00  0.00    -0.205 F 
ATOM     85  C   UNL A   1      34.861  33.256  31.151  1.00  0.00     0.022 A 
BRANCH  83  86
ATOM     86  S   UNL A   1      34.430  33.009  28.454  1.00  0.00     0.127 S 
ATOM     87  O   UNL A   1      33.467  34.019  28.894  1.00  0.00    -0.237 OA
ATOM     88  O   UNL A   1      35.514  33.521  27.619  1.00  0.00    -0.237 OA
ATOM     89  O   UNL A   1      33.823  31.761  28.013  1.00  0.00    -0.744 OA
ENDBRANCH  83  86
ENDBRANCH  55  79
BRANCH  67  90
ATOM     90  C   UNL A   1      42.584  29.892  33.804  1.00  0.00     0.023 A 
ATOM     91  C   UNL A   1      41.984  28.635  33.590  1.00  0.00     0.012 A 
ATOM     92  C   UNL A   1      43.274  30.132  35.004  1.00  0.00     0.148 A 
ATOM     93  C   UNL A   1      42.074  27.632  34.557  1.00  0.00     0.002 A 
ATOM     94  C   UNL A   1      43.399  29.118  35.944  1.00  0.00     0.091 A 
ATOM     95  F   UNL A   1      43.852  31.332  35.172  1.00  0.00    -0.205 F 
ATOM     96  C   UNL A   1      42.796  27.868  35.726  1.00  0.00     0.022 A 
BRANCH  94  97
ATOM     97  S   UNL A   1      44.424  29.298  37.406  1.00  0.00     0.127 S 
ATOM     98  O   UNL A   1      44.266  27.997  38.054  1.00  0.00    -0.237 OA
ATOM     99  O   UNL A   1      45.747  29.536  36.825  1.00  0.00    -0.237 OA
ATOM    100  O   UNL A   1      43.881  30.429  38.149  1.00  0.00    -0.744 OA
ENDBRANCH  94  97
ENDBRANCH  67  90
ENDBRANCH  41  42
ENDBRANCH  33  36
ENDBRANCH  31  32
ENDBRANCH   1  31
TORSDOF 15
ENDMDL
MODEL 2
REMARK VINA RESULT:     -13.0      2.051      2.735
REMARK SMILES C[N@@H+]1CCN(C(=O)c2ccc3[nH]c4c(c3c2)CSCC4)C[C@H]1C(=O)NCCCNC(=O)c1ccc(-c2c3nc(c(-c4cccc(S(=O)(=O)[O-])c4F)c4ccc([nH]4)c(-c4cccc(S(=O)(=O)[O-])c4F)c4nc(c(-c5cccc(S(=O)(=O)[O-])c5F)c5ccc2[nH]5)C=C4)C=C3)cc1
REMARK SMILES IDX 27 1 26 2 25 3 23 4 24 5 22 7 1 8 2 9 3 10 4 12 21 13 5 14
REMARK SMILES IDX 6 15 7 16 8 17 9 18 16 19 10 20 15 21 11 22 14 23 12 24
REMARK SMILES IDX 13 25 17 26 20 28 18 29 19 30 28 31 29 32 30 33 31 35 32 36
REMARK SMILES IDX 33 37 94 38 34 39 93 40 35 41 36 42 37 43 87 44 38 45 92 46
REMARK SMILES IDX 86 47 88 48 39 49 91 50 85 51 84 52 40 54 72 55 52 56 71 57
REMARK SMILES IDX 53 58 56 59 70 60 89 61 54 62 55 63 69 65 90 66 57 67 41 68
REMARK SMILES IDX 42 69 50 70 43 71 45 72 51 73 44 74 46 75 47 76 48 77 49 78
REMARK SMILES IDX 73 79 74 80 82 81 75 82 77 83 83 84 76 85 78 86 79 87 80 88
REMARK SMILES IDX 81 89 58 90 59 91 67 92 60 93 62 94 68 95 61 96 63 97 64 98
REMARK SMILES IDX 65 99 66 100
REMARK H PARENT 25 6 2 11 12 27 29 34 88 53 56 64
REMARK Flexibility Score: inf
ROOT
ATOM      1  C   UNL A   1      36.135  22.007  24.381  1.00  0.00     0.042 C 
ENDROOT
BRANCH   1   2
ATOM      2  C   UNL A   1      34.796  22.735  24.354  1.00  0.00     0.118 C 
BRANCH   2   3
ATOM      3  N   UNL A   1      34.423  23.194  23.025  1.00  0.00    -0.351 N 
ATOM      4  C   UNL A   1      33.524  24.144  22.645  1.00  0.00     0.280 C 
ATOM      5  O   UNL A   1      33.399  24.363  21.434  1.00  0.00    -0.268 OA
ATOM      6  H   UNL A   1      34.893  22.747  22.285  1.00  0.00     0.163 HD
BRANCH   4   7
ATOM      7  C   UNL A   1      32.712  24.955  23.666  1.00  0.00     0.293 C 
ATOM      8  C   UNL A   1      30.746  23.508  23.522  1.00  0.00     0.333 C 
ATOM      9  N   UNL A   1      31.737  24.111  24.420  1.00  0.00    -0.324 N 
ATOM     10  C   UNL A   1      31.046  24.946  25.430  1.00  0.00     0.284 C 
ATOM     11  H   UNL A   1      32.251  23.356  24.875  1.00  0.00     0.348 HD
ATOM     12  C   UNL A   1      32.012  25.693  26.367  1.00  0.00     0.181 C 
ATOM     13  C   UNL A   1      33.691  25.740  24.567  1.00  0.00     0.195 C 
ATOM     14  N   UNL A   1      32.996  26.484  25.624  1.00  0.00    -0.326 N 
BRANCH  14  15
ATOM     15  C   UNL A   1      33.399  27.709  26.147  1.00  0.00     0.254 C 
ATOM     16  O   UNL A   1      34.430  27.871  26.796  1.00  0.00    -0.269 OA
BRANCH  15  17
ATOM     17  C   UNL A   1      32.561  28.900  25.899  1.00  0.00     0.040 A 
ATOM     18  C   UNL A   1      32.696  30.040  26.694  1.00  0.00     0.016 A 
ATOM     19  C   UNL A   1      31.657  28.863  24.827  1.00  0.00     0.024 A 
ATOM     20  C   UNL A   1      31.873  31.150  26.490  1.00  0.00     0.027 A 
ATOM     21  C   UNL A   1      30.837  29.983  24.590  1.00  0.00     0.004 A 
ATOM     22  C   UNL A   1      30.955  31.090  25.436  1.00  0.00     0.046 A 
ATOM     23  C   UNL A   1      29.847  30.298  23.607  1.00  0.00    -0.009 A 
ATOM     24  N   UNL A   1      30.039  32.025  25.011  1.00  0.00    -0.358 N 
ATOM     25  C   UNL A   1      29.401  31.577  23.889  1.00  0.00     0.021 A 
ATOM     26  C   UNL A   1      29.413  29.446  22.456  1.00  0.00     0.107 C 
ATOM     27  H   UNL A   1      29.867  32.888  25.451  1.00  0.00     0.166 HD
ATOM     28  C   UNL A   1      28.399  32.373  23.128  1.00  0.00     0.065 C 
ATOM     29  S   UNL A   1      27.984  30.127  21.529  1.00  0.00    -0.157 SA
ATOM     30  C   UNL A   1      28.353  31.914  21.668  1.00  0.00     0.076 C 
ENDBRANCH  15  17
ENDBRANCH  14  15
ENDBRANCH   4   7
ENDBRANCH   2   3
ENDBRANCH   1   2
BRANCH   1  31
ATOM     31  C   UNL A   1      36.784  21.901  25.761  1.00  0.00     0.118 C 
BRANCH  31  32
ATOM     32  N   UNL A   1      38.158  21.435  25.749  1.00  0.00    -0.352 N 
ATOM     33  C   UNL A   1      39.341  21.890  26.262  1.00  0.00     0.251 C 
ATOM     34  H   UNL A   1      38.263  20.590  25.256  1.00  0.00     0.163 HD
ATOM     35  O   UNL A   1      40.287  21.101  26.182  1.00  0.00    -0.269 OA
BRANCH  33  36
ATOM     36  C   UNL A   1      39.577  23.243  26.840  1.00  0.00     0.039 A 
ATOM     37  C   UNL A   1      38.913  24.409  26.466  1.00  0.00     0.014 A 
ATOM     38  C   UNL A   1      40.614  23.340  27.790  1.00  0.00     0.014 A 
ATOM     39  C   UNL A   1      39.331  25.645  26.953  1.00  0.00     0.010 A 
ATOM     40  C   UNL A   1      41.022  24.571  28.297  1.00  0.00     0.010 A 
ATOM     41  C   UNL A   1      40.407  25.732  27.842  1.00  0.00    -0.014 A 
BRANCH  41  42
ATOM     42  C   UNL A   1      40.797  27.062  28.303  1.00  0.00     0.031 A 
ATOM     43  C   UNL A   1      42.126  27.545  27.835  1.00  0.00     0.074 A 
ATOM     44  C   UNL A   1      40.028  27.867  29.063  1.00  0.00     0.049 A 
ATOM     45  N   UNL A   1      43.205  27.694  28.535  1.00  0.00    -0.248 NA
ATOM     46  C   UNL A   1      42.301  27.800  26.400  1.00  0.00     0.031 C 
ATOM     47  C   UNL A   1      38.613  27.723  29.410  1.00  0.00     0.029 A 
ATOM     48  N   UNL A   1      40.360  29.072  29.614  1.00  0.00    -0.354 N 
ATOM     49  C   UNL A   1      44.145  28.255  27.673  1.00  0.00     0.074 A 
ATOM     50  C   UNL A   1      43.580  28.175  26.349  1.00  0.00     0.031 C 
ATOM     51  C   UNL A   1      38.156  28.896  29.904  1.00  0.00     0.029 A 
ATOM     52  C   UNL A   1      39.271  29.816  30.049  1.00  0.00     0.049 A 
ATOM     53  H   UNL A   1      41.289  29.384  29.696  1.00  0.00     0.167 HD
ATOM     54  C   UNL A   1      45.242  28.922  28.129  1.00  0.00     0.034 A 
ATOM     55  C   UNL A   1      39.294  31.113  30.442  1.00  0.00     0.034 A 
ATOM     56  C   UNL A   1      45.477  28.698  29.528  1.00  0.00     0.049 A 
ATOM     57  C   UNL A   1      40.683  31.409  30.865  1.00  0.00     0.074 A 
ATOM     58  C   UNL A   1      45.728  27.598  30.322  1.00  0.00     0.029 A 
ATOM     59  N   UNL A   1      45.145  29.716  30.387  1.00  0.00    -0.354 N 
ATOM     60  N   UNL A   1      41.249  30.892  31.919  1.00  0.00    -0.248 NA
ATOM     61  C   UNL A   1      41.585  32.025  29.905  1.00  0.00     0.031 C 
ATOM     62  C   UNL A   1      45.066  27.879  31.552  1.00  0.00     0.029 A 
ATOM     63  C   UNL A   1      44.481  29.141  31.434  1.00  0.00     0.049 A 
ATOM     64  H   UNL A   1      45.345  30.672  30.272  1.00  0.00     0.167 HD
ATOM     65  C   UNL A   1      42.580  30.736  31.558  1.00  0.00     0.074 A 
ATOM     66  C   UNL A   1      42.748  31.554  30.362  1.00  0.00     0.031 C 
ATOM     67  C   UNL A   1      43.345  29.742  32.095  1.00  0.00     0.034 A 
BRANCH  54  68
ATOM     68  C   UNL A   1      45.936  30.052  27.412  1.00  0.00     0.023 A 
ATOM     69  C   UNL A   1      47.340  30.159  27.554  1.00  0.00     0.012 A 
ATOM     70  C   UNL A   1      45.256  31.162  26.869  1.00  0.00     0.148 A 
ATOM     71  C   UNL A   1      48.024  31.331  27.216  1.00  0.00     0.002 A 
ATOM     72  C   UNL A   1      45.951  32.299  26.470  1.00  0.00     0.091 A 
ATOM     73  F   UNL A   1      43.918  31.183  26.862  1.00  0.00    -0.205 F 
ATOM     74  C   UNL A   1      47.330  32.400  26.666  1.00  0.00     0.022 A 
BRANCH  72  75
ATOM     75  S   UNL A   1      45.102  33.697  25.727  1.00  0.00     0.127 S 
ATOM     76  O   UNL A   1      46.223  34.532  25.312  1.00  0.00    -0.237 OA
ATOM     77  O   UNL A   1      44.361  33.059  24.639  1.00  0.00    -0.237 OA
ATOM     78  O   UNL A   1      44.254  34.232  26.788  1.00  0.00    -0.744 OA
ENDBRANCH  72  75
ENDBRANCH  54  68
BRANCH  55  79
ATOM     79  C   UNL A   1      38.276  32.184  30.303  1.00  0.00     0.023 A 
ATOM     80  C   UNL A   1      37.730  32.453  29.030  1.00  0.00     0.012 A 
ATOM     81  C   UNL A   1      37.627  32.737  31.430  1.00  0.00     0.148 A 
ATOM     82  C   UNL A   1      36.551  33.194  28.887  1.00  0.00     0.002 A 
ATOM     83  C   UNL A   1      36.461  33.486  31.281  1.00  0.00     0.091 A 
ATOM     84  F   UNL A   1      38.090  32.450  32.653  1.00  0.00    -0.205 F 
ATOM     85  C   UNL A   1      35.912  33.703  30.012  1.00  0.00     0.022 A 
BRANCH  83  86
ATOM     86  S   UNL A   1      35.581  34.167  32.694  1.00  0.00     0.127 S 
ATOM     87  O   UNL A   1      34.449  34.841  32.057  1.00  0.00    -0.237 OA
ATOM     88  O   UNL A   1      35.232  32.962  33.443  1.00  0.00    -0.237 OA
ATOM     89  O   UNL A   1      36.521  35.070  33.345  1.00  0.00    -0.744 OA
ENDBRANCH  83  86
ENDBRANCH  55  79
BRANCH  67  90
ATOM     90  C   UNL A   1      42.819  28.988  33.286  1.00  0.00     0.023 A 
ATOM     91  C   UNL A   1      41.853  27.971  33.146  1.00  0.00     0.012 A 
ATOM     92  C   UNL A   1      43.493  29.136  34.510  1.00  0.00     0.148 A 
ATOM     93  C   UNL A   1      41.568  27.113  34.210  1.00  0.00     0.002 A 
ATOM     94  C   UNL A   1      43.238  28.253  35.550  1.00  0.00     0.091 A 
ATOM     95  F   UNL A   1      44.420  30.101  34.608  1.00  0.00    -0.205 F 
ATOM     96  C   UNL A   1      42.272  27.244  35.406  1.00  0.00     0.022 A 
BRANCH  94  97
ATOM     97  S   UNL A   1      44.197  28.269  37.067  1.00  0.00     0.127 S 
ATOM     98  O   UNL A   1      43.595  27.171  37.822  1.00  0.00    -0.237 OA
ATOM     99  O   UNL A   1      45.551  28.005  36.576  1.00  0.00    -0.237 OA
ATOM    100  O   UNL A   1      44.017  29.593  37.651  1.00  0.00    -0.744 OA
ENDBRANCH  94  97
ENDBRANCH  67  90
ENDBRANCH  41  42
ENDBRANCH  33  36
ENDBRANCH  31  32
ENDBRANCH   1  31
TORSDOF 15
ENDMDL
MODEL 3
REMARK VINA RESULT:     -12.0      4.411      8.721
REMARK SMILES C[N@@H+]1CCN(C(=O)c2ccc3[nH]c4c(c3c2)CSCC4)C[C@H]1C(=O)NCCCNC(=O)c1ccc(-c2c3nc(c(-c4cccc(S(=O)(=O)[O-])c4F)c4ccc([nH]4)c(-c4cccc(S(=O)(=O)[O-])c4F)c4nc(c(-c5cccc(S(=O)(=O)[O-])c5F)c5ccc2[nH]5)C=C4)C=C3)cc1
REMARK SMILES IDX 27 1 26 2 25 3 23 4 24 5 22 7 1 8 2 9 3 10 4 12 21 13 5 14
REMARK SMILES IDX 6 15 7 16 8 17 9 18 16 19 10 20 15 21 11 22 14 23 12 24
REMARK SMILES IDX 13 25 17 26 20 28 18 29 19 30 28 31 29 32 30 33 31 35 32 36
REMARK SMILES IDX 33 37 94 38 34 39 93 40 35 41 36 42 37 43 87 44 38 45 92 46
REMARK SMILES IDX 86 47 88 48 39 49 91 50 85 51 84 52 40 54 72 55 52 56 71 57
REMARK SMILES IDX 53 58 56 59 70 60 89 61 54 62 55 63 69 65 90 66 57 67 41 68
REMARK SMILES IDX 42 69 50 70 43 71 45 72 51 73 44 74 46 75 47 76 48 77 49 78
REMARK SMILES IDX 73 79 74 80 82 81 75 82 77 83 83 84 76 85 78 86 79 87 80 88
REMARK SMILES IDX 81 89 58 90 59 91 67 92 60 93 62 94 68 95 61 96 63 97 64 98
REMARK SMILES IDX 65 99 66 100
REMARK H PARENT 25 6 2 11 12 27 29 34 88 53 56 64
REMARK Flexibility Score: inf
ROOT
ATOM      1  C   UNL A   1      44.329  22.732  25.779  1.00  0.00     0.042 C 
ENDROOT
BRANCH   1   2
ATOM      2  C   UNL A   1      45.398  23.681  25.248  1.00  0.00     0.118 C 
BRANCH   2   3
ATOM      3  N   UNL A   1      44.895  25.023  24.997  1.00  0.00    -0.351 N 
ATOM      4  C   UNL A   1      45.393  26.233  25.378  1.00  0.00     0.280 C 
ATOM      5  O   UNL A   1      44.779  27.243  25.018  1.00  0.00    -0.268 OA
ATOM      6  H   UNL A   1      44.066  25.062  24.469  1.00  0.00     0.163 HD
BRANCH   4   7
ATOM      7  C   UNL A   1      46.691  26.362  26.191  1.00  0.00     0.293 C 
ATOM      8  C   UNL A   1      48.125  26.508  24.217  1.00  0.00     0.333 C 
ATOM      9  N   UNL A   1      47.736  27.153  25.475  1.00  0.00    -0.324 N 
ATOM     10  C   UNL A   1      48.926  27.293  26.348  1.00  0.00     0.284 C 
ATOM     11  H   UNL A   1      47.349  28.071  25.254  1.00  0.00     0.348 HD
ATOM     12  C   UNL A   1      48.599  27.881  27.733  1.00  0.00     0.181 C 
ATOM     13  C   UNL A   1      46.343  26.905  27.595  1.00  0.00     0.195 C 
ATOM     14  N   UNL A   1      47.541  27.131  28.413  1.00  0.00    -0.326 N 
BRANCH  14  15
ATOM     15  C   UNL A   1      47.616  26.975  29.793  1.00  0.00     0.254 C 
ATOM     16  O   UNL A   1      48.443  27.542  30.504  1.00  0.00    -0.269 OA
BRANCH  15  17
ATOM     17  C   UNL A   1      46.638  26.094  30.465  1.00  0.00     0.040 A 
ATOM     18  C   UNL A   1      45.757  25.312  29.715  1.00  0.00     0.016 A 
ATOM     19  C   UNL A   1      46.644  26.045  31.866  1.00  0.00     0.024 A 
ATOM     20  C   UNL A   1      44.801  24.514  30.348  1.00  0.00     0.027 A 
ATOM     21  C   UNL A   1      45.705  25.225  32.522  1.00  0.00     0.004 A 
ATOM     22  C   UNL A   1      44.799  24.494  31.748  1.00  0.00     0.046 A 
ATOM     23  C   UNL A   1      45.441  24.919  33.894  1.00  0.00    -0.009 A 
ATOM     24  N   UNL A   1      43.985  23.806  32.618  1.00  0.00    -0.358 N 
ATOM     25  C   UNL A   1      44.390  24.020  33.905  1.00  0.00     0.021 A 
ATOM     26  C   UNL A   1      46.187  25.418  35.091  1.00  0.00     0.107 C 
ATOM     27  H   UNL A   1      43.222  23.243  32.352  1.00  0.00     0.166 HD
ATOM     28  C   UNL A   1      43.772  23.366  35.091  1.00  0.00     0.065 C 
ATOM     29  S   UNL A   1      45.424  24.944  36.690  1.00  0.00    -0.157 SA
ATOM     30  C   UNL A   1      44.779  23.290  36.242  1.00  0.00     0.076 C 
ENDBRANCH  15  17
ENDBRANCH  14  15
ENDBRANCH   4   7
ENDBRANCH   2   3
ENDBRANCH   1   2
BRANCH   1  31
ATOM     31  C   UNL A   1      43.042  22.685  24.956  1.00  0.00     0.118 C 
BRANCH  31  32
ATOM     32  N   UNL A   1      41.941  21.991  25.594  1.00  0.00    -0.352 N 
ATOM     33  C   UNL A   1      40.894  22.360  26.393  1.00  0.00     0.251 C 
ATOM     34  H   UNL A   1      41.947  21.025  25.408  1.00  0.00     0.163 HD
ATOM     35  O   UNL A   1      40.051  21.482  26.595  1.00  0.00    -0.269 OA
BRANCH  33  36
ATOM     36  C   UNL A   1      40.731  23.683  27.059  1.00  0.00     0.039 A 
ATOM     37  C   UNL A   1      39.769  24.638  26.738  1.00  0.00     0.014 A 
ATOM     38  C   UNL A   1      41.689  24.005  28.042  1.00  0.00     0.014 A 
ATOM     39  C   UNL A   1      39.816  25.906  27.311  1.00  0.00     0.010 A 
ATOM     40  C   UNL A   1      41.728  25.265  28.635  1.00  0.00     0.010 A 
ATOM     41  C   UNL A   1      40.815  26.233  28.234  1.00  0.00    -0.014 A 
BRANCH  41  42
ATOM     42  C   UNL A   1      40.809  27.586  28.786  1.00  0.00     0.031 A 
ATOM     43  C   UNL A   1      41.809  28.525  28.206  1.00  0.00     0.074 A 
ATOM     44  C   UNL A   1      39.947  28.028  29.724  1.00  0.00     0.049 A 
ATOM     45  N   UNL A   1      42.874  28.995  28.774  1.00  0.00    -0.248 NA
ATOM     46  C   UNL A   1      41.658  28.911  26.798  1.00  0.00     0.031 C 
ATOM     47  C   UNL A   1      38.735  27.384  30.232  1.00  0.00     0.029 A 
ATOM     48  N   UNL A   1      39.943  29.238  30.357  1.00  0.00    -0.354 N 
ATOM     49  C   UNL A   1      43.424  29.898  27.866  1.00  0.00     0.074 A 
ATOM     50  C   UNL A   1      42.714  29.707  26.625  1.00  0.00     0.031 C 
ATOM     51  C   UNL A   1      37.999  28.295  30.909  1.00  0.00     0.029 A 
ATOM     52  C   UNL A   1      38.753  29.532  31.009  1.00  0.00     0.049 A 
ATOM     53  H   UNL A   1      40.716  29.846  30.353  1.00  0.00     0.167 HD
ATOM     54  C   UNL A   1      44.294  30.873  28.247  1.00  0.00     0.034 A 
ATOM     55  C   UNL A   1      38.405  30.731  31.538  1.00  0.00     0.034 A 
ATOM     56  C   UNL A   1      44.810  30.660  29.570  1.00  0.00     0.049 A 
ATOM     57  C   UNL A   1      39.666  31.462  31.808  1.00  0.00     0.074 A 
ATOM     58  C   UNL A   1      45.536  29.668  30.198  1.00  0.00     0.029 A 
ATOM     59  N   UNL A   1      44.300  31.447  30.573  1.00  0.00    -0.354 N 
ATOM     60  N   UNL A   1      40.532  31.110  32.716  1.00  0.00    -0.248 NA
ATOM     61  C   UNL A   1      40.147  32.408  30.814  1.00  0.00     0.031 C 
ATOM     62  C   UNL A   1      45.023  29.628  31.527  1.00  0.00     0.029 A 
ATOM     63  C   UNL A   1      44.041  30.616  31.627  1.00  0.00     0.049 A 
ATOM     64  H   UNL A   1      44.150  32.419  30.540  1.00  0.00     0.167 HD
ATOM     65  C   UNL A   1      41.763  31.445  32.172  1.00  0.00     0.074 A 
ATOM     66  C   UNL A   1      41.457  32.342  31.062  1.00  0.00     0.031 C 
ATOM     67  C   UNL A   1      42.890  30.746  32.491  1.00  0.00     0.034 A 
BRANCH  54  68
ATOM     68  C   UNL A   1      44.449  32.214  27.577  1.00  0.00     0.023 A 
ATOM     69  C   UNL A   1      45.600  32.423  26.779  1.00  0.00     0.012 A 
ATOM     70  C   UNL A   1      43.693  33.352  27.930  1.00  0.00     0.148 A 
ATOM     71  C   UNL A   1      46.001  33.706  26.393  1.00  0.00     0.002 A 
ATOM     72  C   UNL A   1      44.059  34.618  27.485  1.00  0.00     0.091 A 
ATOM     73  F   UNL A   1      42.695  33.238  28.813  1.00  0.00    -0.205 F 
ATOM     74  C   UNL A   1      45.226  34.805  26.741  1.00  0.00     0.022 A 
BRANCH  72  75
ATOM     75  S   UNL A   1      43.075  36.066  27.883  1.00  0.00     0.127 S 
ATOM     76  O   UNL A   1      43.268  36.163  29.325  1.00  0.00    -0.237 OA
ATOM     77  O   UNL A   1      43.734  37.107  27.093  1.00  0.00    -0.237 OA
ATOM     78  O   UNL A   1      41.725  35.744  27.430  1.00  0.00    -0.744 OA
ENDBRANCH  72  75
ENDBRANCH  54  68
BRANCH  55  79
ATOM     79  C   UNL A   1      37.081  31.391  31.652  1.00  0.00     0.023 A 
ATOM     80  C   UNL A   1      36.623  31.799  32.923  1.00  0.00     0.012 A 
ATOM     81  C   UNL A   1      36.401  31.884  30.516  1.00  0.00     0.148 A 
ATOM     82  C   UNL A   1      35.567  32.708  33.058  1.00  0.00     0.002 A 
ATOM     83  C   UNL A   1      35.341  32.778  30.656  1.00  0.00     0.091 A 
ATOM     84  F   UNL A   1      36.851  31.559  29.298  1.00  0.00    -0.205 F 
ATOM     85  C   UNL A   1      34.933  33.205  31.925  1.00  0.00     0.022 A 
BRANCH  83  86
ATOM     86  S   UNL A   1      34.482  33.464  29.232  1.00  0.00     0.127 S 
ATOM     87  O   UNL A   1      34.022  32.260  28.540  1.00  0.00    -0.237 OA
ATOM     88  O   UNL A   1      33.423  34.247  29.865  1.00  0.00    -0.237 OA
ATOM     89  O   UNL A   1      35.483  34.227  28.499  1.00  0.00    -0.744 OA
ENDBRANCH  83  86
ENDBRANCH  55  79
BRANCH  67  90
ATOM     90  C   UNL A   1      42.842  29.786  33.649  1.00  0.00     0.023 A 
ATOM     91  C   UNL A   1      42.498  28.431  33.469  1.00  0.00     0.012 A 
ATOM     92  C   UNL A   1      43.395  30.201  34.872  1.00  0.00     0.148 A 
ATOM     93  C   UNL A   1      42.705  27.504  34.492  1.00  0.00     0.002 A 
ATOM     94  C   UNL A   1      43.641  29.268  35.870  1.00  0.00     0.091 A 
ATOM     95  F   UNL A   1      43.730  31.493  35.009  1.00  0.00    -0.205 F 
ATOM     96  C   UNL A   1      43.292  27.920  35.686  1.00  0.00     0.022 A 
BRANCH  94  97
ATOM     97  S   UNL A   1      44.517  29.697  37.377  1.00  0.00     0.127 S 
ATOM     98  O   UNL A   1      43.585  30.622  38.021  1.00  0.00    -0.237 OA
ATOM     99  O   UNL A   1      44.644  28.397  38.038  1.00  0.00    -0.237 OA
ATOM    100  O   UNL A   1      45.783  30.286  36.960  1.00  0.00    -0.744 OA
ENDBRANCH  94  97
ENDBRANCH  67  90
ENDBRANCH  41  42
ENDBRANCH  33  36
ENDBRANCH  31  32
ENDBRANCH   1  31
TORSDOF 15
ENDMDL
