MODEL 1
REMARK VINA RESULT:     -13.3      0.000      0.000
REMARK SMILES Cc1ccc(S(=O)(=O)n2cc(C(=O)C(=O)N[C@@H](Cc3cnc[nH]3)C(=O)NCCCNC(=O)c3ccc(-c4c5nc(c(-c6cccc(S(=O)(=O)[O-])c6F)c6ccc([nH]6)c(-c6cccc(S(=O)(=O)[O-])c6F)c6nc(c(-c7cccc(S(=O)(=O)[O-])c7F)c7ccc4[nH]7)C=C6)C=C5)cc3)c3ccccc32)cc1
REMARK SMILES IDX 27 1 26 2 24 3 25 4 17 6 16 7 14 8 15 9 12 11 13 12 11 13
REMARK SMILES IDX 9 14 10 15 101 16 96 17 100 18 97 19 99 20 98 21 6 22 7 23
REMARK SMILES IDX 8 24 5 25 1 26 2 27 3 28 103 29 4 30 102 31 18 32 19 33
REMARK SMILES IDX 20 34 23 35 21 36 22 37 28 39 29 40 30 41 31 42 32 44 33 45
REMARK SMILES IDX 34 46 95 47 35 48 94 49 36 50 37 51 38 52 88 53 39 54 93 55
REMARK SMILES IDX 87 56 89 57 40 58 92 59 86 60 85 61 41 63 73 64 53 65 72 66
REMARK SMILES IDX 54 67 57 68 71 69 90 70 55 71 56 72 70 74 91 75 58 76 42 77
REMARK SMILES IDX 43 78 51 79 44 80 46 81 52 82 45 83 47 84 48 85 49 86 50 87
REMARK SMILES IDX 74 88 75 89 83 90 76 91 78 92 84 93 77 94 79 95 80 96 81 97
REMARK SMILES IDX 82 98 59 99 60 100 68 101 61 102 63 103 69 104 62 105 64 106
REMARK SMILES IDX 65 107 66 108 67 109
REMARK H PARENT 26 5 16 10 23 38 30 43 89 62 57 73
REMARK Flexibility Score: inf
ROOT
ATOM      1  C   UNL A   1      34.089  30.097  26.803  1.00  0.00     0.117 C 
ENDROOT
BRANCH   1   2
ATOM      2  N   UNL A   1      34.115  29.479  25.505  1.00  0.00    -0.354 N 
ATOM      3  C   UNL A   1      33.046  29.329  24.664  1.00  0.00     0.242 C 
ATOM      4  O   UNL A   1      33.271  29.255  23.453  1.00  0.00    -0.273 OA
ATOM      5  H   UNL A   1      34.982  29.133  25.191  1.00  0.00     0.163 HD
BRANCH   3   6
ATOM      6  C   UNL A   1      31.585  29.336  25.197  1.00  0.00     0.177 C 
BRANCH   6   7
ATOM      7  N   UNL A   1      31.529  28.928  26.615  1.00  0.00    -0.337 N 
ATOM      8  C   UNL A   1      31.449  27.671  27.186  1.00  0.00     0.293 C 
ATOM      9  O   UNL A   1      31.667  27.567  28.389  1.00  0.00    -0.265 OA
ATOM     10  H   UNL A   1      31.552  29.672  27.259  1.00  0.00     0.164 HD
BRANCH   8  11
ATOM     11  C   UNL A   1      31.044  26.425  26.358  1.00  0.00     0.252 C 
ATOM     12  O   UNL A   1      29.924  25.954  26.520  1.00  0.00    -0.283 OA
BRANCH  11  13
ATOM     13  C   UNL A   1      31.969  25.749  25.432  1.00  0.00     0.054 A 
ATOM     14  N   UNL A   1      33.557  24.459  24.537  1.00  0.00    -0.240 N 
ATOM     15  C   UNL A   1      33.010  24.886  25.722  1.00  0.00     0.117 A 
ATOM     16  C   UNL A   1      32.913  25.022  23.456  1.00  0.00     0.065 A 
ATOM     17  C   UNL A   1      31.938  25.871  23.993  1.00  0.00     0.012 A 
ATOM     18  C   UNL A   1      33.099  24.895  22.065  1.00  0.00     0.028 A 
ATOM     19  C   UNL A   1      31.146  26.630  23.102  1.00  0.00     0.011 A 
ATOM     20  C   UNL A   1      32.304  25.670  21.215  1.00  0.00     0.002 A 
ATOM     21  C   UNL A   1      31.344  26.531  21.725  1.00  0.00     0.001 A 
BRANCH  14  22
ATOM     22  S   UNL A   1      34.875  23.386  24.429  1.00  0.00     0.268 S 
ATOM     23  O   UNL A   1      35.626  23.584  25.649  1.00  0.00    -0.201 OA
ATOM     24  O   UNL A   1      35.468  23.611  23.119  1.00  0.00    -0.201 OA
BRANCH  22  25
ATOM     25  C   UNL A   1      34.246  21.728  24.446  1.00  0.00     0.088 A 
ATOM     26  C   UNL A   1      32.602  17.769  24.091  1.00  0.00     0.044 C 
ATOM     27  C   UNL A   1      33.173  19.149  24.235  1.00  0.00    -0.051 A 
ATOM     28  C   UNL A   1      32.406  20.263  23.873  1.00  0.00     0.005 A 
ATOM     29  C   UNL A   1      34.467  19.342  24.737  1.00  0.00     0.005 A 
ATOM     30  C   UNL A   1      32.941  21.548  23.971  1.00  0.00     0.022 A 
ATOM     31  C   UNL A   1      35.001  20.628  24.856  1.00  0.00     0.022 A 
ENDBRANCH  22  25
ENDBRANCH  14  22
ENDBRANCH  11  13
ENDBRANCH   8  11
ENDBRANCH   6   7
BRANCH   6  32
ATOM     32  C   UNL A   1      30.719  30.572  24.835  1.00  0.00     0.090 C 
BRANCH  32  33
ATOM     33  C   UNL A   1      29.820  30.492  23.642  1.00  0.00     0.037 A 
ATOM     34  C   UNL A   1      28.482  30.791  23.461  1.00  0.00     0.134 A 
ATOM     35  N   UNL A   1      30.264  30.144  22.382  1.00  0.00    -0.348 N 
ATOM     36  N   UNL A   1      28.153  30.756  22.131  1.00  0.00    -0.245 NA
ATOM     37  C   UNL A   1      29.242  30.381  21.504  1.00  0.00     0.196 A 
ATOM     38  H   UNL A   1      31.154  29.789  22.157  1.00  0.00     0.167 HD
ENDBRANCH  32  33
ENDBRANCH   6  32
ENDBRANCH   3   6
ENDBRANCH   1   2
BRANCH   1  39
ATOM     39  C   UNL A   1      35.416  30.344  27.465  1.00  0.00     0.042 C 
BRANCH  39  40
ATOM     40  C   UNL A   1      35.210  31.083  28.751  1.00  0.00     0.118 C 
BRANCH  40  41
ATOM     41  N   UNL A   1      34.578  32.380  28.596  1.00  0.00    -0.352 N 
ATOM     42  C   UNL A   1      34.820  33.553  29.290  1.00  0.00     0.251 C 
ATOM     43  H   UNL A   1      33.882  32.434  27.900  1.00  0.00     0.163 HD
ATOM     44  O   UNL A   1      34.031  34.481  29.131  1.00  0.00    -0.269 OA
BRANCH  42  45
ATOM     45  C   UNL A   1      36.096  33.739  30.046  1.00  0.00     0.039 A 
ATOM     46  C   UNL A   1      37.237  33.965  29.272  1.00  0.00     0.014 A 
ATOM     47  C   UNL A   1      36.243  33.156  31.292  1.00  0.00     0.014 A 
ATOM     48  C   UNL A   1      38.397  33.264  29.567  1.00  0.00     0.010 A 
ATOM     49  C   UNL A   1      37.251  32.253  31.439  1.00  0.00     0.010 A 
ATOM     50  C   UNL A   1      38.321  32.295  30.547  1.00  0.00    -0.014 A 
BRANCH  50  51
ATOM     51  C   UNL A   1      39.379  31.415  30.965  1.00  0.00     0.031 A 
ATOM     52  C   UNL A   1      39.382  30.099  30.303  1.00  0.00     0.074 A 
ATOM     53  C   UNL A   1      40.456  32.011  31.517  1.00  0.00     0.049 A 
ATOM     54  N   UNL A   1      40.280  29.210  30.486  1.00  0.00    -0.248 NA
ATOM     55  C   UNL A   1      38.359  29.691  29.335  1.00  0.00     0.031 C 
ATOM     56  C   UNL A   1      41.855  31.618  31.437  1.00  0.00     0.029 A 
ATOM     57  N   UNL A   1      40.474  33.080  32.399  1.00  0.00    -0.354 N 
ATOM     58  C   UNL A   1      40.126  28.250  29.505  1.00  0.00     0.074 A 
ATOM     59  C   UNL A   1      38.879  28.556  28.858  1.00  0.00     0.031 C 
ATOM     60  C   UNL A   1      42.548  32.253  32.401  1.00  0.00     0.029 A 
ATOM     61  C   UNL A   1      41.578  32.933  33.245  1.00  0.00     0.049 A 
ATOM     62  H   UNL A   1      39.820  33.816  32.426  1.00  0.00     0.167 HD
ATOM     63  C   UNL A   1      41.165  27.397  29.302  1.00  0.00     0.034 A 
ATOM     64  C   UNL A   1      41.358  32.627  34.565  1.00  0.00     0.034 A 
ATOM     65  C   UNL A   1      42.200  27.663  30.312  1.00  0.00     0.049 A 
ATOM     66  C   UNL A   1      41.765  31.200  34.913  1.00  0.00     0.074 A 
ATOM     67  C   UNL A   1      43.333  28.459  30.311  1.00  0.00     0.029 A 
ATOM     68  N   UNL A   1      41.909  27.387  31.640  1.00  0.00    -0.354 N 
ATOM     69  N   UNL A   1      42.037  30.281  34.025  1.00  0.00    -0.248 NA
ATOM     70  C   UNL A   1      41.964  30.710  36.274  1.00  0.00     0.031 C 
ATOM     71  C   UNL A   1      43.664  28.739  31.669  1.00  0.00     0.029 A 
ATOM     72  C   UNL A   1      42.752  28.090  32.486  1.00  0.00     0.049 A 
ATOM     73  H   UNL A   1      41.199  26.775  31.940  1.00  0.00     0.167 HD
ATOM     74  C   UNL A   1      42.369  29.103  34.636  1.00  0.00     0.074 A 
ATOM     75  C   UNL A   1      42.355  29.441  36.050  1.00  0.00     0.031 C 
ATOM     76  C   UNL A   1      42.600  27.950  33.930  1.00  0.00     0.034 A 
BRANCH  63  77
ATOM     77  C   UNL A   1      41.399  26.476  28.122  1.00  0.00     0.023 A 
ATOM     78  C   UNL A   1      41.136  27.032  26.849  1.00  0.00     0.012 A 
ATOM     79  C   UNL A   1      41.816  25.124  28.133  1.00  0.00     0.148 A 
ATOM     80  C   UNL A   1      41.229  26.298  25.665  1.00  0.00     0.002 A 
ATOM     81  C   UNL A   1      41.898  24.380  26.947  1.00  0.00     0.091 A 
ATOM     82  F   UNL A   1      42.170  24.540  29.278  1.00  0.00    -0.205 F 
ATOM     83  C   UNL A   1      41.601  24.967  25.713  1.00  0.00     0.022 A 
BRANCH  81  84
ATOM     84  S   UNL A   1      42.358  22.637  26.902  1.00  0.00     0.127 S 
ATOM     85  O   UNL A   1      43.731  22.671  27.409  1.00  0.00    -0.237 OA
ATOM     86  O   UNL A   1      41.391  22.032  27.816  1.00  0.00    -0.237 OA
ATOM     87  O   UNL A   1      42.244  22.215  25.512  1.00  0.00    -0.744 OA
ENDBRANCH  81  84
ENDBRANCH  63  77
BRANCH  64  88
ATOM     88  C   UNL A   1      40.189  33.405  35.105  1.00  0.00     0.023 A 
ATOM     89  C   UNL A   1      38.928  32.768  34.962  1.00  0.00     0.012 A 
ATOM     90  C   UNL A   1      40.348  34.357  36.130  1.00  0.00     0.148 A 
ATOM     91  C   UNL A   1      37.951  32.883  35.952  1.00  0.00     0.002 A 
ATOM     92  C   UNL A   1      39.346  34.498  37.094  1.00  0.00     0.091 A 
ATOM     93  F   UNL A   1      41.492  35.050  36.191  1.00  0.00    -0.205 F 
ATOM     94  C   UNL A   1      38.184  33.707  37.046  1.00  0.00     0.022 A 
BRANCH  92  95
ATOM     95  S   UNL A   1      39.515  35.617  38.493  1.00  0.00     0.127 S 
ATOM     96  O   UNL A   1      38.421  35.178  39.354  1.00  0.00    -0.237 OA
ATOM     97  O   UNL A   1      40.849  35.300  39.001  1.00  0.00    -0.237 OA
ATOM     98  O   UNL A   1      39.388  36.955  37.933  1.00  0.00    -0.744 OA
ENDBRANCH  92  95
ENDBRANCH  64  88
BRANCH  76  99
ATOM     99  C   UNL A   1      42.683  26.549  34.515  1.00  0.00     0.023 A 
ATOM    100  C   UNL A   1      41.621  25.968  35.230  1.00  0.00     0.012 A 
ATOM    101  C   UNL A   1      43.771  25.692  34.189  1.00  0.00     0.148 A 
ATOM    102  C   UNL A   1      41.653  24.631  35.641  1.00  0.00     0.002 A 
ATOM    103  C   UNL A   1      43.726  24.331  34.467  1.00  0.00     0.091 A 
ATOM    104  F   UNL A   1      44.877  26.191  33.619  1.00  0.00    -0.205 F 
ATOM    105  C   UNL A   1      42.687  23.802  35.229  1.00  0.00     0.022 A 
BRANCH 103 106
ATOM    106  S   UNL A   1      44.880  23.191  33.688  1.00  0.00     0.127 S 
ATOM    107  O   UNL A   1      46.168  23.704  34.147  1.00  0.00    -0.237 OA
ATOM    108  O   UNL A   1      44.490  21.907  34.272  1.00  0.00    -0.237 OA
ATOM    109  O   UNL A   1      44.615  23.303  32.259  1.00  0.00    -0.744 OA
ENDBRANCH 103 106
ENDBRANCH  76  99
ENDBRANCH  50  51
ENDBRANCH  42  45
ENDBRANCH  40  41
ENDBRANCH  39  40
ENDBRANCH   1  39
TORSDOF 20
ENDMDL
MODEL 2
REMARK VINA RESULT:     -13.1      2.236      3.114
REMARK SMILES Cc1ccc(S(=O)(=O)n2cc(C(=O)C(=O)N[C@@H](Cc3cnc[nH]3)C(=O)NCCCNC(=O)c3ccc(-c4c5nc(c(-c6cccc(S(=O)(=O)[O-])c6F)c6ccc([nH]6)c(-c6cccc(S(=O)(=O)[O-])c6F)c6nc(c(-c7cccc(S(=O)(=O)[O-])c7F)c7ccc4[nH]7)C=C6)C=C5)cc3)c3ccccc32)cc1
REMARK SMILES IDX 27 1 26 2 24 3 25 4 17 6 16 7 14 8 15 9 12 11 13 12 11 13
REMARK SMILES IDX 9 14 10 15 101 16 96 17 100 18 97 19 99 20 98 21 6 22 7 23
REMARK SMILES IDX 8 24 5 25 1 26 2 27 3 28 103 29 4 30 102 31 18 32 19 33
REMARK SMILES IDX 20 34 23 35 21 36 22 37 28 39 29 40 30 41 31 42 32 44 33 45
REMARK SMILES IDX 34 46 95 47 35 48 94 49 36 50 37 51 38 52 88 53 39 54 93 55
REMARK SMILES IDX 87 56 89 57 40 58 92 59 86 60 85 61 41 63 73 64 53 65 72 66
REMARK SMILES IDX 54 67 57 68 71 69 90 70 55 71 56 72 70 74 91 75 58 76 42 77
REMARK SMILES IDX 43 78 51 79 44 80 46 81 52 82 45 83 47 84 48 85 49 86 50 87
REMARK SMILES IDX 74 88 75 89 83 90 76 91 78 92 84 93 77 94 79 95 80 96 81 97
REMARK SMILES IDX 82 98 59 99 60 100 68 101 61 102 63 103 69 104 62 105 64 106
REMARK SMILES IDX 65 107 66 108 67 109
REMARK H PARENT 26 5 16 10 23 38 30 43 89 62 57 73
REMARK Flexibility Score: inf
ROOT
ATOM      1  C   UNL A   1      33.722  29.283  26.087  1.00  0.00     0.117 C 
ENDROOT
BRANCH   1   2
ATOM      2  N   UNL A   1      33.773  28.897  24.703  1.00  0.00    -0.354 N 
ATOM      3  C   UNL A   1      32.728  28.928  23.820  1.00  0.00     0.242 C 
ATOM      4  O   UNL A   1      32.990  29.055  22.622  1.00  0.00    -0.273 OA
ATOM      5  H   UNL A   1      34.640  28.580  24.358  1.00  0.00     0.163 HD
BRANCH   3   6
ATOM      6  C   UNL A   1      31.251  28.892  24.307  1.00  0.00     0.177 C 
BRANCH   6   7
ATOM      7  N   UNL A   1      31.146  28.313  25.661  1.00  0.00    -0.337 N 
ATOM      8  C   UNL A   1      30.954  27.005  26.067  1.00  0.00     0.293 C 
ATOM      9  O   UNL A   1      31.150  26.730  27.247  1.00  0.00    -0.265 OA
ATOM     10  H   UNL A   1      31.225  28.964  26.395  1.00  0.00     0.164 HD
BRANCH   8  11
ATOM     11  C   UNL A   1      30.454  25.913  25.086  1.00  0.00     0.252 C 
ATOM     12  O   UNL A   1      29.278  25.935  24.738  1.00  0.00    -0.283 OA
BRANCH  11  13
ATOM     13  C   UNL A   1      31.315  24.820  24.605  1.00  0.00     0.054 A 
ATOM     14  N   UNL A   1      32.463  22.915  24.406  1.00  0.00    -0.240 N 
ATOM     15  C   UNL A   1      31.711  23.672  25.269  1.00  0.00     0.117 A 
ATOM     16  C   UNL A   1      32.590  23.530  23.178  1.00  0.00     0.065 A 
ATOM     17  C   UNL A   1      31.912  24.750  23.293  1.00  0.00     0.012 A 
ATOM     18  C   UNL A   1      33.247  23.156  21.990  1.00  0.00     0.028 A 
ATOM     19  C   UNL A   1      31.919  25.626  22.184  1.00  0.00     0.011 A 
ATOM     20  C   UNL A   1      33.241  24.054  20.917  1.00  0.00     0.002 A 
ATOM     21  C   UNL A   1      32.591  25.276  21.013  1.00  0.00     0.001 A 
BRANCH  14  22
ATOM     22  S   UNL A   1      33.163  21.417  24.816  1.00  0.00     0.268 S 
ATOM     23  O   UNL A   1      32.995  20.587  23.643  1.00  0.00    -0.201 OA
ATOM     24  O   UNL A   1      32.593  21.049  26.103  1.00  0.00    -0.201 OA
BRANCH  22  25
ATOM     25  C   UNL A   1      34.901  21.662  25.059  1.00  0.00     0.088 A 
ATOM     26  C   UNL A   1      39.025  22.416  26.026  1.00  0.00     0.044 C 
ATOM     27  C   UNL A   1      37.592  22.153  25.669  1.00  0.00    -0.051 A 
ATOM     28  C   UNL A   1      36.640  23.171  25.811  1.00  0.00     0.005 A 
ATOM     29  C   UNL A   1      37.189  20.902  25.185  1.00  0.00     0.005 A 
ATOM     30  C   UNL A   1      35.299  22.926  25.514  1.00  0.00     0.022 A 
ATOM     31  C   UNL A   1      35.850  20.657  24.867  1.00  0.00     0.022 A 
ENDBRANCH  22  25
ENDBRANCH  14  22
ENDBRANCH  11  13
ENDBRANCH   8  11
ENDBRANCH   6   7
BRANCH   6  32
ATOM     32  C   UNL A   1      30.411  30.177  24.076  1.00  0.00     0.090 C 
BRANCH  32  33
ATOM     33  C   UNL A   1      29.602  30.288  22.822  1.00  0.00     0.037 A 
ATOM     34  C   UNL A   1      28.722  29.421  22.201  1.00  0.00     0.134 A 
ATOM     35  N   UNL A   1      29.548  31.434  22.055  1.00  0.00    -0.348 N 
ATOM     36  N   UNL A   1      28.060  30.051  21.180  1.00  0.00    -0.245 NA
ATOM     37  C   UNL A   1      28.563  31.262  21.123  1.00  0.00     0.196 A 
ATOM     38  H   UNL A   1      30.116  32.231  22.161  1.00  0.00     0.167 HD
ENDBRANCH  32  33
ENDBRANCH   6  32
ENDBRANCH   3   6
ENDBRANCH   1   2
BRANCH   1  39
ATOM     39  C   UNL A   1      33.284  30.689  26.386  1.00  0.00     0.042 C 
BRANCH  39  40
ATOM     40  C   UNL A   1      33.710  31.069  27.770  1.00  0.00     0.118 C 
BRANCH  40  41
ATOM     41  N   UNL A   1      34.836  31.984  27.815  1.00  0.00    -0.352 N 
ATOM     42  C   UNL A   1      36.141  31.737  28.202  1.00  0.00     0.251 C 
ATOM     43  H   UNL A   1      34.645  32.908  27.530  1.00  0.00     0.163 HD
ATOM     44  O   UNL A   1      36.883  32.705  28.353  1.00  0.00    -0.269 OA
BRANCH  42  45
ATOM     45  C   UNL A   1      36.670  30.339  28.245  1.00  0.00     0.039 A 
ATOM     46  C   UNL A   1      36.541  29.674  29.467  1.00  0.00     0.014 A 
ATOM     47  C   UNL A   1      37.697  29.972  27.394  1.00  0.00     0.014 A 
ATOM     48  C   UNL A   1      37.628  28.976  29.970  1.00  0.00     0.010 A 
ATOM     49  C   UNL A   1      38.857  29.549  27.969  1.00  0.00     0.010 A 
ATOM     50  C   UNL A   1      38.819  29.074  29.279  1.00  0.00    -0.014 A 
BRANCH  50  51
ATOM     51  C   UNL A   1      40.077  28.487  29.654  1.00  0.00     0.031 A 
ATOM     52  C   UNL A   1      40.274  27.104  29.186  1.00  0.00     0.074 A 
ATOM     53  C   UNL A   1      41.066  29.355  29.954  1.00  0.00     0.049 A 
ATOM     54  N   UNL A   1      41.351  26.439  29.355  1.00  0.00    -0.248 NA
ATOM     55  C   UNL A   1      39.251  26.360  28.445  1.00  0.00     0.031 C 
ATOM     56  C   UNL A   1      42.496  29.220  29.724  1.00  0.00     0.029 A 
ATOM     57  N   UNL A   1      40.966  30.538  30.668  1.00  0.00    -0.354 N 
ATOM     58  C   UNL A   1      41.284  25.320  28.550  1.00  0.00     0.074 A 
ATOM     59  C   UNL A   1      39.933  25.279  28.057  1.00  0.00     0.031 C 
ATOM     60  C   UNL A   1      43.152  30.122  30.479  1.00  0.00     0.029 A 
ATOM     61  C   UNL A   1      42.168  30.740  31.355  1.00  0.00     0.049 A 
ATOM     62  H   UNL A   1      40.182  31.134  30.689  1.00  0.00     0.167 HD
ATOM     63  C   UNL A   1      42.445  24.653  28.315  1.00  0.00     0.034 A 
ATOM     64  C   UNL A   1      42.172  30.619  32.722  1.00  0.00     0.034 A 
ATOM     65  C   UNL A   1      43.514  25.268  29.115  1.00  0.00     0.049 A 
ATOM     66  C   UNL A   1      42.902  29.369  33.199  1.00  0.00     0.074 A 
ATOM     67  C   UNL A   1      44.451  26.249  28.838  1.00  0.00     0.029 A 
ATOM     68  N   UNL A   1      43.444  25.164  30.497  1.00  0.00    -0.354 N 
ATOM     69  N   UNL A   1      43.251  28.383  32.416  1.00  0.00    -0.248 NA
ATOM     70  C   UNL A   1      43.355  29.154  34.571  1.00  0.00     0.031 C 
ATOM     71  C   UNL A   1      44.874  26.805  30.081  1.00  0.00     0.029 A 
ATOM     72  C   UNL A   1      44.217  26.141  31.105  1.00  0.00     0.049 A 
ATOM     73  H   UNL A   1      42.915  24.489  30.980  1.00  0.00     0.167 HD
ATOM     74  C   UNL A   1      43.888  27.404  33.128  1.00  0.00     0.074 A 
ATOM     75  C   UNL A   1      43.970  27.961  34.469  1.00  0.00     0.031 C 
ATOM     76  C   UNL A   1      44.268  26.214  32.561  1.00  0.00     0.034 A 
BRANCH  63  77
ATOM     77  C   UNL A   1      42.724  23.610  27.252  1.00  0.00     0.023 A 
ATOM     78  C   UNL A   1      43.366  24.083  26.084  1.00  0.00     0.012 A 
ATOM     79  C   UNL A   1      42.399  22.233  27.266  1.00  0.00     0.148 A 
ATOM     80  C   UNL A   1      43.628  23.270  24.979  1.00  0.00     0.002 A 
ATOM     81  C   UNL A   1      42.649  21.417  26.153  1.00  0.00     0.091 A 
ATOM     82  F   UNL A   1      41.871  21.679  28.357  1.00  0.00    -0.205 F 
ATOM     83  C   UNL A   1      43.261  21.937  25.008  1.00  0.00     0.022 A 
BRANCH  81  84
ATOM     84  S   UNL A   1      42.197  19.673  26.083  1.00  0.00     0.127 S 
ATOM     85  O   UNL A   1      42.989  19.198  24.946  1.00  0.00    -0.237 OA
ATOM     86  O   UNL A   1      42.648  19.178  27.382  1.00  0.00    -0.237 OA
ATOM     87  O   UNL A   1      40.756  19.627  25.869  1.00  0.00    -0.744 OA
ENDBRANCH  81  84
ENDBRANCH  63  77
BRANCH  64  88
ATOM     88  C   UNL A   1      40.939  31.244  33.316  1.00  0.00     0.023 A 
ATOM     89  C   UNL A   1      39.983  30.322  33.819  1.00  0.00     0.012 A 
ATOM     90  C   UNL A   1      40.956  32.549  33.843  1.00  0.00     0.148 A 
ATOM     91  C   UNL A   1      39.250  30.609  34.972  1.00  0.00     0.002 A 
ATOM     92  C   UNL A   1      40.186  32.841  34.973  1.00  0.00     0.091 A 
ATOM     93  F   UNL A   1      41.769  33.456  33.287  1.00  0.00    -0.205 F 
ATOM     94  C   UNL A   1      39.394  31.850  35.580  1.00  0.00     0.022 A 
BRANCH  92  95
ATOM     95  S   UNL A   1      40.229  34.454  35.769  1.00  0.00     0.127 S 
ATOM     96  O   UNL A   1      39.955  35.343  34.644  1.00  0.00    -0.237 OA
ATOM     97  O   UNL A   1      39.144  34.362  36.745  1.00  0.00    -0.237 OA
ATOM     98  O   UNL A   1      41.557  34.559  36.355  1.00  0.00    -0.744 OA
ENDBRANCH  92  95
ENDBRANCH  64  88
BRANCH  76  99
ATOM     99  C   UNL A   1      44.705  24.967  33.315  1.00  0.00     0.023 A 
ATOM    100  C   UNL A   1      43.940  23.788  33.326  1.00  0.00     0.012 A 
ATOM    101  C   UNL A   1      46.008  24.883  33.878  1.00  0.00     0.148 A 
ATOM    102  C   UNL A   1      44.416  22.606  33.903  1.00  0.00     0.002 A 
ATOM    103  C   UNL A   1      46.531  23.669  34.309  1.00  0.00     0.091 A 
ATOM    104  F   UNL A   1      46.756  25.986  34.020  1.00  0.00    -0.205 F 
ATOM    105  C   UNL A   1      45.724  22.535  34.362  1.00  0.00     0.022 A 
BRANCH 103 106
ATOM    106  S   UNL A   1      48.294  23.479  34.613  1.00  0.00     0.127 S 
ATOM    107  O   UNL A   1      48.483  22.045  34.405  1.00  0.00    -0.237 OA
ATOM    108  O   UNL A   1      48.881  24.330  33.576  1.00  0.00    -0.237 OA
ATOM    109  O   UNL A   1      48.498  23.965  35.971  1.00  0.00    -0.744 OA
ENDBRANCH 103 106
ENDBRANCH  76  99
ENDBRANCH  50  51
ENDBRANCH  42  45
ENDBRANCH  40  41
ENDBRANCH  39  40
ENDBRANCH   1  39
TORSDOF 20
ENDMDL
MODEL 3
REMARK VINA RESULT:     -12.7      5.577      9.102
REMARK SMILES Cc1ccc(S(=O)(=O)n2cc(C(=O)C(=O)N[C@@H](Cc3cnc[nH]3)C(=O)NCCCNC(=O)c3ccc(-c4c5nc(c(-c6cccc(S(=O)(=O)[O-])c6F)c6ccc([nH]6)c(-c6cccc(S(=O)(=O)[O-])c6F)c6nc(c(-c7cccc(S(=O)(=O)[O-])c7F)c7ccc4[nH]7)C=C6)C=C5)cc3)c3ccccc32)cc1
REMARK SMILES IDX 27 1 26 2 24 3 25 4 17 6 16 7 14 8 15 9 12 11 13 12 11 13
REMARK SMILES IDX 9 14 10 15 101 16 96 17 100 18 97 19 99 20 98 21 6 22 7 23
REMARK SMILES IDX 8 24 5 25 1 26 2 27 3 28 103 29 4 30 102 31 18 32 19 33
REMARK SMILES IDX 20 34 23 35 21 36 22 37 28 39 29 40 30 41 31 42 32 44 33 45
REMARK SMILES IDX 34 46 95 47 35 48 94 49 36 50 37 51 38 52 88 53 39 54 93 55
REMARK SMILES IDX 87 56 89 57 40 58 92 59 86 60 85 61 41 63 73 64 53 65 72 66
REMARK SMILES IDX 54 67 57 68 71 69 90 70 55 71 56 72 70 74 91 75 58 76 42 77
REMARK SMILES IDX 43 78 51 79 44 80 46 81 52 82 45 83 47 84 48 85 49 86 50 87
REMARK SMILES IDX 74 88 75 89 83 90 76 91 78 92 84 93 77 94 79 95 80 96 81 97
REMARK SMILES IDX 82 98 59 99 60 100 68 101 61 102 63 103 69 104 62 105 64 106
REMARK SMILES IDX 65 107 66 108 67 109
REMARK H PARENT 26 5 16 10 23 38 30 43 89 62 57 73
REMARK Flexibility Score: inf
ROOT
ATOM      1  C   UNL A   1      36.869  24.153  25.494  1.00  0.00     0.117 C 
ENDROOT
BRANCH   1   2
ATOM      2  N   UNL A   1      36.171  23.260  24.609  1.00  0.00    -0.354 N 
ATOM      3  C   UNL A   1      35.224  23.618  23.688  1.00  0.00     0.242 C 
ATOM      4  O   UNL A   1      35.079  22.892  22.701  1.00  0.00    -0.273 OA
ATOM      5  H   UNL A   1      36.395  22.303  24.671  1.00  0.00     0.163 HD
BRANCH   3   6
ATOM      6  C   UNL A   1      34.413  24.938  23.826  1.00  0.00     0.177 C 
BRANCH   6   7
ATOM      7  N   UNL A   1      33.370  25.038  22.786  1.00  0.00    -0.337 N 
ATOM      8  C   UNL A   1      32.984  26.110  22.001  1.00  0.00     0.293 C 
ATOM      9  O   UNL A   1      32.264  25.887  21.033  1.00  0.00    -0.265 OA
ATOM     10  H   UNL A   1      32.867  24.207  22.625  1.00  0.00     0.164 HD
BRANCH   8  11
ATOM     11  C   UNL A   1      33.395  27.563  22.349  1.00  0.00     0.252 C 
ATOM     12  O   UNL A   1      34.384  28.038  21.800  1.00  0.00    -0.283 OA
BRANCH  11  13
ATOM     13  C   UNL A   1      32.685  28.373  23.354  1.00  0.00     0.054 A 
ATOM     14  N   UNL A   1      32.122  29.518  25.186  1.00  0.00    -0.240 N 
ATOM     15  C   UNL A   1      33.075  28.693  24.642  1.00  0.00     0.117 A 
ATOM     16  C   UNL A   1      31.095  29.755  24.297  1.00  0.00     0.065 A 
ATOM     17  C   UNL A   1      31.405  29.010  23.152  1.00  0.00     0.012 A 
ATOM     18  C   UNL A   1      29.917  30.521  24.384  1.00  0.00     0.028 A 
ATOM     19  C   UNL A   1      30.489  29.023  22.076  1.00  0.00     0.011 A 
ATOM     20  C   UNL A   1      29.029  30.501  23.305  1.00  0.00     0.002 A 
ATOM     21  C   UNL A   1      29.306  29.757  22.167  1.00  0.00     0.001 A 
BRANCH  14  22
ATOM     22  S   UNL A   1      32.198  30.147  26.767  1.00  0.00     0.268 S 
ATOM     23  O   UNL A   1      31.593  29.138  27.607  1.00  0.00    -0.201 OA
ATOM     24  O   UNL A   1      31.662  31.498  26.685  1.00  0.00    -0.201 OA
BRANCH  22  25
ATOM     25  C   UNL A   1      33.904  30.284  27.230  1.00  0.00     0.088 A 
ATOM     26  C   UNL A   1      37.915  30.838  28.684  1.00  0.00     0.044 C 
ATOM     27  C   UNL A   1      36.523  30.641  28.158  1.00  0.00    -0.051 A 
ATOM     28  C   UNL A   1      35.672  31.743  28.009  1.00  0.00     0.005 A 
ATOM     29  C   UNL A   1      36.062  29.367  27.803  1.00  0.00     0.005 A 
ATOM     30  C   UNL A   1      34.365  31.567  27.553  1.00  0.00     0.022 A 
ATOM     31  C   UNL A   1      34.760  29.186  27.328  1.00  0.00     0.022 A 
ENDBRANCH  22  25
ENDBRANCH  14  22
ENDBRANCH  11  13
ENDBRANCH   8  11
ENDBRANCH   6   7
BRANCH   6  32
ATOM     32  C   UNL A   1      33.953  25.324  25.257  1.00  0.00     0.090 C 
BRANCH  32  33
ATOM     33  C   UNL A   1      32.726  24.674  25.815  1.00  0.00     0.037 A 
ATOM     34  C   UNL A   1      32.546  23.653  26.729  1.00  0.00     0.134 A 
ATOM     35  N   UNL A   1      31.445  25.101  25.525  1.00  0.00    -0.348 N 
ATOM     36  N   UNL A   1      31.226  23.547  27.084  1.00  0.00    -0.245 NA
ATOM     37  C   UNL A   1      30.589  24.437  26.359  1.00  0.00     0.196 A 
ATOM     38  H   UNL A   1      31.194  25.764  24.842  1.00  0.00     0.167 HD
ENDBRANCH  32  33
ENDBRANCH   6  32
ENDBRANCH   3   6
ENDBRANCH   1   2
BRANCH   1  39
ATOM     39  C   UNL A   1      37.682  23.526  26.591  1.00  0.00     0.042 C 
BRANCH  39  40
ATOM     40  C   UNL A   1      39.055  24.123  26.609  1.00  0.00     0.118 C 
BRANCH  40  41
ATOM     41  N   UNL A   1      40.108  23.205  26.213  1.00  0.00    -0.352 N 
ATOM     42  C   UNL A   1      41.460  23.256  26.503  1.00  0.00     0.251 C 
ATOM     43  H   UNL A   1      39.820  22.440  25.663  1.00  0.00     0.163 HD
ATOM     44  O   UNL A   1      42.201  22.484  25.900  1.00  0.00    -0.269 OA
BRANCH  42  45
ATOM     45  C   UNL A   1      41.962  24.083  27.643  1.00  0.00     0.039 A 
ATOM     46  C   UNL A   1      42.273  25.412  27.342  1.00  0.00     0.014 A 
ATOM     47  C   UNL A   1      42.617  23.469  28.695  1.00  0.00     0.014 A 
ATOM     48  C   UNL A   1      43.465  25.945  27.810  1.00  0.00     0.010 A 
ATOM     49  C   UNL A   1      43.903  23.849  28.932  1.00  0.00     0.010 A 
ATOM     50  C   UNL A   1      44.332  25.087  28.457  1.00  0.00    -0.014 A 
BRANCH  50  51
ATOM     51  C   UNL A   1      45.639  25.411  28.964  1.00  0.00     0.031 A 
ATOM     52  C   UNL A   1      46.747  25.119  28.039  1.00  0.00     0.074 A 
ATOM     53  C   UNL A   1      45.675  26.324  29.957  1.00  0.00     0.049 A 
ATOM     54  N   UNL A   1      47.970  25.402  28.276  1.00  0.00    -0.248 NA
ATOM     55  C   UNL A   1      46.548  24.495  26.727  1.00  0.00     0.031 C 
ATOM     56  C   UNL A   1      46.690  27.329  30.234  1.00  0.00     0.029 A 
ATOM     57  N   UNL A   1      44.806  26.442  31.030  1.00  0.00    -0.354 N 
ATOM     58  C   UNL A   1      48.671  25.258  27.096  1.00  0.00     0.074 A 
ATOM     59  C   UNL A   1      47.760  24.627  26.180  1.00  0.00     0.031 C 
ATOM     60  C   UNL A   1      46.531  27.781  31.492  1.00  0.00     0.029 A 
ATOM     61  C   UNL A   1      45.521  26.945  32.121  1.00  0.00     0.049 A 
ATOM     62  H   UNL A   1      43.849  26.210  31.025  1.00  0.00     0.167 HD
ATOM     63  C   UNL A   1      49.905  25.823  27.034  1.00  0.00     0.034 A 
ATOM     64  C   UNL A   1      45.765  26.115  33.187  1.00  0.00     0.034 A 
ATOM     65  C   UNL A   1      50.238  26.381  28.353  1.00  0.00     0.049 A 
ATOM     66  C   UNL A   1      47.229  25.704  33.289  1.00  0.00     0.074 A 
ATOM     67  C   UNL A   1      50.091  27.642  28.907  1.00  0.00     0.029 A 
ATOM     68  N   UNL A   1      50.421  25.502  29.410  1.00  0.00    -0.354 N 
ATOM     69  N   UNL A   1      48.107  25.888  32.339  1.00  0.00    -0.248 NA
ATOM     70  C   UNL A   1      47.839  25.121  34.481  1.00  0.00     0.031 C 
ATOM     71  C   UNL A   1      50.093  27.493  30.324  1.00  0.00     0.029 A 
ATOM     72  C   UNL A   1      50.269  26.152  30.625  1.00  0.00     0.049 A 
ATOM     73  H   UNL A   1      50.631  24.545  29.311  1.00  0.00     0.167 HD
ATOM     74  C   UNL A   1      49.335  25.419  32.719  1.00  0.00     0.074 A 
ATOM     75  C   UNL A   1      49.122  24.991  34.093  1.00  0.00     0.031 C 
ATOM     76  C   UNL A   1      50.409  25.398  31.866  1.00  0.00     0.034 A 
BRANCH  63  77
ATOM     77  C   UNL A   1      50.749  26.091  25.804  1.00  0.00     0.023 A 
ATOM     78  C   UNL A   1      51.960  25.365  25.722  1.00  0.00     0.012 A 
ATOM     79  C   UNL A   1      50.494  26.992  24.743  1.00  0.00     0.148 A 
ATOM     80  C   UNL A   1      52.887  25.548  24.694  1.00  0.00     0.002 A 
ATOM     81  C   UNL A   1      51.429  27.187  23.716  1.00  0.00     0.091 A 
ATOM     82  F   UNL A   1      49.339  27.655  24.688  1.00  0.00    -0.205 F 
ATOM     83  C   UNL A   1      52.627  26.467  23.694  1.00  0.00     0.022 A 
BRANCH  81  84
ATOM     84  S   UNL A   1      51.193  28.369  22.375  1.00  0.00     0.127 S 
ATOM     85  O   UNL A   1      51.598  29.628  23.004  1.00  0.00    -0.237 OA
ATOM     86  O   UNL A   1      52.119  27.878  21.356  1.00  0.00    -0.237 OA
ATOM     87  O   UNL A   1      49.784  28.308  22.012  1.00  0.00    -0.744 OA
ENDBRANCH  81  84
ENDBRANCH  63  77
BRANCH  64  88
ATOM     88  C   UNL A   1      44.554  25.277  33.498  1.00  0.00     0.023 A 
ATOM     89  C   UNL A   1      44.761  23.874  33.425  1.00  0.00     0.012 A 
ATOM     90  C   UNL A   1      43.514  25.761  34.313  1.00  0.00     0.148 A 
ATOM     91  C   UNL A   1      44.129  23.010  34.321  1.00  0.00     0.002 A 
ATOM     92  C   UNL A   1      42.855  24.881  35.177  1.00  0.00     0.091 A 
ATOM     93  F   UNL A   1      43.234  27.070  34.288  1.00  0.00    -0.205 F 
ATOM     94  C   UNL A   1      43.217  23.524  35.234  1.00  0.00     0.022 A 
BRANCH  92  95
ATOM     95  S   UNL A   1      41.586  25.438  36.324  1.00  0.00     0.127 S 
ATOM     96  O   UNL A   1      40.636  26.081  35.420  1.00  0.00    -0.237 OA
ATOM     97  O   UNL A   1      41.109  24.186  36.911  1.00  0.00    -0.237 OA
ATOM     98  O   UNL A   1      42.271  26.318  37.259  1.00  0.00    -0.744 OA
ENDBRANCH  92  95
ENDBRANCH  64  88
BRANCH  76  99
ATOM     99  C   UNL A   1      51.709  24.641  32.088  1.00  0.00     0.023 A 
ATOM    100  C   UNL A   1      52.967  25.261  31.994  1.00  0.00     0.012 A 
ATOM    101  C   UNL A   1      51.694  23.311  32.596  1.00  0.00     0.148 A 
ATOM    102  C   UNL A   1      54.147  24.591  32.337  1.00  0.00     0.002 A 
ATOM    103  C   UNL A   1      52.850  22.710  33.078  1.00  0.00     0.091 A 
ATOM    104  F   UNL A   1      50.555  22.603  32.603  1.00  0.00    -0.205 F 
ATOM    105  C   UNL A   1      54.086  23.330  32.913  1.00  0.00     0.022 A 
BRANCH 103 106
ATOM    106  S   UNL A   1      52.765  21.230  34.098  1.00  0.00     0.127 S 
ATOM    107  O   UNL A   1      51.797  21.622  35.119  1.00  0.00    -0.237 OA
ATOM    108  O   UNL A   1      52.281  20.226  33.149  1.00  0.00    -0.237 OA
ATOM    109  O   UNL A   1      54.131  21.009  34.556  1.00  0.00    -0.744 OA
ENDBRANCH 103 106
ENDBRANCH  76  99
ENDBRANCH  50  51
ENDBRANCH  42  45
ENDBRANCH  40  41
ENDBRANCH  39  40
ENDBRANCH   1  39
TORSDOF 20
ENDMDL
