MODEL 1
REMARK VINA RESULT:     -11.2      0.000      0.000
REMARK SMILES CCCc1c(C(=O)NCCCNC(=O)c2ccc(-c3c4nc(c(-c5cccc(S(=O)(=O)[O-])c5F)c5ccc([nH]5)c(-c5cccc(S(=O)(=O)[O-])c5F)c5nc(c(-c6cccc(S(=O)(=O)[O-])c6F)c6ccc3[nH]6)C=C5)C=C4)cc2)nnn1[C@@H](C)[C@H](C)O
REMARK SMILES IDX 10 1 9 2 8 3 6 4 7 5 5 7 4 8 80 9 78 10 79 11 3 12 2 13 1 14
REMARK SMILES IDX 81 15 82 16 83 17 84 18 85 19 11 21 12 22 13 23 14 25 15 26
REMARK SMILES IDX 16 27 77 28 17 29 76 30 18 31 19 32 20 33 70 34 21 35 75 36
REMARK SMILES IDX 69 37 71 38 22 39 74 40 68 41 67 42 23 44 55 45 35 46 54 47
REMARK SMILES IDX 36 48 39 49 53 50 72 51 37 52 38 53 52 55 73 56 40 57 24 58
REMARK SMILES IDX 25 59 33 60 26 61 28 62 34 63 27 64 29 65 30 66 31 67 32 68
REMARK SMILES IDX 56 69 57 70 65 71 58 72 60 73 66 74 59 75 61 76 62 77 63 78
REMARK SMILES IDX 64 79 41 80 42 81 50 82 43 83 45 84 51 85 44 86 46 87 47 88
REMARK SMILES IDX 48 89 49 90
REMARK H PARENT 8 6 85 20 12 24 71 43 39 54
REMARK Flexibility Score: inf
ROOT
ATOM      1  C   UNL A   1      33.529  28.641  26.375  1.00  0.00     0.042 C 
ENDROOT
BRANCH   1   2
ATOM      2  C   UNL A   1      32.343  27.819  26.842  1.00  0.00     0.118 C 
BRANCH   2   3
ATOM      3  N   UNL A   1      31.314  27.481  25.902  1.00  0.00    -0.351 N 
ATOM      4  C   UNL A   1      30.768  26.219  25.760  1.00  0.00     0.273 C 
ATOM      5  O   UNL A   1      29.640  26.121  25.277  1.00  0.00    -0.267 OA
ATOM      6  H   UNL A   1      30.973  28.198  25.319  1.00  0.00     0.163 HD
BRANCH   4   7
ATOM      7  C   UNL A   1      31.563  25.029  26.082  1.00  0.00     0.173 A 
ATOM      8  C   UNL A   1      32.650  24.358  25.502  1.00  0.00     0.072 A 
ATOM      9  N   UNL A   1      32.692  23.194  26.262  1.00  0.00    -0.243 N 
ATOM     10  N   UNL A   1      31.222  24.376  27.255  1.00  0.00    -0.125 NA
ATOM     11  N   UNL A   1      31.941  23.280  27.364  1.00  0.00    -0.066 NA
BRANCH   8  12
ATOM     12  C   UNL A   1      33.645  24.494  24.383  1.00  0.00     0.058 C 
BRANCH  12  13
ATOM     13  C   UNL A   1      34.130  25.810  23.795  1.00  0.00     0.003 C 
ATOM     14  C   UNL A   1      33.186  26.559  22.881  1.00  0.00     0.004 C 
ENDBRANCH  12  13
ENDBRANCH   8  12
BRANCH   9  15
ATOM     15  C   UNL A   1      33.510  21.993  26.068  1.00  0.00     0.135 C 
ATOM     16  C   UNL A   1      34.170  21.615  27.393  1.00  0.00     0.036 C 
BRANCH  15  17
ATOM     17  C   UNL A   1      32.690  20.868  25.389  1.00  0.00     0.135 C 
ATOM     18  C   UNL A   1      32.808  20.844  23.868  1.00  0.00     0.040 C 
BRANCH  17  19
ATOM     19  O   UNL A   1      31.300  21.038  25.713  1.00  0.00    -0.391 OA
ATOM     20  H   UNL A   1      31.218  21.420  26.600  1.00  0.00     0.211 HD
ENDBRANCH  17  19
ENDBRANCH  15  17
ENDBRANCH   9  15
ENDBRANCH   4   7
ENDBRANCH   2   3
ENDBRANCH   1   2
BRANCH   1  21
ATOM     21  C   UNL A   1      34.103  29.485  27.505  1.00  0.00     0.118 C 
BRANCH  21  22
ATOM     22  N   UNL A   1      34.376  30.898  27.163  1.00  0.00    -0.352 N 
ATOM     23  C   UNL A   1      35.328  31.738  27.746  1.00  0.00     0.251 C 
ATOM     24  H   UNL A   1      33.825  31.289  26.447  1.00  0.00     0.163 HD
ATOM     25  O   UNL A   1      35.403  32.917  27.489  1.00  0.00    -0.269 OA
BRANCH  23  26
ATOM     26  C   UNL A   1      36.247  31.095  28.711  1.00  0.00     0.039 A 
ATOM     27  C   UNL A   1      36.350  29.703  28.770  1.00  0.00     0.014 A 
ATOM     28  C   UNL A   1      37.243  31.918  29.203  1.00  0.00     0.014 A 
ATOM     29  C   UNL A   1      37.567  29.134  29.161  1.00  0.00     0.010 A 
ATOM     30  C   UNL A   1      38.485  31.353  29.368  1.00  0.00     0.010 A 
ATOM     31  C   UNL A   1      38.675  29.962  29.383  1.00  0.00    -0.014 A 
BRANCH  31  32
ATOM     32  C   UNL A   1      40.044  29.423  29.482  1.00  0.00     0.031 A 
ATOM     33  C   UNL A   1      40.633  29.153  30.839  1.00  0.00     0.074 A 
ATOM     34  C   UNL A   1      40.699  28.896  28.420  1.00  0.00     0.049 A 
ATOM     35  N   UNL A   1      41.717  29.662  31.337  1.00  0.00    -0.248 NA
ATOM     36  C   UNL A   1      39.961  28.211  31.745  1.00  0.00     0.031 C 
ATOM     37  C   UNL A   1      40.245  28.758  27.028  1.00  0.00     0.029 A 
ATOM     38  N   UNL A   1      41.854  28.175  28.423  1.00  0.00    -0.354 N 
ATOM     39  C   UNL A   1      41.973  28.980  32.531  1.00  0.00     0.074 A 
ATOM     40  C   UNL A   1      40.799  28.181  32.787  1.00  0.00     0.031 C 
ATOM     41  C   UNL A   1      40.896  27.730  26.448  1.00  0.00     0.029 A 
ATOM     42  C   UNL A   1      41.977  27.337  27.324  1.00  0.00     0.049 A 
ATOM     43  H   UNL A   1      42.534  28.241  29.132  1.00  0.00     0.167 HD
ATOM     44  C   UNL A   1      43.198  28.989  33.136  1.00  0.00     0.034 A 
ATOM     45  C   UNL A   1      42.901  26.372  27.136  1.00  0.00     0.034 A 
ATOM     46  C   UNL A   1      44.092  29.948  32.544  1.00  0.00     0.049 A 
ATOM     47  C   UNL A   1      44.077  26.742  27.949  1.00  0.00     0.074 A 
ATOM     48  C   UNL A   1      44.074  31.308  32.314  1.00  0.00     0.029 A 
ATOM     49  N   UNL A   1      45.112  29.464  31.757  1.00  0.00    -0.354 N 
ATOM     50  N   UNL A   1      44.777  27.825  27.740  1.00  0.00    -0.248 NA
ATOM     51  C   UNL A   1      44.240  26.135  29.258  1.00  0.00     0.031 C 
ATOM     52  C   UNL A   1      44.682  31.462  31.031  1.00  0.00     0.029 A 
ATOM     53  C   UNL A   1      45.064  30.190  30.597  1.00  0.00     0.049 A 
ATOM     54  H   UNL A   1      45.744  28.744  31.981  1.00  0.00     0.167 HD
ATOM     55  C   UNL A   1      45.101  28.282  29.010  1.00  0.00     0.074 A 
ATOM     56  C   UNL A   1      44.867  27.135  29.886  1.00  0.00     0.031 C 
ATOM     57  C   UNL A   1      45.243  29.618  29.278  1.00  0.00     0.034 A 
BRANCH  44  58
ATOM     58  C   UNL A   1      43.740  27.953  34.095  1.00  0.00     0.023 A 
ATOM     59  C   UNL A   1      44.395  28.412  35.264  1.00  0.00     0.012 A 
ATOM     60  C   UNL A   1      43.873  26.584  33.786  1.00  0.00     0.148 A 
ATOM     61  C   UNL A   1      45.170  27.562  36.063  1.00  0.00     0.002 A 
ATOM     62  C   UNL A   1      44.581  25.726  34.626  1.00  0.00     0.091 A 
ATOM     63  F   UNL A   1      43.431  26.124  32.610  1.00  0.00    -0.205 F 
ATOM     64  C   UNL A   1      45.255  26.213  35.750  1.00  0.00     0.022 A 
BRANCH  62  65
ATOM     65  S   UNL A   1      44.652  23.963  34.295  1.00  0.00     0.127 S 
ATOM     66  O   UNL A   1      45.448  23.924  33.073  1.00  0.00    -0.237 OA
ATOM     67  O   UNL A   1      45.325  23.448  35.489  1.00  0.00    -0.237 OA
ATOM     68  O   UNL A   1      43.255  23.559  34.182  1.00  0.00    -0.744 OA
ENDBRANCH  62  65
ENDBRANCH  44  58
BRANCH  45  69
ATOM     69  C   UNL A   1      42.732  25.090  26.428  1.00  0.00     0.023 A 
ATOM     70  C   UNL A   1      43.644  24.703  25.434  1.00  0.00     0.012 A 
ATOM     71  C   UNL A   1      41.789  24.139  26.885  1.00  0.00     0.148 A 
ATOM     72  C   UNL A   1      43.627  23.403  24.916  1.00  0.00     0.002 A 
ATOM     73  C   UNL A   1      41.769  22.851  26.360  1.00  0.00     0.091 A 
ATOM     74  F   UNL A   1      40.968  24.474  27.892  1.00  0.00    -0.205 F 
ATOM     75  C   UNL A   1      42.693  22.477  25.378  1.00  0.00     0.022 A 
BRANCH  73  76
ATOM     76  S   UNL A   1      40.591  21.614  26.921  1.00  0.00     0.127 S 
ATOM     77  O   UNL A   1      39.312  22.228  26.560  1.00  0.00    -0.237 OA
ATOM     78  O   UNL A   1      40.964  20.455  26.115  1.00  0.00    -0.237 OA
ATOM     79  O   UNL A   1      40.814  21.492  28.356  1.00  0.00    -0.744 OA
ENDBRANCH  73  76
ENDBRANCH  45  69
BRANCH  57  80
ATOM     80  C   UNL A   1      45.229  30.606  28.130  1.00  0.00     0.023 A 
ATOM     81  C   UNL A   1      44.019  31.001  27.520  1.00  0.00     0.012 A 
ATOM     82  C   UNL A   1      46.398  31.319  27.812  1.00  0.00     0.148 A 
ATOM     83  C   UNL A   1      43.972  32.059  26.609  1.00  0.00     0.002 A 
ATOM     84  C   UNL A   1      46.343  32.400  26.935  1.00  0.00     0.091 A 
ATOM     85  F   UNL A   1      47.545  30.954  28.405  1.00  0.00    -0.205 F 
ATOM     86  C   UNL A   1      45.133  32.768  26.327  1.00  0.00     0.022 A 
BRANCH  84  87
ATOM     87  S   UNL A   1      47.774  33.441  26.629  1.00  0.00     0.127 S 
ATOM     88  O   UNL A   1      48.803  32.458  26.298  1.00  0.00    -0.237 OA
ATOM     89  O   UNL A   1      47.335  34.266  25.501  1.00  0.00    -0.237 OA
ATOM     90  O   UNL A   1      47.990  34.191  27.860  1.00  0.00    -0.744 OA
ENDBRANCH  84  87
ENDBRANCH  57  80
ENDBRANCH  31  32
ENDBRANCH  23  26
ENDBRANCH  21  22
ENDBRANCH   1  21
TORSDOF 18
ENDMDL
MODEL 2
REMARK VINA RESULT:     -10.7      3.429      7.520
REMARK SMILES CCCc1c(C(=O)NCCCNC(=O)c2ccc(-c3c4nc(c(-c5cccc(S(=O)(=O)[O-])c5F)c5ccc([nH]5)c(-c5cccc(S(=O)(=O)[O-])c5F)c5nc(c(-c6cccc(S(=O)(=O)[O-])c6F)c6ccc3[nH]6)C=C5)C=C4)cc2)nnn1[C@@H](C)[C@H](C)O
REMARK SMILES IDX 10 1 9 2 8 3 6 4 7 5 5 7 4 8 80 9 78 10 79 11 3 12 2 13 1 14
REMARK SMILES IDX 81 15 82 16 83 17 84 18 85 19 11 21 12 22 13 23 14 25 15 26
REMARK SMILES IDX 16 27 77 28 17 29 76 30 18 31 19 32 20 33 70 34 21 35 75 36
REMARK SMILES IDX 69 37 71 38 22 39 74 40 68 41 67 42 23 44 55 45 35 46 54 47
REMARK SMILES IDX 36 48 39 49 53 50 72 51 37 52 38 53 52 55 73 56 40 57 24 58
REMARK SMILES IDX 25 59 33 60 26 61 28 62 34 63 27 64 29 65 30 66 31 67 32 68
REMARK SMILES IDX 56 69 57 70 65 71 58 72 60 73 66 74 59 75 61 76 62 77 63 78
REMARK SMILES IDX 64 79 41 80 42 81 50 82 43 83 45 84 51 85 44 86 46 87 47 88
REMARK SMILES IDX 48 89 49 90
REMARK H PARENT 8 6 85 20 12 24 71 43 39 54
REMARK Flexibility Score: inf
ROOT
ATOM      1  C   UNL A   1      37.053  22.650  25.367  1.00  0.00     0.042 C 
ENDROOT
BRANCH   1   2
ATOM      2  C   UNL A   1      36.039  21.593  25.763  1.00  0.00     0.118 C 
BRANCH   2   3
ATOM      3  N   UNL A   1      35.341  21.726  27.007  1.00  0.00    -0.351 N 
ATOM      4  C   UNL A   1      34.004  22.058  27.124  1.00  0.00     0.273 C 
ATOM      5  O   UNL A   1      33.405  21.726  28.146  1.00  0.00    -0.267 OA
ATOM      6  H   UNL A   1      35.849  21.570  27.836  1.00  0.00     0.163 HD
BRANCH   4   7
ATOM      7  C   UNL A   1      33.353  22.875  26.094  1.00  0.00     0.173 A 
ATOM      8  C   UNL A   1      32.577  22.624  24.953  1.00  0.00     0.072 A 
ATOM      9  N   UNL A   1      32.525  23.887  24.372  1.00  0.00    -0.243 N 
ATOM     10  N   UNL A   1      33.477  24.247  26.245  1.00  0.00    -0.125 NA
ATOM     11  N   UNL A   1      32.939  24.846  25.205  1.00  0.00    -0.066 NA
BRANCH   8  12
ATOM     12  C   UNL A   1      31.899  21.497  24.224  1.00  0.00     0.058 C 
BRANCH  12  13
ATOM     13  C   UNL A   1      32.568  20.198  23.804  1.00  0.00     0.003 C 
ATOM     14  C   UNL A   1      32.824  19.162  24.877  1.00  0.00     0.004 C 
ENDBRANCH  12  13
ENDBRANCH   8  12
BRANCH   9  15
ATOM     15  C   UNL A   1      31.989  24.283  23.067  1.00  0.00     0.135 C 
ATOM     16  C   UNL A   1      30.496  24.577  23.205  1.00  0.00     0.036 C 
BRANCH  15  17
ATOM     17  C   UNL A   1      32.835  25.419  22.440  1.00  0.00     0.135 C 
ATOM     18  C   UNL A   1      32.420  25.793  21.020  1.00  0.00     0.040 C 
BRANCH  17  19
ATOM     19  O   UNL A   1      34.212  25.008  22.395  1.00  0.00    -0.391 OA
ATOM     20  H   UNL A   1      34.417  24.659  21.513  1.00  0.00     0.211 HD
ENDBRANCH  17  19
ENDBRANCH  15  17
ENDBRANCH   9  15
ENDBRANCH   4   7
ENDBRANCH   2   3
ENDBRANCH   1   2
BRANCH   1  21
ATOM     21  C   UNL A   1      38.479  22.155  25.560  1.00  0.00     0.118 C 
BRANCH  21  22
ATOM     22  N   UNL A   1      38.662  20.692  25.447  1.00  0.00    -0.352 N 
ATOM     23  C   UNL A   1      39.821  19.962  25.722  1.00  0.00     0.251 C 
ATOM     24  H   UNL A   1      37.879  20.175  25.145  1.00  0.00     0.163 HD
ATOM     25  O   UNL A   1      39.920  18.780  25.487  1.00  0.00    -0.269 OA
BRANCH  23  26
ATOM     26  C   UNL A   1      40.936  20.729  26.317  1.00  0.00     0.039 A 
ATOM     27  C   UNL A   1      41.589  21.719  25.578  1.00  0.00     0.014 A 
ATOM     28  C   UNL A   1      40.989  20.703  27.699  1.00  0.00     0.014 A 
ATOM     29  C   UNL A   1      42.145  22.809  26.255  1.00  0.00     0.010 A 
ATOM     30  C   UNL A   1      41.338  21.876  28.325  1.00  0.00     0.010 A 
ATOM     31  C   UNL A   1      41.947  22.936  27.637  1.00  0.00    -0.014 A 
BRANCH  31  32
ATOM     32  C   UNL A   1      42.222  24.197  28.351  1.00  0.00     0.031 A 
ATOM     33  C   UNL A   1      41.189  25.290  28.340  1.00  0.00     0.074 A 
ATOM     34  C   UNL A   1      43.229  24.323  29.247  1.00  0.00     0.049 A 
ATOM     35  N   UNL A   1      41.337  26.503  27.905  1.00  0.00    -0.248 NA
ATOM     36  C   UNL A   1      39.846  25.022  28.877  1.00  0.00     0.031 C 
ATOM     37  C   UNL A   1      44.216  23.321  29.677  1.00  0.00     0.029 A 
ATOM     38  N   UNL A   1      43.448  25.342  30.124  1.00  0.00    -0.354 N 
ATOM     39  C   UNL A   1      40.187  27.208  28.274  1.00  0.00     0.074 A 
ATOM     40  C   UNL A   1      39.259  26.219  28.765  1.00  0.00     0.031 C 
ATOM     41  C   UNL A   1      44.648  23.624  30.917  1.00  0.00     0.029 A 
ATOM     42  C   UNL A   1      44.183  24.956  31.236  1.00  0.00     0.049 A 
ATOM     43  H   UNL A   1      43.117  26.258  29.984  1.00  0.00     0.167 HD
ATOM     44  C   UNL A   1      40.139  28.573  28.308  1.00  0.00     0.034 A 
ATOM     45  C   UNL A   1      44.400  25.675  32.356  1.00  0.00     0.034 A 
ATOM     46  C   UNL A   1      41.301  29.175  27.708  1.00  0.00     0.049 A 
ATOM     47  C   UNL A   1      44.267  27.099  31.984  1.00  0.00     0.074 A 
ATOM     48  C   UNL A   1      41.922  29.117  26.477  1.00  0.00     0.029 A 
ATOM     49  N   UNL A   1      42.226  29.748  28.550  1.00  0.00    -0.354 N 
ATOM     50  N   UNL A   1      45.061  27.690  31.131  1.00  0.00    -0.248 NA
ATOM     51  C   UNL A   1      43.005  27.771  32.234  1.00  0.00     0.031 C 
ATOM     52  C   UNL A   1      43.317  29.135  26.779  1.00  0.00     0.029 A 
ATOM     53  C   UNL A   1      43.441  29.248  28.166  1.00  0.00     0.049 A 
ATOM     54  H   UNL A   1      42.050  30.386  29.279  1.00  0.00     0.167 HD
ATOM     55  C   UNL A   1      44.230  28.535  30.410  1.00  0.00     0.074 A 
ATOM     56  C   UNL A   1      43.018  28.645  31.222  1.00  0.00     0.031 C 
ATOM     57  C   UNL A   1      44.473  28.832  29.094  1.00  0.00     0.034 A 
BRANCH  44  58
ATOM     58  C   UNL A   1      39.193  29.425  29.123  1.00  0.00     0.023 A 
ATOM     59  C   UNL A   1      38.679  30.601  28.524  1.00  0.00     0.012 A 
ATOM     60  C   UNL A   1      38.993  29.277  30.510  1.00  0.00     0.148 A 
ATOM     61  C   UNL A   1      38.032  31.593  29.271  1.00  0.00     0.002 A 
ATOM     62  C   UNL A   1      38.281  30.231  31.236  1.00  0.00     0.091 A 
ATOM     63  F   UNL A   1      39.603  28.282  31.165  1.00  0.00    -0.205 F 
ATOM     64  C   UNL A   1      37.822  31.403  30.629  1.00  0.00     0.022 A 
BRANCH  62  65
ATOM     65  S   UNL A   1      37.925  29.984  32.979  1.00  0.00     0.127 S 
ATOM     66  O   UNL A   1      39.241  30.181  33.579  1.00  0.00    -0.237 OA
ATOM     67  O   UNL A   1      36.955  31.046  33.253  1.00  0.00    -0.237 OA
ATOM     68  O   UNL A   1      37.366  28.639  33.049  1.00  0.00    -0.744 OA
ENDBRANCH  62  65
ENDBRANCH  44  58
BRANCH  45  69
ATOM     69  C   UNL A   1      44.544  25.172  33.734  1.00  0.00     0.023 A 
ATOM     70  C   UNL A   1      43.410  24.949  34.530  1.00  0.00     0.012 A 
ATOM     71  C   UNL A   1      45.796  24.702  34.198  1.00  0.00     0.148 A 
ATOM     72  C   UNL A   1      43.515  24.268  35.748  1.00  0.00     0.002 A 
ATOM     73  C   UNL A   1      45.896  24.034  35.413  1.00  0.00     0.091 A 
ATOM     74  F   UNL A   1      46.871  24.837  33.407  1.00  0.00    -0.205 F 
ATOM     75  C   UNL A   1      44.755  23.808  36.189  1.00  0.00     0.022 A 
BRANCH  73  76
ATOM     76  S   UNL A   1      47.468  23.416  36.030  1.00  0.00     0.127 S 
ATOM     77  O   UNL A   1      47.081  22.827  37.313  1.00  0.00    -0.237 OA
ATOM     78  O   UNL A   1      47.838  22.451  34.999  1.00  0.00    -0.237 OA
ATOM     79  O   UNL A   1      48.326  24.590  36.144  1.00  0.00    -0.744 OA
ENDBRANCH  73  76
ENDBRANCH  45  69
BRANCH  57  80
ATOM     80  C   UNL A   1      45.773  28.377  28.465  1.00  0.00     0.023 A 
ATOM     81  C   UNL A   1      46.975  29.086  28.675  1.00  0.00     0.012 A 
ATOM     82  C   UNL A   1      45.845  27.112  27.857  1.00  0.00     0.148 A 
ATOM     83  C   UNL A   1      48.209  28.566  28.278  1.00  0.00     0.002 A 
ATOM     84  C   UNL A   1      47.080  26.575  27.498  1.00  0.00     0.091 A 
ATOM     85  F   UNL A   1      44.704  26.430  27.672  1.00  0.00    -0.205 F 
ATOM     86  C   UNL A   1      48.263  27.302  27.701  1.00  0.00     0.022 A 
BRANCH  84  87
ATOM     87  S   UNL A   1      47.236  24.899  26.872  1.00  0.00     0.127 S 
ATOM     88  O   UNL A   1      48.681  24.695  26.899  1.00  0.00    -0.237 OA
ATOM     89  O   UNL A   1      46.491  24.118  27.863  1.00  0.00    -0.237 OA
ATOM     90  O   UNL A   1      46.623  24.910  25.549  1.00  0.00    -0.744 OA
ENDBRANCH  84  87
ENDBRANCH  57  80
ENDBRANCH  31  32
ENDBRANCH  23  26
ENDBRANCH  21  22
ENDBRANCH   1  21
TORSDOF 18
ENDMDL
MODEL 3
REMARK VINA RESULT:     -10.7      3.428      8.684
REMARK SMILES CCCc1c(C(=O)NCCCNC(=O)c2ccc(-c3c4nc(c(-c5cccc(S(=O)(=O)[O-])c5F)c5ccc([nH]5)c(-c5cccc(S(=O)(=O)[O-])c5F)c5nc(c(-c6cccc(S(=O)(=O)[O-])c6F)c6ccc3[nH]6)C=C5)C=C4)cc2)nnn1[C@@H](C)[C@H](C)O
REMARK SMILES IDX 10 1 9 2 8 3 6 4 7 5 5 7 4 8 80 9 78 10 79 11 3 12 2 13 1 14
REMARK SMILES IDX 81 15 82 16 83 17 84 18 85 19 11 21 12 22 13 23 14 25 15 26
REMARK SMILES IDX 16 27 77 28 17 29 76 30 18 31 19 32 20 33 70 34 21 35 75 36
REMARK SMILES IDX 69 37 71 38 22 39 74 40 68 41 67 42 23 44 55 45 35 46 54 47
REMARK SMILES IDX 36 48 39 49 53 50 72 51 37 52 38 53 52 55 73 56 40 57 24 58
REMARK SMILES IDX 25 59 33 60 26 61 28 62 34 63 27 64 29 65 30 66 31 67 32 68
REMARK SMILES IDX 56 69 57 70 65 71 58 72 60 73 66 74 59 75 61 76 62 77 63 78
REMARK SMILES IDX 64 79 41 80 42 81 50 82 43 83 45 84 51 85 44 86 46 87 47 88
REMARK SMILES IDX 48 89 49 90
REMARK H PARENT 8 6 85 20 12 24 71 43 39 54
REMARK Flexibility Score: inf
ROOT
ATOM      1  C   UNL A   1      37.244  21.091  25.036  1.00  0.00     0.042 C 
ENDROOT
BRANCH   1   2
ATOM      2  C   UNL A   1      35.931  21.373  25.742  1.00  0.00     0.118 C 
BRANCH   2   3
ATOM      3  N   UNL A   1      34.810  20.515  25.499  1.00  0.00    -0.351 N 
ATOM      4  C   UNL A   1      33.815  20.770  24.572  1.00  0.00     0.273 C 
ATOM      5  O   UNL A   1      33.170  19.820  24.129  1.00  0.00    -0.267 OA
ATOM      6  H   UNL A   1      34.743  19.686  26.027  1.00  0.00     0.163 HD
BRANCH   4   7
ATOM      7  C   UNL A   1      33.477  22.152  24.213  1.00  0.00     0.173 A 
ATOM      8  C   UNL A   1      33.061  23.298  24.907  1.00  0.00     0.072 A 
ATOM      9  N   UNL A   1      32.726  24.148  23.857  1.00  0.00    -0.243 N 
ATOM     10  N   UNL A   1      33.609  22.476  22.872  1.00  0.00    -0.125 NA
ATOM     11  N   UNL A   1      33.178  23.703  22.681  1.00  0.00    -0.066 NA
BRANCH   8  12
ATOM     12  C   UNL A   1      32.844  23.804  26.306  1.00  0.00     0.058 C 
BRANCH  12  13
ATOM     13  C   UNL A   1      31.721  23.366  27.232  1.00  0.00     0.003 C 
ATOM     14  C   UNL A   1      30.401  22.982  26.600  1.00  0.00     0.004 C 
ENDBRANCH  12  13
ENDBRANCH   8  12
BRANCH   9  15
ATOM     15  C   UNL A   1      32.075  25.460  23.903  1.00  0.00     0.135 C 
ATOM     16  C   UNL A   1      32.998  26.502  23.272  1.00  0.00     0.036 C 
BRANCH  15  17
ATOM     17  C   UNL A   1      30.646  25.390  23.308  1.00  0.00     0.135 C 
ATOM     18  C   UNL A   1      29.581  26.066  24.167  1.00  0.00     0.040 C 
BRANCH  17  19
ATOM     19  O   UNL A   1      30.268  24.012  23.154  1.00  0.00    -0.391 OA
ATOM     20  H   UNL A   1      29.361  23.887  23.475  1.00  0.00     0.211 HD
ENDBRANCH  17  19
ENDBRANCH  15  17
ENDBRANCH   9  15
ENDBRANCH   4   7
ENDBRANCH   2   3
ENDBRANCH   1   2
BRANCH   1  21
ATOM     21  C   UNL A   1      38.334  22.058  25.477  1.00  0.00     0.118 C 
BRANCH  21  22
ATOM     22  N   UNL A   1      39.230  21.558  26.542  1.00  0.00    -0.352 N 
ATOM     23  C   UNL A   1      40.150  22.299  27.288  1.00  0.00     0.251 C 
ATOM     24  H   UNL A   1      39.171  20.597  26.748  1.00  0.00     0.163 HD
ATOM     25  O   UNL A   1      40.930  21.788  28.057  1.00  0.00    -0.269 OA
BRANCH  23  26
ATOM     26  C   UNL A   1      40.119  23.762  27.074  1.00  0.00     0.039 A 
ATOM     27  C   UNL A   1      39.037  24.521  27.527  1.00  0.00     0.014 A 
ATOM     28  C   UNL A   1      41.348  24.338  26.808  1.00  0.00     0.014 A 
ATOM     29  C   UNL A   1      39.256  25.852  27.899  1.00  0.00     0.010 A 
ATOM     30  C   UNL A   1      41.592  25.563  27.382  1.00  0.00     0.010 A 
ATOM     31  C   UNL A   1      40.563  26.358  27.908  1.00  0.00    -0.014 A 
BRANCH  31  32
ATOM     32  C   UNL A   1      40.903  27.625  28.582  1.00  0.00     0.031 A 
ATOM     33  C   UNL A   1      42.003  28.485  28.022  1.00  0.00     0.074 A 
ATOM     34  C   UNL A   1      40.101  28.195  29.512  1.00  0.00     0.049 A 
ATOM     35  N   UNL A   1      43.084  28.866  28.627  1.00  0.00    -0.248 NA
ATOM     36  C   UNL A   1      41.896  28.991  26.645  1.00  0.00     0.031 C 
ATOM     37  C   UNL A   1      38.812  27.722  30.038  1.00  0.00     0.029 A 
ATOM     38  N   UNL A   1      40.186  29.449  30.036  1.00  0.00    -0.354 N 
ATOM     39  C   UNL A   1      43.707  29.802  27.795  1.00  0.00     0.074 A 
ATOM     40  C   UNL A   1      42.992  29.751  26.543  1.00  0.00     0.031 C 
ATOM     41  C   UNL A   1      38.095  28.775  30.477  1.00  0.00     0.029 A 
ATOM     42  C   UNL A   1      38.973  29.925  30.513  1.00  0.00     0.049 A 
ATOM     43  H   UNL A   1      41.022  29.968  30.071  1.00  0.00     0.167 HD
ATOM     44  C   UNL A   1      44.657  30.673  28.248  1.00  0.00     0.034 A 
ATOM     45  C   UNL A   1      38.692  31.182  30.912  1.00  0.00     0.034 A 
ATOM     46  C   UNL A   1      45.095  30.358  29.581  1.00  0.00     0.049 A 
ATOM     47  C   UNL A   1      39.970  31.794  31.330  1.00  0.00     0.074 A 
ATOM     48  C   UNL A   1      45.646  29.259  30.209  1.00  0.00     0.029 A 
ATOM     49  N   UNL A   1      44.667  31.176  30.601  1.00  0.00    -0.354 N 
ATOM     50  N   UNL A   1      40.679  31.349  32.333  1.00  0.00    -0.248 NA
ATOM     51  C   UNL A   1      40.680  32.641  30.389  1.00  0.00     0.031 C 
ATOM     52  C   UNL A   1      45.025  29.233  31.495  1.00  0.00     0.029 A 
ATOM     53  C   UNL A   1      44.178  30.342  31.570  1.00  0.00     0.049 A 
ATOM     54  H   UNL A   1      44.704  32.160  30.628  1.00  0.00     0.167 HD
ATOM     55  C   UNL A   1      41.996  31.474  31.912  1.00  0.00     0.074 A 
ATOM     56  C   UNL A   1      41.935  32.397  30.779  1.00  0.00     0.031 C 
ATOM     57  C   UNL A   1      42.968  30.600  32.323  1.00  0.00     0.034 A 
BRANCH  44  58
ATOM     58  C   UNL A   1      45.032  32.002  27.631  1.00  0.00     0.023 A 
ATOM     59  C   UNL A   1      46.382  32.196  27.249  1.00  0.00     0.012 A 
ATOM     60  C   UNL A   1      44.205  33.143  27.651  1.00  0.00     0.148 A 
ATOM     61  C   UNL A   1      46.890  33.463  26.937  1.00  0.00     0.002 A 
ATOM     62  C   UNL A   1      44.696  34.389  27.265  1.00  0.00     0.091 A 
ATOM     63  F   UNL A   1      42.974  33.060  28.169  1.00  0.00    -0.205 F 
ATOM     64  C   UNL A   1      46.043  34.561  26.934  1.00  0.00     0.022 A 
BRANCH  62  65
ATOM     65  S   UNL A   1      43.612  35.819  27.177  1.00  0.00     0.127 S 
ATOM     66  O   UNL A   1      42.663  35.407  26.149  1.00  0.00    -0.237 OA
ATOM     67  O   UNL A   1      43.068  35.881  28.535  1.00  0.00    -0.237 OA
ATOM     68  O   UNL A   1      44.500  36.927  26.845  1.00  0.00    -0.744 OA
ENDBRANCH  62  65
ENDBRANCH  44  58
BRANCH  45  69
ATOM     69  C   UNL A   1      37.413  31.903  30.782  1.00  0.00     0.023 A 
ATOM     70  C   UNL A   1      36.586  31.686  29.668  1.00  0.00     0.012 A 
ATOM     71  C   UNL A   1      36.898  32.649  31.869  1.00  0.00     0.148 A 
ATOM     72  C   UNL A   1      35.280  32.188  29.639  1.00  0.00     0.002 A 
ATOM     73  C   UNL A   1      35.602  33.154  31.831  1.00  0.00     0.091 A 
ATOM     74  F   UNL A   1      37.650  32.791  32.970  1.00  0.00    -0.205 F 
ATOM     75  C   UNL A   1      34.786  32.919  30.719  1.00  0.00     0.022 A 
BRANCH  73  76
ATOM     76  S   UNL A   1      34.911  34.100  33.195  1.00  0.00     0.127 S 
ATOM     77  O   UNL A   1      33.529  34.301  32.757  1.00  0.00    -0.237 OA
ATOM     78  O   UNL A   1      35.071  33.176  34.314  1.00  0.00    -0.237 OA
ATOM     79  O   UNL A   1      35.705  35.321  33.258  1.00  0.00    -0.744 OA
ENDBRANCH  73  76
ENDBRANCH  45  69
BRANCH  57  80
ATOM     80  C   UNL A   1      42.641  29.589  33.401  1.00  0.00     0.023 A 
ATOM     81  C   UNL A   1      41.851  28.453  33.124  1.00  0.00     0.012 A 
ATOM     82  C   UNL A   1      43.314  29.645  34.634  1.00  0.00     0.148 A 
ATOM     83  C   UNL A   1      41.717  27.413  34.047  1.00  0.00     0.002 A 
ATOM     84  C   UNL A   1      43.213  28.590  35.538  1.00  0.00     0.091 A 
ATOM     85  F   UNL A   1      44.080  30.718  34.891  1.00  0.00    -0.205 F 
ATOM     86  C   UNL A   1      42.410  27.475  35.250  1.00  0.00     0.022 A 
BRANCH  84  87
ATOM     87  S   UNL A   1      44.184  28.543  37.048  1.00  0.00     0.127 S 
ATOM     88  O   UNL A   1      43.780  29.780  37.710  1.00  0.00    -0.237 OA
ATOM     89  O   UNL A   1      43.707  27.320  37.697  1.00  0.00    -0.237 OA
ATOM     90  O   UNL A   1      45.577  28.479  36.622  1.00  0.00    -0.744 OA
ENDBRANCH  84  87
ENDBRANCH  57  80
ENDBRANCH  31  32
ENDBRANCH  23  26
ENDBRANCH  21  22
ENDBRANCH   1  21
TORSDOF 18
ENDMDL
