MODEL 1
REMARK VINA RESULT:     -10.2      0.000      0.000
REMARK SMILES O=C(COc1cccc(/C=C2\SC(=O)N(c3cccc(Cl)c3)C2=O)c1)NCCCNC(=O)c1ccc(-c2c3nc(c(-c4cccc(S(=O)(=O)[O-])c4F)c4ccc([nH]4)c(-c4cccc(S(=O)(=O)[O-])c4F)c4nc(c(-c5cccc(S(=O)(=O)[O-])c5F)c5ccc2[nH]5)C=C4)C=C3)cc1
REMARK SMILES IDX 27 1 26 2 1 3 2 4 3 6 4 7 5 8 6 9 25 10 7 11 9 12 8 13 10 14
REMARK SMILES IDX 11 15 12 16 23 17 13 18 15 19 24 20 14 21 16 22 17 23 22 24
REMARK SMILES IDX 18 25 20 26 19 27 21 28 28 29 29 30 30 31 31 32 32 34 33 35
REMARK SMILES IDX 34 36 95 37 35 38 94 39 36 40 37 41 38 42 88 43 39 44 93 45
REMARK SMILES IDX 87 46 89 47 40 48 92 49 86 50 85 51 41 53 73 54 53 55 72 56
REMARK SMILES IDX 54 57 57 58 71 59 90 60 55 61 56 62 70 64 91 65 58 66 42 67
REMARK SMILES IDX 43 68 51 69 44 70 46 71 52 72 45 73 47 74 48 75 49 76 50 77
REMARK SMILES IDX 74 78 75 79 83 80 76 81 78 82 84 83 77 84 79 85 80 86 81 87
REMARK SMILES IDX 82 88 59 89 60 90 68 91 61 92 63 93 69 94 62 95 64 96 65 97
REMARK SMILES IDX 66 98 67 99
REMARK H PARENT 26 5 30 33 89 52 57 63
REMARK Flexibility Score: inf
ROOT
ATOM      1  C   UNL A   1      42.352  20.334  26.019  1.00  0.00     0.117 C 
ENDROOT
BRANCH   1   2
ATOM      2  N   UNL A   1      42.886  21.527  25.392  1.00  0.00    -0.353 N 
ATOM      3  O   UNL A   1      45.040  20.748  25.188  1.00  0.00    -0.271 OA
ATOM      4  C   UNL A   1      44.187  21.594  24.933  1.00  0.00     0.257 C 
ATOM      5  H   UNL A   1      42.303  22.314  25.290  1.00  0.00     0.163 HD
BRANCH   4   6
ATOM      6  C   UNL A   1      44.478  22.795  24.023  1.00  0.00     0.329 C 
BRANCH   6   7
ATOM      7  O   UNL A   1      45.731  23.461  24.183  1.00  0.00    -0.484 OA
BRANCH   7   8
ATOM      8  C   UNL A   1      45.818  24.269  25.287  1.00  0.00     0.120 A 
ATOM      9  C   UNL A   1      46.472  23.771  26.410  1.00  0.00     0.046 A 
ATOM     10  C   UNL A   1      45.161  25.493  25.376  1.00  0.00     0.054 A 
ATOM     11  C   UNL A   1      46.490  24.511  27.599  1.00  0.00     0.004 A 
ATOM     12  C   UNL A   1      45.128  26.217  26.573  1.00  0.00    -0.021 A 
ATOM     13  C   UNL A   1      45.816  25.734  27.683  1.00  0.00     0.008 A 
BRANCH  12  14
ATOM     14  C   UNL A   1      44.343  27.456  26.604  1.00  0.00     0.029 C 
ATOM     15  C   UNL A   1      44.874  28.686  26.526  1.00  0.00     0.083 C 
ATOM     16  S   UNL A   1      46.504  29.108  26.193  1.00  0.00    -0.022 SA
ATOM     17  C   UNL A   1      44.062  29.912  26.753  1.00  0.00     0.272 C 
ATOM     18  C   UNL A   1      46.180  30.829  26.311  1.00  0.00     0.298 C 
ATOM     19  N   UNL A   1      44.857  31.042  26.640  1.00  0.00    -0.236 N 
ATOM     20  O   UNL A   1      42.855  29.857  26.959  1.00  0.00    -0.268 OA
ATOM     21  O   UNL A   1      47.069  31.646  26.144  1.00  0.00    -0.260 OA
BRANCH  19  22
ATOM     22  C   UNL A   1      44.324  32.353  26.815  1.00  0.00     0.054 A 
ATOM     23  C   UNL A   1      44.074  33.177  25.707  1.00  0.00     0.027 A 
ATOM     24  C   UNL A   1      44.059  32.857  28.097  1.00  0.00     0.047 A 
ATOM     25  C   UNL A   1      43.582  34.475  25.873  1.00  0.00     0.004 A 
ATOM     26  C   UNL A   1      43.606  34.168  28.258  1.00  0.00     0.043 A 
ATOM     27  C   UNL A   1      43.363  34.977  27.152  1.00  0.00     0.020 A 
ATOM     28  Cl  UNL A   1      43.387  34.805  29.842  1.00  0.00    -0.084 Cl
ENDBRANCH  19  22
ENDBRANCH  12  14
ENDBRANCH   7   8
ENDBRANCH   6   7
ENDBRANCH   4   6
ENDBRANCH   1   2
BRANCH   1  29
ATOM     29  C   UNL A   1      40.960  20.521  26.599  1.00  0.00     0.042 C 
BRANCH  29  30
ATOM     30  C   UNL A   1      40.590  21.970  26.889  1.00  0.00     0.118 C 
BRANCH  30  31
ATOM     31  N   UNL A   1      39.508  22.473  26.053  1.00  0.00    -0.352 N 
ATOM     32  C   UNL A   1      38.871  23.690  26.061  1.00  0.00     0.251 C 
ATOM     33  H   UNL A   1      39.183  21.839  25.372  1.00  0.00     0.163 HD
ATOM     34  O   UNL A   1      37.905  23.863  25.320  1.00  0.00    -0.269 OA
BRANCH  32  35
ATOM     35  C   UNL A   1      39.309  24.782  26.960  1.00  0.00     0.039 A 
ATOM     36  C   UNL A   1      40.112  25.796  26.428  1.00  0.00     0.014 A 
ATOM     37  C   UNL A   1      38.971  24.806  28.315  1.00  0.00     0.014 A 
ATOM     38  C   UNL A   1      40.525  26.855  27.241  1.00  0.00     0.010 A 
ATOM     39  C   UNL A   1      39.310  25.907  29.100  1.00  0.00     0.010 A 
ATOM     40  C   UNL A   1      40.100  26.940  28.577  1.00  0.00    -0.014 A 
BRANCH  40  41
ATOM     41  C   UNL A   1      40.471  28.108  29.419  1.00  0.00     0.031 A 
ATOM     42  C   UNL A   1      41.869  28.259  29.961  1.00  0.00     0.074 A 
ATOM     43  C   UNL A   1      39.527  29.014  29.745  1.00  0.00     0.049 A 
ATOM     44  N   UNL A   1      42.368  29.223  30.692  1.00  0.00    -0.248 NA
ATOM     45  C   UNL A   1      42.823  27.176  29.669  1.00  0.00     0.031 C 
ATOM     46  C   UNL A   1      38.115  28.937  29.363  1.00  0.00     0.029 A 
ATOM     47  N   UNL A   1      39.608  30.171  30.480  1.00  0.00    -0.354 N 
ATOM     48  C   UNL A   1      43.679  28.853  30.969  1.00  0.00     0.074 A 
ATOM     49  C   UNL A   1      43.887  27.555  30.364  1.00  0.00     0.031 C 
ATOM     50  C   UNL A   1      37.467  30.008  29.851  1.00  0.00     0.029 A 
ATOM     51  C   UNL A   1      38.409  30.834  30.599  1.00  0.00     0.049 A 
ATOM     52  H   UNL A   1      40.445  30.494  30.884  1.00  0.00     0.167 HD
ATOM     53  C   UNL A   1      44.636  29.541  31.639  1.00  0.00     0.034 A 
ATOM     54  C   UNL A   1      38.101  31.980  31.237  1.00  0.00     0.034 A 
ATOM     55  C   UNL A   1      44.440  30.847  32.210  1.00  0.00     0.049 A 
ATOM     56  C   UNL A   1      39.193  32.751  31.926  1.00  0.00     0.074 A 
ATOM     57  C   UNL A   1      45.369  31.663  32.830  1.00  0.00     0.029 A 
ATOM     58  N   UNL A   1      43.231  31.526  32.239  1.00  0.00    -0.354 N 
ATOM     59  N   UNL A   1      40.467  32.464  32.031  1.00  0.00    -0.248 NA
ATOM     60  C   UNL A   1      38.812  34.027  32.548  1.00  0.00     0.031 C 
ATOM     61  C   UNL A   1      44.716  32.824  33.260  1.00  0.00     0.029 A 
ATOM     62  C   UNL A   1      43.387  32.745  32.876  1.00  0.00     0.049 A 
ATOM     63  H   UNL A   1      42.385  31.189  31.863  1.00  0.00     0.167 HD
ATOM     64  C   UNL A   1      41.047  33.537  32.696  1.00  0.00     0.074 A 
ATOM     65  C   UNL A   1      39.988  34.493  32.947  1.00  0.00     0.031 C 
ATOM     66  C   UNL A   1      42.336  33.710  33.080  1.00  0.00     0.034 A 
BRANCH  53  67
ATOM     67  C   UNL A   1      46.004  28.914  31.748  1.00  0.00     0.023 A 
ATOM     68  C   UNL A   1      46.328  28.144  32.884  1.00  0.00     0.012 A 
ATOM     69  C   UNL A   1      46.944  29.032  30.705  1.00  0.00     0.148 A 
ATOM     70  C   UNL A   1      47.576  27.533  32.998  1.00  0.00     0.002 A 
ATOM     71  C   UNL A   1      48.169  28.382  30.805  1.00  0.00     0.091 A 
ATOM     72  F   UNL A   1      46.628  29.784  29.641  1.00  0.00    -0.205 F 
ATOM     73  C   UNL A   1      48.491  27.644  31.957  1.00  0.00     0.022 A 
BRANCH  71  74
ATOM     74  S   UNL A   1      49.385  28.393  29.483  1.00  0.00     0.127 S 
ATOM     75  O   UNL A   1      48.619  27.828  28.373  1.00  0.00    -0.237 OA
ATOM     76  O   UNL A   1      49.683  29.820  29.353  1.00  0.00    -0.237 OA
ATOM     77  O   UNL A   1      50.497  27.580  29.952  1.00  0.00    -0.744 OA
ENDBRANCH  71  74
ENDBRANCH  53  67
BRANCH  54  78
ATOM     78  C   UNL A   1      36.706  32.508  31.188  1.00  0.00     0.023 A 
ATOM     79  C   UNL A   1      35.903  32.456  32.344  1.00  0.00     0.012 A 
ATOM     80  C   UNL A   1      36.182  33.076  30.012  1.00  0.00     0.148 A 
ATOM     81  C   UNL A   1      34.590  32.927  32.320  1.00  0.00     0.002 A 
ATOM     82  C   UNL A   1      34.893  33.598  30.011  1.00  0.00     0.091 A 
ATOM     83  F   UNL A   1      36.958  33.107  28.920  1.00  0.00    -0.205 F 
ATOM     84  C   UNL A   1      34.089  33.507  31.158  1.00  0.00     0.022 A 
BRANCH  82  85
ATOM     85  S   UNL A   1      34.213  34.481  28.603  1.00  0.00     0.127 S 
ATOM     86  O   UNL A   1      34.387  33.509  27.527  1.00  0.00    -0.237 OA
ATOM     87  O   UNL A   1      32.828  34.696  29.022  1.00  0.00    -0.237 OA
ATOM     88  O   UNL A   1      35.000  35.701  28.487  1.00  0.00    -0.744 OA
ENDBRANCH  82  85
ENDBRANCH  54  78
BRANCH  66  89
ATOM     89  C   UNL A   1      42.688  34.999  33.778  1.00  0.00     0.023 A 
ATOM     90  C   UNL A   1      43.045  36.135  33.023  1.00  0.00     0.012 A 
ATOM     91  C   UNL A   1      42.621  35.098  35.181  1.00  0.00     0.148 A 
ATOM     92  C   UNL A   1      43.375  37.333  33.656  1.00  0.00     0.002 A 
ATOM     93  C   UNL A   1      42.898  36.310  35.803  1.00  0.00     0.091 A 
ATOM     94  F   UNL A   1      42.297  34.004  35.886  1.00  0.00    -0.205 F 
ATOM     95  C   UNL A   1      43.291  37.424  35.044  1.00  0.00     0.022 A 
BRANCH  93  96
ATOM     96  S   UNL A   1      42.719  36.544  37.574  1.00  0.00     0.127 S 
ATOM     97  O   UNL A   1      41.282  36.781  37.701  1.00  0.00    -0.237 OA
ATOM     98  O   UNL A   1      43.174  35.259  38.106  1.00  0.00    -0.237 OA
ATOM     99  O   UNL A   1      43.573  37.673  37.917  1.00  0.00    -0.744 OA
ENDBRANCH  93  96
ENDBRANCH  66  89
ENDBRANCH  40  41
ENDBRANCH  32  35
ENDBRANCH  30  31
ENDBRANCH  29  30
ENDBRANCH   1  29
TORSDOF 17
ENDMDL
MODEL 2
REMARK VINA RESULT:      -9.9      5.301      8.830
REMARK SMILES O=C(COc1cccc(/C=C2\SC(=O)N(c3cccc(Cl)c3)C2=O)c1)NCCCNC(=O)c1ccc(-c2c3nc(c(-c4cccc(S(=O)(=O)[O-])c4F)c4ccc([nH]4)c(-c4cccc(S(=O)(=O)[O-])c4F)c4nc(c(-c5cccc(S(=O)(=O)[O-])c5F)c5ccc2[nH]5)C=C4)C=C3)cc1
REMARK SMILES IDX 27 1 26 2 1 3 2 4 3 6 4 7 5 8 6 9 25 10 7 11 9 12 8 13 10 14
REMARK SMILES IDX 11 15 12 16 23 17 13 18 15 19 24 20 14 21 16 22 17 23 22 24
REMARK SMILES IDX 18 25 20 26 19 27 21 28 28 29 29 30 30 31 31 32 32 34 33 35
REMARK SMILES IDX 34 36 95 37 35 38 94 39 36 40 37 41 38 42 88 43 39 44 93 45
REMARK SMILES IDX 87 46 89 47 40 48 92 49 86 50 85 51 41 53 73 54 53 55 72 56
REMARK SMILES IDX 54 57 57 58 71 59 90 60 55 61 56 62 70 64 91 65 58 66 42 67
REMARK SMILES IDX 43 68 51 69 44 70 46 71 52 72 45 73 47 74 48 75 49 76 50 77
REMARK SMILES IDX 74 78 75 79 83 80 76 81 78 82 84 83 77 84 79 85 80 86 81 87
REMARK SMILES IDX 82 88 59 89 60 90 68 91 61 92 63 93 69 94 62 95 64 96 65 97
REMARK SMILES IDX 66 98 67 99
REMARK H PARENT 26 5 30 33 89 52 57 63
REMARK Flexibility Score: inf
ROOT
ATOM      1  C   UNL A   1      40.581  21.852  27.536  1.00  0.00     0.117 C 
ENDROOT
BRANCH   1   2
ATOM      2  N   UNL A   1      39.346  21.763  26.780  1.00  0.00    -0.353 N 
ATOM      3  O   UNL A   1      39.104  24.025  26.448  1.00  0.00    -0.271 OA
ATOM      4  C   UNL A   1      38.756  22.872  26.207  1.00  0.00     0.257 C 
ATOM      5  H   UNL A   1      38.915  20.884  26.673  1.00  0.00     0.163 HD
BRANCH   4   6
ATOM      6  C   UNL A   1      37.652  22.550  25.191  1.00  0.00     0.329 C 
BRANCH   6   7
ATOM      7  O   UNL A   1      37.047  21.259  25.254  1.00  0.00    -0.484 OA
BRANCH   7   8
ATOM      8  C   UNL A   1      35.721  21.223  24.910  1.00  0.00     0.120 A 
ATOM      9  C   UNL A   1      35.041  20.018  25.057  1.00  0.00     0.046 A 
ATOM     10  C   UNL A   1      35.077  22.290  24.292  1.00  0.00     0.054 A 
ATOM     11  C   UNL A   1      33.717  19.899  24.615  1.00  0.00     0.004 A 
ATOM     12  C   UNL A   1      33.773  22.168  23.799  1.00  0.00    -0.021 A 
ATOM     13  C   UNL A   1      33.082  20.972  23.983  1.00  0.00     0.008 A 
BRANCH  12  14
ATOM     14  C   UNL A   1      33.198  23.314  23.086  1.00  0.00     0.029 C 
ATOM     15  C   UNL A   1      32.565  24.334  23.687  1.00  0.00     0.083 C 
ATOM     16  S   UNL A   1      32.439  24.648  25.370  1.00  0.00    -0.022 SA
ATOM     17  C   UNL A   1      31.835  25.374  22.914  1.00  0.00     0.272 C 
ATOM     18  C   UNL A   1      31.488  26.102  25.121  1.00  0.00     0.298 C 
ATOM     19  N   UNL A   1      31.253  26.292  23.776  1.00  0.00    -0.236 N 
ATOM     20  O   UNL A   1      31.829  25.383  21.689  1.00  0.00    -0.268 OA
ATOM     21  O   UNL A   1      31.103  26.767  26.068  1.00  0.00    -0.260 OA
BRANCH  19  22
ATOM     22  C   UNL A   1      30.490  27.394  23.291  1.00  0.00     0.054 A 
ATOM     23  C   UNL A   1      31.120  28.483  22.668  1.00  0.00     0.027 A 
ATOM     24  C   UNL A   1      29.095  27.428  23.443  1.00  0.00     0.047 A 
ATOM     25  C   UNL A   1      30.381  29.581  22.219  1.00  0.00     0.004 A 
ATOM     26  C   UNL A   1      28.368  28.545  23.029  1.00  0.00     0.043 A 
ATOM     27  C   UNL A   1      29.004  29.619  22.415  1.00  0.00     0.020 A 
ATOM     28  Cl  UNL A   1      26.673  28.614  23.320  1.00  0.00    -0.084 Cl
ENDBRANCH  19  22
ENDBRANCH  12  14
ENDBRANCH   7   8
ENDBRANCH   6   7
ENDBRANCH   4   6
ENDBRANCH   1   2
BRANCH   1  29
ATOM     29  C   UNL A   1      41.491  20.649  27.361  1.00  0.00     0.042 C 
BRANCH  29  30
ATOM     30  C   UNL A   1      41.343  19.939  26.021  1.00  0.00     0.118 C 
BRANCH  30  31
ATOM     31  N   UNL A   1      42.613  19.526  25.438  1.00  0.00    -0.352 N 
ATOM     32  C   UNL A   1      43.764  20.243  25.217  1.00  0.00     0.251 C 
ATOM     33  H   UNL A   1      42.652  18.583  25.158  1.00  0.00     0.163 HD
ATOM     34  O   UNL A   1      44.693  19.709  24.614  1.00  0.00    -0.269 OA
BRANCH  32  35
ATOM     35  C   UNL A   1      43.895  21.646  25.671  1.00  0.00     0.039 A 
ATOM     36  C   UNL A   1      44.370  21.884  26.965  1.00  0.00     0.014 A 
ATOM     37  C   UNL A   1      43.532  22.724  24.859  1.00  0.00     0.014 A 
ATOM     38  C   UNL A   1      44.529  23.196  27.419  1.00  0.00     0.010 A 
ATOM     39  C   UNL A   1      43.775  24.029  25.281  1.00  0.00     0.010 A 
ATOM     40  C   UNL A   1      44.265  24.283  26.569  1.00  0.00    -0.014 A 
BRANCH  40  41
ATOM     41  C   UNL A   1      44.513  25.678  27.022  1.00  0.00     0.031 A 
ATOM     42  C   UNL A   1      45.893  26.281  26.953  1.00  0.00     0.074 A 
ATOM     43  C   UNL A   1      43.499  26.391  27.552  1.00  0.00     0.049 A 
ATOM     44  N   UNL A   1      46.282  27.485  27.284  1.00  0.00    -0.248 NA
ATOM     45  C   UNL A   1      46.982  25.413  26.475  1.00  0.00     0.031 C 
ATOM     46  C   UNL A   1      42.137  25.894  27.763  1.00  0.00     0.029 A 
ATOM     47  N   UNL A   1      43.456  27.681  28.021  1.00  0.00    -0.354 N 
ATOM     48  C   UNL A   1      47.657  27.512  27.083  1.00  0.00     0.074 A 
ATOM     49  C   UNL A   1      48.043  26.190  26.641  1.00  0.00     0.031 C 
ATOM     50  C   UNL A   1      41.389  26.872  28.300  1.00  0.00     0.029 A 
ATOM     51  C   UNL A   1      42.221  28.054  28.497  1.00  0.00     0.049 A 
ATOM     52  H   UNL A   1      44.237  28.281  28.018  1.00  0.00     0.167 HD
ATOM     53  C   UNL A   1      48.518  28.549  27.222  1.00  0.00     0.034 A 
ATOM     54  C   UNL A   1      41.802  29.219  29.030  1.00  0.00     0.034 A 
ATOM     55  C   UNL A   1      48.128  29.874  27.627  1.00  0.00     0.049 A 
ATOM     56  C   UNL A   1      42.766  30.370  29.122  1.00  0.00     0.074 A 
ATOM     57  C   UNL A   1      48.910  31.012  27.713  1.00  0.00     0.029 A 
ATOM     58  N   UNL A   1      46.851  30.237  28.022  1.00  0.00    -0.354 N 
ATOM     59  N   UNL A   1      44.026  30.423  28.766  1.00  0.00    -0.248 NA
ATOM     60  C   UNL A   1      42.238  31.636  29.649  1.00  0.00     0.031 C 
ATOM     61  C   UNL A   1      48.111  32.058  28.188  1.00  0.00     0.029 A 
ATOM     62  C   UNL A   1      46.823  31.579  28.364  1.00  0.00     0.049 A 
ATOM     63  H   UNL A   1      46.076  29.630  28.057  1.00  0.00     0.167 HD
ATOM     64  C   UNL A   1      44.432  31.733  28.991  1.00  0.00     0.074 A 
ATOM     65  C   UNL A   1      43.274  32.448  29.489  1.00  0.00     0.031 C 
ATOM     66  C   UNL A   1      45.655  32.292  28.816  1.00  0.00     0.034 A 
BRANCH  53  67
ATOM     67  C   UNL A   1      49.968  28.306  26.883  1.00  0.00     0.023 A 
ATOM     68  C   UNL A   1      50.404  28.448  25.548  1.00  0.00     0.012 A 
ATOM     69  C   UNL A   1      50.910  28.004  27.886  1.00  0.00     0.148 A 
ATOM     70  C   UNL A   1      51.743  28.254  25.212  1.00  0.00     0.002 A 
ATOM     71  C   UNL A   1      52.252  27.858  27.550  1.00  0.00     0.091 A 
ATOM     72  F   UNL A   1      50.476  27.854  29.146  1.00  0.00    -0.205 F 
ATOM     73  C   UNL A   1      52.667  27.970  26.212  1.00  0.00     0.022 A 
BRANCH  71  74
ATOM     74  S   UNL A   1      53.533  27.573  28.776  1.00  0.00     0.127 S 
ATOM     75  O   UNL A   1      54.723  27.449  27.934  1.00  0.00    -0.237 OA
ATOM     76  O   UNL A   1      53.475  28.800  29.571  1.00  0.00    -0.237 OA
ATOM     77  O   UNL A   1      53.146  26.366  29.491  1.00  0.00    -0.744 OA
ENDBRANCH  71  74
ENDBRANCH  53  67
BRANCH  54  78
ATOM     78  C   UNL A   1      40.379  29.378  29.448  1.00  0.00     0.023 A 
ATOM     79  C   UNL A   1      39.412  29.742  28.492  1.00  0.00     0.012 A 
ATOM     80  C   UNL A   1      39.980  29.151  30.778  1.00  0.00     0.148 A 
ATOM     81  C   UNL A   1      38.077  29.914  28.860  1.00  0.00     0.002 A 
ATOM     82  C   UNL A   1      38.639  29.266  31.126  1.00  0.00     0.091 A 
ATOM     83  F   UNL A   1      40.917  28.815  31.675  1.00  0.00    -0.205 F 
ATOM     84  C   UNL A   1      37.689  29.666  30.174  1.00  0.00     0.022 A 
BRANCH  82  85
ATOM     85  S   UNL A   1      38.028  28.837  32.760  1.00  0.00     0.127 S 
ATOM     86  O   UNL A   1      38.915  29.611  33.624  1.00  0.00    -0.237 OA
ATOM     87  O   UNL A   1      36.648  29.318  32.703  1.00  0.00    -0.237 OA
ATOM     88  O   UNL A   1      38.155  27.389  32.859  1.00  0.00    -0.744 OA
ENDBRANCH  82  85
ENDBRANCH  54  78
BRANCH  66  89
ATOM     89  C   UNL A   1      45.801  33.760  29.127  1.00  0.00     0.023 A 
ATOM     90  C   UNL A   1      46.235  34.170  30.404  1.00  0.00     0.012 A 
ATOM     91  C   UNL A   1      45.551  34.732  28.138  1.00  0.00     0.148 A 
ATOM     92  C   UNL A   1      46.372  35.525  30.705  1.00  0.00     0.002 A 
ATOM     93  C   UNL A   1      45.743  36.078  28.429  1.00  0.00     0.091 A 
ATOM     94  F   UNL A   1      45.122  34.327  26.934  1.00  0.00    -0.205 F 
ATOM     95  C   UNL A   1      46.137  36.477  29.716  1.00  0.00     0.022 A 
BRANCH  93  96
ATOM     96  S   UNL A   1      45.559  37.363  27.189  1.00  0.00     0.127 S 
ATOM     97  O   UNL A   1      44.133  37.281  26.882  1.00  0.00    -0.237 OA
ATOM     98  O   UNL A   1      45.955  38.565  27.925  1.00  0.00    -0.237 OA
ATOM     99  O   UNL A   1      46.458  37.001  26.101  1.00  0.00    -0.744 OA
ENDBRANCH  93  96
ENDBRANCH  66  89
ENDBRANCH  40  41
ENDBRANCH  32  35
ENDBRANCH  30  31
ENDBRANCH  29  30
ENDBRANCH   1  29
TORSDOF 17
ENDMDL
MODEL 3
REMARK VINA RESULT:      -9.8      1.036      7.422
REMARK SMILES O=C(COc1cccc(/C=C2\SC(=O)N(c3cccc(Cl)c3)C2=O)c1)NCCCNC(=O)c1ccc(-c2c3nc(c(-c4cccc(S(=O)(=O)[O-])c4F)c4ccc([nH]4)c(-c4cccc(S(=O)(=O)[O-])c4F)c4nc(c(-c5cccc(S(=O)(=O)[O-])c5F)c5ccc2[nH]5)C=C4)C=C3)cc1
REMARK SMILES IDX 27 1 26 2 1 3 2 4 3 6 4 7 5 8 6 9 25 10 7 11 9 12 8 13 10 14
REMARK SMILES IDX 11 15 12 16 23 17 13 18 15 19 24 20 14 21 16 22 17 23 22 24
REMARK SMILES IDX 18 25 20 26 19 27 21 28 28 29 29 30 30 31 31 32 32 34 33 35
REMARK SMILES IDX 34 36 95 37 35 38 94 39 36 40 37 41 38 42 88 43 39 44 93 45
REMARK SMILES IDX 87 46 89 47 40 48 92 49 86 50 85 51 41 53 73 54 53 55 72 56
REMARK SMILES IDX 54 57 57 58 71 59 90 60 55 61 56 62 70 64 91 65 58 66 42 67
REMARK SMILES IDX 43 68 51 69 44 70 46 71 52 72 45 73 47 74 48 75 49 76 50 77
REMARK SMILES IDX 74 78 75 79 83 80 76 81 78 82 84 83 77 84 79 85 80 86 81 87
REMARK SMILES IDX 82 88 59 89 60 90 68 91 61 92 63 93 69 94 62 95 64 96 65 97
REMARK SMILES IDX 66 98 67 99
REMARK H PARENT 26 5 30 33 89 52 57 63
REMARK Flexibility Score: inf
ROOT
ATOM      1  C   UNL A   1      42.234  20.245  26.107  1.00  0.00     0.117 C 
ENDROOT
BRANCH   1   2
ATOM      2  N   UNL A   1      42.837  21.496  25.687  1.00  0.00    -0.353 N 
ATOM      3  O   UNL A   1      44.465  20.547  24.370  1.00  0.00    -0.271 OA
ATOM      4  C   UNL A   1      43.859  21.542  24.760  1.00  0.00     0.257 C 
ATOM      5  H   UNL A   1      42.508  22.338  26.077  1.00  0.00     0.163 HD
BRANCH   4   6
ATOM      6  C   UNL A   1      44.149  22.942  24.203  1.00  0.00     0.329 C 
BRANCH   6   7
ATOM      7  O   UNL A   1      45.484  23.436  24.312  1.00  0.00    -0.484 OA
BRANCH   7   8
ATOM      8  C   UNL A   1      45.700  24.291  25.362  1.00  0.00     0.120 A 
ATOM      9  C   UNL A   1      46.480  23.838  26.422  1.00  0.00     0.046 A 
ATOM     10  C   UNL A   1      45.060  25.521  25.472  1.00  0.00     0.054 A 
ATOM     11  C   UNL A   1      46.637  24.629  27.567  1.00  0.00     0.004 A 
ATOM     12  C   UNL A   1      45.167  26.297  26.632  1.00  0.00    -0.021 A 
ATOM     13  C   UNL A   1      45.979  25.858  27.676  1.00  0.00     0.008 A 
BRANCH  12  14
ATOM     14  C   UNL A   1      44.393  27.541  26.700  1.00  0.00     0.029 C 
ATOM     15  C   UNL A   1      44.929  28.768  26.601  1.00  0.00     0.083 C 
ATOM     16  S   UNL A   1      46.546  29.180  26.196  1.00  0.00    -0.022 SA
ATOM     17  C   UNL A   1      44.136  29.999  26.865  1.00  0.00     0.272 C 
ATOM     18  C   UNL A   1      46.238  30.902  26.331  1.00  0.00     0.298 C 
ATOM     19  N   UNL A   1      44.933  31.124  26.718  1.00  0.00    -0.236 N 
ATOM     20  O   UNL A   1      42.939  29.952  27.124  1.00  0.00    -0.268 OA
ATOM     21  O   UNL A   1      47.125  31.713  26.126  1.00  0.00    -0.260 OA
BRANCH  19  22
ATOM     22  C   UNL A   1      44.418  32.438  26.919  1.00  0.00     0.054 A 
ATOM     23  C   UNL A   1      44.154  33.277  25.825  1.00  0.00     0.027 A 
ATOM     24  C   UNL A   1      44.183  32.931  28.211  1.00  0.00     0.047 A 
ATOM     25  C   UNL A   1      43.679  34.578  26.016  1.00  0.00     0.004 A 
ATOM     26  C   UNL A   1      43.747  34.244  28.396  1.00  0.00     0.043 A 
ATOM     27  C   UNL A   1      43.491  35.068  27.304  1.00  0.00     0.020 A 
ATOM     28  Cl  UNL A   1      43.567  34.865  29.992  1.00  0.00    -0.084 Cl
ENDBRANCH  19  22
ENDBRANCH  12  14
ENDBRANCH   7   8
ENDBRANCH   6   7
ENDBRANCH   4   6
ENDBRANCH   1   2
BRANCH   1  29
ATOM     29  C   UNL A   1      40.807  20.394  26.605  1.00  0.00     0.042 C 
BRANCH  29  30
ATOM     30  C   UNL A   1      40.417  21.818  26.981  1.00  0.00     0.118 C 
BRANCH  30  31
ATOM     31  N   UNL A   1      39.303  22.342  26.202  1.00  0.00    -0.352 N 
ATOM     32  C   UNL A   1      38.713  23.583  26.220  1.00  0.00     0.251 C 
ATOM     33  H   UNL A   1      38.912  21.706  25.561  1.00  0.00     0.163 HD
ATOM     34  O   UNL A   1      37.710  23.776  25.537  1.00  0.00    -0.269 OA
BRANCH  32  35
ATOM     35  C   UNL A   1      39.249  24.678  27.060  1.00  0.00     0.039 A 
ATOM     36  C   UNL A   1      40.168  25.564  26.488  1.00  0.00     0.014 A 
ATOM     37  C   UNL A   1      38.886  24.828  28.401  1.00  0.00     0.014 A 
ATOM     38  C   UNL A   1      40.677  26.623  27.244  1.00  0.00     0.010 A 
ATOM     39  C   UNL A   1      39.326  25.935  29.124  1.00  0.00     0.010 A 
ATOM     40  C   UNL A   1      40.236  26.840  28.559  1.00  0.00    -0.014 A 
BRANCH  40  41
ATOM     41  C   UNL A   1      40.713  28.015  29.337  1.00  0.00     0.031 A 
ATOM     42  C   UNL A   1      39.847  29.237  29.503  1.00  0.00     0.074 A 
ATOM     43  C   UNL A   1      41.959  28.005  29.852  1.00  0.00     0.049 A 
ATOM     44  N   UNL A   1      40.096  30.338  30.164  1.00  0.00    -0.248 NA
ATOM     45  C   UNL A   1      38.544  29.235  28.817  1.00  0.00     0.031 C 
ATOM     46  C   UNL A   1      42.933  26.923  29.685  1.00  0.00     0.029 A 
ATOM     47  N   UNL A   1      42.625  28.935  30.611  1.00  0.00    -0.354 N 
ATOM     48  C   UNL A   1      39.000  31.167  29.953  1.00  0.00     0.074 A 
ATOM     49  C   UNL A   1      38.102  30.460  29.068  1.00  0.00     0.031 C 
ATOM     50  C   UNL A   1      44.063  27.244  30.337  1.00  0.00     0.029 A 
ATOM     51  C   UNL A   1      43.905  28.560  30.945  1.00  0.00     0.049 A 
ATOM     52  H   UNL A   1      42.224  29.791  30.887  1.00  0.00     0.167 HD
ATOM     53  C   UNL A   1      38.747  32.393  30.472  1.00  0.00     0.034 A 
ATOM     54  C   UNL A   1      44.847  29.202  31.664  1.00  0.00     0.034 A 
ATOM     55  C   UNL A   1      39.625  33.082  31.382  1.00  0.00     0.049 A 
ATOM     56  C   UNL A   1      44.520  30.537  32.274  1.00  0.00     0.074 A 
ATOM     57  C   UNL A   1      39.417  34.286  32.031  1.00  0.00     0.029 A 
ATOM     58  N   UNL A   1      40.879  32.633  31.765  1.00  0.00    -0.354 N 
ATOM     59  N   UNL A   1      43.409  31.229  32.200  1.00  0.00    -0.248 NA
ATOM     60  C   UNL A   1      45.561  31.160  33.102  1.00  0.00     0.031 C 
ATOM     61  C   UNL A   1      40.559  34.580  32.785  1.00  0.00     0.029 A 
ATOM     62  C   UNL A   1      41.463  33.541  32.632  1.00  0.00     0.049 A 
ATOM     63  H   UNL A   1      41.294  31.793  31.463  1.00  0.00     0.167 HD
ATOM     64  C   UNL A   1      43.602  32.349  33.000  1.00  0.00     0.074 A 
ATOM     65  C   UNL A   1      44.929  32.228  33.570  1.00  0.00     0.031 C 
ATOM     66  C   UNL A   1      42.766  33.390  33.231  1.00  0.00     0.034 A 
BRANCH  53  67
ATOM     67  C   UNL A   1      37.439  33.052  30.109  1.00  0.00     0.023 A 
ATOM     68  C   UNL A   1      37.115  33.252  28.751  1.00  0.00     0.012 A 
ATOM     69  C   UNL A   1      36.506  33.414  31.101  1.00  0.00     0.148 A 
ATOM     70  C   UNL A   1      35.901  33.836  28.388  1.00  0.00     0.002 A 
ATOM     71  C   UNL A   1      35.279  33.952  30.729  1.00  0.00     0.091 A 
ATOM     72  F   UNL A   1      36.838  33.235  32.388  1.00  0.00    -0.205 F 
ATOM     73  C   UNL A   1      34.981  34.176  29.374  1.00  0.00     0.022 A 
BRANCH  71  74
ATOM     74  S   UNL A   1      33.992  34.348  31.918  1.00  0.00     0.127 S 
ATOM     75  O   UNL A   1      33.713  33.034  32.498  1.00  0.00    -0.237 OA
ATOM     76  O   UNL A   1      34.679  35.277  32.816  1.00  0.00    -0.237 OA
ATOM     77  O   UNL A   1      32.903  34.935  31.152  1.00  0.00    -0.744 OA
ENDBRANCH  71  74
ENDBRANCH  53  67
BRANCH  54  78
ATOM     78  C   UNL A   1      46.168  28.552  31.910  1.00  0.00     0.023 A 
ATOM     79  C   UNL A   1      46.383  27.851  33.112  1.00  0.00     0.012 A 
ATOM     80  C   UNL A   1      47.198  28.608  30.953  1.00  0.00     0.148 A 
ATOM     81  C   UNL A   1      47.614  27.249  33.374  1.00  0.00     0.002 A 
ATOM     82  C   UNL A   1      48.402  27.956  31.194  1.00  0.00     0.091 A 
ATOM     83  F   UNL A   1      46.977  29.288  29.819  1.00  0.00    -0.205 F 
ATOM     84  C   UNL A   1      48.619  27.293  32.412  1.00  0.00     0.022 A 
BRANCH  82  85
ATOM     85  S   UNL A   1      49.702  27.846  29.960  1.00  0.00     0.127 S 
ATOM     86  O   UNL A   1      50.102  29.244  29.821  1.00  0.00    -0.237 OA
ATOM     87  O   UNL A   1      50.680  26.988  30.627  1.00  0.00    -0.237 OA
ATOM     88  O   UNL A   1      49.080  27.247  28.787  1.00  0.00    -0.744 OA
ENDBRANCH  82  85
ENDBRANCH  54  78
BRANCH  66  89
ATOM     89  C   UNL A   1      43.239  34.469  34.171  1.00  0.00     0.023 A 
ATOM     90  C   UNL A   1      43.991  35.554  33.677  1.00  0.00     0.012 A 
ATOM     91  C   UNL A   1      42.900  34.430  35.537  1.00  0.00     0.148 A 
ATOM     92  C   UNL A   1      44.437  36.558  34.537  1.00  0.00     0.002 A 
ATOM     93  C   UNL A   1      43.302  35.462  36.378  1.00  0.00     0.091 A 
ATOM     94  F   UNL A   1      42.200  33.382  35.995  1.00  0.00    -0.205 F 
ATOM     95  C   UNL A   1      44.084  36.518  35.884  1.00  0.00     0.022 A 
BRANCH  93  96
ATOM     96  S   UNL A   1      42.809  35.542  38.103  1.00  0.00     0.127 S 
ATOM     97  O   UNL A   1      41.356  35.421  38.005  1.00  0.00    -0.237 OA
ATOM     98  O   UNL A   1      43.481  34.374  38.674  1.00  0.00    -0.237 OA
ATOM     99  O   UNL A   1      43.300  36.820  38.601  1.00  0.00    -0.744 OA
ENDBRANCH  93  96
ENDBRANCH  66  89
ENDBRANCH  40  41
ENDBRANCH  32  35
ENDBRANCH  30  31
ENDBRANCH  29  30
ENDBRANCH   1  29
TORSDOF 17
ENDMDL
