MODEL 1
REMARK VINA RESULT:     -13.3      0.000      0.000
REMARK SMILES O=C(NC1(C(=O)NCCCNC(=O)c2ccc(-c3c4nc(c(-c5cccc(S(=O)(=O)[O-])c5F)c5ccc([nH]5)c(-c5cccc(S(=O)(=O)[O-])c5F)c5nc(c(-c6cccc(S(=O)(=O)[O-])c6F)c6ccc3[nH]6)C=C5)C=C4)cc2)CC[NH2+]CC1)OCC1c2ccccc2-c2ccccc21
REMARK SMILES IDX 8 1 7 2 5 3 6 4 4 6 77 7 81 8 78 9 80 10 79 11 3 14 1 15
REMARK SMILES IDX 2 16 82 18 83 19 84 20 85 21 96 22 86 23 90 24 91 25 95 26
REMARK SMILES IDX 87 27 89 28 92 29 94 30 88 31 93 32 9 33 10 34 11 35 12 36
REMARK SMILES IDX 13 38 14 39 15 40 76 41 16 42 75 43 17 44 18 45 19 46 69 47
REMARK SMILES IDX 20 48 74 49 68 50 70 51 21 52 73 53 67 54 66 55 22 57 54 58
REMARK SMILES IDX 34 59 53 60 35 61 38 62 52 63 71 64 36 65 37 66 51 68 72 69
REMARK SMILES IDX 39 70 23 71 24 72 32 73 25 74 27 75 33 76 26 77 28 78 29 79
REMARK SMILES IDX 30 80 31 81 55 82 56 83 64 84 57 85 59 86 65 87 58 88 60 89
REMARK SMILES IDX 61 90 62 91 63 92 40 93 41 94 49 95 42 96 44 97 50 98 43 99
REMARK SMILES IDX 45 100 46 101 47 102 48 103
REMARK H PARENT 7 5 79 12 79 13 3 17 11 37 70 56 38 67
REMARK Flexibility Score: inf
ROOT
ATOM      1  C   UNL A   1      32.081  27.818  27.272  1.00  0.00     0.117 C 
ENDROOT
BRANCH   1   2
ATOM      2  N   UNL A   1      31.039  26.915  26.850  1.00  0.00    -0.354 N 
ATOM      3  C   UNL A   1      30.671  26.393  25.664  1.00  0.00     0.246 C 
ATOM      4  O   UNL A   1      29.734  25.580  25.748  1.00  0.00    -0.272 OA
ATOM      5  H   UNL A   1      30.470  26.612  27.594  1.00  0.00     0.163 HD
BRANCH   3   6
ATOM      6  C   UNL A   1      31.221  26.796  24.256  1.00  0.00     0.132 C 
ATOM      7  C   UNL A   1      30.391  28.041  23.858  1.00  0.00     0.100 C 
ATOM      8  C   UNL A   1      32.680  27.186  24.052  1.00  0.00     0.100 C 
ATOM      9  C   UNL A   1      30.835  28.749  22.570  1.00  0.00     0.263 C 
ATOM     10  C   UNL A   1      32.931  27.555  22.597  1.00  0.00     0.263 C 
ATOM     11  N   UNL A   1      32.277  28.835  22.343  1.00  0.00    -0.346 N 
ATOM     12  H   UNL A   1      32.670  29.539  22.968  1.00  0.00     0.346 HD
ATOM     13  H   UNL A   1      32.435  29.091  21.367  1.00  0.00     0.346 HD
BRANCH   6  14
ATOM     14  N   UNL A   1      30.861  25.580  23.468  1.00  0.00    -0.307 N 
ATOM     15  O   UNL A   1      30.601  23.336  23.235  1.00  0.00    -0.225 OA
ATOM     16  C   UNL A   1      31.227  24.273  23.702  1.00  0.00     0.408 C 
ATOM     17  H   UNL A   1      30.288  25.731  22.681  1.00  0.00     0.168 HD
BRANCH  16  18
ATOM     18  O   UNL A   1      32.385  24.098  24.396  1.00  0.00    -0.449 OA
BRANCH  18  19
ATOM     19  C   UNL A   1      33.245  23.055  23.906  1.00  0.00     0.248 C 
BRANCH  19  20
ATOM     20  C   UNL A   1      33.731  22.079  25.016  1.00  0.00     0.088 C 
ATOM     21  C   UNL A   1      35.253  22.183  25.212  1.00  0.00    -0.029 A 
ATOM     22  C   UNL A   1      33.573  20.573  24.783  1.00  0.00    -0.029 A 
ATOM     23  C   UNL A   1      36.026  23.312  25.444  1.00  0.00     0.005 A 
ATOM     24  C   UNL A   1      35.855  20.911  25.087  1.00  0.00    -0.014 A 
ATOM     25  C   UNL A   1      34.830  19.927  24.828  1.00  0.00    -0.014 A 
ATOM     26  C   UNL A   1      32.415  19.843  24.552  1.00  0.00     0.005 A 
ATOM     27  C   UNL A   1      37.414  23.160  25.534  1.00  0.00     0.000 A 
ATOM     28  C   UNL A   1      37.232  20.759  25.178  1.00  0.00     0.009 A 
ATOM     29  C   UNL A   1      34.939  18.561  24.613  1.00  0.00     0.009 A 
ATOM     30  C   UNL A   1      32.526  18.467  24.333  1.00  0.00     0.000 A 
ATOM     31  C   UNL A   1      38.013  21.897  25.400  1.00  0.00     0.001 A 
ATOM     32  C   UNL A   1      33.777  17.831  24.361  1.00  0.00     0.001 A 
ENDBRANCH  19  20
ENDBRANCH  18  19
ENDBRANCH  16  18
ENDBRANCH   6  14
ENDBRANCH   3   6
ENDBRANCH   1   2
BRANCH   1  33
ATOM     33  C   UNL A   1      31.661  29.274  27.166  1.00  0.00     0.042 C 
BRANCH  33  34
ATOM     34  C   UNL A   1      32.579  30.100  26.270  1.00  0.00     0.118 C 
BRANCH  34  35
ATOM     35  N   UNL A   1      32.516  31.530  26.556  1.00  0.00    -0.352 N 
ATOM     36  C   UNL A   1      33.305  32.311  27.365  1.00  0.00     0.251 C 
ATOM     37  H   UNL A   1      31.793  32.012  26.094  1.00  0.00     0.163 HD
ATOM     38  O   UNL A   1      32.964  33.466  27.604  1.00  0.00    -0.269 OA
BRANCH  36  39
ATOM     39  C   UNL A   1      34.540  31.757  27.962  1.00  0.00     0.039 A 
ATOM     40  C   UNL A   1      35.665  32.578  28.079  1.00  0.00     0.014 A 
ATOM     41  C   UNL A   1      34.592  30.435  28.408  1.00  0.00     0.014 A 
ATOM     42  C   UNL A   1      36.815  32.093  28.707  1.00  0.00     0.010 A 
ATOM     43  C   UNL A   1      35.700  29.988  29.121  1.00  0.00     0.010 A 
ATOM     44  C   UNL A   1      36.830  30.806  29.268  1.00  0.00    -0.014 A 
BRANCH  44  45
ATOM     45  C   UNL A   1      38.012  30.289  30.004  1.00  0.00     0.031 A 
ATOM     46  C   UNL A   1      38.264  30.718  31.426  1.00  0.00     0.074 A 
ATOM     47  C   UNL A   1      38.912  29.515  29.365  1.00  0.00     0.049 A 
ATOM     48  N   UNL A   1      39.275  30.435  32.206  1.00  0.00    -0.248 NA
ATOM     49  C   UNL A   1      37.270  31.616  32.041  1.00  0.00     0.031 C 
ATOM     50  C   UNL A   1      38.834  29.106  27.960  1.00  0.00     0.029 A 
ATOM     51  N   UNL A   1      40.086  28.955  29.806  1.00  0.00    -0.354 N 
ATOM     52  C   UNL A   1      39.066  31.155  33.376  1.00  0.00     0.074 A 
ATOM     53  C   UNL A   1      37.850  31.918  33.192  1.00  0.00     0.031 C 
ATOM     54  C   UNL A   1      39.904  28.352  27.660  1.00  0.00     0.029 A 
ATOM     55  C   UNL A   1      40.757  28.244  28.839  1.00  0.00     0.049 A 
ATOM     56  H   UNL A   1      40.415  29.054  30.728  1.00  0.00     0.167 HD
ATOM     57  C   UNL A   1      39.796  31.156  34.516  1.00  0.00     0.034 A 
ATOM     58  C   UNL A   1      41.926  27.576  28.897  1.00  0.00     0.034 A 
ATOM     59  C   UNL A   1      40.960  30.340  34.725  1.00  0.00     0.049 A 
ATOM     60  C   UNL A   1      42.673  27.523  30.203  1.00  0.00     0.074 A 
ATOM     61  C   UNL A   1      41.705  30.181  35.880  1.00  0.00     0.029 A 
ATOM     62  N   UNL A   1      41.545  29.538  33.757  1.00  0.00    -0.354 N 
ATOM     63  N   UNL A   1      42.364  28.073  31.352  1.00  0.00    -0.248 NA
ATOM     64  C   UNL A   1      43.905  26.723  30.231  1.00  0.00     0.031 C 
ATOM     65  C   UNL A   1      42.748  29.289  35.607  1.00  0.00     0.029 A 
ATOM     66  C   UNL A   1      42.642  28.882  34.286  1.00  0.00     0.049 A 
ATOM     67  H   UNL A   1      41.226  29.448  32.830  1.00  0.00     0.167 HD
ATOM     68  C   UNL A   1      43.341  27.655  32.248  1.00  0.00     0.074 A 
ATOM     69  C   UNL A   1      44.240  26.790  31.513  1.00  0.00     0.031 C 
ATOM     70  C   UNL A   1      43.491  27.974  33.558  1.00  0.00     0.034 A 
BRANCH  57  71
ATOM     71  C   UNL A   1      39.315  32.019  35.655  1.00  0.00     0.023 A 
ATOM     72  C   UNL A   1      38.420  31.482  36.602  1.00  0.00     0.012 A 
ATOM     73  C   UNL A   1      39.783  33.337  35.817  1.00  0.00     0.148 A 
ATOM     74  C   UNL A   1      37.968  32.252  37.672  1.00  0.00     0.002 A 
ATOM     75  C   UNL A   1      39.363  34.085  36.912  1.00  0.00     0.091 A 
ATOM     76  F   UNL A   1      40.615  33.841  34.894  1.00  0.00    -0.205 F 
ATOM     77  C   UNL A   1      38.448  33.549  37.832  1.00  0.00     0.022 A 
BRANCH  75  78
ATOM     78  S   UNL A   1      39.983  35.738  37.249  1.00  0.00     0.127 S 
ATOM     79  O   UNL A   1      41.411  35.485  37.431  1.00  0.00    -0.237 OA
ATOM     80  O   UNL A   1      39.643  36.452  36.017  1.00  0.00    -0.237 OA
ATOM     81  O   UNL A   1      39.270  36.198  38.432  1.00  0.00    -0.744 OA
ENDBRANCH  75  78
ENDBRANCH  57  71
BRANCH  58  82
ATOM     82  C   UNL A   1      42.411  26.821  27.707  1.00  0.00     0.023 A 
ATOM     83  C   UNL A   1      43.170  27.497  26.730  1.00  0.00     0.012 A 
ATOM     84  C   UNL A   1      42.159  25.446  27.548  1.00  0.00     0.148 A 
ATOM     85  C   UNL A   1      43.642  26.824  25.603  1.00  0.00     0.002 A 
ATOM     86  C   UNL A   1      42.677  24.769  26.449  1.00  0.00     0.091 A 
ATOM     87  F   UNL A   1      41.424  24.822  28.481  1.00  0.00    -0.205 F 
ATOM     88  C   UNL A   1      43.404  25.460  25.467  1.00  0.00     0.022 A 
BRANCH  86  89
ATOM     89  S   UNL A   1      42.535  22.988  26.263  1.00  0.00     0.127 S 
ATOM     90  O   UNL A   1      43.396  22.505  27.339  1.00  0.00    -0.237 OA
ATOM     91  O   UNL A   1      41.103  22.772  26.474  1.00  0.00    -0.237 OA
ATOM     92  O   UNL A   1      42.988  22.701  24.907  1.00  0.00    -0.744 OA
ENDBRANCH  86  89
ENDBRANCH  58  82
BRANCH  70  93
ATOM     93  C   UNL A   1      44.645  27.355  34.300  1.00  0.00     0.023 A 
ATOM     94  C   UNL A   1      45.899  27.997  34.299  1.00  0.00     0.012 A 
ATOM     95  C   UNL A   1      44.467  26.183  35.060  1.00  0.00     0.148 A 
ATOM     96  C   UNL A   1      46.968  27.464  35.019  1.00  0.00     0.002 A 
ATOM     97  C   UNL A   1      45.524  25.682  35.811  1.00  0.00     0.091 A 
ATOM     98  F   UNL A   1      43.273  25.574  35.030  1.00  0.00    -0.205 F 
ATOM     99  C   UNL A   1      46.777  26.315  35.784  1.00  0.00     0.022 A 
BRANCH  97 100
ATOM    100  S   UNL A   1      45.335  24.263  36.898  1.00  0.00     0.127 S 
ATOM    101  O   UNL A   1      44.242  24.696  37.766  1.00  0.00    -0.237 OA
ATOM    102  O   UNL A   1      44.983  23.195  35.960  1.00  0.00    -0.237 OA
ATOM    103  O   UNL A   1      46.627  24.089  37.548  1.00  0.00    -0.744 OA
ENDBRANCH  97 100
ENDBRANCH  70  93
ENDBRANCH  44  45
ENDBRANCH  36  39
ENDBRANCH  34  35
ENDBRANCH  33  34
ENDBRANCH   1  33
TORSDOF 17
ENDMDL
MODEL 2
REMARK VINA RESULT:     -13.3      1.837      2.726
REMARK SMILES O=C(NC1(C(=O)NCCCNC(=O)c2ccc(-c3c4nc(c(-c5cccc(S(=O)(=O)[O-])c5F)c5ccc([nH]5)c(-c5cccc(S(=O)(=O)[O-])c5F)c5nc(c(-c6cccc(S(=O)(=O)[O-])c6F)c6ccc3[nH]6)C=C5)C=C4)cc2)CC[NH2+]CC1)OCC1c2ccccc2-c2ccccc21
REMARK SMILES IDX 8 1 7 2 5 3 6 4 4 6 77 7 81 8 78 9 80 10 79 11 3 14 1 15
REMARK SMILES IDX 2 16 82 18 83 19 84 20 85 21 96 22 86 23 90 24 91 25 95 26
REMARK SMILES IDX 87 27 89 28 92 29 94 30 88 31 93 32 9 33 10 34 11 35 12 36
REMARK SMILES IDX 13 38 14 39 15 40 76 41 16 42 75 43 17 44 18 45 19 46 69 47
REMARK SMILES IDX 20 48 74 49 68 50 70 51 21 52 73 53 67 54 66 55 22 57 54 58
REMARK SMILES IDX 34 59 53 60 35 61 38 62 52 63 71 64 36 65 37 66 51 68 72 69
REMARK SMILES IDX 39 70 23 71 24 72 32 73 25 74 27 75 33 76 26 77 28 78 29 79
REMARK SMILES IDX 30 80 31 81 55 82 56 83 64 84 57 85 59 86 65 87 58 88 60 89
REMARK SMILES IDX 61 90 62 91 63 92 40 93 41 94 49 95 42 96 44 97 50 98 43 99
REMARK SMILES IDX 45 100 46 101 47 102 48 103
REMARK H PARENT 7 5 79 12 79 13 3 17 11 37 70 56 38 67
REMARK Flexibility Score: inf
ROOT
ATOM      1  C   UNL A   1      33.459  28.862  25.918  1.00  0.00     0.117 C 
ENDROOT
BRANCH   1   2
ATOM      2  N   UNL A   1      34.182  28.663  24.686  1.00  0.00    -0.354 N 
ATOM      3  C   UNL A   1      33.825  28.337  23.429  1.00  0.00     0.246 C 
ATOM      4  O   UNL A   1      34.776  28.334  22.627  1.00  0.00    -0.272 OA
ATOM      5  H   UNL A   1      35.153  28.795  24.786  1.00  0.00     0.163 HD
BRANCH   3   6
ATOM      6  C   UNL A   1      32.409  27.875  22.951  1.00  0.00     0.132 C 
ATOM      7  C   UNL A   1      31.971  26.824  24.001  1.00  0.00     0.100 C 
ATOM      8  C   UNL A   1      31.248  28.854  22.834  1.00  0.00     0.100 C 
ATOM      9  C   UNL A   1      30.531  26.311  23.864  1.00  0.00     0.263 C 
ATOM     10  C   UNL A   1      29.989  28.131  22.376  1.00  0.00     0.263 C 
ATOM     11  N   UNL A   1      29.524  27.301  23.484  1.00  0.00    -0.346 N 
ATOM     12  H   UNL A   1      29.327  27.899  24.286  1.00  0.00     0.346 HD
ATOM     13  H   UNL A   1      28.682  26.808  23.186  1.00  0.00     0.346 HD
BRANCH   6  14
ATOM     14  N   UNL A   1      32.755  27.269  21.631  1.00  0.00    -0.307 N 
ATOM     15  O   UNL A   1      32.820  25.532  20.169  1.00  0.00    -0.225 OA
ATOM     16  C   UNL A   1      32.901  25.935  21.318  1.00  0.00     0.408 C 
ATOM     17  H   UNL A   1      32.896  27.903  20.890  1.00  0.00     0.168 HD
BRANCH  16  18
ATOM     18  O   UNL A   1      33.241  25.119  22.351  1.00  0.00    -0.449 OA
BRANCH  18  19
ATOM     19  C   UNL A   1      33.280  23.715  22.040  1.00  0.00     0.248 C 
BRANCH  19  20
ATOM     20  C   UNL A   1      33.673  22.821  23.251  1.00  0.00     0.088 C 
ATOM     21  C   UNL A   1      32.705  23.032  24.427  1.00  0.00    -0.029 A 
ATOM     22  C   UNL A   1      35.020  23.074  23.936  1.00  0.00    -0.029 A 
ATOM     23  C   UNL A   1      31.319  22.961  24.438  1.00  0.00     0.005 A 
ATOM     24  C   UNL A   1      33.419  23.372  25.599  1.00  0.00    -0.014 A 
ATOM     25  C   UNL A   1      34.832  23.395  25.301  1.00  0.00    -0.014 A 
ATOM     26  C   UNL A   1      36.297  23.024  23.395  1.00  0.00     0.005 A 
ATOM     27  C   UNL A   1      30.649  23.250  25.631  1.00  0.00     0.000 A 
ATOM     28  C   UNL A   1      32.753  23.657  26.784  1.00  0.00     0.009 A 
ATOM     29  C   UNL A   1      35.910  23.695  26.120  1.00  0.00     0.009 A 
ATOM     30  C   UNL A   1      37.384  23.328  24.221  1.00  0.00     0.000 A 
ATOM     31  C   UNL A   1      31.357  23.598  26.793  1.00  0.00     0.001 A 
ATOM     32  C   UNL A   1      37.193  23.664  25.570  1.00  0.00     0.001 A 
ENDBRANCH  19  20
ENDBRANCH  18  19
ENDBRANCH  16  18
ENDBRANCH   6  14
ENDBRANCH   3   6
ENDBRANCH   1   2
BRANCH   1  33
ATOM     33  C   UNL A   1      32.594  30.110  25.884  1.00  0.00     0.042 C 
BRANCH  33  34
ATOM     34  C   UNL A   1      32.477  30.797  27.241  1.00  0.00     0.118 C 
BRANCH  34  35
ATOM     35  N   UNL A   1      32.752  32.229  27.179  1.00  0.00    -0.352 N 
ATOM     36  C   UNL A   1      33.816  32.952  27.659  1.00  0.00     0.251 C 
ATOM     37  H   UNL A   1      32.063  32.763  26.721  1.00  0.00     0.163 HD
ATOM     38  O   UNL A   1      33.761  34.179  27.659  1.00  0.00    -0.269 OA
BRANCH  36  39
ATOM     39  C   UNL A   1      35.009  32.259  28.194  1.00  0.00     0.039 A 
ATOM     40  C   UNL A   1      36.239  32.922  28.189  1.00  0.00     0.014 A 
ATOM     41  C   UNL A   1      34.919  30.960  28.699  1.00  0.00     0.014 A 
ATOM     42  C   UNL A   1      37.359  32.310  28.758  1.00  0.00     0.010 A 
ATOM     43  C   UNL A   1      36.009  30.394  29.353  1.00  0.00     0.010 A 
ATOM     44  C   UNL A   1      37.245  31.056  29.379  1.00  0.00    -0.014 A 
BRANCH  44  45
ATOM     45  C   UNL A   1      38.401  30.411  30.054  1.00  0.00     0.031 A 
ATOM     46  C   UNL A   1      38.789  30.825  31.449  1.00  0.00     0.074 A 
ATOM     47  C   UNL A   1      39.163  29.527  29.377  1.00  0.00     0.049 A 
ATOM     48  N   UNL A   1      39.805  30.434  32.173  1.00  0.00    -0.248 NA
ATOM     49  C   UNL A   1      37.947  31.842  32.104  1.00  0.00     0.031 C 
ATOM     50  C   UNL A   1      38.951  29.112  27.988  1.00  0.00     0.029 A 
ATOM     51  N   UNL A   1      40.287  28.838  29.760  1.00  0.00    -0.354 N 
ATOM     52  C   UNL A   1      39.754  31.189  33.339  1.00  0.00     0.074 A 
ATOM     53  C   UNL A   1      38.629  32.088  33.212  1.00  0.00     0.031 C 
ATOM     54  C   UNL A   1      39.904  28.233  27.640  1.00  0.00     0.029 A 
ATOM     55  C   UNL A   1      40.809  28.039  28.769  1.00  0.00     0.049 A 
ATOM     56  H   UNL A   1      40.682  28.908  30.658  1.00  0.00     0.167 HD
ATOM     57  C   UNL A   1      40.548  31.118  34.434  1.00  0.00     0.034 A 
ATOM     58  C   UNL A   1      41.892  27.238  28.771  1.00  0.00     0.034 A 
ATOM     59  C   UNL A   1      41.618  30.171  34.589  1.00  0.00     0.049 A 
ATOM     60  C   UNL A   1      42.706  27.113  30.031  1.00  0.00     0.074 A 
ATOM     61  C   UNL A   1      42.409  29.940  35.701  1.00  0.00     0.029 A 
ATOM     62  N   UNL A   1      42.044  29.293  33.604  1.00  0.00    -0.354 N 
ATOM     63  N   UNL A   1      42.536  27.710  31.185  1.00  0.00    -0.248 NA
ATOM     64  C   UNL A   1      43.836  26.173  30.002  1.00  0.00     0.031 C 
ATOM     65  C   UNL A   1      43.321  28.927  35.384  1.00  0.00     0.029 A 
ATOM     66  C   UNL A   1      43.087  28.518  34.080  1.00  0.00     0.049 A 
ATOM     67  H   UNL A   1      41.661  29.230  32.700  1.00  0.00     0.167 HD
ATOM     68  C   UNL A   1      43.509  27.191  32.030  1.00  0.00     0.074 A 
ATOM     69  C   UNL A   1      44.254  26.215  31.260  1.00  0.00     0.031 C 
ATOM     70  C   UNL A   1      43.776  27.506  33.322  1.00  0.00     0.034 A 
BRANCH  57  71
ATOM     71  C   UNL A   1      40.243  32.046  35.581  1.00  0.00     0.023 A 
ATOM     72  C   UNL A   1      41.046  33.187  35.782  1.00  0.00     0.012 A 
ATOM     73  C   UNL A   1      39.140  31.820  36.427  1.00  0.00     0.148 A 
ATOM     74  C   UNL A   1      40.780  34.069  36.828  1.00  0.00     0.002 A 
ATOM     75  C   UNL A   1      38.854  32.728  37.440  1.00  0.00     0.091 A 
ATOM     76  F   UNL A   1      38.401  30.717  36.236  1.00  0.00    -0.205 F 
ATOM     77  C   UNL A   1      39.678  33.845  37.649  1.00  0.00     0.022 A 
BRANCH  75  78
ATOM     78  S   UNL A   1      37.412  32.570  38.502  1.00  0.00     0.127 S 
ATOM     79  O   UNL A   1      37.398  31.132  38.766  1.00  0.00    -0.237 OA
ATOM     80  O   UNL A   1      37.783  33.397  39.651  1.00  0.00    -0.237 OA
ATOM     81  O   UNL A   1      36.289  33.079  37.727  1.00  0.00    -0.744 OA
ENDBRANCH  75  78
ENDBRANCH  57  71
BRANCH  58  82
ATOM     82  C   UNL A   1      42.212  26.415  27.569  1.00  0.00     0.023 A 
ATOM     83  C   UNL A   1      42.909  27.009  26.498  1.00  0.00     0.012 A 
ATOM     84  C   UNL A   1      41.862  25.055  27.488  1.00  0.00     0.148 A 
ATOM     85  C   UNL A   1      43.226  26.272  25.357  1.00  0.00     0.002 A 
ATOM     86  C   UNL A   1      42.228  24.310  26.371  1.00  0.00     0.091 A 
ATOM     87  F   UNL A   1      41.188  24.509  28.511  1.00  0.00    -0.205 F 
ATOM     88  C   UNL A   1      42.895  24.922  25.298  1.00  0.00     0.022 A 
BRANCH  86  89
ATOM     89  S   UNL A   1      41.962  22.537  26.269  1.00  0.00     0.127 S 
ATOM     90  O   UNL A   1      42.657  22.201  25.031  1.00  0.00    -0.237 OA
ATOM     91  O   UNL A   1      42.610  22.060  27.491  1.00  0.00    -0.237 OA
ATOM     92  O   UNL A   1      40.514  22.361  26.255  1.00  0.00    -0.744 OA
ENDBRANCH  86  89
ENDBRANCH  58  82
BRANCH  70  93
ATOM     93  C   UNL A   1      44.893  26.764  34.006  1.00  0.00     0.023 A 
ATOM     94  C   UNL A   1      46.205  27.275  33.954  1.00  0.00     0.012 A 
ATOM     95  C   UNL A   1      44.630  25.606  34.764  1.00  0.00     0.148 A 
ATOM     96  C   UNL A   1      47.244  26.627  34.620  1.00  0.00     0.002 A 
ATOM     97  C   UNL A   1      45.661  24.992  35.462  1.00  0.00     0.091 A 
ATOM     98  F   UNL A   1      43.379  25.123  34.783  1.00  0.00    -0.205 F 
ATOM     99  C   UNL A   1      46.971  25.494  35.384  1.00  0.00     0.022 A 
BRANCH  97 100
ATOM    100  S   UNL A   1      45.377  23.586  36.545  1.00  0.00     0.127 S 
ATOM    101  O   UNL A   1      44.528  24.173  37.580  1.00  0.00    -0.237 OA
ATOM    102  O   UNL A   1      44.694  22.641  35.659  1.00  0.00    -0.237 OA
ATOM    103  O   UNL A   1      46.696  23.151  36.983  1.00  0.00    -0.744 OA
ENDBRANCH  97 100
ENDBRANCH  70  93
ENDBRANCH  44  45
ENDBRANCH  36  39
ENDBRANCH  34  35
ENDBRANCH  33  34
ENDBRANCH   1  33
TORSDOF 17
ENDMDL
MODEL 3
REMARK VINA RESULT:     -13.1      1.973      2.631
REMARK SMILES O=C(NC1(C(=O)NCCCNC(=O)c2ccc(-c3c4nc(c(-c5cccc(S(=O)(=O)[O-])c5F)c5ccc([nH]5)c(-c5cccc(S(=O)(=O)[O-])c5F)c5nc(c(-c6cccc(S(=O)(=O)[O-])c6F)c6ccc3[nH]6)C=C5)C=C4)cc2)CC[NH2+]CC1)OCC1c2ccccc2-c2ccccc21
REMARK SMILES IDX 8 1 7 2 5 3 6 4 4 6 77 7 81 8 78 9 80 10 79 11 3 14 1 15
REMARK SMILES IDX 2 16 82 18 83 19 84 20 85 21 96 22 86 23 90 24 91 25 95 26
REMARK SMILES IDX 87 27 89 28 92 29 94 30 88 31 93 32 9 33 10 34 11 35 12 36
REMARK SMILES IDX 13 38 14 39 15 40 76 41 16 42 75 43 17 44 18 45 19 46 69 47
REMARK SMILES IDX 20 48 74 49 68 50 70 51 21 52 73 53 67 54 66 55 22 57 54 58
REMARK SMILES IDX 34 59 53 60 35 61 38 62 52 63 71 64 36 65 37 66 51 68 72 69
REMARK SMILES IDX 39 70 23 71 24 72 32 73 25 74 27 75 33 76 26 77 28 78 29 79
REMARK SMILES IDX 30 80 31 81 55 82 56 83 64 84 57 85 59 86 65 87 58 88 60 89
REMARK SMILES IDX 61 90 62 91 63 92 40 93 41 94 49 95 42 96 44 97 50 98 43 99
REMARK SMILES IDX 45 100 46 101 47 102 48 103
REMARK H PARENT 7 5 79 12 79 13 3 17 11 37 70 56 38 67
REMARK Flexibility Score: inf
ROOT
ATOM      1  C   UNL A   1      32.791  26.820  26.625  1.00  0.00     0.117 C 
ENDROOT
BRANCH   1   2
ATOM      2  N   UNL A   1      31.414  26.398  26.543  1.00  0.00    -0.354 N 
ATOM      3  C   UNL A   1      30.524  26.286  25.538  1.00  0.00     0.246 C 
ATOM      4  O   UNL A   1      29.433  25.805  25.892  1.00  0.00    -0.272 OA
ATOM      5  H   UNL A   1      31.042  26.133  27.415  1.00  0.00     0.163 HD
BRANCH   3   6
ATOM      6  C   UNL A   1      30.706  26.792  24.069  1.00  0.00     0.132 C 
ATOM      7  C   UNL A   1      29.558  27.811  23.866  1.00  0.00     0.100 C 
ATOM      8  C   UNL A   1      31.976  27.504  23.623  1.00  0.00     0.100 C 
ATOM      9  C   UNL A   1      29.590  28.590  22.544  1.00  0.00     0.263 C 
ATOM     10  C   UNL A   1      31.871  27.909  22.159  1.00  0.00     0.263 C 
ATOM     11  N   UNL A   1      30.909  29.003  22.068  1.00  0.00    -0.346 N 
ATOM     12  H   UNL A   1      31.239  29.783  22.636  1.00  0.00     0.346 HD
ATOM     13  H   UNL A   1      30.827  29.280  21.089  1.00  0.00     0.346 HD
BRANCH   6  14
ATOM     14  N   UNL A   1      30.494  25.519  23.317  1.00  0.00    -0.307 N 
ATOM     15  O   UNL A   1      30.627  23.262  23.102  1.00  0.00    -0.225 OA
ATOM     16  C   UNL A   1      31.117  24.305  23.505  1.00  0.00     0.408 C 
ATOM     17  H   UNL A   1      29.824  25.552  22.595  1.00  0.00     0.168 HD
BRANCH  16  18
ATOM     18  O   UNL A   1      32.352  24.355  24.073  1.00  0.00    -0.449 OA
BRANCH  18  19
ATOM     19  C   UNL A   1      33.254  23.306  23.679  1.00  0.00     0.248 C 
BRANCH  19  20
ATOM     20  C   UNL A   1      33.678  22.378  24.853  1.00  0.00     0.088 C 
ATOM     21  C   UNL A   1      35.161  22.581  25.207  1.00  0.00    -0.029 A 
ATOM     22  C   UNL A   1      33.639  20.862  24.634  1.00  0.00    -0.029 A 
ATOM     23  C   UNL A   1      35.833  23.760  25.497  1.00  0.00     0.005 A 
ATOM     24  C   UNL A   1      35.851  21.348  25.171  1.00  0.00    -0.014 A 
ATOM     25  C   UNL A   1      34.921  20.298  24.825  1.00  0.00    -0.014 A 
ATOM     26  C   UNL A   1      32.559  20.057  24.297  1.00  0.00     0.005 A 
ATOM     27  C   UNL A   1      37.210  23.697  25.736  1.00  0.00     0.000 A 
ATOM     28  C   UNL A   1      37.216  21.286  25.411  1.00  0.00     0.009 A 
ATOM     29  C   UNL A   1      35.137  18.939  24.651  1.00  0.00     0.009 A 
ATOM     30  C   UNL A   1      32.779  18.687  24.119  1.00  0.00     0.000 A 
ATOM     31  C   UNL A   1      37.898  22.473  25.691  1.00  0.00     0.001 A 
ATOM     32  C   UNL A   1      34.056  18.133  24.291  1.00  0.00     0.001 A 
ENDBRANCH  19  20
ENDBRANCH  18  19
ENDBRANCH  16  18
ENDBRANCH   6  14
ENDBRANCH   3   6
ENDBRANCH   1   2
BRANCH   1  33
ATOM     33  C   UNL A   1      32.929  28.240  27.145  1.00  0.00     0.042 C 
BRANCH  33  34
ATOM     34  C   UNL A   1      33.816  29.117  26.268  1.00  0.00     0.118 C 
BRANCH  34  35
ATOM     35  N   UNL A   1      33.885  30.500  26.730  1.00  0.00    -0.352 N 
ATOM     36  C   UNL A   1      34.752  31.102  27.608  1.00  0.00     0.251 C 
ATOM     37  H   UNL A   1      33.199  31.097  26.352  1.00  0.00     0.163 HD
ATOM     38  O   UNL A   1      34.519  32.243  27.999  1.00  0.00    -0.269 OA
BRANCH  36  39
ATOM     39  C   UNL A   1      35.943  30.374  28.098  1.00  0.00     0.039 A 
ATOM     40  C   UNL A   1      37.110  30.386  27.330  1.00  0.00     0.014 A 
ATOM     41  C   UNL A   1      35.913  29.682  29.310  1.00  0.00     0.014 A 
ATOM     42  C   UNL A   1      38.266  29.765  27.814  1.00  0.00     0.010 A 
ATOM     43  C   UNL A   1      37.088  29.151  29.834  1.00  0.00     0.010 A 
ATOM     44  C   UNL A   1      38.275  29.175  29.087  1.00  0.00    -0.014 A 
BRANCH  44  45
ATOM     45  C   UNL A   1      39.505  28.570  29.659  1.00  0.00     0.031 A 
ATOM     46  C   UNL A   1      40.133  29.158  30.895  1.00  0.00     0.074 A 
ATOM     47  C   UNL A   1      40.116  27.558  29.010  1.00  0.00     0.049 A 
ATOM     48  N   UNL A   1      41.242  28.818  31.499  1.00  0.00    -0.248 NA
ATOM     49  C   UNL A   1      39.444  30.304  31.516  1.00  0.00     0.031 C 
ATOM     50  C   UNL A   1      39.664  26.960  27.751  1.00  0.00     0.029 A 
ATOM     51  N   UNL A   1      41.266  26.868  29.308  1.00  0.00    -0.354 N 
ATOM     52  C   UNL A   1      41.410  29.735  32.531  1.00  0.00     0.074 A 
ATOM     53  C   UNL A   1      40.307  30.667  32.451  1.00  0.00     0.031 C 
ATOM     54  C   UNL A   1      40.518  25.988  27.392  1.00  0.00     0.029 A 
ATOM     55  C   UNL A   1      41.591  25.908  28.378  1.00  0.00     0.049 A 
ATOM     56  H   UNL A   1      41.807  27.045  30.111  1.00  0.00     0.167 HD
ATOM     57  C   UNL A   1      42.372  29.777  33.483  1.00  0.00     0.034 A 
ATOM     58  C   UNL A   1      42.633  25.056  28.327  1.00  0.00     0.034 A 
ATOM     59  C   UNL A   1      43.422  28.804  33.606  1.00  0.00     0.049 A 
ATOM     60  C   UNL A   1      43.641  25.068  29.445  1.00  0.00     0.074 A 
ATOM     61  C   UNL A   1      44.379  28.690  34.599  1.00  0.00     0.029 A 
ATOM     62  N   UNL A   1      43.651  27.771  32.709  1.00  0.00    -0.354 N 
ATOM     63  N   UNL A   1      43.684  25.833  30.509  1.00  0.00    -0.248 NA
ATOM     64  C   UNL A   1      44.720  24.072  29.379  1.00  0.00     0.031 C 
ATOM     65  C   UNL A   1      45.193  27.593  34.297  1.00  0.00     0.029 A 
ATOM     66  C   UNL A   1      44.733  27.016  33.124  1.00  0.00     0.049 A 
ATOM     67  H   UNL A   1      43.121  27.601  31.897  1.00  0.00     0.167 HD
ATOM     68  C   UNL A   1      44.767  25.387  31.256  1.00  0.00     0.074 A 
ATOM     69  C   UNL A   1      45.342  24.271  30.533  1.00  0.00     0.031 C 
ATOM     70  C   UNL A   1      45.254  25.869  32.426  1.00  0.00     0.034 A 
BRANCH  57  71
ATOM     71  C   UNL A   1      42.291  30.875  34.511  1.00  0.00     0.023 A 
ATOM     72  C   UNL A   1      41.598  30.647  35.717  1.00  0.00     0.012 A 
ATOM     73  C   UNL A   1      42.939  32.109  34.310  1.00  0.00     0.148 A 
ATOM     74  C   UNL A   1      41.517  31.641  36.691  1.00  0.00     0.002 A 
ATOM     75  C   UNL A   1      42.892  33.080  35.306  1.00  0.00     0.091 A 
ATOM     76  F   UNL A   1      43.575  32.319  33.148  1.00  0.00    -0.205 F 
ATOM     77  C   UNL A   1      42.173  32.852  36.489  1.00  0.00     0.022 A 
BRANCH  75  78
ATOM     78  S   UNL A   1      43.770  34.643  35.174  1.00  0.00     0.127 S 
ATOM     79  O   UNL A   1      45.082  34.205  34.700  1.00  0.00    -0.237 OA
ATOM     80  O   UNL A   1      42.971  35.362  34.181  1.00  0.00    -0.237 OA
ATOM     81  O   UNL A   1      43.746  35.226  36.508  1.00  0.00    -0.744 OA
ENDBRANCH  75  78
ENDBRANCH  57  71
BRANCH  58  82
ATOM     82  C   UNL A   1      42.722  24.053  27.228  1.00  0.00     0.023 A 
ATOM     83  C   UNL A   1      43.413  24.391  26.047  1.00  0.00     0.012 A 
ATOM     84  C   UNL A   1      42.162  22.769  27.350  1.00  0.00     0.148 A 
ATOM     85  C   UNL A   1      43.518  23.479  24.996  1.00  0.00     0.002 A 
ATOM     86  C   UNL A   1      42.315  21.845  26.320  1.00  0.00     0.091 A 
ATOM     87  F   UNL A   1      41.497  22.468  28.475  1.00  0.00    -0.205 F 
ATOM     88  C   UNL A   1      42.978  22.205  25.137  1.00  0.00     0.022 A 
BRANCH  86  89
ATOM     89  S   UNL A   1      41.771  20.140  26.471  1.00  0.00     0.127 S 
ATOM     90  O   UNL A   1      42.427  19.514  25.327  1.00  0.00    -0.237 OA
ATOM     91  O   UNL A   1      42.311  19.761  27.777  1.00  0.00    -0.237 OA
ATOM     92  O   UNL A   1      40.315  20.191  26.420  1.00  0.00    -0.744 OA
ENDBRANCH  86  89
ENDBRANCH  58  82
BRANCH  70  93
ATOM     93  C   UNL A   1      46.445  25.171  33.027  1.00  0.00     0.023 A 
ATOM     94  C   UNL A   1      47.743  25.646  32.754  1.00  0.00     0.012 A 
ATOM     95  C   UNL A   1      46.275  24.097  33.922  1.00  0.00     0.148 A 
ATOM     96  C   UNL A   1      48.856  25.042  33.339  1.00  0.00     0.002 A 
ATOM     97  C   UNL A   1      47.384  23.530  34.536  1.00  0.00     0.091 A 
ATOM     98  F   UNL A   1      45.033  23.645  34.153  1.00  0.00    -0.205 F 
ATOM     99  C   UNL A   1      48.676  23.994  34.238  1.00  0.00     0.022 A 
BRANCH  97 100
ATOM    100  S   UNL A   1      47.233  22.241  35.779  1.00  0.00     0.127 S 
ATOM    101  O   UNL A   1      48.633  21.946  36.076  1.00  0.00    -0.237 OA
ATOM    102  O   UNL A   1      46.512  22.925  36.854  1.00  0.00    -0.237 OA
ATOM    103  O   UNL A   1      46.483  21.165  35.144  1.00  0.00    -0.744 OA
ENDBRANCH  97 100
ENDBRANCH  70  93
ENDBRANCH  44  45
ENDBRANCH  36  39
ENDBRANCH  34  35
ENDBRANCH  33  34
ENDBRANCH   1  33
TORSDOF 17
ENDMDL
