MODEL 1
REMARK VINA RESULT:     -13.7      0.000      0.000
REMARK SMILES Cc1ccc(-c2cc(Cl)cc3c2O[C@H](C(F)(F)F)C(C(=O)NCCCNC(=O)c2ccc(-c4c5nc(c(-c6cccc(S(=O)(=O)[O-])c6F)c6ccc([nH]6)c(-c6cccc(S(=O)(=O)[O-])c6F)c6nc(c(-c7cccc(S(=O)(=O)[O-])c7F)c7ccc4[nH]7)C=C6)C=C5)cc2)=C3)cc1F
REMARK SMILES IDX 25 1 24 2 23 3 22 4 20 5 21 6 19 8 6 9 7 10 12 11 8 12 11 13
REMARK SMILES IDX 13 14 9 15 10 16 92 17 14 18 5 19 1 20 2 21 3 22 94 23 4 24
REMARK SMILES IDX 93 25 95 26 15 27 16 28 17 29 18 30 26 31 27 32 28 34 29 35
REMARK SMILES IDX 30 36 91 37 31 38 90 39 32 40 33 41 34 42 84 43 35 44 89 45
REMARK SMILES IDX 83 46 85 47 36 48 88 49 82 50 81 51 37 53 69 54 49 55 68 56
REMARK SMILES IDX 50 57 53 58 67 59 86 60 51 61 52 62 66 64 87 65 54 66 38 67
REMARK SMILES IDX 39 68 47 69 40 70 42 71 48 72 41 73 43 74 44 75 45 76 46 77
REMARK SMILES IDX 70 78 71 79 79 80 72 81 74 82 80 83 73 84 75 85 76 86 77 87
REMARK SMILES IDX 78 88 55 89 56 90 64 91 57 92 59 93 65 94 58 95 60 96 61 97
REMARK SMILES IDX 62 98 63 99
REMARK H PARENT 22 7 26 33 85 52 53 63
REMARK Flexibility Score: inf
ROOT
ATOM      1  C   UNL A   1      34.107  30.597  27.417  1.00  0.00     0.118 C 
ENDROOT
BRANCH   1   2
ATOM      2  C   UNL A   1      32.809  31.111  26.799  1.00  0.00     0.042 C 
BRANCH   2   3
ATOM      3  C   UNL A   1      31.692  30.080  26.609  1.00  0.00     0.118 C 
BRANCH   3   4
ATOM      4  N   UNL A   1      31.358  29.913  25.204  1.00  0.00    -0.352 N 
ATOM      5  C   UNL A   1      31.360  28.903  24.306  1.00  0.00     0.251 C 
ATOM      6  O   UNL A   1      31.059  29.246  23.154  1.00  0.00    -0.270 OA
ATOM      7  H   UNL A   1      31.048  30.756  24.802  1.00  0.00     0.163 HD
BRANCH   5   8
ATOM      8  C   UNL A   1      31.676  27.467  24.580  1.00  0.00     0.067 C 
ATOM      9  C   UNL A   1      32.365  23.461  25.715  1.00  0.00     0.026 A 
ATOM     10  C   UNL A   1      31.374  22.801  26.459  1.00  0.00     0.033 A 
ATOM     11  C   UNL A   1      32.079  24.753  25.232  1.00  0.00     0.135 A 
ATOM     12  C   UNL A   1      30.146  23.417  26.709  1.00  0.00     0.042 A 
ATOM     13  C   UNL A   1      30.855  25.377  25.496  1.00  0.00     0.019 A 
ATOM     14  O   UNL A   1      33.009  25.376  24.440  1.00  0.00    -0.475 OA
ATOM     15  Cl  UNL A   1      28.949  22.590  27.631  1.00  0.00    -0.084 Cl
ATOM     16  C   UNL A   1      29.883  24.701  26.235  1.00  0.00     0.032 A 
ATOM     17  C   UNL A   1      30.628  26.738  25.018  1.00  0.00     0.025 C 
ATOM     18  C   UNL A   1      33.047  26.835  24.533  1.00  0.00     0.314 C 
BRANCH   9  19
ATOM     19  C   UNL A   1      33.675  22.825  25.508  1.00  0.00    -0.012 A 
ATOM     20  C   UNL A   1      37.564  21.046  24.840  1.00  0.00     0.047 C 
ATOM     21  C   UNL A   1      36.206  21.628  25.085  1.00  0.00    -0.015 A 
ATOM     22  C   UNL A   1      35.052  21.051  24.547  1.00  0.00     0.007 A 
ATOM     23  C   UNL A   1      36.078  22.792  25.845  1.00  0.00     0.126 A 
ATOM     24  C   UNL A   1      33.799  21.641  24.764  1.00  0.00     0.009 A 
ATOM     25  C   UNL A   1      34.837  23.388  26.055  1.00  0.00     0.048 A 
ATOM     26  F   UNL A   1      37.167  23.347  26.395  1.00  0.00    -0.207 F 
ENDBRANCH   9  19
BRANCH  18  27
ATOM     27  C   UNL A   1      33.939  27.238  25.718  1.00  0.00     0.429 C 
ATOM     28  F   UNL A   1      33.204  27.339  26.843  1.00  0.00    -0.167 F 
ATOM     29  F   UNL A   1      34.935  26.355  25.921  1.00  0.00    -0.167 F 
ATOM     30  F   UNL A   1      34.520  28.449  25.511  1.00  0.00    -0.167 F 
ENDBRANCH  18  27
ENDBRANCH   5   8
ENDBRANCH   3   4
ENDBRANCH   2   3
ENDBRANCH   1   2
BRANCH   1  31
ATOM     31  N   UNL A   1      34.436  31.066  28.748  1.00  0.00    -0.352 N 
ATOM     32  C   UNL A   1      35.620  31.268  29.407  1.00  0.00     0.251 C 
ATOM     33  H   UNL A   1      33.645  31.285  29.290  1.00  0.00     0.163 HD
ATOM     34  O   UNL A   1      35.672  32.200  30.214  1.00  0.00    -0.269 OA
BRANCH  32  35
ATOM     35  C   UNL A   1      36.769  30.332  29.333  1.00  0.00     0.039 A 
ATOM     36  C   UNL A   1      37.002  29.236  30.165  1.00  0.00     0.014 A 
ATOM     37  C   UNL A   1      37.689  30.621  28.314  1.00  0.00     0.014 A 
ATOM     38  C   UNL A   1      38.194  28.496  30.034  1.00  0.00     0.010 A 
ATOM     39  C   UNL A   1      38.865  29.892  28.183  1.00  0.00     0.010 A 
ATOM     40  C   UNL A   1      39.151  28.851  29.070  1.00  0.00    -0.014 A 
BRANCH  40  41
ATOM     41  C   UNL A   1      40.474  28.221  28.969  1.00  0.00     0.031 A 
ATOM     42  C   UNL A   1      40.648  26.806  28.546  1.00  0.00     0.074 A 
ATOM     43  C   UNL A   1      41.590  28.879  29.371  1.00  0.00     0.049 A 
ATOM     44  N   UNL A   1      41.507  25.991  29.075  1.00  0.00    -0.248 NA
ATOM     45  C   UNL A   1      39.854  26.186  27.488  1.00  0.00     0.031 C 
ATOM     46  C   UNL A   1      42.973  28.431  29.224  1.00  0.00     0.029 A 
ATOM     47  N   UNL A   1      41.730  30.020  30.148  1.00  0.00    -0.354 N 
ATOM     48  C   UNL A   1      41.634  24.918  28.220  1.00  0.00     0.074 A 
ATOM     49  C   UNL A   1      40.491  25.015  27.334  1.00  0.00     0.031 C 
ATOM     50  C   UNL A   1      43.734  29.066  30.130  1.00  0.00     0.029 A 
ATOM     51  C   UNL A   1      42.847  29.840  30.977  1.00  0.00     0.049 A 
ATOM     52  H   UNL A   1      41.149  30.814  30.121  1.00  0.00     0.167 HD
ATOM     53  C   UNL A   1      42.772  24.160  28.215  1.00  0.00     0.034 A 
ATOM     54  C   UNL A   1      42.845  29.840  32.349  1.00  0.00     0.034 A 
ATOM     55  C   UNL A   1      43.786  24.666  29.134  1.00  0.00     0.049 A 
ATOM     56  C   UNL A   1      43.457  28.600  32.972  1.00  0.00     0.074 A 
ATOM     57  C   UNL A   1      44.952  25.391  28.940  1.00  0.00     0.029 A 
ATOM     58  N   UNL A   1      43.568  24.660  30.500  1.00  0.00    -0.354 N 
ATOM     59  N   UNL A   1      43.862  27.577  32.279  1.00  0.00    -0.248 NA
ATOM     60  C   UNL A   1      43.496  28.335  34.413  1.00  0.00     0.031 C 
ATOM     61  C   UNL A   1      45.477  25.751  30.205  1.00  0.00     0.029 A 
ATOM     62  C   UNL A   1      44.617  25.265  31.169  1.00  0.00     0.049 A 
ATOM     63  H   UNL A   1      42.774  24.276  30.938  1.00  0.00     0.167 HD
ATOM     64  C   UNL A   1      44.186  26.546  33.119  1.00  0.00     0.074 A 
ATOM     65  C   UNL A   1      43.923  27.059  34.446  1.00  0.00     0.031 C 
ATOM     66  C   UNL A   1      44.597  25.345  32.621  1.00  0.00     0.034 A 
BRANCH  53  67
ATOM     67  C   UNL A   1      43.088  23.113  27.157  1.00  0.00     0.023 A 
ATOM     68  C   UNL A   1      43.978  23.368  26.093  1.00  0.00     0.012 A 
ATOM     69  C   UNL A   1      42.507  21.821  27.179  1.00  0.00     0.148 A 
ATOM     70  C   UNL A   1      44.394  22.360  25.208  1.00  0.00     0.002 A 
ATOM     71  C   UNL A   1      42.903  20.825  26.285  1.00  0.00     0.091 A 
ATOM     72  F   UNL A   1      41.546  21.520  28.059  1.00  0.00    -0.205 F 
ATOM     73  C   UNL A   1      43.872  21.078  25.317  1.00  0.00     0.022 A 
BRANCH  71  74
ATOM     74  S   UNL A   1      42.158  19.193  26.409  1.00  0.00     0.127 S 
ATOM     75  O   UNL A   1      42.935  18.403  25.460  1.00  0.00    -0.237 OA
ATOM     76  O   UNL A   1      42.313  18.868  27.823  1.00  0.00    -0.237 OA
ATOM     77  O   UNL A   1      40.772  19.427  25.997  1.00  0.00    -0.744 OA
ENDBRANCH  71  74
ENDBRANCH  53  67
BRANCH  54  78
ATOM     78  C   UNL A   1      41.655  30.512  32.936  1.00  0.00     0.023 A 
ATOM     79  C   UNL A   1      40.468  29.755  32.958  1.00  0.00     0.012 A 
ATOM     80  C   UNL A   1      41.604  31.919  32.865  1.00  0.00     0.148 A 
ATOM     81  C   UNL A   1      39.271  30.372  32.636  1.00  0.00     0.002 A 
ATOM     82  C   UNL A   1      40.407  32.517  32.512  1.00  0.00     0.091 A 
ATOM     83  F   UNL A   1      42.749  32.615  32.898  1.00  0.00    -0.205 F 
ATOM     84  C   UNL A   1      39.263  31.733  32.338  1.00  0.00     0.022 A 
BRANCH  82  85
ATOM     85  S   UNL A   1      40.381  34.221  31.965  1.00  0.00     0.127 S 
ATOM     86  O   UNL A   1      41.230  34.231  30.792  1.00  0.00    -0.237 OA
ATOM     87  O   UNL A   1      38.945  34.453  31.758  1.00  0.00    -0.237 OA
ATOM     88  O   UNL A   1      40.938  34.936  33.127  1.00  0.00    -0.744 OA
ENDBRANCH  82  85
ENDBRANCH  54  78
BRANCH  66  89
ATOM     89  C   UNL A   1      44.996  24.135  33.425  1.00  0.00     0.023 A 
ATOM     90  C   UNL A   1      44.018  23.142  33.682  1.00  0.00     0.012 A 
ATOM     91  C   UNL A   1      46.301  23.863  33.863  1.00  0.00     0.148 A 
ATOM     92  C   UNL A   1      44.303  21.968  34.383  1.00  0.00     0.002 A 
ATOM     93  C   UNL A   1      46.574  22.714  34.610  1.00  0.00     0.091 A 
ATOM     94  F   UNL A   1      47.307  24.679  33.518  1.00  0.00    -0.205 F 
ATOM     95  C   UNL A   1      45.583  21.762  34.869  1.00  0.00     0.022 A 
BRANCH  93  96
ATOM     96  S   UNL A   1      48.212  22.505  35.309  1.00  0.00     0.127 S 
ATOM     97  O   UNL A   1      48.565  23.849  35.750  1.00  0.00    -0.237 OA
ATOM     98  O   UNL A   1      47.987  21.514  36.360  1.00  0.00    -0.237 OA
ATOM     99  O   UNL A   1      49.003  22.008  34.182  1.00  0.00    -0.744 OA
ENDBRANCH  93  96
ENDBRANCH  66  89
ENDBRANCH  40  41
ENDBRANCH  32  35
ENDBRANCH   1  31
TORSDOF 15
ENDMDL
MODEL 2
REMARK VINA RESULT:     -13.7      2.031      2.901
REMARK SMILES Cc1ccc(-c2cc(Cl)cc3c2O[C@H](C(F)(F)F)C(C(=O)NCCCNC(=O)c2ccc(-c4c5nc(c(-c6cccc(S(=O)(=O)[O-])c6F)c6ccc([nH]6)c(-c6cccc(S(=O)(=O)[O-])c6F)c6nc(c(-c7cccc(S(=O)(=O)[O-])c7F)c7ccc4[nH]7)C=C6)C=C5)cc2)=C3)cc1F
REMARK SMILES IDX 25 1 24 2 23 3 22 4 20 5 21 6 19 8 6 9 7 10 12 11 8 12 11 13
REMARK SMILES IDX 13 14 9 15 10 16 92 17 14 18 5 19 1 20 2 21 3 22 94 23 4 24
REMARK SMILES IDX 93 25 95 26 15 27 16 28 17 29 18 30 26 31 27 32 28 34 29 35
REMARK SMILES IDX 30 36 91 37 31 38 90 39 32 40 33 41 34 42 84 43 35 44 89 45
REMARK SMILES IDX 83 46 85 47 36 48 88 49 82 50 81 51 37 53 69 54 49 55 68 56
REMARK SMILES IDX 50 57 53 58 67 59 86 60 51 61 52 62 66 64 87 65 54 66 38 67
REMARK SMILES IDX 39 68 47 69 40 70 42 71 48 72 41 73 43 74 44 75 45 76 46 77
REMARK SMILES IDX 70 78 71 79 79 80 72 81 74 82 80 83 73 84 75 85 76 86 77 87
REMARK SMILES IDX 78 88 55 89 56 90 64 91 57 92 59 93 65 94 58 95 60 96 61 97
REMARK SMILES IDX 62 98 63 99
REMARK H PARENT 22 7 26 33 85 52 53 63
REMARK Flexibility Score: inf
ROOT
ATOM      1  C   UNL A   1      34.054  29.943  26.973  1.00  0.00     0.118 C 
ENDROOT
BRANCH   1   2
ATOM      2  C   UNL A   1      34.253  28.433  26.862  1.00  0.00     0.042 C 
BRANCH   2   3
ATOM      3  C   UNL A   1      33.028  27.615  26.440  1.00  0.00     0.118 C 
BRANCH   3   4
ATOM      4  N   UNL A   1      32.999  27.406  25.002  1.00  0.00    -0.352 N 
ATOM      5  C   UNL A   1      33.317  26.411  24.145  1.00  0.00     0.251 C 
ATOM      6  O   UNL A   1      33.200  26.711  22.949  1.00  0.00    -0.270 OA
ATOM      7  H   UNL A   1      32.656  28.198  24.527  1.00  0.00     0.163 HD
BRANCH   5   8
ATOM      8  C   UNL A   1      33.776  25.034  24.509  1.00  0.00     0.067 C 
ATOM      9  C   UNL A   1      35.424  21.237  25.334  1.00  0.00     0.026 A 
ATOM     10  C   UNL A   1      36.808  21.147  25.556  1.00  0.00     0.033 A 
ATOM     11  C   UNL A   1      34.861  22.520  25.184  1.00  0.00     0.135 A 
ATOM     12  C   UNL A   1      37.593  22.300  25.620  1.00  0.00     0.042 A 
ATOM     13  C   UNL A   1      35.649  23.675  25.232  1.00  0.00     0.019 A 
ATOM     14  O   UNL A   1      33.500  22.625  25.044  1.00  0.00    -0.475 OA
ATOM     15  Cl  UNL A   1      39.289  22.163  25.885  1.00  0.00    -0.084 Cl
ATOM     16  C   UNL A   1      37.022  23.561  25.457  1.00  0.00     0.032 A 
ATOM     17  C   UNL A   1      35.025  24.976  25.017  1.00  0.00     0.025 C 
ATOM     18  C   UNL A   1      33.030  23.749  24.237  1.00  0.00     0.314 C 
BRANCH   9  19
ATOM     19  C   UNL A   1      34.618  20.014  25.211  1.00  0.00    -0.012 A 
ATOM     20  C   UNL A   1      32.252  16.421  24.734  1.00  0.00     0.047 C 
ATOM     21  C   UNL A   1      33.063  17.664  24.937  1.00  0.00    -0.015 A 
ATOM     22  C   UNL A   1      32.522  18.802  25.541  1.00  0.00     0.007 A 
ATOM     23  C   UNL A   1      34.384  17.708  24.490  1.00  0.00     0.126 A 
ATOM     24  C   UNL A   1      33.296  19.963  25.682  1.00  0.00     0.009 A 
ATOM     25  C   UNL A   1      35.155  18.861  24.619  1.00  0.00     0.048 A 
ATOM     26  F   UNL A   1      34.933  16.619  23.935  1.00  0.00    -0.207 F 
ENDBRANCH   9  19
BRANCH  18  27
ATOM     27  C   UNL A   1      33.046  23.343  22.754  1.00  0.00     0.429 C 
ATOM     28  F   UNL A   1      32.658  22.060  22.617  1.00  0.00    -0.167 F 
ATOM     29  F   UNL A   1      32.243  24.128  22.009  1.00  0.00    -0.167 F 
ATOM     30  F   UNL A   1      34.295  23.441  22.228  1.00  0.00    -0.167 F 
ENDBRANCH  18  27
ENDBRANCH   5   8
ENDBRANCH   3   4
ENDBRANCH   2   3
ENDBRANCH   1   2
BRANCH   1  31
ATOM     31  N   UNL A   1      34.351  30.556  28.252  1.00  0.00    -0.352 N 
ATOM     32  C   UNL A   1      35.518  30.871  28.894  1.00  0.00     0.251 C 
ATOM     33  H   UNL A   1      33.545  30.794  28.766  1.00  0.00     0.163 HD
ATOM     34  O   UNL A   1      35.525  31.880  29.605  1.00  0.00    -0.269 OA
BRANCH  32  35
ATOM     35  C   UNL A   1      36.705  29.980  28.920  1.00  0.00     0.039 A 
ATOM     36  C   UNL A   1      37.016  29.040  29.903  1.00  0.00     0.014 A 
ATOM     37  C   UNL A   1      37.576  30.140  27.831  1.00  0.00     0.014 A 
ATOM     38  C   UNL A   1      38.236  28.336  29.840  1.00  0.00     0.010 A 
ATOM     39  C   UNL A   1      38.778  29.447  27.768  1.00  0.00     0.010 A 
ATOM     40  C   UNL A   1      39.141  28.572  28.795  1.00  0.00    -0.014 A 
BRANCH  40  41
ATOM     41  C   UNL A   1      40.487  27.986  28.739  1.00  0.00     0.031 A 
ATOM     42  C   UNL A   1      40.721  26.571  28.342  1.00  0.00     0.074 A 
ATOM     43  C   UNL A   1      41.569  28.687  29.161  1.00  0.00     0.049 A 
ATOM     44  N   UNL A   1      41.592  25.793  28.906  1.00  0.00    -0.248 NA
ATOM     45  C   UNL A   1      39.978  25.910  27.273  1.00  0.00     0.031 C 
ATOM     46  C   UNL A   1      42.970  28.284  29.058  1.00  0.00     0.029 A 
ATOM     47  N   UNL A   1      41.648  29.843  29.923  1.00  0.00    -0.354 N 
ATOM     48  C   UNL A   1      41.778  24.714  28.071  1.00  0.00     0.074 A 
ATOM     49  C   UNL A   1      40.657  24.759  27.153  1.00  0.00     0.031 C 
ATOM     50  C   UNL A   1      43.683  28.958  29.974  1.00  0.00     0.029 A 
ATOM     51  C   UNL A   1      42.748  29.713  30.785  1.00  0.00     0.049 A 
ATOM     52  H   UNL A   1      41.042  30.617  29.869  1.00  0.00     0.167 HD
ATOM     53  C   UNL A   1      42.941  23.996  28.108  1.00  0.00     0.034 A 
ATOM     54  C   UNL A   1      42.709  29.733  32.156  1.00  0.00     0.034 A 
ATOM     55  C   UNL A   1      43.912  24.549  29.047  1.00  0.00     0.049 A 
ATOM     56  C   UNL A   1      43.345  28.523  32.815  1.00  0.00     0.074 A 
ATOM     57  C   UNL A   1      45.058  25.310  28.873  1.00  0.00     0.029 A 
ATOM     58  N   UNL A   1      43.657  24.555  30.407  1.00  0.00    -0.354 N 
ATOM     59  N   UNL A   1      43.803  27.505  32.148  1.00  0.00    -0.248 NA
ATOM     60  C   UNL A   1      43.353  28.281  34.260  1.00  0.00     0.031 C 
ATOM     61  C   UNL A   1      45.535  25.706  30.146  1.00  0.00     0.029 A 
ATOM     62  C   UNL A   1      44.666  25.205  31.094  1.00  0.00     0.049 A 
ATOM     63  H   UNL A   1      42.865  24.150  30.828  1.00  0.00     0.167 HD
ATOM     64  C   UNL A   1      44.138  26.497  33.012  1.00  0.00     0.074 A 
ATOM     65  C   UNL A   1      43.822  27.021  34.324  1.00  0.00     0.031 C 
ATOM     66  C   UNL A   1      44.603  25.304  32.543  1.00  0.00     0.034 A 
BRANCH  53  67
ATOM     67  C   UNL A   1      43.321  22.945  27.076  1.00  0.00     0.023 A 
ATOM     68  C   UNL A   1      44.290  23.189  26.080  1.00  0.00     0.012 A 
ATOM     69  C   UNL A   1      42.724  21.660  27.053  1.00  0.00     0.148 A 
ATOM     70  C   UNL A   1      44.758  22.176  25.228  1.00  0.00     0.002 A 
ATOM     71  C   UNL A   1      43.173  20.659  26.189  1.00  0.00     0.091 A 
ATOM     72  F   UNL A   1      41.697  21.371  27.859  1.00  0.00    -0.205 F 
ATOM     73  C   UNL A   1      44.213  20.900  25.296  1.00  0.00     0.022 A 
BRANCH  71  74
ATOM     74  S   UNL A   1      42.400  19.037  26.256  1.00  0.00     0.127 S 
ATOM     75  O   UNL A   1      41.018  19.315  25.879  1.00  0.00    -0.237 OA
ATOM     76  O   UNL A   1      43.197  18.255  25.318  1.00  0.00    -0.237 OA
ATOM     77  O   UNL A   1      42.569  18.645  27.658  1.00  0.00    -0.744 OA
ENDBRANCH  71  74
ENDBRANCH  53  67
BRANCH  54  78
ATOM     78  C   UNL A   1      41.481  30.372  32.701  1.00  0.00     0.023 A 
ATOM     79  C   UNL A   1      40.363  29.530  32.851  1.00  0.00     0.012 A 
ATOM     80  C   UNL A   1      41.309  31.751  32.467  1.00  0.00     0.148 A 
ATOM     81  C   UNL A   1      39.110  30.005  32.501  1.00  0.00     0.002 A 
ATOM     82  C   UNL A   1      40.058  32.204  32.087  1.00  0.00     0.091 A 
ATOM     83  F   UNL A   1      42.392  32.537  32.379  1.00  0.00    -0.205 F 
ATOM     84  C   UNL A   1      38.980  31.316  32.045  1.00  0.00     0.022 A 
BRANCH  82  85
ATOM     85  S   UNL A   1      39.876  33.824  31.346  1.00  0.00     0.127 S 
ATOM     86  O   UNL A   1      40.889  33.857  30.312  1.00  0.00    -0.237 OA
ATOM     87  O   UNL A   1      38.473  33.803  30.910  1.00  0.00    -0.237 OA
ATOM     88  O   UNL A   1      40.134  34.725  32.483  1.00  0.00    -0.744 OA
ENDBRANCH  82  85
ENDBRANCH  54  78
BRANCH  66  89
ATOM     89  C   UNL A   1      45.021  24.121  33.376  1.00  0.00     0.023 A 
ATOM     90  C   UNL A   1      44.071  23.096  33.618  1.00  0.00     0.012 A 
ATOM     91  C   UNL A   1      46.321  23.902  33.858  1.00  0.00     0.148 A 
ATOM     92  C   UNL A   1      44.377  21.943  34.343  1.00  0.00     0.002 A 
ATOM     93  C   UNL A   1      46.612  22.774  34.629  1.00  0.00     0.091 A 
ATOM     94  F   UNL A   1      47.307  24.750  33.531  1.00  0.00    -0.205 F 
ATOM     95  C   UNL A   1      45.647  21.790  34.872  1.00  0.00     0.022 A 
BRANCH  93  96
ATOM     96  S   UNL A   1      48.233  22.633  35.380  1.00  0.00     0.127 S 
ATOM     97  O   UNL A   1      48.089  21.499  36.285  1.00  0.00    -0.237 OA
ATOM     98  O   UNL A   1      49.106  22.436  34.224  1.00  0.00    -0.237 OA
ATOM     99  O   UNL A   1      48.413  23.923  36.049  1.00  0.00    -0.744 OA
ENDBRANCH  93  96
ENDBRANCH  66  89
ENDBRANCH  40  41
ENDBRANCH  32  35
ENDBRANCH   1  31
TORSDOF 15
ENDMDL
MODEL 3
REMARK VINA RESULT:     -13.7      3.973     10.419
REMARK SMILES Cc1ccc(-c2cc(Cl)cc3c2O[C@H](C(F)(F)F)C(C(=O)NCCCNC(=O)c2ccc(-c4c5nc(c(-c6cccc(S(=O)(=O)[O-])c6F)c6ccc([nH]6)c(-c6cccc(S(=O)(=O)[O-])c6F)c6nc(c(-c7cccc(S(=O)(=O)[O-])c7F)c7ccc4[nH]7)C=C6)C=C5)cc2)=C3)cc1F
REMARK SMILES IDX 25 1 24 2 23 3 22 4 20 5 21 6 19 8 6 9 7 10 12 11 8 12 11 13
REMARK SMILES IDX 13 14 9 15 10 16 92 17 14 18 5 19 1 20 2 21 3 22 94 23 4 24
REMARK SMILES IDX 93 25 95 26 15 27 16 28 17 29 18 30 26 31 27 32 28 34 29 35
REMARK SMILES IDX 30 36 91 37 31 38 90 39 32 40 33 41 34 42 84 43 35 44 89 45
REMARK SMILES IDX 83 46 85 47 36 48 88 49 82 50 81 51 37 53 69 54 49 55 68 56
REMARK SMILES IDX 50 57 53 58 67 59 86 60 51 61 52 62 66 64 87 65 54 66 38 67
REMARK SMILES IDX 39 68 47 69 40 70 42 71 48 72 41 73 43 74 44 75 45 76 46 77
REMARK SMILES IDX 70 78 71 79 79 80 72 81 74 82 80 83 73 84 75 85 76 86 77 87
REMARK SMILES IDX 78 88 55 89 56 90 64 91 57 92 59 93 65 94 58 95 60 96 61 97
REMARK SMILES IDX 62 98 63 99
REMARK H PARENT 22 7 26 33 85 52 53 63
REMARK Flexibility Score: inf
ROOT
ATOM      1  C   UNL A   1      37.934  22.905  26.161  1.00  0.00     0.118 C 
ENDROOT
BRANCH   1   2
ATOM      2  C   UNL A   1      36.998  24.014  25.684  1.00  0.00     0.042 C 
BRANCH   2   3
ATOM      3  C   UNL A   1      35.894  23.597  24.708  1.00  0.00     0.118 C 
BRANCH   3   4
ATOM      4  N   UNL A   1      34.672  23.239  25.410  1.00  0.00    -0.352 N 
ATOM      5  C   UNL A   1      33.530  23.861  25.778  1.00  0.00     0.251 C 
ATOM      6  O   UNL A   1      32.766  23.162  26.457  1.00  0.00    -0.270 OA
ATOM      7  H   UNL A   1      34.678  22.295  25.690  1.00  0.00     0.163 HD
BRANCH   5   8
ATOM      8  C   UNL A   1      33.130  25.263  25.442  1.00  0.00     0.067 C 
ATOM      9  C   UNL A   1      31.990  29.290  24.906  1.00  0.00     0.026 A 
ATOM     10  C   UNL A   1      32.470  30.244  25.818  1.00  0.00     0.033 A 
ATOM     11  C   UNL A   1      32.473  27.971  25.014  1.00  0.00     0.135 A 
ATOM     12  C   UNL A   1      33.395  29.884  26.800  1.00  0.00     0.042 A 
ATOM     13  C   UNL A   1      33.387  27.606  26.008  1.00  0.00     0.019 A 
ATOM     14  O   UNL A   1      32.071  27.049  24.081  1.00  0.00    -0.475 OA
ATOM     15  Cl  UNL A   1      33.962  31.071  27.912  1.00  0.00    -0.084 Cl
ATOM     16  C   UNL A   1      33.853  28.572  26.902  1.00  0.00     0.032 A 
ATOM     17  C   UNL A   1      33.814  26.214  26.110  1.00  0.00     0.025 C 
ATOM     18  C   UNL A   1      31.979  25.668  24.553  1.00  0.00     0.314 C 
BRANCH   9  19
ATOM     19  C   UNL A   1      30.974  29.669  23.912  1.00  0.00    -0.012 A 
ATOM     20  C   UNL A   1      27.904  30.723  21.049  1.00  0.00     0.047 C 
ATOM     21  C   UNL A   1      28.993  30.373  22.017  1.00  0.00    -0.015 A 
ATOM     22  C   UNL A   1      30.089  29.594  21.637  1.00  0.00     0.007 A 
ATOM     23  C   UNL A   1      28.908  30.806  23.341  1.00  0.00     0.126 A 
ATOM     24  C   UNL A   1      31.073  29.253  22.575  1.00  0.00     0.009 A 
ATOM     25  C   UNL A   1      29.876  30.462  24.280  1.00  0.00     0.048 A 
ATOM     26  F   UNL A   1      27.880  31.578  23.721  1.00  0.00    -0.207 F 
ENDBRANCH   9  19
BRANCH  18  27
ATOM     27  C   UNL A   1      30.604  25.452  25.206  1.00  0.00     0.429 C 
ATOM     28  F   UNL A   1      30.671  25.704  26.528  1.00  0.00    -0.167 F 
ATOM     29  F   UNL A   1      29.658  26.236  24.655  1.00  0.00    -0.167 F 
ATOM     30  F   UNL A   1      30.187  24.167  25.065  1.00  0.00    -0.167 F 
ENDBRANCH  18  27
ENDBRANCH   5   8
ENDBRANCH   3   4
ENDBRANCH   2   3
ENDBRANCH   1   2
BRANCH   1  31
ATOM     31  N   UNL A   1      39.348  23.075  25.895  1.00  0.00    -0.352 N 
ATOM     32  C   UNL A   1      40.349  23.761  26.531  1.00  0.00     0.251 C 
ATOM     33  H   UNL A   1      39.653  22.598  25.090  1.00  0.00     0.163 HD
ATOM     34  O   UNL A   1      41.482  23.275  26.502  1.00  0.00    -0.269 OA
BRANCH  32  35
ATOM     35  C   UNL A   1      40.177  25.124  27.093  1.00  0.00     0.039 A 
ATOM     36  C   UNL A   1      40.434  26.330  26.440  1.00  0.00     0.014 A 
ATOM     37  C   UNL A   1      39.716  25.153  28.419  1.00  0.00     0.014 A 
ATOM     38  C   UNL A   1      40.319  27.547  27.141  1.00  0.00     0.010 A 
ATOM     39  C   UNL A   1      39.602  26.352  29.111  1.00  0.00     0.010 A 
ATOM     40  C   UNL A   1      39.946  27.557  28.493  1.00  0.00    -0.014 A 
BRANCH  40  41
ATOM     41  C   UNL A   1      39.943  28.768  29.326  1.00  0.00     0.031 A 
ATOM     42  C   UNL A   1      38.877  29.799  29.223  1.00  0.00     0.074 A 
ATOM     43  C   UNL A   1      40.985  29.048  30.148  1.00  0.00     0.049 A 
ATOM     44  N   UNL A   1      39.094  31.076  29.284  1.00  0.00    -0.248 NA
ATOM     45  C   UNL A   1      37.466  29.472  29.031  1.00  0.00     0.031 C 
ATOM     46  C   UNL A   1      41.071  30.143  31.113  1.00  0.00     0.029 A 
ATOM     47  N   UNL A   1      42.265  28.516  30.189  1.00  0.00    -0.354 N 
ATOM     48  C   UNL A   1      37.880  31.687  29.510  1.00  0.00     0.074 A 
ATOM     49  C   UNL A   1      36.892  30.673  29.200  1.00  0.00     0.031 C 
ATOM     50  C   UNL A   1      42.365  30.391  31.373  1.00  0.00     0.029 A 
ATOM     51  C   UNL A   1      43.154  29.560  30.485  1.00  0.00     0.049 A 
ATOM     52  H   UNL A   1      42.507  27.574  30.039  1.00  0.00     0.167 HD
ATOM     53  C   UNL A   1      37.817  32.916  30.106  1.00  0.00     0.034 A 
ATOM     54  C   UNL A   1      44.190  29.989  29.694  1.00  0.00     0.034 A 
ATOM     55  C   UNL A   1      39.130  33.414  30.503  1.00  0.00     0.049 A 
ATOM     56  C   UNL A   1      44.157  31.472  29.374  1.00  0.00     0.074 A 
ATOM     57  C   UNL A   1      39.776  33.486  31.728  1.00  0.00     0.029 A 
ATOM     58  N   UNL A   1      40.088  33.720  29.553  1.00  0.00    -0.354 N 
ATOM     59  N   UNL A   1      43.185  32.258  29.731  1.00  0.00    -0.248 NA
ATOM     60  C   UNL A   1      45.108  32.145  28.485  1.00  0.00     0.031 C 
ATOM     61  C   UNL A   1      41.107  33.917  31.513  1.00  0.00     0.029 A 
ATOM     62  C   UNL A   1      41.279  34.085  30.154  1.00  0.00     0.049 A 
ATOM     63  H   UNL A   1      39.941  33.684  28.580  1.00  0.00     0.167 HD
ATOM     64  C   UNL A   1      43.338  33.484  29.142  1.00  0.00     0.074 A 
ATOM     65  C   UNL A   1      44.547  33.362  28.355  1.00  0.00     0.031 C 
ATOM     66  C   UNL A   1      42.414  34.469  29.331  1.00  0.00     0.034 A 
BRANCH  53  67
ATOM     67  C   UNL A   1      36.527  33.555  30.597  1.00  0.00     0.023 A 
ATOM     68  C   UNL A   1      36.212  33.648  31.969  1.00  0.00     0.012 A 
ATOM     69  C   UNL A   1      35.565  34.093  29.706  1.00  0.00     0.148 A 
ATOM     70  C   UNL A   1      35.104  34.374  32.435  1.00  0.00     0.002 A 
ATOM     71  C   UNL A   1      34.450  34.795  30.169  1.00  0.00     0.091 A 
ATOM     72  F   UNL A   1      35.695  33.932  28.385  1.00  0.00    -0.205 F 
ATOM     73  C   UNL A   1      34.231  34.968  31.533  1.00  0.00     0.022 A 
BRANCH  71  74
ATOM     74  S   UNL A   1      33.302  35.494  28.975  1.00  0.00     0.127 S 
ATOM     75  O   UNL A   1      34.158  36.346  28.155  1.00  0.00    -0.237 OA
ATOM     76  O   UNL A   1      32.735  34.313  28.333  1.00  0.00    -0.237 OA
ATOM     77  O   UNL A   1      32.356  36.233  29.815  1.00  0.00    -0.744 OA
ENDBRANCH  71  74
ENDBRANCH  53  67
BRANCH  54  78
ATOM     78  C   UNL A   1      44.627  28.977  28.695  1.00  0.00     0.023 A 
ATOM     79  C   UNL A   1      43.959  29.006  27.456  1.00  0.00     0.012 A 
ATOM     80  C   UNL A   1      45.168  27.772  29.187  1.00  0.00     0.148 A 
ATOM     81  C   UNL A   1      43.599  27.810  26.858  1.00  0.00     0.002 A 
ATOM     82  C   UNL A   1      44.773  26.584  28.597  1.00  0.00     0.091 A 
ATOM     83  F   UNL A   1      45.844  27.786  30.345  1.00  0.00    -0.205 F 
ATOM     84  C   UNL A   1      43.940  26.608  27.475  1.00  0.00     0.022 A 
BRANCH  82  85
ATOM     85  S   UNL A   1      45.049  25.028  29.438  1.00  0.00     0.127 S 
ATOM     86  O   UNL A   1      46.491  24.899  29.482  1.00  0.00    -0.237 OA
ATOM     87  O   UNL A   1      44.356  25.245  30.715  1.00  0.00    -0.237 OA
ATOM     88  O   UNL A   1      44.376  24.063  28.551  1.00  0.00    -0.744 OA
ENDBRANCH  82  85
ENDBRANCH  54  78
BRANCH  66  89
ATOM     89  C   UNL A   1      42.465  35.861  28.758  1.00  0.00     0.023 A 
ATOM     90  C   UNL A   1      41.840  36.101  27.509  1.00  0.00     0.012 A 
ATOM     91  C   UNL A   1      43.006  36.976  29.418  1.00  0.00     0.148 A 
ATOM     92  C   UNL A   1      41.799  37.366  26.919  1.00  0.00     0.002 A 
ATOM     93  C   UNL A   1      43.012  38.230  28.802  1.00  0.00     0.091 A 
ATOM     94  F   UNL A   1      43.470  36.853  30.669  1.00  0.00    -0.205 F 
ATOM     95  C   UNL A   1      42.408  38.433  27.557  1.00  0.00     0.022 A 
BRANCH  93  96
ATOM     96  S   UNL A   1      43.881  39.581  29.598  1.00  0.00     0.127 S 
ATOM     97  O   UNL A   1      43.073  39.852  30.781  1.00  0.00    -0.237 OA
ATOM     98  O   UNL A   1      45.208  39.014  29.833  1.00  0.00    -0.237 OA
ATOM     99  O   UNL A   1      43.858  40.644  28.591  1.00  0.00    -0.744 OA
ENDBRANCH  93  96
ENDBRANCH  66  89
ENDBRANCH  40  41
ENDBRANCH  32  35
ENDBRANCH   1  31
TORSDOF 15
ENDMDL
