MODEL 1
REMARK VINA RESULT:     -14.3      0.000      0.000
REMARK SMILES O=C1C[C@H](c2cn[nH]c2C(=O)NCCCNC(=O)c2ccc(-c3c4nc(c(-c5cccc(S(=O)(=O)[O-])c5F)c5ccc([nH]5)c(-c5cccc(S(=O)(=O)[O-])c5F)c5nc(c(-c6cccc(S(=O)(=O)[O-])c6F)c6ccc3[nH]6)C=C5)C=C4)cc2)c2c(-c3cccs3)n[nH]c2N1
REMARK SMILES IDX 14 1 13 2 12 3 10 4 11 5 9 7 5 8 6 9 7 10 8 11 4 13 1 14
REMARK SMILES IDX 2 15 3 16 92 17 91 18 82 20 90 21 83 22 89 23 84 25 85 26
REMARK SMILES IDX 88 27 86 28 87 29 15 30 16 31 17 32 18 34 19 35 20 36 81 37
REMARK SMILES IDX 21 38 80 39 22 40 23 41 24 42 74 43 25 44 79 45 73 46 75 47
REMARK SMILES IDX 26 48 78 49 72 50 71 51 27 53 59 54 39 55 58 56 40 57 43 58
REMARK SMILES IDX 57 59 76 60 41 61 42 62 56 64 77 65 44 66 28 67 29 68 37 69
REMARK SMILES IDX 30 70 32 71 38 72 31 73 33 74 34 75 35 76 36 77 60 78 61 79
REMARK SMILES IDX 69 80 62 81 64 82 70 83 63 84 65 85 66 86 67 87 68 88 45 89
REMARK SMILES IDX 46 90 54 91 47 92 49 93 55 94 48 95 50 96 51 97 52 98 53 99
REMARK H PARENT 12 6 8 12 92 19 90 24 16 33 75 52 43 63
REMARK Flexibility Score: inf
ROOT
ATOM      1  C   UNL A   1      33.540  30.687  27.491  1.00  0.00     0.042 C 
ENDROOT
BRANCH   1   2
ATOM      2  C   UNL A   1      33.859  29.465  26.302  1.00  0.00     0.118 C 
BRANCH   2   3
ATOM      3  N   UNL A   1      32.562  28.473  24.853  1.00  0.00    -0.351 N 
ATOM      4  C   UNL A   1      32.158  27.470  23.939  1.00  0.00     0.269 C 
ATOM      5  O   UNL A   1      31.007  27.576  23.506  1.00  0.00    -0.268 OA
ATOM      6  H   UNL A   1      31.803  29.097  24.808  1.00  0.00     0.163 HD
BRANCH   4   7
ATOM      7  C   UNL A   1      32.949  26.311  23.598  1.00  0.00     0.126 A 
ATOM      8  C   UNL A   1      33.399  25.243  24.353  1.00  0.00     0.011 A 
ATOM      9  C   UNL A   1      34.029  24.386  23.432  1.00  0.00     0.140 A 
ATOM     10  N   UNL A   1      34.003  24.869  22.189  1.00  0.00    -0.183 NA
ATOM     11  N   UNL A   1      33.366  26.051  22.321  1.00  0.00    -0.273 N 
ATOM     12  H   UNL A   1      33.217  26.669  21.569  1.00  0.00     0.190 HD
BRANCH   8  13
ATOM     13  C   UNL A   1      33.185  25.094  25.812  1.00  0.00     0.069 C 
ATOM     14  O   UNL A   1      29.420  25.445  26.312  1.00  0.00    -0.275 OA
ATOM     15  C   UNL A   1      30.489  24.889  26.033  1.00  0.00     0.226 C 
ATOM     16  C   UNL A   1      31.819  25.663  26.266  1.00  0.00     0.114 C 
ATOM     17  N   UNL A   1      30.461  23.567  25.657  1.00  0.00    -0.311 N 
ATOM     18  C   UNL A   1      31.618  22.858  25.795  1.00  0.00     0.132 A 
ATOM     19  H   UNL A   1      29.642  23.150  25.304  1.00  0.00     0.171 HD
ATOM     20  C   UNL A   1      33.175  23.650  26.055  1.00  0.00     0.031 A 
ATOM     21  N   UNL A   1      31.913  21.032  25.726  1.00  0.00    -0.262 N 
ATOM     22  C   UNL A   1      34.559  22.260  26.025  1.00  0.00     0.108 A 
ATOM     23  N   UNL A   1      33.774  20.697  25.816  1.00  0.00    -0.173 NA
ATOM     24  H   UNL A   1      31.213  20.343  25.652  1.00  0.00     0.192 HD
BRANCH  22  25
ATOM     25  C   UNL A   1      36.000  22.545  25.861  1.00  0.00     0.055 A 
ATOM     26  C   UNL A   1      36.569  23.755  26.179  1.00  0.00     0.022 A 
ATOM     27  S   UNL A   1      37.136  21.380  25.376  1.00  0.00    -0.142 S 
ATOM     28  C   UNL A   1      37.990  23.697  26.080  1.00  0.00     0.012 A 
ATOM     29  C   UNL A   1      38.426  22.486  25.585  1.00  0.00     0.065 A 
ENDBRANCH  22  25
ENDBRANCH   8  13
ENDBRANCH   4   7
ENDBRANCH   2   3
ENDBRANCH   1   2
BRANCH   1  30
ATOM     30  C   UNL A   1      34.712  31.618  27.710  1.00  0.00     0.118 C 
BRANCH  30  31
ATOM     31  N   UNL A   1      34.697  32.299  29.000  1.00  0.00    -0.352 N 
ATOM     32  C   UNL A   1      35.382  31.878  30.124  1.00  0.00     0.251 C 
ATOM     33  H   UNL A   1      34.157  33.119  29.075  1.00  0.00     0.163 HD
ATOM     34  O   UNL A   1      35.034  32.172  31.257  1.00  0.00    -0.269 OA
BRANCH  32  35
ATOM     35  C   UNL A   1      36.643  31.168  29.854  1.00  0.00     0.039 A 
ATOM     36  C   UNL A   1      37.887  31.785  29.815  1.00  0.00     0.014 A 
ATOM     37  C   UNL A   1      36.522  29.780  29.851  1.00  0.00     0.014 A 
ATOM     38  C   UNL A   1      39.007  30.957  29.714  1.00  0.00     0.010 A 
ATOM     39  C   UNL A   1      37.628  29.056  30.179  1.00  0.00     0.010 A 
ATOM     40  C   UNL A   1      38.866  29.558  29.874  1.00  0.00    -0.014 A 
BRANCH  40  41
ATOM     41  C   UNL A   1      39.982  28.627  30.058  1.00  0.00     0.031 A 
ATOM     42  C   UNL A   1      40.336  28.584  31.496  1.00  0.00     0.074 A 
ATOM     43  C   UNL A   1      40.566  27.860  29.093  1.00  0.00     0.049 A 
ATOM     44  N   UNL A   1      41.178  29.399  32.033  1.00  0.00    -0.248 NA
ATOM     45  C   UNL A   1      39.480  27.908  32.486  1.00  0.00     0.031 C 
ATOM     46  C   UNL A   1      40.207  27.648  27.681  1.00  0.00     0.029 A 
ATOM     47  N   UNL A   1      41.687  27.078  29.192  1.00  0.00    -0.354 N 
ATOM     48  C   UNL A   1      41.225  29.067  33.373  1.00  0.00     0.074 A 
ATOM     49  C   UNL A   1      40.005  28.353  33.635  1.00  0.00     0.031 C 
ATOM     50  C   UNL A   1      40.954  26.644  27.142  1.00  0.00     0.029 A 
ATOM     51  C   UNL A   1      41.965  26.234  28.101  1.00  0.00     0.049 A 
ATOM     52  H   UNL A   1      42.269  27.107  29.986  1.00  0.00     0.167 HD
ATOM     53  C   UNL A   1      42.428  29.137  34.002  1.00  0.00     0.034 A 
ATOM     54  C   UNL A   1      43.024  25.371  27.948  1.00  0.00     0.034 A 
ATOM     55  C   UNL A   1      43.362  29.901  33.193  1.00  0.00     0.049 A 
ATOM     56  C   UNL A   1      44.094  25.860  28.850  1.00  0.00     0.074 A 
ATOM     57  C   UNL A   1      43.384  31.188  32.686  1.00  0.00     0.029 A 
ATOM     58  N   UNL A   1      44.176  29.153  32.376  1.00  0.00    -0.354 N 
ATOM     59  N   UNL A   1      44.709  26.986  28.632  1.00  0.00    -0.248 NA
ATOM     60  C   UNL A   1      44.043  25.402  30.229  1.00  0.00     0.031 C 
ATOM     61  C   UNL A   1      43.835  31.048  31.338  1.00  0.00     0.029 A 
ATOM     62  C   UNL A   1      44.212  29.721  31.130  1.00  0.00     0.049 A 
ATOM     63  H   UNL A   1      44.658  28.337  32.644  1.00  0.00     0.167 HD
ATOM     64  C   UNL A   1      44.656  27.624  29.860  1.00  0.00     0.074 A 
ATOM     65  C   UNL A   1      44.261  26.582  30.818  1.00  0.00     0.031 C 
ATOM     66  C   UNL A   1      44.575  28.984  29.940  1.00  0.00     0.034 A 
BRANCH  53  67
ATOM     67  C   UNL A   1      42.918  28.139  35.024  1.00  0.00     0.023 A 
ATOM     68  C   UNL A   1      43.509  28.674  36.191  1.00  0.00     0.012 A 
ATOM     69  C   UNL A   1      43.106  26.758  34.786  1.00  0.00     0.148 A 
ATOM     70  C   UNL A   1      44.297  27.892  37.040  1.00  0.00     0.002 A 
ATOM     71  C   UNL A   1      43.843  25.970  35.664  1.00  0.00     0.091 A 
ATOM     72  F   UNL A   1      42.671  26.205  33.653  1.00  0.00    -0.205 F 
ATOM     73  C   UNL A   1      44.464  26.539  36.778  1.00  0.00     0.022 A 
BRANCH  71  74
ATOM     74  S   UNL A   1      44.084  24.208  35.392  1.00  0.00     0.127 S 
ATOM     75  O   UNL A   1      44.870  23.836  36.566  1.00  0.00    -0.237 OA
ATOM     76  O   UNL A   1      42.704  23.725  35.390  1.00  0.00    -0.237 OA
ATOM     77  O   UNL A   1      44.768  24.090  34.111  1.00  0.00    -0.744 OA
ENDBRANCH  71  74
ENDBRANCH  53  67
BRANCH  54  78
ATOM     78  C   UNL A   1      43.072  23.942  27.479  1.00  0.00     0.023 A 
ATOM     79  C   UNL A   1      41.956  23.076  27.644  1.00  0.00     0.012 A 
ATOM     80  C   UNL A   1      44.065  23.540  26.568  1.00  0.00     0.148 A 
ATOM     81  C   UNL A   1      41.823  21.888  26.896  1.00  0.00     0.002 A 
ATOM     82  C   UNL A   1      43.917  22.376  25.811  1.00  0.00     0.091 A 
ATOM     83  F   UNL A   1      45.115  24.347  26.381  1.00  0.00    -0.205 F 
ATOM     84  C   UNL A   1      42.796  21.549  25.963  1.00  0.00     0.022 A 
BRANCH  82  85
ATOM     85  S   UNL A   1      45.105  21.923  24.538  1.00  0.00     0.127 S 
ATOM     86  O   UNL A   1      46.328  21.739  25.318  1.00  0.00    -0.237 OA
ATOM     87  O   UNL A   1      44.524  20.693  24.007  1.00  0.00    -0.237 OA
ATOM     88  O   UNL A   1      45.142  23.049  23.613  1.00  0.00    -0.744 OA
ENDBRANCH  82  85
ENDBRANCH  54  78
BRANCH  66  89
ATOM     89  C   UNL A   1      44.782  29.785  28.677  1.00  0.00     0.023 A 
ATOM     90  C   UNL A   1      43.750  30.204  27.808  1.00  0.00     0.012 A 
ATOM     91  C   UNL A   1      46.087  30.241  28.443  1.00  0.00     0.148 A 
ATOM     92  C   UNL A   1      44.028  31.042  26.718  1.00  0.00     0.002 A 
ATOM     93  C   UNL A   1      46.353  31.099  27.387  1.00  0.00     0.091 A 
ATOM     94  F   UNL A   1      47.049  29.843  29.287  1.00  0.00    -0.205 F 
ATOM     95  C   UNL A   1      45.331  31.495  26.511  1.00  0.00     0.022 A 
BRANCH  93  96
ATOM     96  S   UNL A   1      47.990  31.783  27.148  1.00  0.00     0.127 S 
ATOM     97  O   UNL A   1      47.753  32.772  26.098  1.00  0.00    -0.237 OA
ATOM     98  O   UNL A   1      48.287  32.344  28.466  1.00  0.00    -0.237 OA
ATOM     99  O   UNL A   1      48.845  30.666  26.768  1.00  0.00    -0.744 OA
ENDBRANCH  93  96
ENDBRANCH  66  89
ENDBRANCH  40  41
ENDBRANCH  32  35
ENDBRANCH  30  31
ENDBRANCH   1  30
TORSDOF 15
ENDMDL
MODEL 2
REMARK VINA RESULT:     -14.3      2.843      7.801
REMARK SMILES O=C1C[C@H](c2cn[nH]c2C(=O)NCCCNC(=O)c2ccc(-c3c4nc(c(-c5cccc(S(=O)(=O)[O-])c5F)c5ccc([nH]5)c(-c5cccc(S(=O)(=O)[O-])c5F)c5nc(c(-c6cccc(S(=O)(=O)[O-])c6F)c6ccc3[nH]6)C=C5)C=C4)cc2)c2c(-c3cccs3)n[nH]c2N1
REMARK SMILES IDX 14 1 13 2 12 3 10 4 11 5 9 7 5 8 6 9 7 10 8 11 4 13 1 14
REMARK SMILES IDX 2 15 3 16 92 17 91 18 82 20 90 21 83 22 89 23 84 25 85 26
REMARK SMILES IDX 88 27 86 28 87 29 15 30 16 31 17 32 18 34 19 35 20 36 81 37
REMARK SMILES IDX 21 38 80 39 22 40 23 41 24 42 74 43 25 44 79 45 73 46 75 47
REMARK SMILES IDX 26 48 78 49 72 50 71 51 27 53 59 54 39 55 58 56 40 57 43 58
REMARK SMILES IDX 57 59 76 60 41 61 42 62 56 64 77 65 44 66 28 67 29 68 37 69
REMARK SMILES IDX 30 70 32 71 38 72 31 73 33 74 34 75 35 76 36 77 60 78 61 79
REMARK SMILES IDX 69 80 62 81 64 82 70 83 63 84 65 85 66 86 67 87 68 88 45 89
REMARK SMILES IDX 46 90 54 91 47 92 49 93 55 94 48 95 50 96 51 97 52 98 53 99
REMARK H PARENT 12 6 8 12 92 19 90 24 16 33 75 52 43 63
REMARK Flexibility Score: inf
ROOT
ATOM      1  C   UNL A   1      40.669  19.697  26.022  1.00  0.00     0.042 C 
ENDROOT
BRANCH   1   2
ATOM      2  C   UNL A   1      39.763  21.174  26.116  1.00  0.00     0.118 C 
BRANCH   2   3
ATOM      3  N   UNL A   1      38.098  21.935  24.927  1.00  0.00    -0.351 N 
ATOM      4  C   UNL A   1      36.818  22.488  24.683  1.00  0.00     0.269 C 
ATOM      5  O   UNL A   1      36.587  22.800  23.511  1.00  0.00    -0.268 OA
ATOM      6  H   UNL A   1      38.446  21.832  24.013  1.00  0.00     0.163 HD
BRANCH   4   7
ATOM      7  C   UNL A   1      35.857  22.805  25.713  1.00  0.00     0.126 A 
ATOM      8  C   UNL A   1      34.488  22.998  25.672  1.00  0.00     0.011 A 
ATOM      9  C   UNL A   1      34.105  23.172  27.015  1.00  0.00     0.140 A 
ATOM     10  N   UNL A   1      35.143  23.112  27.851  1.00  0.00    -0.183 NA
ATOM     11  N   UNL A   1      36.197  22.916  27.033  1.00  0.00    -0.273 N 
ATOM     12  H   UNL A   1      37.126  22.858  27.356  1.00  0.00     0.190 HD
BRANCH   8  13
ATOM     13  C   UNL A   1      33.671  22.974  24.436  1.00  0.00     0.069 C 
ATOM     14  O   UNL A   1      32.427  19.382  24.129  1.00  0.00    -0.275 OA
ATOM     15  C   UNL A   1      32.457  20.550  24.533  1.00  0.00     0.226 C 
ATOM     16  C   UNL A   1      33.473  21.539  23.891  1.00  0.00     0.114 C 
ATOM     17  N   UNL A   1      31.502  20.955  25.436  1.00  0.00    -0.311 N 
ATOM     18  C   UNL A   1      31.259  22.295  25.522  1.00  0.00     0.132 A 
ATOM     19  H   UNL A   1      31.016  20.308  25.995  1.00  0.00     0.171 HD
ATOM     20  C   UNL A   1      32.359  23.491  24.831  1.00  0.00     0.031 A 
ATOM     21  N   UNL A   1      29.868  23.205  26.337  1.00  0.00    -0.262 N 
ATOM     22  C   UNL A   1      31.698  25.267  25.340  1.00  0.00     0.108 A 
ATOM     23  N   UNL A   1      30.205  25.065  26.253  1.00  0.00    -0.173 NA
ATOM     24  H   UNL A   1      29.078  22.786  26.751  1.00  0.00     0.192 HD
BRANCH  22  25
ATOM     25  C   UNL A   1      32.513  26.498  25.255  1.00  0.00     0.055 A 
ATOM     26  C   UNL A   1      33.164  27.045  26.335  1.00  0.00     0.022 A 
ATOM     27  S   UNL A   1      32.838  27.307  23.798  1.00  0.00    -0.142 S 
ATOM     28  C   UNL A   1      34.004  28.126  25.935  1.00  0.00     0.012 A 
ATOM     29  C   UNL A   1      33.868  28.420  24.594  1.00  0.00     0.065 A 
ENDBRANCH  22  25
ENDBRANCH   8  13
ENDBRANCH   4   7
ENDBRANCH   2   3
ENDBRANCH   1   2
BRANCH   1  30
ATOM     30  C   UNL A   1      42.000  19.774  26.738  1.00  0.00     0.118 C 
BRANCH  30  31
ATOM     31  N   UNL A   1      43.155  19.618  25.863  1.00  0.00    -0.352 N 
ATOM     32  C   UNL A   1      43.753  20.643  25.153  1.00  0.00     0.251 C 
ATOM     33  H   UNL A   1      43.538  18.715  25.771  1.00  0.00     0.163 HD
ATOM     34  O   UNL A   1      44.396  20.449  24.132  1.00  0.00    -0.269 OA
BRANCH  32  35
ATOM     35  C   UNL A   1      43.679  21.967  25.790  1.00  0.00     0.039 A 
ATOM     36  C   UNL A   1      42.854  22.994  25.349  1.00  0.00     0.014 A 
ATOM     37  C   UNL A   1      44.347  22.047  27.010  1.00  0.00     0.014 A 
ATOM     38  C   UNL A   1      42.769  24.133  26.152  1.00  0.00     0.010 A 
ATOM     39  C   UNL A   1      43.894  22.962  27.911  1.00  0.00     0.010 A 
ATOM     40  C   UNL A   1      43.327  24.121  27.454  1.00  0.00    -0.014 A 
BRANCH  40  41
ATOM     41  C   UNL A   1      43.070  25.139  28.475  1.00  0.00     0.031 A 
ATOM     42  C   UNL A   1      41.686  25.644  28.310  1.00  0.00     0.074 A 
ATOM     43  C   UNL A   1      43.921  25.522  29.471  1.00  0.00     0.049 A 
ATOM     44  N   UNL A   1      41.390  26.627  27.531  1.00  0.00    -0.248 NA
ATOM     45  C   UNL A   1      40.515  24.832  28.683  1.00  0.00     0.031 C 
ATOM     46  C   UNL A   1      45.230  24.987  29.880  1.00  0.00     0.029 A 
ATOM     47  N   UNL A   1      43.775  26.552  30.364  1.00  0.00    -0.354 N 
ATOM     48  C   UNL A   1      40.021  26.785  27.625  1.00  0.00     0.074 A 
ATOM     49  C   UNL A   1      39.522  25.529  28.114  1.00  0.00     0.031 C 
ATOM     50  C   UNL A   1      45.633  25.551  31.053  1.00  0.00     0.029 A 
ATOM     51  C   UNL A   1      44.707  26.609  31.416  1.00  0.00     0.049 A 
ATOM     52  H   UNL A   1      43.055  27.217  30.272  1.00  0.00     0.167 HD
ATOM     53  C   UNL A   1      39.526  28.051  27.604  1.00  0.00     0.034 A 
ATOM     54  C   UNL A   1      44.788  27.540  32.425  1.00  0.00     0.034 A 
ATOM     55  C   UNL A   1      40.544  28.969  27.123  1.00  0.00     0.049 A 
ATOM     56  C   UNL A   1      44.093  28.752  31.929  1.00  0.00     0.074 A 
ATOM     57  C   UNL A   1      41.285  29.079  25.960  1.00  0.00     0.029 A 
ATOM     58  N   UNL A   1      41.273  29.597  28.104  1.00  0.00    -0.354 N 
ATOM     59  N   UNL A   1      44.573  29.463  30.949  1.00  0.00    -0.248 NA
ATOM     60  C   UNL A   1      42.653  28.804  32.125  1.00  0.00     0.031 C 
ATOM     61  C   UNL A   1      42.617  29.359  26.395  1.00  0.00     0.029 A 
ATOM     62  C   UNL A   1      42.603  29.558  27.775  1.00  0.00     0.049 A 
ATOM     63  H   UNL A   1      40.900  30.011  28.916  1.00  0.00     0.167 HD
ATOM     64  C   UNL A   1      43.488  29.619  30.103  1.00  0.00     0.074 A 
ATOM     65  C   UNL A   1      42.319  29.218  30.899  1.00  0.00     0.031 C 
ATOM     66  C   UNL A   1      43.659  29.701  28.752  1.00  0.00     0.034 A 
BRANCH  53  67
ATOM     67  C   UNL A   1      38.381  28.536  28.461  1.00  0.00     0.023 A 
ATOM     68  C   UNL A   1      37.325  29.190  27.787  1.00  0.00     0.012 A 
ATOM     69  C   UNL A   1      38.415  28.657  29.869  1.00  0.00     0.148 A 
ATOM     70  C   UNL A   1      36.392  29.975  28.470  1.00  0.00     0.002 A 
ATOM     71  C   UNL A   1      37.452  29.391  30.551  1.00  0.00     0.091 A 
ATOM     72  F   UNL A   1      39.439  28.159  30.562  1.00  0.00    -0.205 F 
ATOM     73  C   UNL A   1      36.455  30.076  29.854  1.00  0.00     0.022 A 
BRANCH  71  74
ATOM     74  S   UNL A   1      37.464  29.550  32.344  1.00  0.00     0.127 S 
ATOM     75  O   UNL A   1      38.707  30.283  32.565  1.00  0.00    -0.237 OA
ATOM     76  O   UNL A   1      36.241  30.318  32.573  1.00  0.00    -0.237 OA
ATOM     77  O   UNL A   1      37.430  28.190  32.867  1.00  0.00    -0.744 OA
ENDBRANCH  71  74
ENDBRANCH  53  67
BRANCH  54  78
ATOM     78  C   UNL A   1      44.981  27.374  33.907  1.00  0.00     0.023 A 
ATOM     79  C   UNL A   1      45.967  28.121  34.609  1.00  0.00     0.012 A 
ATOM     80  C   UNL A   1      43.979  26.756  34.676  1.00  0.00     0.148 A 
ATOM     81  C   UNL A   1      45.921  28.278  36.009  1.00  0.00     0.002 A 
ATOM     82  C   UNL A   1      43.922  26.934  36.060  1.00  0.00     0.091 A 
ATOM     83  F   UNL A   1      43.029  26.064  34.037  1.00  0.00    -0.205 F 
ATOM     84  C   UNL A   1      44.884  27.700  36.733  1.00  0.00     0.022 A 
BRANCH  82  85
ATOM     85  S   UNL A   1      42.565  26.273  37.040  1.00  0.00     0.127 S 
ATOM     86  O   UNL A   1      42.537  24.876  36.611  1.00  0.00    -0.237 OA
ATOM     87  O   UNL A   1      43.045  26.488  38.402  1.00  0.00    -0.237 OA
ATOM     88  O   UNL A   1      41.390  27.047  36.660  1.00  0.00    -0.744 OA
ENDBRANCH  82  85
ENDBRANCH  54  78
BRANCH  66  89
ATOM     89  C   UNL A   1      45.065  29.856  28.221  1.00  0.00     0.023 A 
ATOM     90  C   UNL A   1      45.938  28.785  27.925  1.00  0.00     0.012 A 
ATOM     91  C   UNL A   1      45.457  31.159  27.886  1.00  0.00     0.148 A 
ATOM     92  C   UNL A   1      47.185  29.024  27.328  1.00  0.00     0.002 A 
ATOM     93  C   UNL A   1      46.674  31.388  27.262  1.00  0.00     0.091 A 
ATOM     94  F   UNL A   1      44.608  32.159  28.162  1.00  0.00    -0.205 F 
ATOM     95  C   UNL A   1      47.550  30.327  26.991  1.00  0.00     0.022 A 
BRANCH  93  96
ATOM     96  S   UNL A   1      47.135  33.031  26.721  1.00  0.00     0.127 S 
ATOM     97  O   UNL A   1      47.170  33.766  27.985  1.00  0.00    -0.237 OA
ATOM     98  O   UNL A   1      48.444  32.799  26.108  1.00  0.00    -0.237 OA
ATOM     99  O   UNL A   1      46.103  33.455  25.783  1.00  0.00    -0.744 OA
ENDBRANCH  93  96
ENDBRANCH  66  89
ENDBRANCH  40  41
ENDBRANCH  32  35
ENDBRANCH  30  31
ENDBRANCH   1  30
TORSDOF 15
ENDMDL
MODEL 3
REMARK VINA RESULT:     -14.0      3.361      7.028
REMARK SMILES O=C1C[C@H](c2cn[nH]c2C(=O)NCCCNC(=O)c2ccc(-c3c4nc(c(-c5cccc(S(=O)(=O)[O-])c5F)c5ccc([nH]5)c(-c5cccc(S(=O)(=O)[O-])c5F)c5nc(c(-c6cccc(S(=O)(=O)[O-])c6F)c6ccc3[nH]6)C=C5)C=C4)cc2)c2c(-c3cccs3)n[nH]c2N1
REMARK SMILES IDX 14 1 13 2 12 3 10 4 11 5 9 7 5 8 6 9 7 10 8 11 4 13 1 14
REMARK SMILES IDX 2 15 3 16 92 17 91 18 82 20 90 21 83 22 89 23 84 25 85 26
REMARK SMILES IDX 88 27 86 28 87 29 15 30 16 31 17 32 18 34 19 35 20 36 81 37
REMARK SMILES IDX 21 38 80 39 22 40 23 41 24 42 74 43 25 44 79 45 73 46 75 47
REMARK SMILES IDX 26 48 78 49 72 50 71 51 27 53 59 54 39 55 58 56 40 57 43 58
REMARK SMILES IDX 57 59 76 60 41 61 42 62 56 64 77 65 44 66 28 67 29 68 37 69
REMARK SMILES IDX 30 70 32 71 38 72 31 73 33 74 34 75 35 76 36 77 60 78 61 79
REMARK SMILES IDX 69 80 62 81 64 82 70 83 63 84 65 85 66 86 67 87 68 88 45 89
REMARK SMILES IDX 46 90 54 91 47 92 49 93 55 94 48 95 50 96 51 97 52 98 53 99
REMARK H PARENT 12 6 8 12 92 19 90 24 16 33 75 52 43 63
REMARK Flexibility Score: inf
ROOT
ATOM      1  C   UNL A   1      35.775  29.169  28.035  1.00  0.00     0.042 C 
ENDROOT
BRANCH   1   2
ATOM      2  C   UNL A   1      34.825  28.359  26.831  1.00  0.00     0.118 C 
BRANCH   2   3
ATOM      3  N   UNL A   1      32.750  27.681  26.831  1.00  0.00    -0.351 N 
ATOM      4  C   UNL A   1      31.683  26.755  26.747  1.00  0.00     0.269 C 
ATOM      5  O   UNL A   1      30.564  27.206  27.011  1.00  0.00    -0.268 OA
ATOM      6  H   UNL A   1      32.267  28.526  26.974  1.00  0.00     0.163 HD
BRANCH   4   7
ATOM      7  C   UNL A   1      31.847  25.342  26.499  1.00  0.00     0.126 A 
ATOM      8  C   UNL A   1      32.840  24.625  25.857  1.00  0.00     0.011 A 
ATOM      9  C   UNL A   1      32.488  23.275  26.035  1.00  0.00     0.140 A 
ATOM     10  N   UNL A   1      31.352  23.132  26.720  1.00  0.00    -0.183 NA
ATOM     11  N   UNL A   1      30.970  24.403  26.967  1.00  0.00    -0.273 N 
ATOM     12  H   UNL A   1      30.136  24.631  27.439  1.00  0.00     0.190 HD
BRANCH   8  13
ATOM     13  C   UNL A   1      34.013  25.230  25.182  1.00  0.00     0.069 C 
ATOM     14  O   UNL A   1      36.536  22.394  24.826  1.00  0.00    -0.275 OA
ATOM     15  C   UNL A   1      35.550  23.086  24.551  1.00  0.00     0.226 C 
ATOM     16  C   UNL A   1      35.297  24.387  25.368  1.00  0.00     0.114 C 
ATOM     17  N   UNL A   1      34.797  22.747  23.451  1.00  0.00    -0.311 N 
ATOM     18  C   UNL A   1      34.025  23.728  22.901  1.00  0.00     0.132 A 
ATOM     19  H   UNL A   1      34.814  21.837  23.077  1.00  0.00     0.171 HD
ATOM     20  C   UNL A   1      33.678  25.234  23.756  1.00  0.00     0.031 A 
ATOM     21  N   UNL A   1      33.150  23.785  21.271  1.00  0.00    -0.262 N 
ATOM     22  C   UNL A   1      32.409  26.256  22.663  1.00  0.00     0.108 A 
ATOM     23  N   UNL A   1      32.102  25.358  21.180  1.00  0.00    -0.173 NA
ATOM     24  H   UNL A   1      33.218  23.103  20.564  1.00  0.00     0.192 HD
BRANCH  22  25
ATOM     25  C   UNL A   1      31.616  27.393  23.180  1.00  0.00     0.055 A 
ATOM     26  C   UNL A   1      32.170  28.604  23.520  1.00  0.00     0.022 A 
ATOM     27  S   UNL A   1      29.922  27.375  23.299  1.00  0.00    -0.142 S 
ATOM     28  C   UNL A   1      31.160  29.563  23.826  1.00  0.00     0.012 A 
ATOM     29  C   UNL A   1      29.897  29.008  23.814  1.00  0.00     0.065 A 
ENDBRANCH  22  25
ENDBRANCH   8  13
ENDBRANCH   4   7
ENDBRANCH   2   3
ENDBRANCH   1   2
BRANCH   1  30
ATOM     30  C   UNL A   1      36.831  30.077  27.443  1.00  0.00     0.118 C 
BRANCH  30  31
ATOM     31  N   UNL A   1      37.560  30.863  28.431  1.00  0.00    -0.352 N 
ATOM     32  C   UNL A   1      38.663  30.420  29.138  1.00  0.00     0.251 C 
ATOM     33  H   UNL A   1      37.243  31.779  28.608  1.00  0.00     0.163 HD
ATOM     34  O   UNL A   1      38.979  30.882  30.224  1.00  0.00    -0.269 OA
BRANCH  32  35
ATOM     35  C   UNL A   1      39.510  29.450  28.426  1.00  0.00     0.039 A 
ATOM     36  C   UNL A   1      39.850  29.557  27.082  1.00  0.00     0.014 A 
ATOM     37  C   UNL A   1      40.128  28.520  29.258  1.00  0.00     0.014 A 
ATOM     38  C   UNL A   1      40.794  28.654  26.590  1.00  0.00     0.010 A 
ATOM     39  C   UNL A   1      41.306  27.985  28.831  1.00  0.00     0.010 A 
ATOM     40  C   UNL A   1      41.518  27.832  27.487  1.00  0.00    -0.014 A 
BRANCH  40  41
ATOM     41  C   UNL A   1      42.706  27.055  27.124  1.00  0.00     0.031 A 
ATOM     42  C   UNL A   1      42.302  25.650  26.882  1.00  0.00     0.074 A 
ATOM     43  C   UNL A   1      43.970  27.538  26.957  1.00  0.00     0.049 A 
ATOM     44  N   UNL A   1      42.248  24.767  27.821  1.00  0.00    -0.248 NA
ATOM     45  C   UNL A   1      41.554  25.254  25.677  1.00  0.00     0.031 C 
ATOM     46  C   UNL A   1      44.487  28.917  26.969  1.00  0.00     0.029 A 
ATOM     47  N   UNL A   1      45.128  26.834  26.746  1.00  0.00    -0.354 N 
ATOM     48  C   UNL A   1      41.815  23.602  27.220  1.00  0.00     0.074 A 
ATOM     49  C   UNL A   1      41.166  24.014  26.005  1.00  0.00     0.031 C 
ATOM     50  C   UNL A   1      45.787  28.946  26.561  1.00  0.00     0.029 A 
ATOM     51  C   UNL A   1      46.269  27.584  26.409  1.00  0.00     0.049 A 
ATOM     52  H   UNL A   1      45.158  25.853  26.826  1.00  0.00     0.167 HD
ATOM     53  C   UNL A   1      42.352  22.429  27.649  1.00  0.00     0.034 A 
ATOM     54  C   UNL A   1      47.542  27.125  26.164  1.00  0.00     0.034 A 
ATOM     55  C   UNL A   1      43.026  22.634  28.920  1.00  0.00     0.049 A 
ATOM     56  C   UNL A   1      47.643  25.804  26.829  1.00  0.00     0.074 A 
ATOM     57  C   UNL A   1      42.636  23.084  30.168  1.00  0.00     0.029 A 
ATOM     58  N   UNL A   1      44.378  22.869  28.832  1.00  0.00    -0.354 N 
ATOM     59  N   UNL A   1      47.625  25.689  28.126  1.00  0.00    -0.248 NA
ATOM     60  C   UNL A   1      47.182  24.654  26.067  1.00  0.00     0.031 C 
ATOM     61  C   UNL A   1      43.672  23.978  30.580  1.00  0.00     0.029 A 
ATOM     62  C   UNL A   1      44.709  23.917  29.649  1.00  0.00     0.049 A 
ATOM     63  H   UNL A   1      45.009  22.363  28.270  1.00  0.00     0.167 HD
ATOM     64  C   UNL A   1      46.685  24.697  28.348  1.00  0.00     0.074 A 
ATOM     65  C   UNL A   1      46.469  24.071  27.036  1.00  0.00     0.031 C 
ATOM     66  C   UNL A   1      45.905  24.708  29.467  1.00  0.00     0.034 A 
BRANCH  53  67
ATOM     67  C   UNL A   1      42.723  21.277  26.746  1.00  0.00     0.023 A 
ATOM     68  C   UNL A   1      42.168  20.019  27.072  1.00  0.00     0.012 A 
ATOM     69  C   UNL A   1      43.784  21.288  25.811  1.00  0.00     0.148 A 
ATOM     70  C   UNL A   1      42.684  18.831  26.547  1.00  0.00     0.002 A 
ATOM     71  C   UNL A   1      44.257  20.108  25.247  1.00  0.00     0.091 A 
ATOM     72  F   UNL A   1      44.428  22.422  25.537  1.00  0.00    -0.205 F 
ATOM     73  C   UNL A   1      43.729  18.875  25.634  1.00  0.00     0.022 A 
BRANCH  71  74
ATOM     74  S   UNL A   1      45.596  20.094  24.045  1.00  0.00     0.127 S 
ATOM     75  O   UNL A   1      45.957  18.679  24.026  1.00  0.00    -0.237 OA
ATOM     76  O   UNL A   1      44.912  20.576  22.846  1.00  0.00    -0.237 OA
ATOM     77  O   UNL A   1      46.612  20.998  24.566  1.00  0.00    -0.744 OA
ENDBRANCH  71  74
ENDBRANCH  53  67
BRANCH  54  78
ATOM     78  C   UNL A   1      48.516  27.458  25.067  1.00  0.00     0.023 A 
ATOM     79  C   UNL A   1      49.919  27.453  25.303  1.00  0.00     0.012 A 
ATOM     80  C   UNL A   1      48.092  27.435  23.727  1.00  0.00     0.148 A 
ATOM     81  C   UNL A   1      50.847  27.380  24.245  1.00  0.00     0.002 A 
ATOM     82  C   UNL A   1      49.014  27.337  22.683  1.00  0.00     0.091 A 
ATOM     83  F   UNL A   1      46.777  27.419  23.481  1.00  0.00    -0.205 F 
ATOM     84  C   UNL A   1      50.393  27.301  22.933  1.00  0.00     0.022 A 
BRANCH  82  85
ATOM     85  S   UNL A   1      48.485  27.158  20.972  1.00  0.00     0.127 S 
ATOM     86  O   UNL A   1      47.204  27.863  20.978  1.00  0.00    -0.237 OA
ATOM     87  O   UNL A   1      49.558  27.837  20.252  1.00  0.00    -0.237 OA
ATOM     88  O   UNL A   1      48.384  25.722  20.739  1.00  0.00    -0.744 OA
ENDBRANCH  82  85
ENDBRANCH  54  78
BRANCH  66  89
ATOM     89  C   UNL A   1      46.252  25.686  30.566  1.00  0.00     0.023 A 
ATOM     90  C   UNL A   1      47.351  25.556  31.444  1.00  0.00     0.012 A 
ATOM     91  C   UNL A   1      45.488  26.860  30.610  1.00  0.00     0.148 A 
ATOM     92  C   UNL A   1      47.658  26.574  32.360  1.00  0.00     0.002 A 
ATOM     93  C   UNL A   1      45.817  27.880  31.490  1.00  0.00     0.091 A 
ATOM     94  F   UNL A   1      44.458  26.969  29.758  1.00  0.00    -0.205 F 
ATOM     95  C   UNL A   1      46.893  27.740  32.378  1.00  0.00     0.022 A 
BRANCH  93  96
ATOM     96  S   UNL A   1      44.924  29.432  31.474  1.00  0.00     0.127 S 
ATOM     97  O   UNL A   1      45.552  30.152  32.580  1.00  0.00    -0.237 OA
ATOM     98  O   UNL A   1      45.236  29.955  30.143  1.00  0.00    -0.237 OA
ATOM     99  O   UNL A   1      43.520  29.095  31.668  1.00  0.00    -0.744 OA
ENDBRANCH  93  96
ENDBRANCH  66  89
ENDBRANCH  40  41
ENDBRANCH  32  35
ENDBRANCH  30  31
ENDBRANCH   1  30
TORSDOF 15
ENDMDL
