MODEL 1
REMARK VINA RESULT:     -13.2      0.000      0.000
REMARK SMILES Cc1ccccc1/C=C1\SC(=S)N(CCC(=O)N[C@@H](C)C(=O)NCCCNC(=O)c2ccc(-c3c4nc(c(-c5cccc(S(=O)(=O)[O-])c5F)c5ccc([nH]5)c(-c5cccc(S(=O)(=O)[O-])c5F)c5nc(c(-c6cccc(S(=O)(=O)[O-])c6F)c6ccc3[nH]6)C=C5)C=C4)cc2)C1=O
REMARK SMILES IDX 24 1 23 2 21 3 22 4 19 6 20 7 18 8 16 9 17 10 15 12 14 13
REMARK SMILES IDX 13 14 8 15 9 16 10 17 93 18 11 19 94 20 12 21 7 22 1 23 2 24
REMARK SMILES IDX 3 25 4 26 6 27 5 28 25 29 26 30 27 31 28 32 29 34 30 35
REMARK SMILES IDX 31 36 92 37 32 38 91 39 33 40 34 41 35 42 85 43 36 44 90 45
REMARK SMILES IDX 84 46 86 47 37 48 89 49 83 50 82 51 38 53 70 54 50 55 69 56
REMARK SMILES IDX 51 57 54 58 68 59 87 60 52 61 53 62 67 64 88 65 55 66 39 67
REMARK SMILES IDX 40 68 48 69 41 70 43 71 49 72 42 73 44 74 45 75 46 76 47 77
REMARK SMILES IDX 71 78 72 79 80 80 73 81 75 82 81 83 74 84 76 85 77 86 78 87
REMARK SMILES IDX 79 88 56 89 57 90 65 91 58 92 60 93 66 94 59 95 61 96 62 97
REMARK SMILES IDX 63 98 64 99
REMARK H PARENT 23 5 18 11 27 33 86 52 54 63
REMARK Flexibility Score: inf
ROOT
ATOM      1  C   UNL A   1      31.739  28.788  25.792  1.00  0.00     0.117 C 
ENDROOT
BRANCH   1   2
ATOM      2  N   UNL A   1      31.075  29.025  24.515  1.00  0.00    -0.354 N 
ATOM      3  C   UNL A   1      31.372  28.668  23.233  1.00  0.00     0.242 C 
ATOM      4  O   UNL A   1      30.634  29.114  22.346  1.00  0.00    -0.273 OA
ATOM      5  H   UNL A   1      30.245  29.548  24.595  1.00  0.00     0.163 HD
BRANCH   3   6
ATOM      6  C   UNL A   1      32.585  27.791  22.827  1.00  0.00     0.168 C 
ATOM      7  C   UNL A   1      33.920  28.484  22.729  1.00  0.00     0.041 C 
BRANCH   6   8
ATOM      8  N   UNL A   1      32.418  27.037  21.590  1.00  0.00    -0.345 N 
ATOM      9  C   UNL A   1      32.709  25.704  21.451  1.00  0.00     0.222 C 
ATOM     10  O   UNL A   1      33.153  25.291  20.382  1.00  0.00    -0.275 OA
ATOM     11  H   UNL A   1      32.073  27.517  20.802  1.00  0.00     0.164 HD
BRANCH   9  12
ATOM     12  C   UNL A   1      32.416  24.754  22.607  1.00  0.00     0.122 C 
BRANCH  12  13
ATOM     13  C   UNL A   1      33.412  24.739  23.786  1.00  0.00     0.137 C 
BRANCH  13  14
ATOM     14  N   UNL A   1      33.672  23.406  24.381  1.00  0.00    -0.292 N 
ATOM     15  C   UNL A   1      32.241  20.172  24.718  1.00  0.00     0.029 C 
ATOM     16  C   UNL A   1      33.074  21.200  24.933  1.00  0.00     0.081 C 
ATOM     17  S   UNL A   1      34.771  21.190  25.146  1.00  0.00    -0.054 SA
ATOM     18  C   UNL A   1      32.605  22.603  24.759  1.00  0.00     0.266 C 
ATOM     19  C   UNL A   1      34.914  22.898  24.712  1.00  0.00     0.148 C 
ATOM     20  O   UNL A   1      31.437  22.946  24.872  1.00  0.00    -0.268 OA
ATOM     21  S   UNL A   1      36.379  23.695  24.734  1.00  0.00    -0.052 S 
BRANCH  15  22
ATOM     22  C   UNL A   1      32.581  18.744  24.626  1.00  0.00    -0.021 A 
ATOM     23  C   UNL A   1      32.433  18.844  22.096  1.00  0.00     0.045 C 
ATOM     24  C   UNL A   1      32.727  18.117  23.378  1.00  0.00    -0.044 A 
ATOM     25  C   UNL A   1      33.114  16.767  23.331  1.00  0.00     0.004 A 
ATOM     26  C   UNL A   1      33.394  16.059  24.500  1.00  0.00     0.000 A 
ATOM     27  C   UNL A   1      32.852  18.016  25.798  1.00  0.00     0.008 A 
ATOM     28  C   UNL A   1      33.267  16.683  25.735  1.00  0.00     0.001 A 
ENDBRANCH  15  22
ENDBRANCH  13  14
ENDBRANCH  12  13
ENDBRANCH   9  12
ENDBRANCH   6   8
ENDBRANCH   3   6
ENDBRANCH   1   2
BRANCH   1  29
ATOM     29  C   UNL A   1      32.404  30.046  26.368  1.00  0.00     0.042 C 
BRANCH  29  30
ATOM     30  C   UNL A   1      33.735  29.849  27.070  1.00  0.00     0.118 C 
BRANCH  30  31
ATOM     31  N   UNL A   1      34.429  31.114  27.231  1.00  0.00    -0.352 N 
ATOM     32  C   UNL A   1      35.564  31.466  27.929  1.00  0.00     0.251 C 
ATOM     33  H   UNL A   1      34.008  31.864  26.752  1.00  0.00     0.163 HD
ATOM     34  O   UNL A   1      35.691  32.644  28.225  1.00  0.00    -0.269 OA
BRANCH  32  35
ATOM     35  C   UNL A   1      36.605  30.466  28.260  1.00  0.00     0.039 A 
ATOM     36  C   UNL A   1      36.702  29.931  29.555  1.00  0.00     0.014 A 
ATOM     37  C   UNL A   1      37.581  30.154  27.326  1.00  0.00     0.014 A 
ATOM     38  C   UNL A   1      37.823  29.175  29.915  1.00  0.00     0.010 A 
ATOM     39  C   UNL A   1      38.549  29.239  27.603  1.00  0.00     0.010 A 
ATOM     40  C   UNL A   1      38.762  28.886  28.932  1.00  0.00    -0.014 A 
BRANCH  40  41
ATOM     41  C   UNL A   1      40.113  28.392  29.134  1.00  0.00     0.031 A 
ATOM     42  C   UNL A   1      40.450  26.987  28.926  1.00  0.00     0.074 A 
ATOM     43  C   UNL A   1      41.050  29.367  29.082  1.00  0.00     0.049 A 
ATOM     44  N   UNL A   1      41.601  26.477  29.185  1.00  0.00    -0.248 NA
ATOM     45  C   UNL A   1      39.484  26.035  28.405  1.00  0.00     0.031 C 
ATOM     46  C   UNL A   1      42.419  29.293  28.606  1.00  0.00     0.029 A 
ATOM     47  N   UNL A   1      40.903  30.699  29.490  1.00  0.00    -0.354 N 
ATOM     48  C   UNL A   1      41.638  25.241  28.574  1.00  0.00     0.074 A 
ATOM     49  C   UNL A   1      40.259  24.959  28.247  1.00  0.00     0.031 C 
ATOM     50  C   UNL A   1      43.056  30.418  28.976  1.00  0.00     0.029 A 
ATOM     51  C   UNL A   1      42.170  31.136  29.881  1.00  0.00     0.049 A 
ATOM     52  H   UNL A   1      40.070  31.224  29.499  1.00  0.00     0.167 HD
ATOM     53  C   UNL A   1      42.853  24.704  28.261  1.00  0.00     0.034 A 
ATOM     54  C   UNL A   1      42.443  31.453  31.184  1.00  0.00     0.034 A 
ATOM     55  C   UNL A   1      43.942  25.575  28.757  1.00  0.00     0.049 A 
ATOM     56  C   UNL A   1      43.444  30.488  31.799  1.00  0.00     0.074 A 
ATOM     57  C   UNL A   1      44.763  26.508  28.140  1.00  0.00     0.029 A 
ATOM     58  N   UNL A   1      44.086  25.789  30.126  1.00  0.00    -0.354 N 
ATOM     59  N   UNL A   1      43.960  29.462  31.178  1.00  0.00    -0.248 NA
ATOM     60  C   UNL A   1      43.922  30.585  33.176  1.00  0.00     0.031 C 
ATOM     61  C   UNL A   1      45.291  27.368  29.149  1.00  0.00     0.029 A 
ATOM     62  C   UNL A   1      44.831  26.936  30.381  1.00  0.00     0.049 A 
ATOM     63  H   UNL A   1      43.710  25.202  30.822  1.00  0.00     0.167 HD
ATOM     64  C   UNL A   1      44.636  28.672  32.062  1.00  0.00     0.074 A 
ATOM     65  C   UNL A   1      44.682  29.479  33.271  1.00  0.00     0.031 C 
ATOM     66  C   UNL A   1      45.018  27.392  31.762  1.00  0.00     0.034 A 
BRANCH  53  67
ATOM     67  C   UNL A   1      43.098  23.574  27.257  1.00  0.00     0.023 A 
ATOM     68  C   UNL A   1      43.829  23.892  26.090  1.00  0.00     0.012 A 
ATOM     69  C   UNL A   1      42.629  22.239  27.327  1.00  0.00     0.148 A 
ATOM     70  C   UNL A   1      44.005  22.987  25.033  1.00  0.00     0.002 A 
ATOM     71  C   UNL A   1      42.762  21.346  26.257  1.00  0.00     0.091 A 
ATOM     72  F   UNL A   1      42.108  21.767  28.455  1.00  0.00    -0.205 F 
ATOM     73  C   UNL A   1      43.447  21.720  25.103  1.00  0.00     0.022 A 
BRANCH  71  74
ATOM     74  S   UNL A   1      42.031  19.694  26.278  1.00  0.00     0.127 S 
ATOM     75  O   UNL A   1      40.599  19.992  26.343  1.00  0.00    -0.237 OA
ATOM     76  O   UNL A   1      42.479  19.137  25.004  1.00  0.00    -0.237 OA
ATOM     77  O   UNL A   1      42.554  19.027  27.466  1.00  0.00    -0.744 OA
ENDBRANCH  71  74
ENDBRANCH  53  67
BRANCH  54  78
ATOM     78  C   UNL A   1      41.274  32.077  31.887  1.00  0.00     0.023 A 
ATOM     79  C   UNL A   1      40.816  33.317  31.377  1.00  0.00     0.012 A 
ATOM     80  C   UNL A   1      40.393  31.306  32.673  1.00  0.00     0.148 A 
ATOM     81  C   UNL A   1      39.482  33.709  31.521  1.00  0.00     0.002 A 
ATOM     82  C   UNL A   1      39.058  31.695  32.796  1.00  0.00     0.091 A 
ATOM     83  F   UNL A   1      40.840  30.156  33.190  1.00  0.00    -0.205 F 
ATOM     84  C   UNL A   1      38.594  32.877  32.194  1.00  0.00     0.022 A 
BRANCH  82  85
ATOM     85  S   UNL A   1      37.836  30.636  33.588  1.00  0.00     0.127 S 
ATOM     86  O   UNL A   1      38.400  29.311  33.348  1.00  0.00    -0.237 OA
ATOM     87  O   UNL A   1      37.884  31.080  34.979  1.00  0.00    -0.237 OA
ATOM     88  O   UNL A   1      36.584  30.938  32.909  1.00  0.00    -0.744 OA
ENDBRANCH  82  85
ENDBRANCH  54  78
BRANCH  66  89
ATOM     89  C   UNL A   1      45.561  26.412  32.780  1.00  0.00     0.023 A 
ATOM     90  C   UNL A   1      46.941  26.263  33.018  1.00  0.00     0.012 A 
ATOM     91  C   UNL A   1      44.679  25.734  33.656  1.00  0.00     0.148 A 
ATOM     92  C   UNL A   1      47.426  25.434  34.035  1.00  0.00     0.002 A 
ATOM     93  C   UNL A   1      45.165  25.011  34.740  1.00  0.00     0.091 A 
ATOM     94  F   UNL A   1      43.356  25.779  33.437  1.00  0.00    -0.205 F 
ATOM     95  C   UNL A   1      46.539  24.829  34.915  1.00  0.00     0.022 A 
BRANCH  93  96
ATOM     96  S   UNL A   1      44.049  24.453  36.035  1.00  0.00     0.127 S 
ATOM     97  O   UNL A   1      44.976  24.059  37.091  1.00  0.00    -0.237 OA
ATOM     98  O   UNL A   1      43.270  25.659  36.326  1.00  0.00    -0.237 OA
ATOM     99  O   UNL A   1      43.276  23.382  35.419  1.00  0.00    -0.744 OA
ENDBRANCH  93  96
ENDBRANCH  66  89
ENDBRANCH  40  41
ENDBRANCH  32  35
ENDBRANCH  30  31
ENDBRANCH  29  30
ENDBRANCH   1  29
TORSDOF 18
ENDMDL
MODEL 2
REMARK VINA RESULT:     -12.9      3.986      9.734
REMARK SMILES Cc1ccccc1/C=C1\SC(=S)N(CCC(=O)N[C@@H](C)C(=O)NCCCNC(=O)c2ccc(-c3c4nc(c(-c5cccc(S(=O)(=O)[O-])c5F)c5ccc([nH]5)c(-c5cccc(S(=O)(=O)[O-])c5F)c5nc(c(-c6cccc(S(=O)(=O)[O-])c6F)c6ccc3[nH]6)C=C5)C=C4)cc2)C1=O
REMARK SMILES IDX 24 1 23 2 21 3 22 4 19 6 20 7 18 8 16 9 17 10 15 12 14 13
REMARK SMILES IDX 13 14 8 15 9 16 10 17 93 18 11 19 94 20 12 21 7 22 1 23 2 24
REMARK SMILES IDX 3 25 4 26 6 27 5 28 25 29 26 30 27 31 28 32 29 34 30 35
REMARK SMILES IDX 31 36 92 37 32 38 91 39 33 40 34 41 35 42 85 43 36 44 90 45
REMARK SMILES IDX 84 46 86 47 37 48 89 49 83 50 82 51 38 53 70 54 50 55 69 56
REMARK SMILES IDX 51 57 54 58 68 59 87 60 52 61 53 62 67 64 88 65 55 66 39 67
REMARK SMILES IDX 40 68 48 69 41 70 43 71 49 72 42 73 44 74 45 75 46 76 47 77
REMARK SMILES IDX 71 78 72 79 80 80 73 81 75 82 81 83 74 84 76 85 77 86 78 87
REMARK SMILES IDX 79 88 56 89 57 90 65 91 58 92 60 93 66 94 59 95 61 96 62 97
REMARK SMILES IDX 63 98 64 99
REMARK H PARENT 23 5 18 11 27 33 86 52 54 63
REMARK Flexibility Score: inf
ROOT
ATOM      1  C   UNL A   1      36.360  21.384  24.561  1.00  0.00     0.117 C 
ENDROOT
BRANCH   1   2
ATOM      2  N   UNL A   1      35.341  20.358  24.751  1.00  0.00    -0.354 N 
ATOM      3  C   UNL A   1      34.135  20.353  25.387  1.00  0.00     0.242 C 
ATOM      4  O   UNL A   1      33.540  19.270  25.443  1.00  0.00    -0.273 OA
ATOM      5  H   UNL A   1      35.569  19.496  24.335  1.00  0.00     0.163 HD
BRANCH   3   6
ATOM      6  C   UNL A   1      33.501  21.592  26.072  1.00  0.00     0.168 C 
ATOM      7  C   UNL A   1      33.987  21.922  27.460  1.00  0.00     0.041 C 
BRANCH   6   8
ATOM      8  N   UNL A   1      32.043  21.587  26.132  1.00  0.00    -0.345 N 
ATOM      9  C   UNL A   1      31.242  22.529  25.541  1.00  0.00     0.222 C 
ATOM     10  O   UNL A   1      30.193  22.861  26.090  1.00  0.00    -0.275 OA
ATOM     11  H   UNL A   1      31.606  20.859  26.631  1.00  0.00     0.164 HD
BRANCH   9  12
ATOM     12  C   UNL A   1      31.640  23.100  24.184  1.00  0.00     0.122 C 
BRANCH  12  13
ATOM     13  C   UNL A   1      30.747  24.209  23.588  1.00  0.00     0.137 C 
BRANCH  13  14
ATOM     14  N   UNL A   1      31.254  25.592  23.760  1.00  0.00    -0.292 N 
ATOM     15  C   UNL A   1      31.668  28.130  26.210  1.00  0.00     0.029 C 
ATOM     16  C   UNL A   1      31.621  27.555  25.000  1.00  0.00     0.081 C 
ATOM     17  S   UNL A   1      32.675  27.754  23.668  1.00  0.00    -0.054 SA
ATOM     18  C   UNL A   1      30.710  26.406  24.743  1.00  0.00     0.266 C 
ATOM     19  C   UNL A   1      32.175  26.220  22.943  1.00  0.00     0.148 C 
ATOM     20  O   UNL A   1      29.680  26.204  25.371  1.00  0.00    -0.268 OA
ATOM     21  S   UNL A   1      32.779  25.697  21.479  1.00  0.00    -0.052 S 
BRANCH  15  22
ATOM     22  C   UNL A   1      32.647  29.112  26.702  1.00  0.00    -0.021 A 
ATOM     23  C   UNL A   1      31.118  31.018  26.022  1.00  0.00     0.045 C 
ATOM     24  C   UNL A   1      32.367  30.488  26.665  1.00  0.00    -0.044 A 
ATOM     25  C   UNL A   1      33.301  31.390  27.204  1.00  0.00     0.004 A 
ATOM     26  C   UNL A   1      34.474  30.936  27.807  1.00  0.00     0.000 A 
ATOM     27  C   UNL A   1      33.839  28.666  27.301  1.00  0.00     0.008 A 
ATOM     28  C   UNL A   1      34.742  29.573  27.861  1.00  0.00     0.001 A 
ENDBRANCH  15  22
ENDBRANCH  13  14
ENDBRANCH  12  13
ENDBRANCH   9  12
ENDBRANCH   6   8
ENDBRANCH   3   6
ENDBRANCH   1   2
BRANCH   1  29
ATOM     29  C   UNL A   1      37.434  21.377  25.657  1.00  0.00     0.042 C 
BRANCH  29  30
ATOM     30  C   UNL A   1      38.311  22.612  25.757  1.00  0.00     0.118 C 
BRANCH  30  31
ATOM     31  N   UNL A   1      39.614  22.280  26.307  1.00  0.00    -0.352 N 
ATOM     32  C   UNL A   1      40.691  23.058  26.669  1.00  0.00     0.251 C 
ATOM     33  H   UNL A   1      39.753  21.316  26.446  1.00  0.00     0.163 HD
ATOM     34  O   UNL A   1      41.782  22.511  26.712  1.00  0.00    -0.269 OA
BRANCH  32  35
ATOM     35  C   UNL A   1      40.523  24.483  27.036  1.00  0.00     0.039 A 
ATOM     36  C   UNL A   1      41.093  25.499  26.251  1.00  0.00     0.014 A 
ATOM     37  C   UNL A   1      39.917  24.818  28.236  1.00  0.00     0.014 A 
ATOM     38  C   UNL A   1      41.129  26.813  26.731  1.00  0.00     0.010 A 
ATOM     39  C   UNL A   1      39.749  26.118  28.599  1.00  0.00     0.010 A 
ATOM     40  C   UNL A   1      40.495  27.088  27.936  1.00  0.00    -0.014 A 
BRANCH  40  41
ATOM     41  C   UNL A   1      40.655  28.277  28.756  1.00  0.00     0.031 A 
ATOM     42  C   UNL A   1      39.708  29.385  28.686  1.00  0.00     0.074 A 
ATOM     43  C   UNL A   1      41.440  28.075  29.841  1.00  0.00     0.049 A 
ATOM     44  N   UNL A   1      39.856  30.499  29.312  1.00  0.00    -0.248 NA
ATOM     45  C   UNL A   1      38.503  29.315  27.878  1.00  0.00     0.031 C 
ATOM     46  C   UNL A   1      41.356  28.686  31.154  1.00  0.00     0.029 A 
ATOM     47  N   UNL A   1      42.536  27.208  29.937  1.00  0.00    -0.354 N 
ATOM     48  C   UNL A   1      38.641  31.149  29.261  1.00  0.00     0.074 A 
ATOM     49  C   UNL A   1      37.899  30.451  28.237  1.00  0.00     0.031 C 
ATOM     50  C   UNL A   1      42.479  28.386  31.831  1.00  0.00     0.029 A 
ATOM     51  C   UNL A   1      43.396  27.760  30.889  1.00  0.00     0.049 A 
ATOM     52  H   UNL A   1      42.673  26.373  29.434  1.00  0.00     0.167 HD
ATOM     53  C   UNL A   1      38.357  32.077  30.222  1.00  0.00     0.034 A 
ATOM     54  C   UNL A   1      44.632  28.233  30.542  1.00  0.00     0.034 A 
ATOM     55  C   UNL A   1      39.523  32.264  31.115  1.00  0.00     0.049 A 
ATOM     56  C   UNL A   1      44.729  29.739  30.721  1.00  0.00     0.074 A 
ATOM     57  C   UNL A   1      39.830  31.790  32.382  1.00  0.00     0.029 A 
ATOM     58  N   UNL A   1      40.715  32.766  30.598  1.00  0.00    -0.354 N 
ATOM     59  N   UNL A   1      43.749  30.500  31.125  1.00  0.00    -0.248 NA
ATOM     60  C   UNL A   1      45.933  30.514  30.430  1.00  0.00     0.031 C 
ATOM     61  C   UNL A   1      41.241  31.888  32.561  1.00  0.00     0.029 A 
ATOM     62  C   UNL A   1      41.790  32.462  31.426  1.00  0.00     0.049 A 
ATOM     63  H   UNL A   1      40.786  33.272  29.756  1.00  0.00     0.167 HD
ATOM     64  C   UNL A   1      44.080  31.815  30.963  1.00  0.00     0.074 A 
ATOM     65  C   UNL A   1      45.497  31.769  30.638  1.00  0.00     0.031 C 
ATOM     66  C   UNL A   1      43.151  32.820  31.015  1.00  0.00     0.034 A 
BRANCH  53  67
ATOM     67  C   UNL A   1      36.962  32.603  30.571  1.00  0.00     0.023 A 
ATOM     68  C   UNL A   1      36.308  32.015  31.678  1.00  0.00     0.012 A 
ATOM     69  C   UNL A   1      36.208  33.582  29.879  1.00  0.00     0.148 A 
ATOM     70  C   UNL A   1      34.980  32.309  32.021  1.00  0.00     0.002 A 
ATOM     71  C   UNL A   1      34.868  33.845  30.187  1.00  0.00     0.091 A 
ATOM     72  F   UNL A   1      36.783  34.342  28.953  1.00  0.00    -0.205 F 
ATOM     73  C   UNL A   1      34.247  33.205  31.257  1.00  0.00     0.022 A 
BRANCH  71  74
ATOM     74  S   UNL A   1      33.856  34.979  29.211  1.00  0.00     0.127 S 
ATOM     75  O   UNL A   1      32.590  34.250  29.107  1.00  0.00    -0.237 OA
ATOM     76  O   UNL A   1      33.806  36.166  30.061  1.00  0.00    -0.237 OA
ATOM     77  O   UNL A   1      34.545  35.155  27.937  1.00  0.00    -0.744 OA
ENDBRANCH  71  74
ENDBRANCH  53  67
BRANCH  54  78
ATOM     78  C   UNL A   1      45.273  27.432  29.446  1.00  0.00     0.023 A 
ATOM     79  C   UNL A   1      45.541  26.070  29.731  1.00  0.00     0.012 A 
ATOM     80  C   UNL A   1      45.187  27.834  28.097  1.00  0.00     0.148 A 
ATOM     81  C   UNL A   1      45.579  25.114  28.712  1.00  0.00     0.002 A 
ATOM     82  C   UNL A   1      45.208  26.870  27.088  1.00  0.00     0.091 A 
ATOM     83  F   UNL A   1      44.977  29.128  27.830  1.00  0.00    -0.205 F 
ATOM     84  C   UNL A   1      45.370  25.508  27.396  1.00  0.00     0.022 A 
BRANCH  82  85
ATOM     85  S   UNL A   1      44.870  27.295  25.371  1.00  0.00     0.127 S 
ATOM     86  O   UNL A   1      46.040  28.103  25.035  1.00  0.00    -0.237 OA
ATOM     87  O   UNL A   1      44.823  25.986  24.723  1.00  0.00    -0.237 OA
ATOM     88  O   UNL A   1      43.592  27.991  25.403  1.00  0.00    -0.744 OA
ENDBRANCH  82  85
ENDBRANCH  54  78
BRANCH  66  89
ATOM     89  C   UNL A   1      43.435  34.252  30.619  1.00  0.00     0.023 A 
ATOM     90  C   UNL A   1      43.824  35.229  31.555  1.00  0.00     0.012 A 
ATOM     91  C   UNL A   1      43.486  34.615  29.250  1.00  0.00     0.148 A 
ATOM     92  C   UNL A   1      44.187  36.521  31.162  1.00  0.00     0.002 A 
ATOM     93  C   UNL A   1      43.965  35.861  28.859  1.00  0.00     0.091 A 
ATOM     94  F   UNL A   1      43.059  33.752  28.316  1.00  0.00    -0.205 F 
ATOM     95  C   UNL A   1      44.284  36.831  29.812  1.00  0.00     0.022 A 
BRANCH  93  96
ATOM     96  S   UNL A   1      44.355  36.184  27.134  1.00  0.00     0.127 S 
ATOM     97  O   UNL A   1      44.989  37.497  27.203  1.00  0.00    -0.237 OA
ATOM     98  O   UNL A   1      45.265  35.086  26.802  1.00  0.00    -0.237 OA
ATOM     99  O   UNL A   1      43.071  36.120  26.447  1.00  0.00    -0.744 OA
ENDBRANCH  93  96
ENDBRANCH  66  89
ENDBRANCH  40  41
ENDBRANCH  32  35
ENDBRANCH  30  31
ENDBRANCH  29  30
ENDBRANCH   1  29
TORSDOF 18
ENDMDL
MODEL 3
REMARK VINA RESULT:     -12.7      2.815      3.971
REMARK SMILES Cc1ccccc1/C=C1\SC(=S)N(CCC(=O)N[C@@H](C)C(=O)NCCCNC(=O)c2ccc(-c3c4nc(c(-c5cccc(S(=O)(=O)[O-])c5F)c5ccc([nH]5)c(-c5cccc(S(=O)(=O)[O-])c5F)c5nc(c(-c6cccc(S(=O)(=O)[O-])c6F)c6ccc3[nH]6)C=C5)C=C4)cc2)C1=O
REMARK SMILES IDX 24 1 23 2 21 3 22 4 19 6 20 7 18 8 16 9 17 10 15 12 14 13
REMARK SMILES IDX 13 14 8 15 9 16 10 17 93 18 11 19 94 20 12 21 7 22 1 23 2 24
REMARK SMILES IDX 3 25 4 26 6 27 5 28 25 29 26 30 27 31 28 32 29 34 30 35
REMARK SMILES IDX 31 36 92 37 32 38 91 39 33 40 34 41 35 42 85 43 36 44 90 45
REMARK SMILES IDX 84 46 86 47 37 48 89 49 83 50 82 51 38 53 70 54 50 55 69 56
REMARK SMILES IDX 51 57 54 58 68 59 87 60 52 61 53 62 67 64 88 65 55 66 39 67
REMARK SMILES IDX 40 68 48 69 41 70 43 71 49 72 42 73 44 74 45 75 46 76 47 77
REMARK SMILES IDX 71 78 72 79 80 80 73 81 75 82 81 83 74 84 76 85 77 86 78 87
REMARK SMILES IDX 79 88 56 89 57 90 65 91 58 92 60 93 66 94 59 95 61 96 62 97
REMARK SMILES IDX 63 98 64 99
REMARK H PARENT 23 5 18 11 27 33 86 52 54 63
REMARK Flexibility Score: inf
ROOT
ATOM      1  C   UNL A   1      32.856  30.445  25.693  1.00  0.00     0.117 C 
ENDROOT
BRANCH   1   2
ATOM      2  N   UNL A   1      31.610  30.076  25.031  1.00  0.00    -0.354 N 
ATOM      3  C   UNL A   1      31.319  29.218  24.013  1.00  0.00     0.242 C 
ATOM      4  O   UNL A   1      30.146  29.200  23.619  1.00  0.00    -0.273 OA
ATOM      5  H   UNL A   1      30.821  30.538  25.394  1.00  0.00     0.163 HD
BRANCH   3   6
ATOM      6  C   UNL A   1      32.361  28.315  23.303  1.00  0.00     0.168 C 
ATOM      7  C   UNL A   1      33.668  28.960  22.919  1.00  0.00     0.041 C 
BRANCH   6   8
ATOM      8  N   UNL A   1      31.874  27.625  22.113  1.00  0.00    -0.345 N 
ATOM      9  C   UNL A   1      31.748  26.264  22.006  1.00  0.00     0.222 C 
ATOM     10  O   UNL A   1      31.958  25.721  20.922  1.00  0.00    -0.275 OA
ATOM     11  H   UNL A   1      31.619  28.173  21.336  1.00  0.00     0.164 HD
BRANCH   9  12
ATOM     12  C   UNL A   1      31.290  25.460  23.218  1.00  0.00     0.122 C 
BRANCH  12  13
ATOM     13  C   UNL A   1      31.336  23.922  23.111  1.00  0.00     0.137 C 
BRANCH  13  14
ATOM     14  N   UNL A   1      32.416  23.264  23.886  1.00  0.00    -0.292 N 
ATOM     15  C   UNL A   1      35.953  23.034  24.107  1.00  0.00     0.029 C 
ATOM     16  C   UNL A   1      34.664  22.738  24.326  1.00  0.00     0.081 C 
ATOM     17  S   UNL A   1      33.889  22.305  25.787  1.00  0.00    -0.054 SA
ATOM     18  C   UNL A   1      33.638  23.008  23.281  1.00  0.00     0.266 C 
ATOM     19  C   UNL A   1      32.296  22.760  25.168  1.00  0.00     0.148 C 
ATOM     20  O   UNL A   1      33.885  23.057  22.085  1.00  0.00    -0.268 OA
ATOM     21  S   UNL A   1      30.909  22.566  26.073  1.00  0.00    -0.052 S 
BRANCH  15  22
ATOM     22  C   UNL A   1      37.053  23.044  25.084  1.00  0.00    -0.021 A 
ATOM     23  C   UNL A   1      37.524  20.596  24.618  1.00  0.00     0.045 C 
ATOM     24  C   UNL A   1      37.841  21.900  25.292  1.00  0.00    -0.044 A 
ATOM     25  C   UNL A   1      38.922  21.967  26.188  1.00  0.00     0.004 A 
ATOM     26  C   UNL A   1      39.245  23.161  26.835  1.00  0.00     0.000 A 
ATOM     27  C   UNL A   1      37.380  24.237  25.752  1.00  0.00     0.008 A 
ATOM     28  C   UNL A   1      38.477  24.298  26.615  1.00  0.00     0.001 A 
ENDBRANCH  15  22
ENDBRANCH  13  14
ENDBRANCH  12  13
ENDBRANCH   9  12
ENDBRANCH   6   8
ENDBRANCH   3   6
ENDBRANCH   1   2
BRANCH   1  29
ATOM     29  C   UNL A   1      32.709  30.600  27.213  1.00  0.00     0.042 C 
BRANCH  29  30
ATOM     30  C   UNL A   1      33.943  31.054  27.972  1.00  0.00     0.118 C 
BRANCH  30  31
ATOM     31  N   UNL A   1      33.862  32.467  28.297  1.00  0.00    -0.352 N 
ATOM     32  C   UNL A   1      34.554  33.252  29.193  1.00  0.00     0.251 C 
ATOM     33  H   UNL A   1      33.182  32.956  27.780  1.00  0.00     0.163 HD
ATOM     34  O   UNL A   1      34.019  34.290  29.551  1.00  0.00    -0.269 OA
BRANCH  32  35
ATOM     35  C   UNL A   1      35.907  32.875  29.662  1.00  0.00     0.039 A 
ATOM     36  C   UNL A   1      37.051  33.281  28.956  1.00  0.00     0.014 A 
ATOM     37  C   UNL A   1      36.047  31.999  30.727  1.00  0.00     0.014 A 
ATOM     38  C   UNL A   1      38.297  32.726  29.270  1.00  0.00     0.010 A 
ATOM     39  C   UNL A   1      37.277  31.635  31.179  1.00  0.00     0.010 A 
ATOM     40  C   UNL A   1      38.375  31.863  30.355  1.00  0.00    -0.014 A 
BRANCH  40  41
ATOM     41  C   UNL A   1      39.467  30.959  30.675  1.00  0.00     0.031 A 
ATOM     42  C   UNL A   1      39.581  29.648  30.044  1.00  0.00     0.074 A 
ATOM     43  C   UNL A   1      40.536  31.586  31.219  1.00  0.00     0.049 A 
ATOM     44  N   UNL A   1      40.466  28.771  30.362  1.00  0.00    -0.248 NA
ATOM     45  C   UNL A   1      38.678  29.222  28.989  1.00  0.00     0.031 C 
ATOM     46  C   UNL A   1      41.945  31.263  31.094  1.00  0.00     0.029 A 
ATOM     47  N   UNL A   1      40.517  32.716  32.048  1.00  0.00    -0.354 N 
ATOM     48  C   UNL A   1      40.466  27.822  29.362  1.00  0.00     0.074 A 
ATOM     49  C   UNL A   1      39.244  28.067  28.632  1.00  0.00     0.031 C 
ATOM     50  C   UNL A   1      42.626  31.987  32.000  1.00  0.00     0.029 A 
ATOM     51  C   UNL A   1      41.645  32.625  32.866  1.00  0.00     0.049 A 
ATOM     52  H   UNL A   1      39.843  33.433  32.052  1.00  0.00     0.167 HD
ATOM     53  C   UNL A   1      41.593  27.074  29.172  1.00  0.00     0.034 A 
ATOM     54  C   UNL A   1      41.531  32.440  34.217  1.00  0.00     0.034 A 
ATOM     55  C   UNL A   1      42.603  27.397  30.205  1.00  0.00     0.049 A 
ATOM     56  C   UNL A   1      42.073  31.087  34.648  1.00  0.00     0.074 A 
ATOM     57  C   UNL A   1      43.741  28.190  30.199  1.00  0.00     0.029 A 
ATOM     58  N   UNL A   1      42.328  27.137  31.545  1.00  0.00    -0.354 N 
ATOM     59  N   UNL A   1      42.560  30.193  33.832  1.00  0.00    -0.248 NA
ATOM     60  C   UNL A   1      42.083  30.621  36.032  1.00  0.00     0.031 C 
ATOM     61  C   UNL A   1      44.062  28.514  31.551  1.00  0.00     0.029 A 
ATOM     62  C   UNL A   1      43.150  27.884  32.382  1.00  0.00     0.049 A 
ATOM     63  H   UNL A   1      41.641  26.505  31.859  1.00  0.00     0.167 HD
ATOM     64  C   UNL A   1      42.748  29.012  34.490  1.00  0.00     0.074 A 
ATOM     65  C   UNL A   1      42.547  29.367  35.886  1.00  0.00     0.031 C 
ATOM     66  C   UNL A   1      42.958  27.828  33.835  1.00  0.00     0.034 A 
BRANCH  53  67
ATOM     67  C   UNL A   1      41.935  26.278  27.910  1.00  0.00     0.023 A 
ATOM     68  C   UNL A   1      41.627  26.875  26.666  1.00  0.00     0.012 A 
ATOM     69  C   UNL A   1      42.479  24.973  27.831  1.00  0.00     0.148 A 
ATOM     70  C   UNL A   1      41.764  26.201  25.444  1.00  0.00     0.002 A 
ATOM     71  C   UNL A   1      42.574  24.277  26.620  1.00  0.00     0.091 A 
ATOM     72  F   UNL A   1      42.990  24.391  28.911  1.00  0.00    -0.205 F 
ATOM     73  C   UNL A   1      42.212  24.888  25.421  1.00  0.00     0.022 A 
BRANCH  71  74
ATOM     74  S   UNL A   1      43.121  22.558  26.531  1.00  0.00     0.127 S 
ATOM     75  O   UNL A   1      42.701  22.170  25.182  1.00  0.00    -0.237 OA
ATOM     76  O   UNL A   1      44.566  22.679  26.707  1.00  0.00    -0.237 OA
ATOM     77  O   UNL A   1      42.422  21.848  27.597  1.00  0.00    -0.744 OA
ENDBRANCH  71  74
ENDBRANCH  53  67
BRANCH  54  78
ATOM     78  C   UNL A   1      40.336  33.136  34.799  1.00  0.00     0.023 A 
ATOM     79  C   UNL A   1      39.104  32.437  34.738  1.00  0.00     0.012 A 
ATOM     80  C   UNL A   1      40.477  34.168  35.749  1.00  0.00     0.148 A 
ATOM     81  C   UNL A   1      38.100  32.660  35.685  1.00  0.00     0.002 A 
ATOM     82  C   UNL A   1      39.477  34.371  36.701  1.00  0.00     0.091 A 
ATOM     83  F   UNL A   1      41.624  34.856  35.776  1.00  0.00    -0.205 F 
ATOM     84  C   UNL A   1      38.305  33.597  36.691  1.00  0.00     0.022 A 
BRANCH  82  85
ATOM     85  S   UNL A   1      39.703  35.512  38.076  1.00  0.00     0.127 S 
ATOM     86  O   UNL A   1      41.018  35.117  38.571  1.00  0.00    -0.237 OA
ATOM     87  O   UNL A   1      39.662  36.816  37.417  1.00  0.00    -0.237 OA
ATOM     88  O   UNL A   1      38.576  35.257  38.962  1.00  0.00    -0.744 OA
ENDBRANCH  82  85
ENDBRANCH  54  78
BRANCH  66  89
ATOM     89  C   UNL A   1      42.942  26.474  34.510  1.00  0.00     0.023 A 
ATOM     90  C   UNL A   1      41.828  26.007  35.234  1.00  0.00     0.012 A 
ATOM     91  C   UNL A   1      43.995  25.553  34.284  1.00  0.00     0.148 A 
ATOM     92  C   UNL A   1      41.784  24.713  35.762  1.00  0.00     0.002 A 
ATOM     93  C   UNL A   1      43.891  24.232  34.705  1.00  0.00     0.091 A 
ATOM     94  F   UNL A   1      45.113  25.959  33.663  1.00  0.00    -0.205 F 
ATOM     95  C   UNL A   1      42.803  23.815  35.475  1.00  0.00     0.022 A 
BRANCH  93  96
ATOM     96  S   UNL A   1      45.056  22.996  34.116  1.00  0.00     0.127 S 
ATOM     97  O   UNL A   1      46.319  23.478  34.666  1.00  0.00    -0.237 OA
ATOM     98  O   UNL A   1      44.555  21.765  34.730  1.00  0.00    -0.237 OA
ATOM     99  O   UNL A   1      44.927  23.030  32.664  1.00  0.00    -0.744 OA
ENDBRANCH  93  96
ENDBRANCH  66  89
ENDBRANCH  40  41
ENDBRANCH  32  35
ENDBRANCH  30  31
ENDBRANCH  29  30
ENDBRANCH   1  29
TORSDOF 18
ENDMDL
