MODEL 1
REMARK VINA RESULT:     -12.1      0.000      0.000
REMARK SMILES CC[C@H](Oc1ccccc1/C=C1\SC(N)=[NH+]C1=O)C(=O)NCCCNC(=O)c1ccc(-c2c3nc(c(-c4cccc(S(=O)(=O)[O-])c4F)c4ccc([nH]4)c(-c4cccc(S(=O)(=O)[O-])c4F)c4nc(c(-c5cccc(S(=O)(=O)[O-])c5F)c5ccc2[nH]5)C=C4)C=C3)cc1
REMARK SMILES IDX 23 1 22 2 21 3 19 4 20 5 3 7 2 8 1 9 4 10 5 11 6 12 10 13
REMARK SMILES IDX 7 14 9 15 8 16 11 17 12 18 13 19 17 20 14 21 16 22 18 23
REMARK SMILES IDX 15 24 24 28 25 29 26 30 27 32 28 33 29 34 90 35 30 36 89 37
REMARK SMILES IDX 31 38 32 39 33 40 83 41 34 42 88 43 82 44 84 45 35 46 87 47
REMARK SMILES IDX 81 48 80 49 36 51 68 52 48 53 67 54 49 55 52 56 66 57 85 58
REMARK SMILES IDX 50 59 51 60 65 62 86 63 53 64 37 65 38 66 46 67 39 68 41 69
REMARK SMILES IDX 47 70 40 71 42 72 43 73 44 74 45 75 69 76 70 77 78 78 71 79
REMARK SMILES IDX 73 80 79 81 72 82 74 83 75 84 76 85 77 86 54 87 55 88 63 89
REMARK SMILES IDX 56 90 58 91 64 92 57 93 59 94 60 95 61 96 62 97
REMARK H PARENT 21 6 16 25 15 26 15 27 25 31 84 50 52 61
REMARK Flexibility Score: inf
ROOT
ATOM      1  C   UNL A   1      31.494  28.703  26.654  1.00  0.00     0.042 C 
ENDROOT
BRANCH   1   2
ATOM      2  C   UNL A   1      31.677  27.207  26.488  1.00  0.00     0.118 C 
BRANCH   2   3
ATOM      3  N   UNL A   1      30.836  26.640  25.467  1.00  0.00    -0.353 N 
ATOM      4  C   UNL A   1      30.682  25.343  25.087  1.00  0.00     0.261 C 
ATOM      5  O   UNL A   1      29.809  25.133  24.234  1.00  0.00    -0.271 OA
ATOM      6  H   UNL A   1      30.289  27.289  24.966  1.00  0.00     0.163 HD
BRANCH   4   7
ATOM      7  C   UNL A   1      31.462  24.144  25.728  1.00  0.00     0.261 C 
BRANCH   7   8
ATOM      8  C   UNL A   1      30.570  22.922  26.060  1.00  0.00     0.052 C 
ATOM      9  C   UNL A   1      29.622  23.024  27.250  1.00  0.00     0.008 C 
ENDBRANCH   7   8
BRANCH   7  10
ATOM     10  O   UNL A   1      32.670  24.252  26.494  1.00  0.00    -0.480 OA
BRANCH  10  11
ATOM     11  C   UNL A   1      33.819  23.633  26.104  1.00  0.00     0.127 A 
ATOM     12  C   UNL A   1      34.059  22.285  26.388  1.00  0.00     0.047 A 
ATOM     13  C   UNL A   1      34.724  24.320  25.275  1.00  0.00     0.018 A 
ATOM     14  C   UNL A   1      35.275  21.687  26.050  1.00  0.00     0.004 A 
ATOM     15  C   UNL A   1      35.943  23.709  24.932  1.00  0.00     0.012 A 
ATOM     16  C   UNL A   1      36.233  22.412  25.352  1.00  0.00     0.001 A 
BRANCH  13  17
ATOM     17  C   UNL A   1      34.402  25.586  24.599  1.00  0.00     0.036 C 
ATOM     18  C   UNL A   1      33.800  25.784  23.421  1.00  0.00     0.110 C 
ATOM     19  S   UNL A   1      33.194  24.629  22.315  1.00  0.00     0.006 SA
ATOM     20  C   UNL A   1      33.561  27.162  22.882  1.00  0.00     0.346 C 
ATOM     21  C   UNL A   1      32.725  25.920  21.249  1.00  0.00     0.314 C 
ATOM     22  N   UNL A   1      32.955  27.122  21.642  1.00  0.00    -0.200 N 
ATOM     23  O   UNL A   1      33.890  28.182  23.466  1.00  0.00    -0.240 OA
ATOM     24  N   UNL A   1      32.155  25.578  20.077  1.00  0.00    -0.281 N 
ATOM     25  H   UNL A   1      32.726  27.925  21.118  1.00  0.00     0.316 HD
ATOM     26  H   UNL A   1      32.016  24.629  19.856  1.00  0.00     0.302 HD
ATOM     27  H   UNL A   1      31.878  26.277  19.442  1.00  0.00     0.302 HD
ENDBRANCH  13  17
ENDBRANCH  10  11
ENDBRANCH   7  10
ENDBRANCH   4   7
ENDBRANCH   2   3
ENDBRANCH   1   2
BRANCH   1  28
ATOM     28  C   UNL A   1      32.669  29.489  26.105  1.00  0.00     0.118 C 
BRANCH  28  29
ATOM     29  N   UNL A   1      32.530  30.920  26.360  1.00  0.00    -0.352 N 
ATOM     30  C   UNL A   1      33.208  31.743  27.224  1.00  0.00     0.251 C 
ATOM     31  H   UNL A   1      31.837  31.369  25.824  1.00  0.00     0.163 HD
ATOM     32  O   UNL A   1      32.749  32.853  27.480  1.00  0.00    -0.269 OA
BRANCH  30  33
ATOM     33  C   UNL A   1      34.473  31.297  27.844  1.00  0.00     0.039 A 
ATOM     34  C   UNL A   1      35.515  32.212  28.003  1.00  0.00     0.014 A 
ATOM     35  C   UNL A   1      34.642  29.973  28.254  1.00  0.00     0.014 A 
ATOM     36  C   UNL A   1      36.697  31.806  28.623  1.00  0.00     0.010 A 
ATOM     37  C   UNL A   1      35.756  29.611  28.996  1.00  0.00     0.010 A 
ATOM     38  C   UNL A   1      36.812  30.513  29.163  1.00  0.00    -0.014 A 
BRANCH  38  39
ATOM     39  C   UNL A   1      38.035  30.094  29.893  1.00  0.00     0.031 A 
ATOM     40  C   UNL A   1      38.302  30.590  31.291  1.00  0.00     0.074 A 
ATOM     41  C   UNL A   1      38.932  29.303  29.270  1.00  0.00     0.049 A 
ATOM     42  N   UNL A   1      39.299  30.302  32.087  1.00  0.00    -0.248 NA
ATOM     43  C   UNL A   1      37.351  31.561  31.859  1.00  0.00     0.031 C 
ATOM     44  C   UNL A   1      38.838  28.850  27.879  1.00  0.00     0.029 A 
ATOM     45  N   UNL A   1      40.100  28.746  29.720  1.00  0.00    -0.354 N 
ATOM     46  C   UNL A   1      39.111  31.074  33.228  1.00  0.00     0.074 A 
ATOM     47  C   UNL A   1      37.939  31.887  33.001  1.00  0.00     0.031 C 
ATOM     48  C   UNL A   1      39.881  28.052  27.604  1.00  0.00     0.029 A 
ATOM     49  C   UNL A   1      40.735  27.966  28.783  1.00  0.00     0.049 A 
ATOM     50  H   UNL A   1      40.451  28.890  30.630  1.00  0.00     0.167 HD
ATOM     51  C   UNL A   1      39.825  31.079  34.378  1.00  0.00     0.034 A 
ATOM     52  C   UNL A   1      41.876  27.256  28.866  1.00  0.00     0.034 A 
ATOM     53  C   UNL A   1      40.968  30.239  34.611  1.00  0.00     0.049 A 
ATOM     54  C   UNL A   1      42.619  27.236  30.172  1.00  0.00     0.074 A 
ATOM     55  C   UNL A   1      41.710  30.098  35.769  1.00  0.00     0.029 A 
ATOM     56  N   UNL A   1      41.543  29.408  33.662  1.00  0.00    -0.354 N 
ATOM     57  N   UNL A   1      42.328  27.842  31.298  1.00  0.00    -0.248 NA
ATOM     58  C   UNL A   1      43.826  26.399  30.232  1.00  0.00     0.031 C 
ATOM     59  C   UNL A   1      42.758  29.207  35.508  1.00  0.00     0.029 A 
ATOM     60  C   UNL A   1      42.640  28.760  34.203  1.00  0.00     0.049 A 
ATOM     61  H   UNL A   1      41.217  29.294  32.740  1.00  0.00     0.167 HD
ATOM     62  C   UNL A   1      43.297  27.438  32.209  1.00  0.00     0.074 A 
ATOM     63  C   UNL A   1      44.161  26.508  31.510  1.00  0.00     0.031 C 
ATOM     64  C   UNL A   1      43.469  27.814  33.500  1.00  0.00     0.034 A 
BRANCH  51  65
ATOM     65  C   UNL A   1      39.359  31.987  35.489  1.00  0.00     0.023 A 
ATOM     66  C   UNL A   1      38.450  31.505  36.454  1.00  0.00     0.012 A 
ATOM     67  C   UNL A   1      39.854  33.301  35.605  1.00  0.00     0.148 A 
ATOM     68  C   UNL A   1      38.010  32.326  37.492  1.00  0.00     0.002 A 
ATOM     69  C   UNL A   1      39.452  34.095  36.673  1.00  0.00     0.091 A 
ATOM     70  F   UNL A   1      40.700  33.751  34.668  1.00  0.00    -0.205 F 
ATOM     71  C   UNL A   1      38.520  33.616  37.608  1.00  0.00     0.022 A 
BRANCH  69  72
ATOM     72  S   UNL A   1      40.111  35.741  36.960  1.00  0.00     0.127 S 
ATOM     73  O   UNL A   1      39.659  36.451  35.764  1.00  0.00    -0.237 OA
ATOM     74  O   UNL A   1      39.431  36.131  38.194  1.00  0.00    -0.237 OA
ATOM     75  O   UNL A   1      41.553  35.583  37.081  1.00  0.00    -0.744 OA
ENDBRANCH  69  72
ENDBRANCH  51  65
BRANCH  52  76
ATOM     76  C   UNL A   1      42.347  26.459  27.698  1.00  0.00     0.023 A 
ATOM     77  C   UNL A   1      43.226  27.042  26.764  1.00  0.00     0.012 A 
ATOM     78  C   UNL A   1      41.949  25.120  27.523  1.00  0.00     0.148 A 
ATOM     79  C   UNL A   1      43.669  26.317  25.656  1.00  0.00     0.002 A 
ATOM     80  C   UNL A   1      42.442  24.385  26.453  1.00  0.00     0.091 A 
ATOM     81  F   UNL A   1      41.108  24.587  28.420  1.00  0.00    -0.205 F 
ATOM     82  C   UNL A   1      43.285  24.987  25.506  1.00  0.00     0.022 A 
BRANCH  80  83
ATOM     83  S   UNL A   1      42.116  22.630  26.262  1.00  0.00     0.127 S 
ATOM     84  O   UNL A   1      42.726  22.080  27.470  1.00  0.00    -0.237 OA
ATOM     85  O   UNL A   1      40.653  22.597  26.238  1.00  0.00    -0.237 OA
ATOM     86  O   UNL A   1      42.745  22.248  25.004  1.00  0.00    -0.744 OA
ENDBRANCH  80  83
ENDBRANCH  52  76
BRANCH  64  87
ATOM     87  C   UNL A   1      44.619  27.194  34.250  1.00  0.00     0.023 A 
ATOM     88  C   UNL A   1      45.886  27.812  34.237  1.00  0.00     0.012 A 
ATOM     89  C   UNL A   1      44.435  26.015  34.998  1.00  0.00     0.148 A 
ATOM     90  C   UNL A   1      46.963  27.238  34.910  1.00  0.00     0.002 A 
ATOM     91  C   UNL A   1      45.498  25.480  35.714  1.00  0.00     0.091 A 
ATOM     92  F   UNL A   1      43.227  25.432  34.987  1.00  0.00    -0.205 F 
ATOM     93  C   UNL A   1      46.767  26.079  35.656  1.00  0.00     0.022 A 
BRANCH  91  94
ATOM     94  S   UNL A   1      45.313  24.048  36.783  1.00  0.00     0.127 S 
ATOM     95  O   UNL A   1      44.383  24.549  37.793  1.00  0.00    -0.237 OA
ATOM     96  O   UNL A   1      44.746  23.053  35.871  1.00  0.00    -0.237 OA
ATOM     97  O   UNL A   1      46.651  23.732  37.265  1.00  0.00    -0.744 OA
ENDBRANCH  91  94
ENDBRANCH  64  87
ENDBRANCH  38  39
ENDBRANCH  30  33
ENDBRANCH  28  29
ENDBRANCH   1  28
TORSDOF 17
ENDMDL
MODEL 2
REMARK VINA RESULT:     -12.0      1.827      2.645
REMARK SMILES CC[C@H](Oc1ccccc1/C=C1\SC(N)=[NH+]C1=O)C(=O)NCCCNC(=O)c1ccc(-c2c3nc(c(-c4cccc(S(=O)(=O)[O-])c4F)c4ccc([nH]4)c(-c4cccc(S(=O)(=O)[O-])c4F)c4nc(c(-c5cccc(S(=O)(=O)[O-])c5F)c5ccc2[nH]5)C=C4)C=C3)cc1
REMARK SMILES IDX 23 1 22 2 21 3 19 4 20 5 3 7 2 8 1 9 4 10 5 11 6 12 10 13
REMARK SMILES IDX 7 14 9 15 8 16 11 17 12 18 13 19 17 20 14 21 16 22 18 23
REMARK SMILES IDX 15 24 24 28 25 29 26 30 27 32 28 33 29 34 90 35 30 36 89 37
REMARK SMILES IDX 31 38 32 39 33 40 83 41 34 42 88 43 82 44 84 45 35 46 87 47
REMARK SMILES IDX 81 48 80 49 36 51 68 52 48 53 67 54 49 55 52 56 66 57 85 58
REMARK SMILES IDX 50 59 51 60 65 62 86 63 53 64 37 65 38 66 46 67 39 68 41 69
REMARK SMILES IDX 47 70 40 71 42 72 43 73 44 74 45 75 69 76 70 77 78 78 71 79
REMARK SMILES IDX 73 80 79 81 72 82 74 83 75 84 76 85 77 86 54 87 55 88 63 89
REMARK SMILES IDX 56 90 58 91 64 92 57 93 59 94 60 95 61 96 62 97
REMARK H PARENT 21 6 16 25 15 26 15 27 25 31 84 50 52 61
REMARK Flexibility Score: inf
ROOT
ATOM      1  C   UNL A   1      31.671  28.475  26.089  1.00  0.00     0.042 C 
ENDROOT
BRANCH   1   2
ATOM      2  C   UNL A   1      32.063  27.011  26.085  1.00  0.00     0.118 C 
BRANCH   2   3
ATOM      3  N   UNL A   1      31.023  26.141  26.569  1.00  0.00    -0.353 N 
ATOM      4  C   UNL A   1      30.714  24.868  26.205  1.00  0.00     0.261 C 
ATOM      5  O   UNL A   1      29.818  24.323  26.865  1.00  0.00    -0.271 OA
ATOM      6  H   UNL A   1      30.448  26.526  27.270  1.00  0.00     0.163 HD
BRANCH   4   7
ATOM      7  C   UNL A   1      31.479  24.063  25.099  1.00  0.00     0.261 C 
BRANCH   7   8
ATOM      8  C   UNL A   1      30.854  24.190  23.687  1.00  0.00     0.052 C 
ATOM      9  C   UNL A   1      31.399  25.262  22.751  1.00  0.00     0.008 C 
ENDBRANCH   7   8
BRANCH   7  10
ATOM     10  O   UNL A   1      32.264  22.883  25.322  1.00  0.00    -0.480 OA
BRANCH  10  11
ATOM     11  C   UNL A   1      33.619  22.941  25.435  1.00  0.00     0.127 A 
ATOM     12  C   UNL A   1      34.290  24.155  25.614  1.00  0.00     0.047 A 
ATOM     13  C   UNL A   1      34.356  21.745  25.518  1.00  0.00     0.018 A 
ATOM     14  C   UNL A   1      35.685  24.205  25.649  1.00  0.00     0.004 A 
ATOM     15  C   UNL A   1      35.759  21.803  25.561  1.00  0.00     0.012 A 
ATOM     16  C   UNL A   1      36.422  23.029  25.587  1.00  0.00     0.001 A 
BRANCH  13  17
ATOM     17  C   UNL A   1      33.737  20.427  25.731  1.00  0.00     0.036 C 
ATOM     18  C   UNL A   1      33.181  19.603  24.838  1.00  0.00     0.110 C 
ATOM     19  S   UNL A   1      33.016  19.801  23.147  1.00  0.00     0.006 SA
ATOM     20  C   UNL A   1      32.586  18.289  25.244  1.00  0.00     0.346 C 
ATOM     21  C   UNL A   1      32.190  18.272  23.065  1.00  0.00     0.314 C 
ATOM     22  N   UNL A   1      32.044  17.622  24.164  1.00  0.00    -0.200 N 
ATOM     23  O   UNL A   1      32.566  17.884  26.395  1.00  0.00    -0.240 OA
ATOM     24  N   UNL A   1      31.752  17.871  21.856  1.00  0.00    -0.281 N 
ATOM     25  H   UNL A   1      31.596  16.746  24.228  1.00  0.00     0.316 HD
ATOM     26  H   UNL A   1      31.908  18.434  21.064  1.00  0.00     0.302 HD
ATOM     27  H   UNL A   1      31.276  17.014  21.765  1.00  0.00     0.302 HD
ENDBRANCH  13  17
ENDBRANCH  10  11
ENDBRANCH   7  10
ENDBRANCH   4   7
ENDBRANCH   2   3
ENDBRANCH   1   2
BRANCH   1  28
ATOM     28  C   UNL A   1      32.829  29.381  25.719  1.00  0.00     0.118 C 
BRANCH  28  29
ATOM     29  N   UNL A   1      32.576  30.769  26.098  1.00  0.00    -0.352 N 
ATOM     30  C   UNL A   1      33.163  31.553  27.060  1.00  0.00     0.251 C 
ATOM     31  H   UNL A   1      31.869  31.215  25.579  1.00  0.00     0.163 HD
ATOM     32  O   UNL A   1      32.614  32.598  27.399  1.00  0.00    -0.269 OA
BRANCH  30  33
ATOM     33  C   UNL A   1      34.436  31.141  27.686  1.00  0.00     0.039 A 
ATOM     34  C   UNL A   1      35.451  32.086  27.852  1.00  0.00     0.014 A 
ATOM     35  C   UNL A   1      34.641  29.822  28.093  1.00  0.00     0.014 A 
ATOM     36  C   UNL A   1      36.641  31.712  28.478  1.00  0.00     0.010 A 
ATOM     37  C   UNL A   1      35.761  29.490  28.840  1.00  0.00     0.010 A 
ATOM     38  C   UNL A   1      36.790  30.422  29.015  1.00  0.00    -0.014 A 
BRANCH  38  39
ATOM     39  C   UNL A   1      38.021  30.036  29.751  1.00  0.00     0.031 A 
ATOM     40  C   UNL A   1      38.268  30.539  31.149  1.00  0.00     0.074 A 
ATOM     41  C   UNL A   1      38.941  29.270  29.132  1.00  0.00     0.049 A 
ATOM     42  N   UNL A   1      39.268  30.278  31.950  1.00  0.00    -0.248 NA
ATOM     43  C   UNL A   1      37.289  31.484  31.714  1.00  0.00     0.031 C 
ATOM     44  C   UNL A   1      38.866  28.813  27.741  1.00  0.00     0.029 A 
ATOM     45  N   UNL A   1      40.122  28.744  29.588  1.00  0.00    -0.354 N 
ATOM     46  C   UNL A   1      39.055  31.045  33.090  1.00  0.00     0.074 A 
ATOM     47  C   UNL A   1      37.863  31.826  32.857  1.00  0.00     0.031 C 
ATOM     48  C   UNL A   1      39.931  28.044  27.471  1.00  0.00     0.029 A 
ATOM     49  C   UNL A   1      40.782  27.982  28.653  1.00  0.00     0.049 A 
ATOM     50  H   UNL A   1      40.465  28.898  30.498  1.00  0.00     0.167 HD
ATOM     51  C   UNL A   1      39.763  31.070  34.243  1.00  0.00     0.034 A 
ATOM     52  C   UNL A   1      41.942  27.303  28.741  1.00  0.00     0.034 A 
ATOM     53  C   UNL A   1      40.927  30.261  34.481  1.00  0.00     0.049 A 
ATOM     54  C   UNL A   1      42.679  27.303  30.051  1.00  0.00     0.074 A 
ATOM     55  C   UNL A   1      41.668  30.140  35.643  1.00  0.00     0.029 A 
ATOM     56  N   UNL A   1      41.529  29.445  33.536  1.00  0.00    -0.354 N 
ATOM     57  N   UNL A   1      42.367  27.901  31.175  1.00  0.00    -0.248 NA
ATOM     58  C   UNL A   1      43.908  26.499  30.117  1.00  0.00     0.031 C 
ATOM     59  C   UNL A   1      42.741  29.278  35.387  1.00  0.00     0.029 A 
ATOM     60  C   UNL A   1      42.641  28.828  34.081  1.00  0.00     0.049 A 
ATOM     61  H   UNL A   1      41.211  29.323  32.612  1.00  0.00     0.167 HD
ATOM     62  C   UNL A   1      43.343  27.524  32.091  1.00  0.00     0.074 A 
ATOM     63  C   UNL A   1      44.234  26.618  31.396  1.00  0.00     0.031 C 
ATOM     64  C   UNL A   1      43.499  27.904  33.383  1.00  0.00     0.034 A 
BRANCH  51  65
ATOM     65  C   UNL A   1      39.268  31.965  35.351  1.00  0.00     0.023 A 
ATOM     66  C   UNL A   1      38.324  31.477  36.279  1.00  0.00     0.012 A 
ATOM     67  C   UNL A   1      39.770  33.273  35.505  1.00  0.00     0.148 A 
ATOM     68  C   UNL A   1      37.856  32.286  37.314  1.00  0.00     0.002 A 
ATOM     69  C   UNL A   1      39.339  34.054  36.570  1.00  0.00     0.091 A 
ATOM     70  F   UNL A   1      40.650  33.730  34.603  1.00  0.00    -0.205 F 
ATOM     71  C   UNL A   1      38.373  33.569  37.466  1.00  0.00     0.022 A 
BRANCH  69  72
ATOM     72  S   UNL A   1      40.001  35.690  36.904  1.00  0.00     0.127 S 
ATOM     73  O   UNL A   1      41.432  35.410  37.022  1.00  0.00    -0.237 OA
ATOM     74  O   UNL A   1      39.621  36.425  35.698  1.00  0.00    -0.237 OA
ATOM     75  O   UNL A   1      39.355  36.146  38.126  1.00  0.00    -0.744 OA
ENDBRANCH  69  72
ENDBRANCH  51  65
BRANCH  52  76
ATOM     76  C   UNL A   1      42.439  26.519  27.576  1.00  0.00     0.023 A 
ATOM     77  C   UNL A   1      43.293  27.130  26.637  1.00  0.00     0.012 A 
ATOM     78  C   UNL A   1      42.091  25.165  27.408  1.00  0.00     0.148 A 
ATOM     79  C   UNL A   1      43.760  26.417  25.531  1.00  0.00     0.002 A 
ATOM     80  C   UNL A   1      42.609  24.444  26.340  1.00  0.00     0.091 A 
ATOM     81  F   UNL A   1      41.273  24.605  28.310  1.00  0.00    -0.205 F 
ATOM     82  C   UNL A   1      43.426  25.073  25.388  1.00  0.00     0.022 A 
BRANCH  80  83
ATOM     83  S   UNL A   1      42.349  22.677  26.157  1.00  0.00     0.127 S 
ATOM     84  O   UNL A   1      42.970  22.156  27.372  1.00  0.00    -0.237 OA
ATOM     85  O   UNL A   1      40.887  22.591  26.126  1.00  0.00    -0.237 OA
ATOM     86  O   UNL A   1      42.998  22.311  24.906  1.00  0.00    -0.744 OA
ENDBRANCH  80  83
ENDBRANCH  52  76
BRANCH  64  87
ATOM     87  C   UNL A   1      44.662  27.316  34.137  1.00  0.00     0.023 A 
ATOM     88  C   UNL A   1      45.910  27.972  34.135  1.00  0.00     0.012 A 
ATOM     89  C   UNL A   1      44.507  26.129  34.880  1.00  0.00     0.148 A 
ATOM     90  C   UNL A   1      46.999  27.427  34.813  1.00  0.00     0.002 A 
ATOM     91  C   UNL A   1      45.581  25.623  35.601  1.00  0.00     0.091 A 
ATOM     92  F   UNL A   1      43.318  25.511  34.859  1.00  0.00    -0.205 F 
ATOM     93  C   UNL A   1      46.832  26.260  35.554  1.00  0.00     0.022 A 
BRANCH  91  94
ATOM     94  S   UNL A   1      45.432  24.183  36.663  1.00  0.00     0.127 S 
ATOM     95  O   UNL A   1      44.877  23.191  35.744  1.00  0.00    -0.237 OA
ATOM     96  O   UNL A   1      46.821  23.942  37.056  1.00  0.00    -0.237 OA
ATOM     97  O   UNL A   1      44.556  24.581  37.758  1.00  0.00    -0.744 OA
ENDBRANCH  91  94
ENDBRANCH  64  87
ENDBRANCH  38  39
ENDBRANCH  30  33
ENDBRANCH  28  29
ENDBRANCH   1  28
TORSDOF 17
ENDMDL
MODEL 3
REMARK VINA RESULT:     -11.9      2.849      8.345
REMARK SMILES CC[C@H](Oc1ccccc1/C=C1\SC(N)=[NH+]C1=O)C(=O)NCCCNC(=O)c1ccc(-c2c3nc(c(-c4cccc(S(=O)(=O)[O-])c4F)c4ccc([nH]4)c(-c4cccc(S(=O)(=O)[O-])c4F)c4nc(c(-c5cccc(S(=O)(=O)[O-])c5F)c5ccc2[nH]5)C=C4)C=C3)cc1
REMARK SMILES IDX 23 1 22 2 21 3 19 4 20 5 3 7 2 8 1 9 4 10 5 11 6 12 10 13
REMARK SMILES IDX 7 14 9 15 8 16 11 17 12 18 13 19 17 20 14 21 16 22 18 23
REMARK SMILES IDX 15 24 24 28 25 29 26 30 27 32 28 33 29 34 90 35 30 36 89 37
REMARK SMILES IDX 31 38 32 39 33 40 83 41 34 42 88 43 82 44 84 45 35 46 87 47
REMARK SMILES IDX 81 48 80 49 36 51 68 52 48 53 67 54 49 55 52 56 66 57 85 58
REMARK SMILES IDX 50 59 51 60 65 62 86 63 53 64 37 65 38 66 46 67 39 68 41 69
REMARK SMILES IDX 47 70 40 71 42 72 43 73 44 74 45 75 69 76 70 77 78 78 71 79
REMARK SMILES IDX 73 80 79 81 72 82 74 83 75 84 76 85 77 86 54 87 55 88 63 89
REMARK SMILES IDX 56 90 58 91 64 92 57 93 59 94 60 95 61 96 62 97
REMARK H PARENT 21 6 16 25 15 26 15 27 25 31 84 50 52 61
REMARK Flexibility Score: inf
ROOT
ATOM      1  C   UNL A   1      31.343  32.556  26.707  1.00  0.00     0.042 C 
ENDROOT
BRANCH   1   2
ATOM      2  C   UNL A   1      31.399  31.098  26.293  1.00  0.00     0.118 C 
BRANCH   2   3
ATOM      3  N   UNL A   1      32.401  30.344  26.999  1.00  0.00    -0.353 N 
ATOM      4  C   UNL A   1      32.921  29.117  26.724  1.00  0.00     0.261 C 
ATOM      5  O   UNL A   1      33.850  28.751  27.458  1.00  0.00    -0.271 OA
ATOM      6  H   UNL A   1      32.766  30.781  27.803  1.00  0.00     0.163 HD
BRANCH   4   7
ATOM      7  C   UNL A   1      32.479  28.230  25.511  1.00  0.00     0.261 C 
BRANCH   7   8
ATOM      8  C   UNL A   1      33.115  28.652  24.162  1.00  0.00     0.052 C 
ATOM      9  C   UNL A   1      33.893  27.605  23.374  1.00  0.00     0.008 C 
ENDBRANCH   7   8
BRANCH   7  10
ATOM     10  O   UNL A   1      31.240  27.515  25.411  1.00  0.00    -0.480 OA
BRANCH  10  11
ATOM     11  C   UNL A   1      31.173  26.280  24.842  1.00  0.00     0.127 A 
ATOM     12  C   UNL A   1      32.044  25.251  25.218  1.00  0.00     0.047 A 
ATOM     13  C   UNL A   1      30.119  25.983  23.960  1.00  0.00     0.018 A 
ATOM     14  C   UNL A   1      32.014  24.015  24.569  1.00  0.00     0.004 A 
ATOM     15  C   UNL A   1      30.090  24.734  23.317  1.00  0.00     0.012 A 
ATOM     16  C   UNL A   1      31.059  23.769  23.592  1.00  0.00     0.001 A 
BRANCH  13  17
ATOM     17  C   UNL A   1      28.938  26.844  23.792  1.00  0.00     0.036 C 
ATOM     18  C   UNL A   1      28.824  27.997  23.125  1.00  0.00     0.110 C 
ATOM     19  S   UNL A   1      30.011  28.847  22.235  1.00  0.00     0.006 SA
ATOM     20  C   UNL A   1      27.528  28.749  23.069  1.00  0.00     0.346 C 
ATOM     21  C   UNL A   1      28.841  30.087  21.890  1.00  0.00     0.314 C 
ATOM     22  N   UNL A   1      27.654  29.922  22.353  1.00  0.00    -0.200 N 
ATOM     23  O   UNL A   1      26.505  28.371  23.616  1.00  0.00    -0.240 OA
ATOM     24  N   UNL A   1      29.256  31.144  21.165  1.00  0.00    -0.281 N 
ATOM     25  H   UNL A   1      26.916  30.560  22.213  1.00  0.00     0.316 HD
ATOM     26  H   UNL A   1      30.188  31.189  20.849  1.00  0.00     0.302 HD
ATOM     27  H   UNL A   1      28.628  31.871  20.950  1.00  0.00     0.302 HD
ENDBRANCH  13  17
ENDBRANCH  10  11
ENDBRANCH   7  10
ENDBRANCH   4   7
ENDBRANCH   2   3
ENDBRANCH   1   2
BRANCH   1  28
ATOM     28  C   UNL A   1      32.605  32.999  27.421  1.00  0.00     0.118 C 
BRANCH  28  29
ATOM     29  N   UNL A   1      32.599  34.433  27.695  1.00  0.00    -0.352 N 
ATOM     30  C   UNL A   1      33.239  35.158  28.670  1.00  0.00     0.251 C 
ATOM     31  H   UNL A   1      32.046  34.968  27.082  1.00  0.00     0.163 HD
ATOM     32  O   UNL A   1      32.880  36.312  28.891  1.00  0.00    -0.269 OA
BRANCH  30  33
ATOM     33  C   UNL A   1      34.342  34.557  29.446  1.00  0.00     0.039 A 
ATOM     34  C   UNL A   1      34.054  33.892  30.640  1.00  0.00     0.014 A 
ATOM     35  C   UNL A   1      35.664  34.661  29.011  1.00  0.00     0.014 A 
ATOM     36  C   UNL A   1      35.087  33.289  31.357  1.00  0.00     0.010 A 
ATOM     37  C   UNL A   1      36.665  33.941  29.647  1.00  0.00     0.010 A 
ATOM     38  C   UNL A   1      36.396  33.272  30.846  1.00  0.00    -0.014 A 
BRANCH  38  39
ATOM     39  C   UNL A   1      37.489  32.568  31.562  1.00  0.00     0.031 A 
ATOM     40  C   UNL A   1      38.209  31.412  30.915  1.00  0.00     0.074 A 
ATOM     41  C   UNL A   1      37.797  32.941  32.820  1.00  0.00     0.049 A 
ATOM     42  N   UNL A   1      39.206  30.704  31.379  1.00  0.00    -0.248 NA
ATOM     43  C   UNL A   1      37.730  30.967  29.595  1.00  0.00     0.031 C 
ATOM     44  C   UNL A   1      37.096  33.972  33.591  1.00  0.00     0.029 A 
ATOM     45  N   UNL A   1      38.772  32.495  33.673  1.00  0.00    -0.354 N 
ATOM     46  C   UNL A   1      39.450  29.720  30.428  1.00  0.00     0.074 A 
ATOM     47  C   UNL A   1      38.461  29.882  29.388  1.00  0.00     0.031 C 
ATOM     48  C   UNL A   1      37.689  34.106  34.787  1.00  0.00     0.029 A 
ATOM     49  C   UNL A   1      38.786  33.150  34.882  1.00  0.00     0.049 A 
ATOM     50  H   UNL A   1      39.402  31.774  33.443  1.00  0.00     0.167 HD
ATOM     51  C   UNL A   1      40.432  28.788  30.401  1.00  0.00     0.034 A 
ATOM     52  C   UNL A   1      39.597  33.001  35.947  1.00  0.00     0.034 A 
ATOM     53  C   UNL A   1      41.435  28.657  31.421  1.00  0.00     0.049 A 
ATOM     54  C   UNL A   1      40.713  31.997  35.868  1.00  0.00     0.074 A 
ATOM     55  C   UNL A   1      42.528  27.809  31.451  1.00  0.00     0.029 A 
ATOM     56  N   UNL A   1      41.462  29.385  32.600  1.00  0.00    -0.354 N 
ATOM     57  N   UNL A   1      41.031  31.191  34.884  1.00  0.00    -0.248 NA
ATOM     58  C   UNL A   1      41.608  31.913  37.030  1.00  0.00     0.031 C 
ATOM     59  C   UNL A   1      43.193  28.000  32.666  1.00  0.00     0.029 A 
ATOM     60  C   UNL A   1      42.542  28.998  33.372  1.00  0.00     0.049 A 
ATOM     61  H   UNL A   1      40.808  30.078  32.850  1.00  0.00     0.167 HD
ATOM     62  C   UNL A   1      42.180  30.524  35.295  1.00  0.00     0.074 A 
ATOM     63  C   UNL A   1      42.518  31.049  36.602  1.00  0.00     0.031 C 
ATOM     64  C   UNL A   1      42.881  29.554  34.658  1.00  0.00     0.034 A 
BRANCH  51  65
ATOM     65  C   UNL A   1      40.495  27.871  29.205  1.00  0.00     0.023 A 
ATOM     66  C   UNL A   1      39.625  26.763  29.123  1.00  0.00     0.012 A 
ATOM     67  C   UNL A   1      41.381  28.130  28.140  1.00  0.00     0.148 A 
ATOM     68  C   UNL A   1      39.663  25.906  28.024  1.00  0.00     0.002 A 
ATOM     69  C   UNL A   1      41.376  27.301  27.024  1.00  0.00     0.091 A 
ATOM     70  F   UNL A   1      42.216  29.173  28.242  1.00  0.00    -0.205 F 
ATOM     71  C   UNL A   1      40.530  26.181  26.971  1.00  0.00     0.022 A 
BRANCH  69  72
ATOM     72  S   UNL A   1      42.394  27.614  25.578  1.00  0.00     0.127 S 
ATOM     73  O   UNL A   1      42.110  26.436  24.758  1.00  0.00    -0.237 OA
ATOM     74  O   UNL A   1      41.825  28.862  25.069  1.00  0.00    -0.237 OA
ATOM     75  O   UNL A   1      43.762  27.720  26.063  1.00  0.00    -0.744 OA
ENDBRANCH  69  72
ENDBRANCH  51  65
BRANCH  52  76
ATOM     76  C   UNL A   1      39.421  33.865  37.147  1.00  0.00     0.023 A 
ATOM     77  C   UNL A   1      39.854  35.206  37.112  1.00  0.00     0.012 A 
ATOM     78  C   UNL A   1      38.802  33.374  38.313  1.00  0.00     0.148 A 
ATOM     79  C   UNL A   1      39.708  36.030  38.230  1.00  0.00     0.002 A 
ATOM     80  C   UNL A   1      38.605  34.217  39.399  1.00  0.00     0.091 A 
ATOM     81  F   UNL A   1      38.403  32.095  38.327  1.00  0.00    -0.205 F 
ATOM     82  C   UNL A   1      39.076  35.539  39.369  1.00  0.00     0.022 A 
BRANCH  80  83
ATOM     83  S   UNL A   1      37.674  33.712  40.850  1.00  0.00     0.127 S 
ATOM     84  O   UNL A   1      36.495  33.096  40.248  1.00  0.00    -0.237 OA
ATOM     85  O   UNL A   1      38.601  32.777  41.490  1.00  0.00    -0.237 OA
ATOM     86  O   UNL A   1      37.435  34.933  41.608  1.00  0.00    -0.744 OA
ENDBRANCH  80  83
ENDBRANCH  52  76
BRANCH  64  87
ATOM     87  C   UNL A   1      44.104  29.019  35.356  1.00  0.00     0.023 A 
ATOM     88  C   UNL A   1      45.377  29.541  35.051  1.00  0.00     0.012 A 
ATOM     89  C   UNL A   1      43.985  28.021  36.343  1.00  0.00     0.148 A 
ATOM     90  C   UNL A   1      46.518  29.040  35.676  1.00  0.00     0.002 A 
ATOM     91  C   UNL A   1      45.120  27.567  37.004  1.00  0.00     0.091 A 
ATOM     92  F   UNL A   1      42.768  27.524  36.610  1.00  0.00    -0.205 F 
ATOM     93  C   UNL A   1      46.388  28.062  36.659  1.00  0.00     0.022 A 
BRANCH  91  94
ATOM     94  S   UNL A   1      45.038  26.384  38.352  1.00  0.00     0.127 S 
ATOM     95  O   UNL A   1      45.205  25.115  37.646  1.00  0.00    -0.237 OA
ATOM     96  O   UNL A   1      46.180  26.777  39.179  1.00  0.00    -0.237 OA
ATOM     97  O   UNL A   1      43.740  26.584  38.983  1.00  0.00    -0.744 OA
ENDBRANCH  91  94
ENDBRANCH  64  87
ENDBRANCH  38  39
ENDBRANCH  30  33
ENDBRANCH  28  29
ENDBRANCH   1  28
TORSDOF 17
ENDMDL
