MODEL 1
REMARK VINA RESULT:     -12.9      0.000      0.000
REMARK SMILES O=C(CSc1nc2ccccc2o1)Nc1ccccc1C(=O)NCCCNC(=O)c1ccc(-c2c3nc(c(-c4cccc(S(=O)(=O)[O-])c4F)c4ccc([nH]4)c(-c4cccc(S(=O)(=O)[O-])c4F)c4nc(c(-c5cccc(S(=O)(=O)[O-])c5F)c5ccc2[nH]5)C=C4)C=C3)cc1
REMARK SMILES IDX 24 1 23 2 21 3 22 4 20 6 15 7 16 8 17 9 19 10 18 11 14 12
REMARK SMILES IDX 1 13 2 14 3 16 4 17 5 18 6 19 13 20 7 21 12 22 8 23 11 24
REMARK SMILES IDX 9 25 10 26 25 27 26 28 27 29 28 30 29 32 30 33 31 34 92 35
REMARK SMILES IDX 32 36 91 37 33 38 34 39 35 40 85 41 36 42 90 43 84 44 86 45
REMARK SMILES IDX 37 46 89 47 83 48 82 49 38 51 70 52 50 53 69 54 51 55 54 56
REMARK SMILES IDX 68 57 87 58 52 59 53 60 67 62 88 63 55 64 39 65 40 66 48 67
REMARK SMILES IDX 41 68 43 69 49 70 42 71 44 72 45 73 46 74 47 75 71 76 72 77
REMARK SMILES IDX 80 78 73 79 75 80 81 81 74 82 76 83 77 84 78 85 79 86 56 87
REMARK SMILES IDX 57 88 65 89 58 90 60 91 66 92 59 93 61 94 62 95 63 96 64 97
REMARK H PARENT 23 5 14 15 27 31 86 50 54 61
REMARK Flexibility Score: inf
ROOT
ATOM      1  C   UNL A   1      32.366  27.372  26.537  1.00  0.00     0.118 C 
ENDROOT
BRANCH   1   2
ATOM      2  N   UNL A   1      31.559  26.215  26.801  1.00  0.00    -0.352 N 
ATOM      3  C   UNL A   1      31.937  24.891  26.680  1.00  0.00     0.253 C 
ATOM      4  O   UNL A   1      31.206  24.045  27.202  1.00  0.00    -0.269 OA
ATOM      5  H   UNL A   1      30.636  26.382  27.101  1.00  0.00     0.163 HD
BRANCH   3   6
ATOM      6  C   UNL A   1      33.045  24.429  25.776  1.00  0.00     0.063 A 
ATOM      7  C   UNL A   1      33.189  24.520  24.374  1.00  0.00     0.054 A 
ATOM      8  C   UNL A   1      34.237  23.798  23.757  1.00  0.00     0.027 A 
ATOM      9  C   UNL A   1      35.178  23.080  24.494  1.00  0.00     0.002 A 
ATOM     10  C   UNL A   1      34.027  23.704  26.501  1.00  0.00     0.016 A 
ATOM     11  C   UNL A   1      35.085  23.046  25.874  1.00  0.00     0.001 A 
BRANCH   7  12
ATOM     12  N   UNL A   1      32.399  25.243  23.448  1.00  0.00    -0.325 N 
ATOM     13  O   UNL A   1      33.631  27.177  23.166  1.00  0.00    -0.274 OA
ATOM     14  C   UNL A   1      32.605  26.527  22.983  1.00  0.00     0.234 C 
ATOM     15  H   UNL A   1      31.609  24.775  23.093  1.00  0.00     0.169 HD
BRANCH  14  16
ATOM     16  C   UNL A   1      31.344  27.161  22.381  1.00  0.00     0.180 C 
BRANCH  16  17
ATOM     17  S   UNL A   1      29.926  27.160  23.501  1.00  0.00    -0.057 SA
BRANCH  17  18
ATOM     18  C   UNL A   1      29.367  28.746  23.106  1.00  0.00     0.257 A 
ATOM     19  N   UNL A   1      28.738  28.991  21.977  1.00  0.00    -0.204 NA
ATOM     20  O   UNL A   1      29.629  29.844  23.878  1.00  0.00    -0.431 OA
ATOM     21  C   UNL A   1      28.602  30.348  21.977  1.00  0.00     0.110 A 
ATOM     22  C   UNL A   1      29.134  30.878  23.140  1.00  0.00     0.155 A 
ATOM     23  C   UNL A   1      28.041  31.207  21.029  1.00  0.00     0.032 A 
ATOM     24  C   UNL A   1      29.151  32.228  23.459  1.00  0.00     0.049 A 
ATOM     25  C   UNL A   1      28.028  32.578  21.314  1.00  0.00     0.003 A 
ATOM     26  C   UNL A   1      28.570  33.076  22.507  1.00  0.00     0.004 A 
ENDBRANCH  17  18
ENDBRANCH  16  17
ENDBRANCH  14  16
ENDBRANCH   7  12
ENDBRANCH   3   6
ENDBRANCH   1   2
BRANCH   1  27
ATOM     27  C   UNL A   1      31.700  28.730  26.531  1.00  0.00     0.042 C 
BRANCH  27  28
ATOM     28  C   UNL A   1      32.460  29.821  25.772  1.00  0.00     0.118 C 
BRANCH  28  29
ATOM     29  N   UNL A   1      32.414  31.165  26.366  1.00  0.00    -0.352 N 
ATOM     30  C   UNL A   1      33.233  31.858  27.232  1.00  0.00     0.251 C 
ATOM     31  H   UNL A   1      31.626  31.683  26.084  1.00  0.00     0.163 HD
ATOM     32  O   UNL A   1      32.866  32.966  27.626  1.00  0.00    -0.269 OA
BRANCH  30  33
ATOM     33  C   UNL A   1      34.505  31.295  27.744  1.00  0.00     0.039 A 
ATOM     34  C   UNL A   1      35.580  32.152  28.022  1.00  0.00     0.014 A 
ATOM     35  C   UNL A   1      34.661  29.932  27.952  1.00  0.00     0.014 A 
ATOM     36  C   UNL A   1      36.741  31.651  28.629  1.00  0.00     0.010 A 
ATOM     37  C   UNL A   1      35.741  29.462  28.686  1.00  0.00     0.010 A 
ATOM     38  C   UNL A   1      36.799  30.311  29.040  1.00  0.00    -0.014 A 
BRANCH  38  39
ATOM     39  C   UNL A   1      37.919  29.748  29.845  1.00  0.00     0.031 A 
ATOM     40  C   UNL A   1      38.125  30.206  31.268  1.00  0.00     0.074 A 
ATOM     41  C   UNL A   1      38.848  28.968  29.252  1.00  0.00     0.049 A 
ATOM     42  N   UNL A   1      39.161  30.044  32.051  1.00  0.00    -0.248 NA
ATOM     43  C   UNL A   1      37.047  31.010  31.871  1.00  0.00     0.031 C 
ATOM     44  C   UNL A   1      38.824  28.523  27.856  1.00  0.00     0.029 A 
ATOM     45  N   UNL A   1      40.024  28.447  29.739  1.00  0.00    -0.354 N 
ATOM     46  C   UNL A   1      38.893  30.787  33.195  1.00  0.00     0.074 A 
ATOM     47  C   UNL A   1      37.614  31.431  32.992  1.00  0.00     0.031 C 
ATOM     48  C   UNL A   1      39.923  27.796  27.601  1.00  0.00     0.029 A 
ATOM     49  C   UNL A   1      40.756  27.759  28.798  1.00  0.00     0.049 A 
ATOM     50  H   UNL A   1      40.315  28.556  30.673  1.00  0.00     0.167 HD
ATOM     51  C   UNL A   1      39.624  30.897  34.330  1.00  0.00     0.034 A 
ATOM     52  C   UNL A   1      41.969  27.178  28.880  1.00  0.00     0.034 A 
ATOM     53  C   UNL A   1      40.842  30.173  34.568  1.00  0.00     0.049 A 
ATOM     54  C   UNL A   1      42.716  27.232  30.186  1.00  0.00     0.074 A 
ATOM     55  C   UNL A   1      41.595  30.113  35.727  1.00  0.00     0.029 A 
ATOM     56  N   UNL A   1      41.477  29.369  33.635  1.00  0.00    -0.354 N 
ATOM     57  N   UNL A   1      42.375  27.821  31.306  1.00  0.00    -0.248 NA
ATOM     58  C   UNL A   1      43.997  26.515  30.250  1.00  0.00     0.031 C 
ATOM     59  C   UNL A   1      42.691  29.276  35.492  1.00  0.00     0.029 A 
ATOM     60  C   UNL A   1      42.611  28.803  34.192  1.00  0.00     0.049 A 
ATOM     61  H   UNL A   1      41.167  29.221  32.713  1.00  0.00     0.167 HD
ATOM     62  C   UNL A   1      43.378  27.516  32.218  1.00  0.00     0.074 A 
ATOM     63  C   UNL A   1      44.330  26.672  31.525  1.00  0.00     0.031 C 
ATOM     64  C   UNL A   1      43.511  27.914  33.507  1.00  0.00     0.034 A 
BRANCH  51  65
ATOM     65  C   UNL A   1      39.086  31.774  35.433  1.00  0.00     0.023 A 
ATOM     66  C   UNL A   1      39.242  33.173  35.347  1.00  0.00     0.012 A 
ATOM     67  C   UNL A   1      38.380  31.225  36.522  1.00  0.00     0.148 A 
ATOM     68  C   UNL A   1      38.745  34.009  36.346  1.00  0.00     0.002 A 
ATOM     69  C   UNL A   1      37.844  32.069  37.489  1.00  0.00     0.091 A 
ATOM     70  F   UNL A   1      38.255  29.892  36.599  1.00  0.00    -0.205 F 
ATOM     71  C   UNL A   1      38.037  33.458  37.410  1.00  0.00     0.022 A 
BRANCH  69  72
ATOM     72  S   UNL A   1      36.844  31.469  38.856  1.00  0.00     0.127 S 
ATOM     73  O   UNL A   1      37.777  31.581  39.976  1.00  0.00    -0.237 OA
ATOM     74  O   UNL A   1      35.744  32.433  38.879  1.00  0.00    -0.237 OA
ATOM     75  O   UNL A   1      36.454  30.111  38.502  1.00  0.00    -0.744 OA
ENDBRANCH  69  72
ENDBRANCH  51  65
BRANCH  52  76
ATOM     76  C   UNL A   1      42.520  26.427  27.714  1.00  0.00     0.023 A 
ATOM     77  C   UNL A   1      43.467  27.057  26.883  1.00  0.00     0.012 A 
ATOM     78  C   UNL A   1      42.146  25.097  27.442  1.00  0.00     0.148 A 
ATOM     79  C   UNL A   1      44.006  26.390  25.782  1.00  0.00     0.002 A 
ATOM     80  C   UNL A   1      42.728  24.419  26.375  1.00  0.00     0.091 A 
ATOM     81  F   UNL A   1      41.236  24.517  28.236  1.00  0.00    -0.205 F 
ATOM     82  C   UNL A   1      43.644  25.069  25.535  1.00  0.00     0.022 A 
BRANCH  80  83
ATOM     83  S   UNL A   1      42.425  22.676  26.065  1.00  0.00     0.127 S 
ATOM     84  O   UNL A   1      43.028  22.497  24.747  1.00  0.00    -0.237 OA
ATOM     85  O   UNL A   1      43.149  22.039  27.166  1.00  0.00    -0.237 OA
ATOM     86  O   UNL A   1      40.978  22.513  26.131  1.00  0.00    -0.744 OA
ENDBRANCH  80  83
ENDBRANCH  52  76
BRANCH  64  87
ATOM     87  C   UNL A   1      44.705  27.411  34.274  1.00  0.00     0.023 A 
ATOM     88  C   UNL A   1      45.895  28.163  34.285  1.00  0.00     0.012 A 
ATOM     89  C   UNL A   1      44.615  26.241  35.053  1.00  0.00     0.148 A 
ATOM     90  C   UNL A   1      46.989  27.744  35.040  1.00  0.00     0.002 A 
ATOM     91  C   UNL A   1      45.692  25.854  35.840  1.00  0.00     0.091 A 
ATOM     92  F   UNL A   1      43.478  25.531  35.013  1.00  0.00    -0.205 F 
ATOM     93  C   UNL A   1      46.883  26.598  35.827  1.00  0.00     0.022 A 
BRANCH  91  94
ATOM     94  S   UNL A   1      45.612  24.449  36.958  1.00  0.00     0.127 S 
ATOM     95  O   UNL A   1      46.942  24.476  37.564  1.00  0.00    -0.237 OA
ATOM     96  O   UNL A   1      44.523  24.831  37.857  1.00  0.00    -0.237 OA
ATOM     97  O   UNL A   1      45.327  23.290  36.123  1.00  0.00    -0.744 OA
ENDBRANCH  91  94
ENDBRANCH  64  87
ENDBRANCH  38  39
ENDBRANCH  30  33
ENDBRANCH  28  29
ENDBRANCH  27  28
ENDBRANCH   1  27
TORSDOF 17
ENDMDL
MODEL 2
REMARK VINA RESULT:     -12.8      1.830      8.704
REMARK SMILES O=C(CSc1nc2ccccc2o1)Nc1ccccc1C(=O)NCCCNC(=O)c1ccc(-c2c3nc(c(-c4cccc(S(=O)(=O)[O-])c4F)c4ccc([nH]4)c(-c4cccc(S(=O)(=O)[O-])c4F)c4nc(c(-c5cccc(S(=O)(=O)[O-])c5F)c5ccc2[nH]5)C=C4)C=C3)cc1
REMARK SMILES IDX 24 1 23 2 21 3 22 4 20 6 15 7 16 8 17 9 19 10 18 11 14 12
REMARK SMILES IDX 1 13 2 14 3 16 4 17 5 18 6 19 13 20 7 21 12 22 8 23 11 24
REMARK SMILES IDX 9 25 10 26 25 27 26 28 27 29 28 30 29 32 30 33 31 34 92 35
REMARK SMILES IDX 32 36 91 37 33 38 34 39 35 40 85 41 36 42 90 43 84 44 86 45
REMARK SMILES IDX 37 46 89 47 83 48 82 49 38 51 70 52 50 53 69 54 51 55 54 56
REMARK SMILES IDX 68 57 87 58 52 59 53 60 67 62 88 63 55 64 39 65 40 66 48 67
REMARK SMILES IDX 41 68 43 69 49 70 42 71 44 72 45 73 46 74 47 75 71 76 72 77
REMARK SMILES IDX 80 78 73 79 75 80 81 81 74 82 76 83 77 84 78 85 79 86 56 87
REMARK SMILES IDX 57 88 65 89 58 90 60 91 66 92 59 93 61 94 62 95 63 96 64 97
REMARK H PARENT 23 5 14 15 27 31 86 50 54 61
REMARK Flexibility Score: inf
ROOT
ATOM      1  C   UNL A   1      32.873  28.042  25.412  1.00  0.00     0.118 C 
ENDROOT
BRANCH   1   2
ATOM      2  N   UNL A   1      33.022  27.396  24.140  1.00  0.00    -0.352 N 
ATOM      3  C   UNL A   1      32.072  27.291  23.143  1.00  0.00     0.253 C 
ATOM      4  O   UNL A   1      32.462  26.940  22.025  1.00  0.00    -0.269 OA
ATOM      5  H   UNL A   1      33.897  26.982  23.958  1.00  0.00     0.163 HD
BRANCH   3   6
ATOM      6  C   UNL A   1      30.593  27.365  23.401  1.00  0.00     0.063 A 
ATOM      7  C   UNL A   1      29.681  26.375  23.826  1.00  0.00     0.054 A 
ATOM      8  C   UNL A   1      28.298  26.665  23.773  1.00  0.00     0.027 A 
ATOM      9  C   UNL A   1      27.817  27.921  23.402  1.00  0.00     0.002 A 
ATOM     10  C   UNL A   1      30.076  28.639  23.045  1.00  0.00     0.016 A 
ATOM     11  C   UNL A   1      28.709  28.919  23.053  1.00  0.00     0.001 A 
BRANCH   7  12
ATOM     12  N   UNL A   1      29.952  25.070  24.305  1.00  0.00    -0.325 N 
ATOM     13  O   UNL A   1      30.787  25.491  26.417  1.00  0.00    -0.274 OA
ATOM     14  C   UNL A   1      30.558  24.715  25.494  1.00  0.00     0.234 C 
ATOM     15  H   UNL A   1      29.675  24.327  23.721  1.00  0.00     0.169 HD
BRANCH  14  16
ATOM     16  C   UNL A   1      31.113  23.285  25.486  1.00  0.00     0.180 C 
BRANCH  16  17
ATOM     17  S   UNL A   1      32.897  23.197  25.762  1.00  0.00    -0.057 SA
BRANCH  17  18
ATOM     18  C   UNL A   1      33.133  21.659  25.013  1.00  0.00     0.257 A 
ATOM     19  N   UNL A   1      32.268  21.179  24.145  1.00  0.00    -0.204 NA
ATOM     20  O   UNL A   1      34.156  20.816  25.345  1.00  0.00    -0.431 OA
ATOM     21  C   UNL A   1      32.726  19.915  23.908  1.00  0.00     0.110 A 
ATOM     22  C   UNL A   1      33.886  19.688  24.629  1.00  0.00     0.155 A 
ATOM     23  C   UNL A   1      32.214  18.900  23.097  1.00  0.00     0.032 A 
ATOM     24  C   UNL A   1      34.611  18.505  24.607  1.00  0.00     0.049 A 
ATOM     25  C   UNL A   1      32.919  17.691  23.038  1.00  0.00     0.003 A 
ATOM     26  C   UNL A   1      34.095  17.501  23.777  1.00  0.00     0.004 A 
ENDBRANCH  17  18
ENDBRANCH  16  17
ENDBRANCH  14  16
ENDBRANCH   7  12
ENDBRANCH   3   6
ENDBRANCH   1   2
BRANCH   1  27
ATOM     27  C   UNL A   1      32.625  29.534  25.439  1.00  0.00     0.042 C 
BRANCH  27  28
ATOM     28  C   UNL A   1      31.961  30.058  26.715  1.00  0.00     0.118 C 
BRANCH  28  29
ATOM     29  N   UNL A   1      31.967  31.518  26.887  1.00  0.00    -0.352 N 
ATOM     30  C   UNL A   1      32.885  32.421  27.378  1.00  0.00     0.251 C 
ATOM     31  H   UNL A   1      31.131  31.944  26.587  1.00  0.00     0.163 HD
ATOM     32  O   UNL A   1      32.551  33.602  27.480  1.00  0.00    -0.269 OA
BRANCH  30  33
ATOM     33  C   UNL A   1      34.235  32.013  27.834  1.00  0.00     0.039 A 
ATOM     34  C   UNL A   1      35.254  32.971  27.932  1.00  0.00     0.014 A 
ATOM     35  C   UNL A   1      34.518  30.695  28.165  1.00  0.00     0.014 A 
ATOM     36  C   UNL A   1      36.495  32.625  28.486  1.00  0.00     0.010 A 
ATOM     37  C   UNL A   1      35.686  30.388  28.849  1.00  0.00     0.010 A 
ATOM     38  C   UNL A   1      36.694  31.346  29.024  1.00  0.00    -0.014 A 
BRANCH  38  39
ATOM     39  C   UNL A   1      37.916  30.957  29.785  1.00  0.00     0.031 A 
ATOM     40  C   UNL A   1      38.899  29.985  29.179  1.00  0.00     0.074 A 
ATOM     41  C   UNL A   1      38.052  31.330  31.075  1.00  0.00     0.049 A 
ATOM     42  N   UNL A   1      39.874  29.326  29.750  1.00  0.00    -0.248 NA
ATOM     43  C   UNL A   1      38.722  29.662  27.751  1.00  0.00     0.031 C 
ATOM     44  C   UNL A   1      37.129  32.192  31.817  1.00  0.00     0.029 A 
ATOM     45  N   UNL A   1      39.003  30.992  32.009  1.00  0.00    -0.354 N 
ATOM     46  C   UNL A   1      40.368  28.461  28.780  1.00  0.00     0.074 A 
ATOM     47  C   UNL A   1      39.562  28.651  27.594  1.00  0.00     0.031 C 
ATOM     48  C   UNL A   1      37.557  32.320  33.082  1.00  0.00     0.029 A 
ATOM     49  C   UNL A   1      38.759  31.514  33.260  1.00  0.00     0.049 A 
ATOM     50  H   UNL A   1      39.785  30.431  31.804  1.00  0.00     0.167 HD
ATOM     51  C   UNL A   1      41.420  27.610  28.854  1.00  0.00     0.034 A 
ATOM     52  C   UNL A   1      39.417  31.350  34.425  1.00  0.00     0.034 A 
ATOM     53  C   UNL A   1      42.281  27.502  29.999  1.00  0.00     0.049 A 
ATOM     54  C   UNL A   1      40.641  30.475  34.453  1.00  0.00     0.074 A 
ATOM     55  C   UNL A   1      43.445  26.767  30.134  1.00  0.00     0.029 A 
ATOM     56  N   UNL A   1      42.080  28.161  31.202  1.00  0.00    -0.354 N 
ATOM     57  N   UNL A   1      41.178  29.777  33.482  1.00  0.00    -0.248 NA
ATOM     58  C   UNL A   1      41.371  30.392  35.726  1.00  0.00     0.031 C 
ATOM     59  C   UNL A   1      43.945  26.977  31.423  1.00  0.00     0.029 A 
ATOM     60  C   UNL A   1      43.101  27.854  32.084  1.00  0.00     0.049 A 
ATOM     61  H   UNL A   1      41.324  28.759  31.399  1.00  0.00     0.167 HD
ATOM     62  C   UNL A   1      42.325  29.201  34.014  1.00  0.00     0.074 A 
ATOM     63  C   UNL A   1      42.418  29.650  35.388  1.00  0.00     0.031 C 
ATOM     64  C   UNL A   1      43.212  28.362  33.426  1.00  0.00     0.034 A 
BRANCH  51  65
ATOM     65  C   UNL A   1      41.746  26.786  27.633  1.00  0.00     0.023 A 
ATOM     66  C   UNL A   1      42.335  27.409  26.513  1.00  0.00     0.012 A 
ATOM     67  C   UNL A   1      41.525  25.395  27.612  1.00  0.00     0.148 A 
ATOM     68  C   UNL A   1      42.657  26.670  25.375  1.00  0.00     0.002 A 
ATOM     69  C   UNL A   1      41.895  24.658  26.493  1.00  0.00     0.091 A 
ATOM     70  F   UNL A   1      40.949  24.821  28.678  1.00  0.00    -0.205 F 
ATOM     71  C   UNL A   1      42.448  25.295  25.370  1.00  0.00     0.022 A 
BRANCH  69  72
ATOM     72  S   UNL A   1      41.746  22.868  26.415  1.00  0.00     0.127 S 
ATOM     73  O   UNL A   1      42.475  22.458  27.614  1.00  0.00    -0.237 OA
ATOM     74  O   UNL A   1      40.296  22.677  26.487  1.00  0.00    -0.237 OA
ATOM     75  O   UNL A   1      42.349  22.470  25.150  1.00  0.00    -0.744 OA
ENDBRANCH  69  72
ENDBRANCH  51  65
BRANCH  52  76
ATOM     76  C   UNL A   1      38.977  32.090  35.644  1.00  0.00     0.023 A 
ATOM     77  C   UNL A   1      39.249  33.469  35.739  1.00  0.00     0.012 A 
ATOM     78  C   UNL A   1      38.270  31.457  36.684  1.00  0.00     0.148 A 
ATOM     79  C   UNL A   1      38.856  34.197  36.863  1.00  0.00     0.002 A 
ATOM     80  C   UNL A   1      37.833  32.200  37.776  1.00  0.00     0.091 A 
ATOM     81  F   UNL A   1      38.029  30.142  36.582  1.00  0.00    -0.205 F 
ATOM     82  C   UNL A   1      38.140  33.566  37.875  1.00  0.00     0.022 A 
BRANCH  80  83
ATOM     83  S   UNL A   1      36.788  31.500  39.058  1.00  0.00     0.127 S 
ATOM     84  O   UNL A   1      37.679  31.519  40.216  1.00  0.00    -0.237 OA
ATOM     85  O   UNL A   1      35.685  32.461  39.113  1.00  0.00    -0.237 OA
ATOM     86  O   UNL A   1      36.404  30.181  38.572  1.00  0.00    -0.744 OA
ENDBRANCH  80  83
ENDBRANCH  52  76
BRANCH  64  87
ATOM     87  C   UNL A   1      44.388  27.901  34.245  1.00  0.00     0.023 A 
ATOM     88  C   UNL A   1      45.578  28.655  34.244  1.00  0.00     0.012 A 
ATOM     89  C   UNL A   1      44.281  26.773  35.082  1.00  0.00     0.148 A 
ATOM     90  C   UNL A   1      46.655  28.277  35.043  1.00  0.00     0.002 A 
ATOM     91  C   UNL A   1      45.341  26.429  35.912  1.00  0.00     0.091 A 
ATOM     92  F   UNL A   1      43.146  26.060  35.053  1.00  0.00    -0.205 F 
ATOM     93  C   UNL A   1      46.532  27.173  35.886  1.00  0.00     0.022 A 
BRANCH  91  94
ATOM     94  S   UNL A   1      45.237  25.084  37.098  1.00  0.00     0.127 S 
ATOM     95  O   UNL A   1      45.290  23.913  36.225  1.00  0.00    -0.237 OA
ATOM     96  O   UNL A   1      46.435  25.295  37.912  1.00  0.00    -0.237 OA
ATOM     97  O   UNL A   1      43.981  25.277  37.812  1.00  0.00    -0.744 OA
ENDBRANCH  91  94
ENDBRANCH  64  87
ENDBRANCH  38  39
ENDBRANCH  30  33
ENDBRANCH  28  29
ENDBRANCH  27  28
ENDBRANCH   1  27
TORSDOF 17
ENDMDL
MODEL 3
REMARK VINA RESULT:     -12.6      1.945      8.531
REMARK SMILES O=C(CSc1nc2ccccc2o1)Nc1ccccc1C(=O)NCCCNC(=O)c1ccc(-c2c3nc(c(-c4cccc(S(=O)(=O)[O-])c4F)c4ccc([nH]4)c(-c4cccc(S(=O)(=O)[O-])c4F)c4nc(c(-c5cccc(S(=O)(=O)[O-])c5F)c5ccc2[nH]5)C=C4)C=C3)cc1
REMARK SMILES IDX 24 1 23 2 21 3 22 4 20 6 15 7 16 8 17 9 19 10 18 11 14 12
REMARK SMILES IDX 1 13 2 14 3 16 4 17 5 18 6 19 13 20 7 21 12 22 8 23 11 24
REMARK SMILES IDX 9 25 10 26 25 27 26 28 27 29 28 30 29 32 30 33 31 34 92 35
REMARK SMILES IDX 32 36 91 37 33 38 34 39 35 40 85 41 36 42 90 43 84 44 86 45
REMARK SMILES IDX 37 46 89 47 83 48 82 49 38 51 70 52 50 53 69 54 51 55 54 56
REMARK SMILES IDX 68 57 87 58 52 59 53 60 67 62 88 63 55 64 39 65 40 66 48 67
REMARK SMILES IDX 41 68 43 69 49 70 42 71 44 72 45 73 46 74 47 75 71 76 72 77
REMARK SMILES IDX 80 78 73 79 75 80 81 81 74 82 76 83 77 84 78 85 79 86 56 87
REMARK SMILES IDX 57 88 65 89 58 90 60 91 66 92 59 93 61 94 62 95 63 96 64 97
REMARK H PARENT 23 5 14 15 27 31 86 50 54 61
REMARK Flexibility Score: inf
ROOT
ATOM      1  C   UNL A   1      33.601  27.176  25.130  1.00  0.00     0.118 C 
ENDROOT
BRANCH   1   2
ATOM      2  N   UNL A   1      33.582  26.594  23.819  1.00  0.00    -0.352 N 
ATOM      3  C   UNL A   1      32.664  26.836  22.814  1.00  0.00     0.253 C 
ATOM      4  O   UNL A   1      32.959  26.455  21.678  1.00  0.00    -0.269 OA
ATOM      5  H   UNL A   1      34.299  25.952  23.613  1.00  0.00     0.163 HD
BRANCH   3   6
ATOM      6  C   UNL A   1      31.267  27.326  23.072  1.00  0.00     0.063 A 
ATOM      7  C   UNL A   1      30.147  26.667  23.624  1.00  0.00     0.054 A 
ATOM      8  C   UNL A   1      28.886  27.303  23.546  1.00  0.00     0.027 A 
ATOM      9  C   UNL A   1      28.734  28.589  23.026  1.00  0.00     0.002 A 
ATOM     10  C   UNL A   1      31.086  28.640  22.566  1.00  0.00     0.016 A 
ATOM     11  C   UNL A   1      29.841  29.269  22.551  1.00  0.00     0.001 A 
BRANCH   7  12
ATOM     12  N   UNL A   1      30.087  25.402  24.257  1.00  0.00    -0.325 N 
ATOM     13  O   UNL A   1      30.653  25.923  26.436  1.00  0.00    -0.274 OA
ATOM     14  C   UNL A   1      30.424  25.093  25.560  1.00  0.00     0.234 C 
ATOM     15  H   UNL A   1      29.766  24.654  23.704  1.00  0.00     0.169 HD
BRANCH  14  16
ATOM     16  C   UNL A   1      30.692  23.598  25.777  1.00  0.00     0.180 C 
BRANCH  16  17
ATOM     17  S   UNL A   1      31.777  23.250  27.179  1.00  0.00    -0.057 SA
BRANCH  17  18
ATOM     18  C   UNL A   1      33.233  23.096  26.263  1.00  0.00     0.257 A 
ATOM     19  N   UNL A   1      34.414  23.131  26.842  1.00  0.00    -0.204 NA
ATOM     20  O   UNL A   1      33.253  23.034  24.898  1.00  0.00    -0.431 OA
ATOM     21  C   UNL A   1      35.283  23.128  25.790  1.00  0.00     0.110 A 
ATOM     22  C   UNL A   1      34.583  23.058  24.597  1.00  0.00     0.155 A 
ATOM     23  C   UNL A   1      36.678  23.184  25.762  1.00  0.00     0.032 A 
ATOM     24  C   UNL A   1      35.166  23.029  23.339  1.00  0.00     0.049 A 
ATOM     25  C   UNL A   1      37.310  23.149  24.513  1.00  0.00     0.003 A 
ATOM     26  C   UNL A   1      36.567  23.070  23.326  1.00  0.00     0.004 A 
ENDBRANCH  17  18
ENDBRANCH  16  17
ENDBRANCH  14  16
ENDBRANCH   7  12
ENDBRANCH   3   6
ENDBRANCH   1   2
BRANCH   1  27
ATOM     27  C   UNL A   1      33.337  28.659  25.266  1.00  0.00     0.042 C 
BRANCH  27  28
ATOM     28  C   UNL A   1      32.422  29.051  26.429  1.00  0.00     0.118 C 
BRANCH  28  29
ATOM     29  N   UNL A   1      32.268  30.494  26.664  1.00  0.00    -0.352 N 
ATOM     30  C   UNL A   1      33.078  31.468  27.206  1.00  0.00     0.251 C 
ATOM     31  H   UNL A   1      31.394  30.839  26.371  1.00  0.00     0.163 HD
ATOM     32  O   UNL A   1      32.616  32.600  27.354  1.00  0.00    -0.269 OA
BRANCH  30  33
ATOM     33  C   UNL A   1      34.459  31.188  27.664  1.00  0.00     0.039 A 
ATOM     34  C   UNL A   1      35.381  32.240  27.774  1.00  0.00     0.014 A 
ATOM     35  C   UNL A   1      34.867  29.901  27.985  1.00  0.00     0.014 A 
ATOM     36  C   UNL A   1      36.648  32.010  28.330  1.00  0.00     0.010 A 
ATOM     37  C   UNL A   1      36.058  29.702  28.671  1.00  0.00     0.010 A 
ATOM     38  C   UNL A   1      36.968  30.752  28.858  1.00  0.00    -0.014 A 
BRANCH  38  39
ATOM     39  C   UNL A   1      38.219  30.475  29.619  1.00  0.00     0.031 A 
ATOM     40  C   UNL A   1      39.241  29.514  29.061  1.00  0.00     0.074 A 
ATOM     41  C   UNL A   1      38.357  30.942  30.879  1.00  0.00     0.049 A 
ATOM     42  N   UNL A   1      40.256  28.945  29.657  1.00  0.00    -0.248 NA
ATOM     43  C   UNL A   1      39.058  29.087  27.663  1.00  0.00     0.031 C 
ATOM     44  C   UNL A   1      37.403  31.806  31.578  1.00  0.00     0.029 A 
ATOM     45  N   UNL A   1      39.338  30.716  31.815  1.00  0.00    -0.354 N 
ATOM     46  C   UNL A   1      40.778  28.041  28.739  1.00  0.00     0.074 A 
ATOM     47  C   UNL A   1      39.945  28.109  27.558  1.00  0.00     0.031 C 
ATOM     48  C   UNL A   1      37.844  32.041  32.824  1.00  0.00     0.029 A 
ATOM     49  C   UNL A   1      39.088  31.309  33.033  1.00  0.00     0.049 A 
ATOM     50  H   UNL A   1      40.144  30.181  31.633  1.00  0.00     0.167 HD
ATOM     51  C   UNL A   1      41.872  27.250  28.849  1.00  0.00     0.034 A 
ATOM     52  C   UNL A   1      39.771  31.257  34.193  1.00  0.00     0.034 A 
ATOM     53  C   UNL A   1      42.755  27.262  29.982  1.00  0.00     0.049 A 
ATOM     54  C   UNL A   1      41.038  30.448  34.256  1.00  0.00     0.074 A 
ATOM     55  C   UNL A   1      43.956  26.596  30.144  1.00  0.00     0.029 A 
ATOM     56  N   UNL A   1      42.540  27.990  31.142  1.00  0.00    -0.354 N 
ATOM     57  N   UNL A   1      41.594  29.712  33.325  1.00  0.00    -0.248 NA
ATOM     58  C   UNL A   1      41.791  30.488  35.518  1.00  0.00     0.031 C 
ATOM     59  C   UNL A   1      44.466  26.918  31.406  1.00  0.00     0.029 A 
ATOM     60  C   UNL A   1      43.590  27.796  32.023  1.00  0.00     0.049 A 
ATOM     61  H   UNL A   1      41.758  28.563  31.313  1.00  0.00     0.167 HD
ATOM     62  C   UNL A   1      42.777  29.231  33.872  1.00  0.00     0.074 A 
ATOM     63  C   UNL A   1      42.869  29.777  35.211  1.00  0.00     0.031 C 
ATOM     64  C   UNL A   1      43.695  28.398  33.326  1.00  0.00     0.034 A 
BRANCH  51  65
ATOM     65  C   UNL A   1      42.220  26.361  27.681  1.00  0.00     0.023 A 
ATOM     66  C   UNL A   1      43.049  26.858  26.653  1.00  0.00     0.012 A 
ATOM     67  C   UNL A   1      41.779  25.025  27.624  1.00  0.00     0.148 A 
ATOM     68  C   UNL A   1      43.396  26.056  25.567  1.00  0.00     0.002 A 
ATOM     69  C   UNL A   1      42.170  24.216  26.563  1.00  0.00     0.091 A 
ATOM     70  F   UNL A   1      40.978  24.572  28.599  1.00  0.00    -0.205 F 
ATOM     71  C   UNL A   1      42.966  24.734  25.528  1.00  0.00     0.022 A 
BRANCH  69  72
ATOM     72  S   UNL A   1      41.741  22.474  26.457  1.00  0.00     0.127 S 
ATOM     73  O   UNL A   1      42.318  21.953  27.695  1.00  0.00    -0.237 OA
ATOM     74  O   UNL A   1      40.278  22.519  26.437  1.00  0.00    -0.237 OA
ATOM     75  O   UNL A   1      42.351  21.984  25.229  1.00  0.00    -0.744 OA
ENDBRANCH  69  72
ENDBRANCH  51  65
BRANCH  52  76
ATOM     76  C   UNL A   1      39.314  32.056  35.367  1.00  0.00     0.023 A 
ATOM     77  C   UNL A   1      38.476  31.447  36.322  1.00  0.00     0.012 A 
ATOM     78  C   UNL A   1      39.724  33.389  35.566  1.00  0.00     0.148 A 
ATOM     79  C   UNL A   1      38.025  32.161  37.434  1.00  0.00     0.002 A 
ATOM     80  C   UNL A   1      39.316  34.076  36.704  1.00  0.00     0.091 A 
ATOM     81  F   UNL A   1      40.513  33.956  34.642  1.00  0.00    -0.205 F 
ATOM     82  C   UNL A   1      38.453  33.470  37.630  1.00  0.00     0.022 A 
BRANCH  80  83
ATOM     83  S   UNL A   1      39.928  35.717  37.106  1.00  0.00     0.127 S 
ATOM     84  O   UNL A   1      39.133  36.052  38.286  1.00  0.00    -0.237 OA
ATOM     85  O   UNL A   1      41.344  35.458  37.371  1.00  0.00    -0.237 OA
ATOM     86  O   UNL A   1      39.682  36.527  35.921  1.00  0.00    -0.744 OA
ENDBRANCH  80  83
ENDBRANCH  52  76
BRANCH  64  87
ATOM     87  C   UNL A   1      44.906  28.053  34.151  1.00  0.00     0.023 A 
ATOM     88  C   UNL A   1      46.098  28.783  33.983  1.00  0.00     0.012 A 
ATOM     89  C   UNL A   1      44.832  27.065  35.153  1.00  0.00     0.148 A 
ATOM     90  C   UNL A   1      47.209  28.518  34.781  1.00  0.00     0.002 A 
ATOM     91  C   UNL A   1      45.928  26.838  35.977  1.00  0.00     0.091 A 
ATOM     92  F   UNL A   1      43.694  26.369  35.284  1.00  0.00    -0.205 F 
ATOM     93  C   UNL A   1      47.120  27.556  35.786  1.00  0.00     0.022 A 
BRANCH  91  94
ATOM     94  S   UNL A   1      45.872  25.689  37.357  1.00  0.00     0.127 S 
ATOM     95  O   UNL A   1      47.200  25.863  37.942  1.00  0.00    -0.237 OA
ATOM     96  O   UNL A   1      44.774  26.225  38.162  1.00  0.00    -0.237 OA
ATOM     97  O   UNL A   1      45.610  24.378  36.776  1.00  0.00    -0.744 OA
ENDBRANCH  91  94
ENDBRANCH  64  87
ENDBRANCH  38  39
ENDBRANCH  30  33
ENDBRANCH  28  29
ENDBRANCH  27  28
ENDBRANCH   1  27
TORSDOF 17
ENDMDL
