MODEL 1
REMARK VINA RESULT:     -10.7      0.000      0.000
REMARK SMILES CC(C)(C[NH2+]CCc1cccnc1)C(=O)NCCCNC(=O)c1ccc(-c2c3nc(c(-c4cccc(S(=O)(=O)[O-])c4F)c4ccc([nH]4)c(-c4cccc(S(=O)(=O)[O-])c4F)c4nc(c(-c5cccc(S(=O)(=O)[O-])c5F)c5ccc2[nH]5)C=C4)C=C3)cc1
REMARK SMILES IDX 17 1 16 2 14 3 15 4 2 6 1 7 3 8 4 9 5 10 6 13 7 14 8 15 9 16
REMARK SMILES IDX 13 17 10 18 12 19 11 20 18 21 19 22 20 23 21 24 22 26 23 27
REMARK SMILES IDX 24 28 85 29 25 30 84 31 26 32 27 33 28 34 78 35 29 36 83 37
REMARK SMILES IDX 77 38 79 39 30 40 82 41 76 42 75 43 31 45 63 46 43 47 62 48
REMARK SMILES IDX 44 49 47 50 61 51 80 52 45 53 46 54 60 56 81 57 48 58 32 59
REMARK SMILES IDX 33 60 41 61 34 62 36 63 42 64 35 65 37 66 38 67 39 68 40 69
REMARK SMILES IDX 64 70 65 71 73 72 66 73 68 74 74 75 67 76 69 77 70 78 71 79
REMARK SMILES IDX 72 80 49 81 50 82 58 83 51 84 53 85 59 86 52 87 54 88 55 89
REMARK SMILES IDX 56 90 57 91
REMARK H PARENT 16 5 5 11 5 12 20 25 79 44 47 55
REMARK Flexibility Score: inf
ROOT
ATOM      1  C   UNL A   1      33.458  28.121  25.139  1.00  0.00     0.117 C 
ENDROOT
BRANCH   1   2
ATOM      2  N   UNL A   1      33.547  27.446  23.858  1.00  0.00    -0.355 N 
ATOM      3  C   UNL A   1      32.968  26.317  23.368  1.00  0.00     0.231 C 
ATOM      4  O   UNL A   1      33.244  26.045  22.192  1.00  0.00    -0.274 OA
ATOM      5  H   UNL A   1      34.145  27.893  23.217  1.00  0.00     0.163 HD
BRANCH   3   6
ATOM      6  C   UNL A   1      31.969  25.461  24.174  1.00  0.00     0.092 C 
ATOM      7  C   UNL A   1      32.744  24.742  25.311  1.00  0.00     0.027 C 
ATOM      8  C   UNL A   1      31.405  24.343  23.275  1.00  0.00     0.027 C 
BRANCH   6   9
ATOM      9  C   UNL A   1      30.822  26.299  24.798  1.00  0.00     0.276 C 
BRANCH   9  10
ATOM     10  N   UNL A   1      29.514  26.044  24.191  1.00  0.00    -0.345 N 
ATOM     11  H   UNL A   1      28.888  25.689  24.915  1.00  0.00     0.346 HD
ATOM     12  H   UNL A   1      29.661  25.372  23.439  1.00  0.00     0.346 HD
BRANCH  10  13
ATOM     13  C   UNL A   1      28.897  27.233  23.588  1.00  0.00     0.265 C 
BRANCH  13  14
ATOM     14  C   UNL A   1      29.864  28.283  23.012  1.00  0.00     0.098 C 
BRANCH  14  15
ATOM     15  C   UNL A   1      29.254  29.643  22.789  1.00  0.00    -0.024 A 
ATOM     16  C   UNL A   1      29.357  30.663  23.739  1.00  0.00     0.007 A 
ATOM     17  C   UNL A   1      28.560  29.933  21.617  1.00  0.00     0.114 A 
ATOM     18  C   UNL A   1      28.762  31.896  23.493  1.00  0.00     0.020 A 
ATOM     19  N   UNL A   1      27.967  31.119  21.352  1.00  0.00    -0.264 NA
ATOM     20  C   UNL A   1      28.086  32.074  22.299  1.00  0.00     0.111 A 
ENDBRANCH  14  15
ENDBRANCH  13  14
ENDBRANCH  10  13
ENDBRANCH   9  10
ENDBRANCH   6   9
ENDBRANCH   3   6
ENDBRANCH   1   2
BRANCH   1  21
ATOM     21  C   UNL A   1      32.806  29.494  25.037  1.00  0.00     0.042 C 
BRANCH  21  22
ATOM     22  C   UNL A   1      32.090  29.938  26.307  1.00  0.00     0.118 C 
BRANCH  22  23
ATOM     23  N   UNL A   1      32.105  31.386  26.482  1.00  0.00    -0.352 N 
ATOM     24  C   UNL A   1      32.932  32.184  27.230  1.00  0.00     0.251 C 
ATOM     25  H   UNL A   1      31.408  31.870  25.981  1.00  0.00     0.163 HD
ATOM     26  O   UNL A   1      32.633  33.368  27.401  1.00  0.00    -0.269 OA
BRANCH  24  27
ATOM     27  C   UNL A   1      34.163  31.639  27.841  1.00  0.00     0.039 A 
ATOM     28  C   UNL A   1      35.249  32.493  28.056  1.00  0.00     0.014 A 
ATOM     29  C   UNL A   1      34.265  30.287  28.177  1.00  0.00     0.014 A 
ATOM     30  C   UNL A   1      36.405  32.007  28.672  1.00  0.00     0.010 A 
ATOM     31  C   UNL A   1      35.381  29.825  28.867  1.00  0.00     0.010 A 
ATOM     32  C   UNL A   1      36.466  30.676  29.119  1.00  0.00    -0.014 A 
BRANCH  32  33
ATOM     33  C   UNL A   1      37.644  30.166  29.869  1.00  0.00     0.031 A 
ATOM     34  C   UNL A   1      37.925  30.650  31.267  1.00  0.00     0.074 A 
ATOM     35  C   UNL A   1      38.515  29.340  29.254  1.00  0.00     0.049 A 
ATOM     36  N   UNL A   1      38.938  30.371  32.046  1.00  0.00    -0.248 NA
ATOM     37  C   UNL A   1      36.959  31.592  31.861  1.00  0.00     0.031 C 
ATOM     38  C   UNL A   1      38.401  28.867  27.872  1.00  0.00     0.029 A 
ATOM     39  N   UNL A   1      39.687  28.778  29.698  1.00  0.00    -0.354 N 
ATOM     40  C   UNL A   1      38.759  31.133  33.194  1.00  0.00     0.074 A 
ATOM     41  C   UNL A   1      37.549  31.902  33.007  1.00  0.00     0.031 C 
ATOM     42  C   UNL A   1      39.460  28.096  27.580  1.00  0.00     0.029 A 
ATOM     43  C   UNL A   1      40.347  28.047  28.737  1.00  0.00     0.049 A 
ATOM     44  H   UNL A   1      40.022  28.888  30.617  1.00  0.00     0.167 HD
ATOM     45  C   UNL A   1      39.522  31.172  34.312  1.00  0.00     0.034 A 
ATOM     46  C   UNL A   1      41.542  27.424  28.774  1.00  0.00     0.034 A 
ATOM     47  C   UNL A   1      40.695  30.367  34.516  1.00  0.00     0.049 A 
ATOM     48  C   UNL A   1      42.337  27.444  30.051  1.00  0.00     0.074 A 
ATOM     49  C   UNL A   1      41.465  30.250  35.661  1.00  0.00     0.029 A 
ATOM     50  N   UNL A   1      41.278  29.557  33.556  1.00  0.00    -0.354 N 
ATOM     51  N   UNL A   1      42.053  28.023  31.192  1.00  0.00    -0.248 NA
ATOM     52  C   UNL A   1      43.603  26.694  30.061  1.00  0.00     0.031 C 
ATOM     53  C   UNL A   1      42.538  29.398  35.380  1.00  0.00     0.029 A 
ATOM     54  C   UNL A   1      42.411  28.952  34.075  1.00  0.00     0.049 A 
ATOM     55  H   UNL A   1      40.938  29.429  32.641  1.00  0.00     0.167 HD
ATOM     56  C   UNL A   1      43.081  27.678  32.062  1.00  0.00     0.074 A 
ATOM     57  C   UNL A   1      43.981  26.819  31.325  1.00  0.00     0.031 C 
ATOM     58  C   UNL A   1      43.270  28.054  33.350  1.00  0.00     0.034 A 
BRANCH  45  59
ATOM     59  C   UNL A   1      39.100  32.085  35.433  1.00  0.00     0.023 A 
ATOM     60  C   UNL A   1      38.264  31.598  36.455  1.00  0.00     0.012 A 
ATOM     61  C   UNL A   1      39.625  33.389  35.530  1.00  0.00     0.148 A 
ATOM     62  C   UNL A   1      37.940  32.399  37.550  1.00  0.00     0.002 A 
ATOM     63  C   UNL A   1      39.336  34.166  36.645  1.00  0.00     0.091 A 
ATOM     64  F   UNL A   1      40.406  33.838  34.537  1.00  0.00    -0.205 F 
ATOM     65  C   UNL A   1      38.486  33.677  37.651  1.00  0.00     0.022 A 
BRANCH  63  66
ATOM     66  S   UNL A   1      40.059  35.788  36.914  1.00  0.00     0.127 S 
ATOM     67  O   UNL A   1      39.604  36.513  35.727  1.00  0.00    -0.237 OA
ATOM     68  O   UNL A   1      39.421  36.202  38.164  1.00  0.00    -0.237 OA
ATOM     69  O   UNL A   1      41.497  35.582  36.999  1.00  0.00    -0.744 OA
ENDBRANCH  63  66
ENDBRANCH  45  59
BRANCH  46  70
ATOM     70  C   UNL A   1      42.051  26.701  27.574  1.00  0.00     0.023 A 
ATOM     71  C   UNL A   1      42.730  27.413  26.565  1.00  0.00     0.012 A 
ATOM     72  C   UNL A   1      41.860  25.314  27.423  1.00  0.00     0.148 A 
ATOM     73  C   UNL A   1      43.166  26.766  25.407  1.00  0.00     0.002 A 
ATOM     74  C   UNL A   1      42.352  24.665  26.296  1.00  0.00     0.091 A 
ATOM     75  F   UNL A   1      41.201  24.654  28.385  1.00  0.00    -0.205 F 
ATOM     76  C   UNL A   1      42.984  25.392  25.277  1.00  0.00     0.022 A 
BRANCH  74  77
ATOM     77  S   UNL A   1      42.284  22.878  26.118  1.00  0.00     0.127 S 
ATOM     78  O   UNL A   1      40.846  22.627  26.163  1.00  0.00    -0.237 OA
ATOM     79  O   UNL A   1      42.905  22.679  24.808  1.00  0.00    -0.237 OA
ATOM     80  O   UNL A   1      43.059  22.346  27.230  1.00  0.00    -0.744 OA
ENDBRANCH  74  77
ENDBRANCH  46  70
BRANCH  58  81
ATOM     81  C   UNL A   1      44.473  27.505  34.072  1.00  0.00     0.023 A 
ATOM     82  C   UNL A   1      45.696  28.202  34.035  1.00  0.00     0.012 A 
ATOM     83  C   UNL A   1      44.367  26.334  34.848  1.00  0.00     0.148 A 
ATOM     84  C   UNL A   1      46.805  27.724  34.732  1.00  0.00     0.002 A 
ATOM     85  C   UNL A   1      45.459  25.892  35.583  1.00  0.00     0.091 A 
ATOM     86  F   UNL A   1      43.198  25.675  34.856  1.00  0.00    -0.205 F 
ATOM     87  C   UNL A   1      46.683  26.578  35.514  1.00  0.00     0.022 A 
BRANCH  85  88
ATOM     88  S   UNL A   1      45.368  24.486  36.696  1.00  0.00     0.127 S 
ATOM     89  O   UNL A   1      44.970  23.413  35.787  1.00  0.00    -0.237 OA
ATOM     90  O   UNL A   1      46.743  24.391  37.186  1.00  0.00    -0.237 OA
ATOM     91  O   UNL A   1      44.386  24.839  37.712  1.00  0.00    -0.744 OA
ENDBRANCH  85  88
ENDBRANCH  58  81
ENDBRANCH  32  33
ENDBRANCH  24  27
ENDBRANCH  22  23
ENDBRANCH  21  22
ENDBRANCH   1  21
TORSDOF 18
ENDMDL
MODEL 2
REMARK VINA RESULT:     -10.7      5.137     10.186
REMARK SMILES CC(C)(C[NH2+]CCc1cccnc1)C(=O)NCCCNC(=O)c1ccc(-c2c3nc(c(-c4cccc(S(=O)(=O)[O-])c4F)c4ccc([nH]4)c(-c4cccc(S(=O)(=O)[O-])c4F)c4nc(c(-c5cccc(S(=O)(=O)[O-])c5F)c5ccc2[nH]5)C=C4)C=C3)cc1
REMARK SMILES IDX 17 1 16 2 14 3 15 4 2 6 1 7 3 8 4 9 5 10 6 13 7 14 8 15 9 16
REMARK SMILES IDX 13 17 10 18 12 19 11 20 18 21 19 22 20 23 21 24 22 26 23 27
REMARK SMILES IDX 24 28 85 29 25 30 84 31 26 32 27 33 28 34 78 35 29 36 83 37
REMARK SMILES IDX 77 38 79 39 30 40 82 41 76 42 75 43 31 45 63 46 43 47 62 48
REMARK SMILES IDX 44 49 47 50 61 51 80 52 45 53 46 54 60 56 81 57 48 58 32 59
REMARK SMILES IDX 33 60 41 61 34 62 36 63 42 64 35 65 37 66 38 67 39 68 40 69
REMARK SMILES IDX 64 70 65 71 73 72 66 73 68 74 74 75 67 76 69 77 70 78 71 79
REMARK SMILES IDX 72 80 49 81 50 82 58 83 51 84 53 85 59 86 52 87 54 88 55 89
REMARK SMILES IDX 56 90 57 91
REMARK H PARENT 16 5 5 11 5 12 20 25 79 44 47 55
REMARK Flexibility Score: inf
ROOT
ATOM      1  C   UNL A   1      35.795  22.945  26.357  1.00  0.00     0.117 C 
ENDROOT
BRANCH   1   2
ATOM      2  N   UNL A   1      34.778  22.554  27.315  1.00  0.00    -0.355 N 
ATOM      3  C   UNL A   1      33.437  22.772  27.378  1.00  0.00     0.231 C 
ATOM      4  O   UNL A   1      32.859  22.250  28.339  1.00  0.00    -0.274 OA
ATOM      5  H   UNL A   1      35.129  22.029  28.070  1.00  0.00     0.163 HD
BRANCH   3   6
ATOM      6  C   UNL A   1      32.655  23.543  26.294  1.00  0.00     0.092 C 
ATOM      7  C   UNL A   1      32.552  22.647  25.031  1.00  0.00     0.027 C 
ATOM      8  C   UNL A   1      33.460  24.786  25.864  1.00  0.00     0.027 C 
BRANCH   6   9
ATOM      9  C   UNL A   1      31.226  23.940  26.748  1.00  0.00     0.276 C 
BRANCH   9  10
ATOM     10  N   UNL A   1      30.357  24.358  25.645  1.00  0.00    -0.345 N 
ATOM     11  H   UNL A   1      29.550  23.734  25.619  1.00  0.00     0.346 HD
ATOM     12  H   UNL A   1      30.915  24.312  24.793  1.00  0.00     0.346 HD
BRANCH  10  13
ATOM     13  C   UNL A   1      29.869  25.739  25.763  1.00  0.00     0.265 C 
BRANCH  13  14
ATOM     14  C   UNL A   1      30.487  26.763  24.793  1.00  0.00     0.098 C 
BRANCH  14  15
ATOM     15  C   UNL A   1      31.342  27.816  25.452  1.00  0.00    -0.024 A 
ATOM     16  C   UNL A   1      31.538  27.848  26.835  1.00  0.00     0.007 A 
ATOM     17  C   UNL A   1      31.970  28.803  24.697  1.00  0.00     0.114 A 
ATOM     18  C   UNL A   1      32.323  28.850  27.397  1.00  0.00     0.020 A 
ATOM     19  N   UNL A   1      32.733  29.792  25.215  1.00  0.00    -0.264 NA
ATOM     20  C   UNL A   1      32.892  29.789  26.555  1.00  0.00     0.111 A 
ENDBRANCH  14  15
ENDBRANCH  13  14
ENDBRANCH  10  13
ENDBRANCH   9  10
ENDBRANCH   6   9
ENDBRANCH   3   6
ENDBRANCH   1   2
BRANCH   1  21
ATOM     21  C   UNL A   1      36.243  21.790  25.469  1.00  0.00     0.042 C 
BRANCH  21  22
ATOM     22  C   UNL A   1      37.690  21.889  25.003  1.00  0.00     0.118 C 
BRANCH  22  23
ATOM     23  N   UNL A   1      38.569  20.957  25.700  1.00  0.00    -0.352 N 
ATOM     24  C   UNL A   1      39.706  21.184  26.434  1.00  0.00     0.251 C 
ATOM     25  H   UNL A   1      38.303  20.010  25.634  1.00  0.00     0.163 HD
ATOM     26  O   UNL A   1      40.412  20.227  26.759  1.00  0.00    -0.269 OA
BRANCH  24  27
ATOM     27  C   UNL A   1      40.097  22.555  26.823  1.00  0.00     0.039 A 
ATOM     28  C   UNL A   1      41.000  22.730  27.875  1.00  0.00     0.014 A 
ATOM     29  C   UNL A   1      39.558  23.670  26.176  1.00  0.00     0.014 A 
ATOM     30  C   UNL A   1      41.414  24.016  28.230  1.00  0.00     0.010 A 
ATOM     31  C   UNL A   1      40.037  24.943  26.472  1.00  0.00     0.010 A 
ATOM     32  C   UNL A   1      40.966  25.133  27.504  1.00  0.00    -0.014 A 
BRANCH  32  33
ATOM     33  C   UNL A   1      41.475  26.499  27.795  1.00  0.00     0.031 A 
ATOM     34  C   UNL A   1      42.895  26.871  27.461  1.00  0.00     0.074 A 
ATOM     35  C   UNL A   1      40.685  27.375  28.450  1.00  0.00     0.049 A 
ATOM     36  N   UNL A   1      43.532  27.987  27.704  1.00  0.00    -0.248 NA
ATOM     37  C   UNL A   1      43.719  25.849  26.792  1.00  0.00     0.031 C 
ATOM     38  C   UNL A   1      39.319  27.105  28.907  1.00  0.00     0.029 A 
ATOM     39  N   UNL A   1      40.927  28.657  28.877  1.00  0.00    -0.354 N 
ATOM     40  C   UNL A   1      44.835  27.788  27.264  1.00  0.00     0.074 A 
ATOM     41  C   UNL A   1      44.907  26.437  26.755  1.00  0.00     0.031 C 
ATOM     42  C   UNL A   1      38.849  28.183  29.555  1.00  0.00     0.029 A 
ATOM     43  C   UNL A   1      39.888  29.207  29.593  1.00  0.00     0.049 A 
ATOM     44  H   UNL A   1      41.765  29.138  28.690  1.00  0.00     0.167 HD
ATOM     45  C   UNL A   1      45.872  28.658  27.266  1.00  0.00     0.034 A 
ATOM     46  C   UNL A   1      39.787  30.392  30.229  1.00  0.00     0.034 A 
ATOM     47  C   UNL A   1      45.782  30.018  27.725  1.00  0.00     0.049 A 
ATOM     48  C   UNL A   1      40.941  31.355  30.163  1.00  0.00     0.074 A 
ATOM     49  C   UNL A   1      46.745  31.010  27.656  1.00  0.00     0.029 A 
ATOM     50  N   UNL A   1      44.679  30.573  28.350  1.00  0.00    -0.354 N 
ATOM     51  N   UNL A   1      42.103  31.212  29.576  1.00  0.00    -0.248 NA
ATOM     52  C   UNL A   1      40.757  32.661  30.816  1.00  0.00     0.031 C 
ATOM     53  C   UNL A   1      46.237  32.156  28.276  1.00  0.00     0.029 A 
ATOM     54  C   UNL A   1      44.944  31.888  28.693  1.00  0.00     0.049 A 
ATOM     55  H   UNL A   1      43.832  30.103  28.526  1.00  0.00     0.167 HD
ATOM     56  C   UNL A   1      42.773  32.418  29.756  1.00  0.00     0.074 A 
ATOM     57  C   UNL A   1      41.876  33.289  30.485  1.00  0.00     0.031 C 
ATOM     58  C   UNL A   1      44.024  32.765  29.368  1.00  0.00     0.034 A 
BRANCH  45  59
ATOM     59  C   UNL A   1      47.195  28.194  26.717  1.00  0.00     0.023 A 
ATOM     60  C   UNL A   1      48.213  27.785  27.599  1.00  0.00     0.012 A 
ATOM     61  C   UNL A   1      47.386  28.057  25.328  1.00  0.00     0.148 A 
ATOM     62  C   UNL A   1      49.410  27.263  27.108  1.00  0.00     0.002 A 
ATOM     63  C   UNL A   1      48.561  27.494  24.846  1.00  0.00     0.091 A 
ATOM     64  F   UNL A   1      46.409  28.469  24.506  1.00  0.00    -0.205 F 
ATOM     65  C   UNL A   1      49.578  27.106  25.734  1.00  0.00     0.022 A 
BRANCH  63  66
ATOM     66  S   UNL A   1      48.840  27.167  23.102  1.00  0.00     0.127 S 
ATOM     67  O   UNL A   1      48.183  25.871  22.938  1.00  0.00    -0.237 OA
ATOM     68  O   UNL A   1      48.146  28.288  22.468  1.00  0.00    -0.237 OA
ATOM     69  O   UNL A   1      50.284  27.157  22.918  1.00  0.00    -0.744 OA
ENDBRANCH  63  66
ENDBRANCH  45  59
BRANCH  46  70
ATOM     70  C   UNL A   1      38.538  30.749  30.960  1.00  0.00     0.023 A 
ATOM     71  C   UNL A   1      38.402  30.407  32.320  1.00  0.00     0.012 A 
ATOM     72  C   UNL A   1      37.483  31.421  30.314  1.00  0.00     0.148 A 
ATOM     73  C   UNL A   1      37.220  30.683  33.009  1.00  0.00     0.002 A 
ATOM     74  C   UNL A   1      36.333  31.749  31.022  1.00  0.00     0.091 A 
ATOM     75  F   UNL A   1      37.623  31.729  29.017  1.00  0.00    -0.205 F 
ATOM     76  C   UNL A   1      36.189  31.361  32.363  1.00  0.00     0.022 A 
BRANCH  74  77
ATOM     77  S   UNL A   1      35.021  32.744  30.304  1.00  0.00     0.127 S 
ATOM     78  O   UNL A   1      34.146  32.961  31.454  1.00  0.00    -0.237 OA
ATOM     79  O   UNL A   1      35.751  33.930  29.852  1.00  0.00    -0.237 OA
ATOM     80  O   UNL A   1      34.467  31.939  29.224  1.00  0.00    -0.744 OA
ENDBRANCH  74  77
ENDBRANCH  46  70
BRANCH  58  81
ATOM     81  C   UNL A   1      44.492  34.163  29.678  1.00  0.00     0.023 A 
ATOM     82  C   UNL A   1      45.093  34.446  30.919  1.00  0.00     0.012 A 
ATOM     83  C   UNL A   1      44.401  35.178  28.705  1.00  0.00     0.148 A 
ATOM     84  C   UNL A   1      45.567  35.727  31.201  1.00  0.00     0.002 A 
ATOM     85  C   UNL A   1      44.922  36.437  28.972  1.00  0.00     0.091 A 
ATOM     86  F   UNL A   1      43.809  34.893  27.536  1.00  0.00    -0.205 F 
ATOM     87  C   UNL A   1      45.492  36.717  30.225  1.00  0.00     0.022 A 
BRANCH  85  88
ATOM     88  S   UNL A   1      44.962  37.746  27.742  1.00  0.00     0.127 S 
ATOM     89  O   UNL A   1      45.201  38.926  28.571  1.00  0.00    -0.237 OA
ATOM     90  O   UNL A   1      46.095  37.348  26.905  1.00  0.00    -0.237 OA
ATOM     91  O   UNL A   1      43.670  37.706  27.070  1.00  0.00    -0.744 OA
ENDBRANCH  85  88
ENDBRANCH  58  81
ENDBRANCH  32  33
ENDBRANCH  24  27
ENDBRANCH  22  23
ENDBRANCH  21  22
ENDBRANCH   1  21
TORSDOF 18
ENDMDL
MODEL 3
REMARK VINA RESULT:     -10.6      2.746      3.427
REMARK SMILES CC(C)(C[NH2+]CCc1cccnc1)C(=O)NCCCNC(=O)c1ccc(-c2c3nc(c(-c4cccc(S(=O)(=O)[O-])c4F)c4ccc([nH]4)c(-c4cccc(S(=O)(=O)[O-])c4F)c4nc(c(-c5cccc(S(=O)(=O)[O-])c5F)c5ccc2[nH]5)C=C4)C=C3)cc1
REMARK SMILES IDX 17 1 16 2 14 3 15 4 2 6 1 7 3 8 4 9 5 10 6 13 7 14 8 15 9 16
REMARK SMILES IDX 13 17 10 18 12 19 11 20 18 21 19 22 20 23 21 24 22 26 23 27
REMARK SMILES IDX 24 28 85 29 25 30 84 31 26 32 27 33 28 34 78 35 29 36 83 37
REMARK SMILES IDX 77 38 79 39 30 40 82 41 76 42 75 43 31 45 63 46 43 47 62 48
REMARK SMILES IDX 44 49 47 50 61 51 80 52 45 53 46 54 60 56 81 57 48 58 32 59
REMARK SMILES IDX 33 60 41 61 34 62 36 63 42 64 35 65 37 66 38 67 39 68 40 69
REMARK SMILES IDX 64 70 65 71 73 72 66 73 68 74 74 75 67 76 69 77 70 78 71 79
REMARK SMILES IDX 72 80 49 81 50 82 58 83 51 84 53 85 59 86 52 87 54 88 55 89
REMARK SMILES IDX 56 90 57 91
REMARK H PARENT 16 5 5 11 5 12 20 25 79 44 47 55
REMARK Flexibility Score: inf
ROOT
ATOM      1  C   UNL A   1      31.752  27.658  26.354  1.00  0.00     0.117 C 
ENDROOT
BRANCH   1   2
ATOM      2  N   UNL A   1      31.124  26.420  26.773  1.00  0.00    -0.355 N 
ATOM      3  C   UNL A   1      30.879  25.246  26.132  1.00  0.00     0.231 C 
ATOM      4  O   UNL A   1      30.345  24.366  26.819  1.00  0.00    -0.274 OA
ATOM      5  H   UNL A   1      30.812  26.432  27.707  1.00  0.00     0.163 HD
BRANCH   3   6
ATOM      6  C   UNL A   1      31.302  24.976  24.674  1.00  0.00     0.092 C 
ATOM      7  C   UNL A   1      30.963  23.502  24.327  1.00  0.00     0.027 C 
ATOM      8  C   UNL A   1      32.834  25.095  24.551  1.00  0.00     0.027 C 
BRANCH   6   9
ATOM      9  C   UNL A   1      30.593  25.908  23.656  1.00  0.00     0.276 C 
BRANCH   9  10
ATOM     10  N   UNL A   1      29.167  26.099  23.932  1.00  0.00    -0.345 N 
ATOM     11  H   UNL A   1      29.019  26.001  24.936  1.00  0.00     0.346 HD
ATOM     12  H   UNL A   1      28.663  25.398  23.391  1.00  0.00     0.346 HD
BRANCH  10  13
ATOM     13  C   UNL A   1      28.652  27.411  23.515  1.00  0.00     0.265 C 
BRANCH  13  14
ATOM     14  C   UNL A   1      29.706  28.454  23.097  1.00  0.00     0.098 C 
BRANCH  14  15
ATOM     15  C   UNL A   1      29.144  29.808  22.747  1.00  0.00    -0.024 A 
ATOM     16  C   UNL A   1      29.163  30.872  23.652  1.00  0.00     0.007 A 
ATOM     17  C   UNL A   1      28.580  30.046  21.496  1.00  0.00     0.114 A 
ATOM     18  C   UNL A   1      28.617  32.098  23.286  1.00  0.00     0.020 A 
ATOM     19  N   UNL A   1      28.036  31.225  21.114  1.00  0.00    -0.264 NA
ATOM     20  C   UNL A   1      28.071  32.224  22.021  1.00  0.00     0.111 A 
ENDBRANCH  14  15
ENDBRANCH  13  14
ENDBRANCH  10  13
ENDBRANCH   9  10
ENDBRANCH   6   9
ENDBRANCH   3   6
ENDBRANCH   1   2
BRANCH   1  21
ATOM     21  C   UNL A   1      32.898  28.076  27.266  1.00  0.00     0.042 C 
BRANCH  21  22
ATOM     22  C   UNL A   1      33.982  28.888  26.569  1.00  0.00     0.118 C 
BRANCH  22  23
ATOM     23  N   UNL A   1      33.864  30.319  26.826  1.00  0.00    -0.352 N 
ATOM     24  C   UNL A   1      34.597  31.141  27.645  1.00  0.00     0.251 C 
ATOM     25  H   UNL A   1      33.140  30.770  26.332  1.00  0.00     0.163 HD
ATOM     26  O   UNL A   1      34.190  32.282  27.873  1.00  0.00    -0.269 OA
BRANCH  24  27
ATOM     27  C   UNL A   1      35.855  30.670  28.263  1.00  0.00     0.039 A 
ATOM     28  C   UNL A   1      35.791  29.757  29.319  1.00  0.00     0.014 A 
ATOM     29  C   UNL A   1      37.095  31.144  27.828  1.00  0.00     0.014 A 
ATOM     30  C   UNL A   1      36.969  29.267  29.888  1.00  0.00     0.010 A 
ATOM     31  C   UNL A   1      38.267  30.591  28.336  1.00  0.00     0.010 A 
ATOM     32  C   UNL A   1      38.220  29.651  29.374  1.00  0.00    -0.014 A 
BRANCH  32  33
ATOM     33  C   UNL A   1      39.483  29.063  29.893  1.00  0.00     0.031 A 
ATOM     34  C   UNL A   1      40.222  29.724  31.027  1.00  0.00     0.074 A 
ATOM     35  C   UNL A   1      40.015  27.988  29.278  1.00  0.00     0.049 A 
ATOM     36  N   UNL A   1      41.369  29.396  31.562  1.00  0.00    -0.248 NA
ATOM     37  C   UNL A   1      39.609  30.925  31.621  1.00  0.00     0.031 C 
ATOM     38  C   UNL A   1      39.442  27.309  28.112  1.00  0.00     0.029 A 
ATOM     39  N   UNL A   1      41.177  27.297  29.521  1.00  0.00    -0.354 N 
ATOM     40  C   UNL A   1      41.637  30.369  32.518  1.00  0.00     0.074 A 
ATOM     41  C   UNL A   1      40.543  31.313  32.478  1.00  0.00     0.031 C 
ATOM     42  C   UNL A   1      40.254  26.307  27.740  1.00  0.00     0.029 A 
ATOM     43  C   UNL A   1      41.423  26.293  28.613  1.00  0.00     0.049 A 
ATOM     44  H   UNL A   1      41.777  27.501  30.274  1.00  0.00     0.167 HD
ATOM     45  C   UNL A   1      42.690  30.458  33.364  1.00  0.00     0.034 A 
ATOM     46  C   UNL A   1      42.480  25.466  28.481  1.00  0.00     0.034 A 
ATOM     47  C   UNL A   1      43.750  29.489  33.437  1.00  0.00     0.049 A 
ATOM     48  C   UNL A   1      43.607  25.558  29.474  1.00  0.00     0.074 A 
ATOM     49  C   UNL A   1      44.795  29.429  34.342  1.00  0.00     0.029 A 
ATOM     50  N   UNL A   1      43.912  28.424  32.567  1.00  0.00    -0.354 N 
ATOM     51  N   UNL A   1      43.748  26.374  30.489  1.00  0.00    -0.248 NA
ATOM     52  C   UNL A   1      44.705  24.590  29.328  1.00  0.00     0.031 C 
ATOM     53  C   UNL A   1      45.613  28.349  33.995  1.00  0.00     0.029 A 
ATOM     54  C   UNL A   1      45.052  27.713  32.900  1.00  0.00     0.049 A 
ATOM     55  H   UNL A   1      43.307  28.204  31.822  1.00  0.00     0.167 HD
ATOM     56  C   UNL A   1      44.927  25.996  31.122  1.00  0.00     0.074 A 
ATOM     57  C   UNL A   1      45.448  24.861  30.391  1.00  0.00     0.031 C 
ATOM     58  C   UNL A   1      45.532  26.551  32.200  1.00  0.00     0.034 A 
BRANCH  45  59
ATOM     59  C   UNL A   1      42.741  31.619  34.321  1.00  0.00     0.023 A 
ATOM     60  C   UNL A   1      43.311  32.840  33.911  1.00  0.00     0.012 A 
ATOM     61  C   UNL A   1      42.124  31.534  35.584  1.00  0.00     0.148 A 
ATOM     62  C   UNL A   1      43.284  33.953  34.749  1.00  0.00     0.002 A 
ATOM     63  C   UNL A   1      42.058  32.659  36.396  1.00  0.00     0.091 A 
ATOM     64  F   UNL A   1      41.602  30.358  35.962  1.00  0.00    -0.205 F 
ATOM     65  C   UNL A   1      42.646  33.867  35.985  1.00  0.00     0.022 A 
BRANCH  63  66
ATOM     66  S   UNL A   1      41.184  32.677  37.965  1.00  0.00     0.127 S 
ATOM     67  O   UNL A   1      39.865  32.181  37.573  1.00  0.00    -0.237 OA
ATOM     68  O   UNL A   1      41.975  31.742  38.765  1.00  0.00    -0.237 OA
ATOM     69  O   UNL A   1      41.213  34.057  38.429  1.00  0.00    -0.744 OA
ENDBRANCH  63  66
ENDBRANCH  45  59
BRANCH  46  70
ATOM     70  C   UNL A   1      42.514  24.457  27.384  1.00  0.00     0.023 A 
ATOM     71  C   UNL A   1      43.131  24.777  26.158  1.00  0.00     0.012 A 
ATOM     72  C   UNL A   1      41.932  23.185  27.546  1.00  0.00     0.148 A 
ATOM     73  C   UNL A   1      43.126  23.868  25.100  1.00  0.00     0.002 A 
ATOM     74  C   UNL A   1      41.985  22.261  26.509  1.00  0.00     0.091 A 
ATOM     75  F   UNL A   1      41.338  22.901  28.713  1.00  0.00    -0.205 F 
ATOM     76  C   UNL A   1      42.561  22.608  25.277  1.00  0.00     0.022 A 
BRANCH  74  77
ATOM     77  S   UNL A   1      41.407  20.571  26.705  1.00  0.00     0.127 S 
ATOM     78  O   UNL A   1      39.962  20.759  26.802  1.00  0.00    -0.237 OA
ATOM     79  O   UNL A   1      41.867  19.947  25.464  1.00  0.00    -0.237 OA
ATOM     80  O   UNL A   1      42.067  20.070  27.903  1.00  0.00    -0.744 OA
ENDBRANCH  74  77
ENDBRANCH  46  70
BRANCH  58  81
ATOM     81  C   UNL A   1      46.805  25.915  32.694  1.00  0.00     0.023 A 
ATOM     82  C   UNL A   1      46.761  24.965  33.733  1.00  0.00     0.012 A 
ATOM     83  C   UNL A   1      48.037  26.207  32.074  1.00  0.00     0.148 A 
ATOM     84  C   UNL A   1      47.929  24.341  34.171  1.00  0.00     0.002 A 
ATOM     85  C   UNL A   1      49.187  25.542  32.479  1.00  0.00     0.091 A 
ATOM     86  F   UNL A   1      48.059  27.127  31.098  1.00  0.00    -0.205 F 
ATOM     87  C   UNL A   1      49.137  24.620  33.537  1.00  0.00     0.022 A 
BRANCH  85  88
ATOM     88  S   UNL A   1      50.768  25.762  31.655  1.00  0.00     0.127 S 
ATOM     89  O   UNL A   1      51.682  25.100  32.584  1.00  0.00    -0.237 OA
ATOM     90  O   UNL A   1      50.560  25.050  30.394  1.00  0.00    -0.237 OA
ATOM     91  O   UNL A   1      50.952  27.200  31.515  1.00  0.00    -0.744 OA
ENDBRANCH  85  88
ENDBRANCH  58  81
ENDBRANCH  32  33
ENDBRANCH  24  27
ENDBRANCH  22  23
ENDBRANCH  21  22
ENDBRANCH   1  21
TORSDOF 18
ENDMDL
