MODEL 1
REMARK VINA RESULT:     -12.6      0.000      0.000
REMARK SMILES CC[C@@H](C(=O)Nc1ccc(OC(C)=O)cc1C(=O)NCCCNC(=O)c1ccc(-c2c3nc(c(-c4cccc(S(=O)(=O)[O-])c4F)c4ccc([nH]4)c(-c4cccc(S(=O)(=O)[O-])c4F)c4nc(c(-c5cccc(S(=O)(=O)[O-])c5F)c5ccc2[nH]5)C=C4)C=C3)cc1)c1ccccc1
REMARK SMILES IDX 21 1 20 2 19 3 17 4 18 5 16 7 7 8 8 9 9 10 15 11 10 12 6 13
REMARK SMILES IDX 4 14 5 15 3 17 2 18 1 19 89 20 90 21 94 22 91 23 93 24 92 25
REMARK SMILES IDX 11 26 12 27 13 28 14 29 22 30 23 31 24 32 25 34 26 35 27 36
REMARK SMILES IDX 88 37 28 38 87 39 29 40 30 41 31 42 81 43 32 44 86 45 80 46
REMARK SMILES IDX 82 47 33 48 85 49 79 50 78 51 34 53 66 54 46 55 65 56 47 57
REMARK SMILES IDX 50 58 64 59 83 60 48 61 49 62 63 64 84 65 51 66 35 67 36 68
REMARK SMILES IDX 44 69 37 70 39 71 45 72 38 73 40 74 41 75 42 76 43 77 67 78
REMARK SMILES IDX 68 79 76 80 69 81 71 82 77 83 70 84 72 85 73 86 74 87 75 88
REMARK SMILES IDX 52 89 53 90 61 91 54 92 56 93 62 94 55 95 57 96 58 97 59 98
REMARK SMILES IDX 60 99
REMARK H PARENT 19 6 6 16 23 33 82 52 50 63
REMARK Flexibility Score: inf
ROOT
ATOM      1  C   UNL A   1      36.306  21.869  26.074  1.00  0.00     0.042 C 
ENDROOT
BRANCH   1   2
ATOM      2  C   UNL A   1      35.764  23.256  26.352  1.00  0.00     0.118 C 
BRANCH   2   3
ATOM      3  N   UNL A   1      34.478  23.233  27.017  1.00  0.00    -0.352 N 
ATOM      4  C   UNL A   1      33.255  22.793  26.609  1.00  0.00     0.253 C 
ATOM      5  O   UNL A   1      32.338  22.850  27.434  1.00  0.00    -0.269 OA
ATOM      6  H   UNL A   1      34.491  23.603  27.930  1.00  0.00     0.163 HD
BRANCH   4   7
ATOM      7  C   UNL A   1      32.948  22.256  25.253  1.00  0.00     0.067 A 
ATOM      8  C   UNL A   1      32.949  22.910  24.004  1.00  0.00     0.054 A 
ATOM      9  C   UNL A   1      32.446  22.217  22.881  1.00  0.00     0.031 A 
ATOM     10  C   UNL A   1      32.157  20.854  22.929  1.00  0.00     0.049 A 
ATOM     11  C   UNL A   1      32.645  20.873  25.285  1.00  0.00     0.063 A 
ATOM     12  C   UNL A   1      32.336  20.180  24.123  1.00  0.00     0.131 A 
BRANCH   8  13
ATOM     13  N   UNL A   1      33.293  24.241  23.714  1.00  0.00    -0.325 N 
ATOM     14  C   UNL A   1      33.048  25.454  24.291  1.00  0.00     0.231 C 
ATOM     15  O   UNL A   1      33.925  26.281  23.979  1.00  0.00    -0.274 OA
ATOM     16  H   UNL A   1      33.841  24.318  22.901  1.00  0.00     0.169 HD
BRANCH  14  17
ATOM     17  C   UNL A   1      31.943  25.870  25.306  1.00  0.00     0.108 C 
BRANCH  17  18
ATOM     18  C   UNL A   1      30.531  25.327  25.057  1.00  0.00     0.015 C 
ATOM     19  C   UNL A   1      30.096  25.468  23.607  1.00  0.00     0.005 C 
ENDBRANCH  17  18
BRANCH  17  20
ATOM     20  C   UNL A   1      31.870  27.395  25.612  1.00  0.00    -0.036 A 
ATOM     21  C   UNL A   1      31.405  28.366  24.710  1.00  0.00     0.004 A 
ATOM     22  C   UNL A   1      32.348  27.872  26.855  1.00  0.00     0.004 A 
ATOM     23  C   UNL A   1      31.397  29.729  25.039  1.00  0.00     0.000 A 
ATOM     24  C   UNL A   1      32.305  29.227  27.200  1.00  0.00     0.000 A 
ATOM     25  C   UNL A   1      31.833  30.159  26.287  1.00  0.00     0.000 A 
ENDBRANCH  17  20
ENDBRANCH  14  17
ENDBRANCH   8  13
BRANCH  12  26
ATOM     26  O   UNL A   1      32.138  18.793  24.139  1.00  0.00    -0.427 OA
BRANCH  26  27
ATOM     27  C   UNL A   1      33.085  17.974  23.525  1.00  0.00     0.308 C 
ATOM     28  C   UNL A   1      34.428  17.884  24.194  1.00  0.00     0.139 C 
ATOM     29  O   UNL A   1      32.802  17.302  22.536  1.00  0.00    -0.252 OA
ENDBRANCH  26  27
ENDBRANCH  12  26
ENDBRANCH   4   7
ENDBRANCH   2   3
ENDBRANCH   1   2
BRANCH   1  30
ATOM     30  C   UNL A   1      37.503  21.888  25.129  1.00  0.00     0.118 C 
BRANCH  30  31
ATOM     31  N   UNL A   1      38.580  20.979  25.514  1.00  0.00    -0.352 N 
ATOM     32  C   UNL A   1      39.747  21.220  26.217  1.00  0.00     0.251 C 
ATOM     33  H   UNL A   1      38.456  20.047  25.227  1.00  0.00     0.163 HD
ATOM     34  O   UNL A   1      40.593  20.351  26.339  1.00  0.00    -0.269 OA
BRANCH  32  35
ATOM     35  C   UNL A   1      39.976  22.566  26.784  1.00  0.00     0.039 A 
ATOM     36  C   UNL A   1      40.862  22.722  27.852  1.00  0.00     0.014 A 
ATOM     37  C   UNL A   1      39.377  23.680  26.203  1.00  0.00     0.014 A 
ATOM     38  C   UNL A   1      41.243  24.009  28.245  1.00  0.00     0.010 A 
ATOM     39  C   UNL A   1      39.869  24.943  26.490  1.00  0.00     0.010 A 
ATOM     40  C   UNL A   1      40.807  25.128  27.517  1.00  0.00    -0.014 A 
BRANCH  40  41
ATOM     41  C   UNL A   1      41.316  26.500  27.786  1.00  0.00     0.031 A 
ATOM     42  C   UNL A   1      42.728  26.867  27.402  1.00  0.00     0.074 A 
ATOM     43  C   UNL A   1      40.568  27.368  28.500  1.00  0.00     0.049 A 
ATOM     44  N   UNL A   1      43.405  27.951  27.681  1.00  0.00    -0.248 NA
ATOM     45  C   UNL A   1      43.502  25.857  26.660  1.00  0.00     0.031 C 
ATOM     46  C   UNL A   1      39.232  27.099  29.039  1.00  0.00     0.029 A 
ATOM     47  N   UNL A   1      40.839  28.646  28.925  1.00  0.00    -0.354 N 
ATOM     48  C   UNL A   1      44.694  27.722  27.214  1.00  0.00     0.074 A 
ATOM     49  C   UNL A   1      44.719  26.380  26.677  1.00  0.00     0.031 C 
ATOM     50  C   UNL A   1      38.795  28.179  29.705  1.00  0.00     0.029 A 
ATOM     51  C   UNL A   1      39.828  29.208  29.670  1.00  0.00     0.049 A 
ATOM     52  H   UNL A   1      41.678  29.115  28.717  1.00  0.00     0.167 HD
ATOM     53  C   UNL A   1      45.752  28.566  27.190  1.00  0.00     0.034 A 
ATOM     54  C   UNL A   1      39.742  30.417  30.261  1.00  0.00     0.034 A 
ATOM     55  C   UNL A   1      45.691  29.933  27.625  1.00  0.00     0.049 A 
ATOM     56  C   UNL A   1      40.887  31.382  30.112  1.00  0.00     0.074 A 
ATOM     57  C   UNL A   1      46.658  30.915  27.512  1.00  0.00     0.029 A 
ATOM     58  N   UNL A   1      44.597  30.515  28.244  1.00  0.00    -0.354 N 
ATOM     59  N   UNL A   1      42.036  31.208  29.504  1.00  0.00    -0.248 NA
ATOM     60  C   UNL A   1      40.712  32.721  30.693  1.00  0.00     0.031 C 
ATOM     61  C   UNL A   1      46.149  32.092  28.072  1.00  0.00     0.029 A 
ATOM     62  C   UNL A   1      44.861  31.844  28.521  1.00  0.00     0.049 A 
ATOM     63  H   UNL A   1      43.754  30.050  28.455  1.00  0.00     0.167 HD
ATOM     64  C   UNL A   1      42.707  32.422  29.603  1.00  0.00     0.074 A 
ATOM     65  C   UNL A   1      41.825  33.330  30.306  1.00  0.00     0.031 C 
ATOM     66  C   UNL A   1      43.948  32.750  29.168  1.00  0.00     0.034 A 
BRANCH  53  67
ATOM     67  C   UNL A   1      47.040  28.056  26.596  1.00  0.00     0.023 A 
ATOM     68  C   UNL A   1      48.074  27.617  27.450  1.00  0.00     0.012 A 
ATOM     69  C   UNL A   1      47.216  27.975  25.202  1.00  0.00     0.148 A 
ATOM     70  C   UNL A   1      49.278  27.151  26.928  1.00  0.00     0.002 A 
ATOM     71  C   UNL A   1      48.403  27.461  24.688  1.00  0.00     0.091 A 
ATOM     72  F   UNL A   1      46.233  28.415  24.404  1.00  0.00    -0.205 F 
ATOM     73  C   UNL A   1      49.438  27.063  25.549  1.00  0.00     0.022 A 
BRANCH  71  74
ATOM     74  S   UNL A   1      48.676  27.231  22.928  1.00  0.00     0.127 S 
ATOM     75  O   UNL A   1      50.113  27.477  22.817  1.00  0.00    -0.237 OA
ATOM     76  O   UNL A   1      48.281  25.836  22.734  1.00  0.00    -0.237 OA
ATOM     77  O   UNL A   1      47.819  28.201  22.260  1.00  0.00    -0.744 OA
ENDBRANCH  71  74
ENDBRANCH  53  67
BRANCH  54  78
ATOM     78  C   UNL A   1      38.489  30.815  30.967  1.00  0.00     0.023 A 
ATOM     79  C   UNL A   1      38.373  30.565  32.349  1.00  0.00     0.012 A 
ATOM     80  C   UNL A   1      37.436  31.468  30.298  1.00  0.00     0.148 A 
ATOM     81  C   UNL A   1      37.220  30.931  33.046  1.00  0.00     0.002 A 
ATOM     82  C   UNL A   1      36.313  31.878  31.008  1.00  0.00     0.091 A 
ATOM     83  F   UNL A   1      37.560  31.688  28.981  1.00  0.00    -0.205 F 
ATOM     84  C   UNL A   1      36.195  31.595  32.378  1.00  0.00     0.022 A 
BRANCH  82  85
ATOM     85  S   UNL A   1      35.006  32.858  30.259  1.00  0.00     0.127 S 
ATOM     86  O   UNL A   1      35.744  34.017  29.767  1.00  0.00    -0.237 OA
ATOM     87  O   UNL A   1      34.508  31.957  29.218  1.00  0.00    -0.237 OA
ATOM     88  O   UNL A   1      34.051  33.117  31.329  1.00  0.00    -0.744 OA
ENDBRANCH  82  85
ENDBRANCH  54  78
BRANCH  66  89
ATOM     89  C   UNL A   1      44.426  34.156  29.410  1.00  0.00     0.023 A 
ATOM     90  C   UNL A   1      45.317  34.415  30.470  1.00  0.00     0.012 A 
ATOM     91  C   UNL A   1      44.067  35.198  28.535  1.00  0.00     0.148 A 
ATOM     92  C   UNL A   1      45.823  35.697  30.671  1.00  0.00     0.002 A 
ATOM     93  C   UNL A   1      44.613  36.464  28.713  1.00  0.00     0.091 A 
ATOM     94  F   UNL A   1      43.202  34.935  27.544  1.00  0.00    -0.205 F 
ATOM     95  C   UNL A   1      45.482  36.717  29.785  1.00  0.00     0.022 A 
BRANCH  93  96
ATOM     96  S   UNL A   1      44.305  37.811  27.563  1.00  0.00     0.127 S 
ATOM     97  O   UNL A   1      43.315  37.217  26.667  1.00  0.00    -0.237 OA
ATOM     98  O   UNL A   1      43.782  38.858  28.443  1.00  0.00    -0.237 OA
ATOM     99  O   UNL A   1      45.593  38.121  26.959  1.00  0.00    -0.744 OA
ENDBRANCH  93  96
ENDBRANCH  66  89
ENDBRANCH  40  41
ENDBRANCH  32  35
ENDBRANCH  30  31
ENDBRANCH   1  30
TORSDOF 19
ENDMDL
MODEL 2
REMARK VINA RESULT:     -12.5      1.882      4.062
REMARK SMILES CC[C@@H](C(=O)Nc1ccc(OC(C)=O)cc1C(=O)NCCCNC(=O)c1ccc(-c2c3nc(c(-c4cccc(S(=O)(=O)[O-])c4F)c4ccc([nH]4)c(-c4cccc(S(=O)(=O)[O-])c4F)c4nc(c(-c5cccc(S(=O)(=O)[O-])c5F)c5ccc2[nH]5)C=C4)C=C3)cc1)c1ccccc1
REMARK SMILES IDX 21 1 20 2 19 3 17 4 18 5 16 7 7 8 8 9 9 10 15 11 10 12 6 13
REMARK SMILES IDX 4 14 5 15 3 17 2 18 1 19 89 20 90 21 94 22 91 23 93 24 92 25
REMARK SMILES IDX 11 26 12 27 13 28 14 29 22 30 23 31 24 32 25 34 26 35 27 36
REMARK SMILES IDX 88 37 28 38 87 39 29 40 30 41 31 42 81 43 32 44 86 45 80 46
REMARK SMILES IDX 82 47 33 48 85 49 79 50 78 51 34 53 66 54 46 55 65 56 47 57
REMARK SMILES IDX 50 58 64 59 83 60 48 61 49 62 63 64 84 65 51 66 35 67 36 68
REMARK SMILES IDX 44 69 37 70 39 71 45 72 38 73 40 74 41 75 42 76 43 77 67 78
REMARK SMILES IDX 68 79 76 80 69 81 71 82 77 83 70 84 72 85 73 86 74 87 75 88
REMARK SMILES IDX 52 89 53 90 61 91 54 92 56 93 62 94 55 95 57 96 58 97 59 98
REMARK SMILES IDX 60 99
REMARK H PARENT 19 6 6 16 23 33 82 52 50 63
REMARK Flexibility Score: inf
ROOT
ATOM      1  C   UNL A   1      36.445  22.613  23.928  1.00  0.00     0.042 C 
ENDROOT
BRANCH   1   2
ATOM      2  C   UNL A   1      35.525  23.816  23.900  1.00  0.00     0.118 C 
BRANCH   2   3
ATOM      3  N   UNL A   1      34.648  23.880  25.051  1.00  0.00    -0.352 N 
ATOM      4  C   UNL A   1      33.899  24.896  25.564  1.00  0.00     0.253 C 
ATOM      5  O   UNL A   1      33.192  24.630  26.540  1.00  0.00    -0.269 OA
ATOM      6  H   UNL A   1      34.581  23.035  25.553  1.00  0.00     0.163 HD
BRANCH   4   7
ATOM      7  C   UNL A   1      33.876  26.291  25.038  1.00  0.00     0.067 A 
ATOM      8  C   UNL A   1      33.699  26.753  23.718  1.00  0.00     0.054 A 
ATOM      9  C   UNL A   1      33.897  28.127  23.454  1.00  0.00     0.031 A 
ATOM     10  C   UNL A   1      34.045  29.057  24.481  1.00  0.00     0.049 A 
ATOM     11  C   UNL A   1      34.032  27.249  26.069  1.00  0.00     0.063 A 
ATOM     12  C   UNL A   1      34.033  28.609  25.789  1.00  0.00     0.131 A 
BRANCH   8  13
ATOM     13  N   UNL A   1      33.448  26.005  22.556  1.00  0.00    -0.325 N 
ATOM     14  C   UNL A   1      32.399  25.271  22.083  1.00  0.00     0.231 C 
ATOM     15  O   UNL A   1      32.432  25.194  20.840  1.00  0.00    -0.274 OA
ATOM     16  H   UNL A   1      34.210  26.010  21.934  1.00  0.00     0.169 HD
BRANCH  14  17
ATOM     17  C   UNL A   1      31.190  24.652  22.846  1.00  0.00     0.108 C 
BRANCH  17  18
ATOM     18  C   UNL A   1      30.416  25.580  23.790  1.00  0.00     0.015 C 
ATOM     19  C   UNL A   1      30.061  26.910  23.144  1.00  0.00     0.005 C 
ENDBRANCH  17  18
BRANCH  17  20
ATOM     20  C   UNL A   1      31.485  23.303  23.565  1.00  0.00    -0.036 A 
ATOM     21  C   UNL A   1      31.053  22.982  24.862  1.00  0.00     0.004 A 
ATOM     22  C   UNL A   1      32.287  22.337  22.913  1.00  0.00     0.004 A 
ATOM     23  C   UNL A   1      31.384  21.759  25.463  1.00  0.00     0.000 A 
ATOM     24  C   UNL A   1      32.585  21.101  23.497  1.00  0.00     0.000 A 
ATOM     25  C   UNL A   1      32.137  20.814  24.777  1.00  0.00     0.000 A 
ENDBRANCH  17  20
ENDBRANCH  14  17
ENDBRANCH   8  13
BRANCH  12  26
ATOM     26  O   UNL A   1      34.083  29.559  26.817  1.00  0.00    -0.427 OA
BRANCH  26  27
ATOM     27  C   UNL A   1      32.960  30.351  27.054  1.00  0.00     0.308 C 
ATOM     28  C   UNL A   1      31.638  29.638  27.114  1.00  0.00     0.139 C 
ATOM     29  O   UNL A   1      33.063  31.555  27.279  1.00  0.00    -0.252 OA
ENDBRANCH  26  27
ENDBRANCH  12  26
ENDBRANCH   4   7
ENDBRANCH   2   3
ENDBRANCH   1   2
BRANCH   1  30
ATOM     30  C   UNL A   1      36.653  22.071  25.338  1.00  0.00     0.118 C 
BRANCH  30  31
ATOM     31  N   UNL A   1      37.734  21.093  25.446  1.00  0.00    -0.352 N 
ATOM     32  C   UNL A   1      39.014  21.227  25.954  1.00  0.00     0.251 C 
ATOM     33  H   UNL A   1      37.517  20.198  25.103  1.00  0.00     0.163 HD
ATOM     34  O   UNL A   1      39.825  20.323  25.849  1.00  0.00    -0.269 OA
BRANCH  32  35
ATOM     35  C   UNL A   1      39.402  22.504  26.591  1.00  0.00     0.039 A 
ATOM     36  C   UNL A   1      40.470  22.528  27.490  1.00  0.00     0.014 A 
ATOM     37  C   UNL A   1      38.761  23.686  26.232  1.00  0.00     0.014 A 
ATOM     38  C   UNL A   1      40.974  23.759  27.923  1.00  0.00     0.010 A 
ATOM     39  C   UNL A   1      39.355  24.900  26.539  1.00  0.00     0.010 A 
ATOM     40  C   UNL A   1      40.467  24.956  27.391  1.00  0.00    -0.014 A 
BRANCH  40  41
ATOM     41  C   UNL A   1      41.079  26.280  27.687  1.00  0.00     0.031 A 
ATOM     42  C   UNL A   1      42.475  26.587  27.207  1.00  0.00     0.074 A 
ATOM     43  C   UNL A   1      40.445  27.147  28.505  1.00  0.00     0.049 A 
ATOM     44  N   UNL A   1      43.237  27.614  27.484  1.00  0.00    -0.248 NA
ATOM     45  C   UNL A   1      43.125  25.580  26.351  1.00  0.00     0.031 C 
ATOM     46  C   UNL A   1      39.142  26.923  29.139  1.00  0.00     0.029 A 
ATOM     47  N   UNL A   1      40.827  28.381  28.972  1.00  0.00    -0.354 N 
ATOM     48  C   UNL A   1      44.469  27.340  26.900  1.00  0.00     0.074 A 
ATOM     49  C   UNL A   1      44.368  26.031  26.294  1.00  0.00     0.031 C 
ATOM     50  C   UNL A   1      38.827  27.988  29.894  1.00  0.00     0.029 A 
ATOM     51  C   UNL A   1      39.914  28.957  29.827  1.00  0.00     0.049 A 
ATOM     52  H   UNL A   1      41.673  28.813  28.719  1.00  0.00     0.167 HD
ATOM     53  C   UNL A   1      45.571  28.122  26.831  1.00  0.00     0.034 A 
ATOM     54  C   UNL A   1      39.950  30.134  30.484  1.00  0.00     0.034 A 
ATOM     55  C   UNL A   1      45.628  29.464  27.340  1.00  0.00     0.049 A 
ATOM     56  C   UNL A   1      41.136  31.039  30.290  1.00  0.00     0.074 A 
ATOM     57  C   UNL A   1      46.641  30.395  27.198  1.00  0.00     0.029 A 
ATOM     58  N   UNL A   1      44.624  30.071  28.077  1.00  0.00    -0.354 N 
ATOM     59  N   UNL A   1      42.220  30.835  29.581  1.00  0.00    -0.248 NA
ATOM     60  C   UNL A   1      41.090  32.350  30.952  1.00  0.00     0.031 C 
ATOM     61  C   UNL A   1      46.251  31.565  27.858  1.00  0.00     0.029 A 
ATOM     62  C   UNL A   1      44.991  31.365  28.399  1.00  0.00     0.049 A 
ATOM     63  H   UNL A   1      43.775  29.643  28.334  1.00  0.00     0.167 HD
ATOM     64  C   UNL A   1      42.969  32.001  29.686  1.00  0.00     0.074 A 
ATOM     65  C   UNL A   1      42.204  32.917  30.506  1.00  0.00     0.031 C 
ATOM     66  C   UNL A   1      44.189  32.283  29.166  1.00  0.00     0.034 A 
BRANCH  53  67
ATOM     67  C   UNL A   1      46.773  27.575  26.107  1.00  0.00     0.023 A 
ATOM     68  C   UNL A   1      46.905  27.786  24.719  1.00  0.00     0.012 A 
ATOM     69  C   UNL A   1      47.787  26.885  26.799  1.00  0.00     0.148 A 
ATOM     70  C   UNL A   1      48.001  27.282  24.022  1.00  0.00     0.002 A 
ATOM     71  C   UNL A   1      48.903  26.426  26.105  1.00  0.00     0.091 A 
ATOM     72  F   UNL A   1      47.637  26.672  28.113  1.00  0.00    -0.205 F 
ATOM     73  C   UNL A   1      49.004  26.612  24.717  1.00  0.00     0.022 A 
BRANCH  71  74
ATOM     74  S   UNL A   1      50.287  25.624  26.921  1.00  0.00     0.127 S 
ATOM     75  O   UNL A   1      51.214  25.429  25.806  1.00  0.00    -0.237 OA
ATOM     76  O   UNL A   1      50.704  26.637  27.889  1.00  0.00    -0.237 OA
ATOM     77  O   UNL A   1      49.751  24.406  27.512  1.00  0.00    -0.744 OA
ENDBRANCH  71  74
ENDBRANCH  53  67
BRANCH  54  78
ATOM     78  C   UNL A   1      38.784  30.561  31.311  1.00  0.00     0.023 A 
ATOM     79  C   UNL A   1      38.798  30.306  32.697  1.00  0.00     0.012 A 
ATOM     80  C   UNL A   1      37.689  31.247  30.753  1.00  0.00     0.148 A 
ATOM     81  C   UNL A   1      37.730  30.698  33.506  1.00  0.00     0.002 A 
ATOM     82  C   UNL A   1      36.653  31.682  31.571  1.00  0.00     0.091 A 
ATOM     83  F   UNL A   1      37.689  31.471  29.431  1.00  0.00    -0.205 F 
ATOM     84  C   UNL A   1      36.663  31.395  32.945  1.00  0.00     0.022 A 
BRANCH  82  85
ATOM     85  S   UNL A   1      35.307  32.702  30.959  1.00  0.00     0.127 S 
ATOM     86  O   UNL A   1      34.857  31.941  29.797  1.00  0.00    -0.237 OA
ATOM     87  O   UNL A   1      34.381  32.700  32.093  1.00  0.00    -0.237 OA
ATOM     88  O   UNL A   1      35.900  34.003  30.678  1.00  0.00    -0.744 OA
ENDBRANCH  82  85
ENDBRANCH  54  78
BRANCH  66  89
ATOM     89  C   UNL A   1      44.770  33.644  29.441  1.00  0.00     0.023 A 
ATOM     90  C   UNL A   1      45.646  33.820  30.529  1.00  0.00     0.012 A 
ATOM     91  C   UNL A   1      44.522  34.720  28.568  1.00  0.00     0.148 A 
ATOM     92  C   UNL A   1      46.246  35.056  30.761  1.00  0.00     0.002 A 
ATOM     93  C   UNL A   1      45.160  35.937  28.778  1.00  0.00     0.091 A 
ATOM     94  F   UNL A   1      43.669  34.537  27.548  1.00  0.00    -0.205 F 
ATOM     95  C   UNL A   1      46.014  36.109  29.879  1.00  0.00     0.022 A 
BRANCH  93  96
ATOM     96  S   UNL A   1      44.996  37.315  27.637  1.00  0.00     0.127 S 
ATOM     97  O   UNL A   1      45.613  38.403  28.393  1.00  0.00    -0.237 OA
ATOM     98  O   UNL A   1      45.769  36.858  26.481  1.00  0.00    -0.237 OA
ATOM     99  O   UNL A   1      43.568  37.456  27.386  1.00  0.00    -0.744 OA
ENDBRANCH  93  96
ENDBRANCH  66  89
ENDBRANCH  40  41
ENDBRANCH  32  35
ENDBRANCH  30  31
ENDBRANCH   1  30
TORSDOF 19
ENDMDL
MODEL 3
REMARK VINA RESULT:     -12.4      1.501      7.506
REMARK SMILES CC[C@@H](C(=O)Nc1ccc(OC(C)=O)cc1C(=O)NCCCNC(=O)c1ccc(-c2c3nc(c(-c4cccc(S(=O)(=O)[O-])c4F)c4ccc([nH]4)c(-c4cccc(S(=O)(=O)[O-])c4F)c4nc(c(-c5cccc(S(=O)(=O)[O-])c5F)c5ccc2[nH]5)C=C4)C=C3)cc1)c1ccccc1
REMARK SMILES IDX 21 1 20 2 19 3 17 4 18 5 16 7 7 8 8 9 9 10 15 11 10 12 6 13
REMARK SMILES IDX 4 14 5 15 3 17 2 18 1 19 89 20 90 21 94 22 91 23 93 24 92 25
REMARK SMILES IDX 11 26 12 27 13 28 14 29 22 30 23 31 24 32 25 34 26 35 27 36
REMARK SMILES IDX 88 37 28 38 87 39 29 40 30 41 31 42 81 43 32 44 86 45 80 46
REMARK SMILES IDX 82 47 33 48 85 49 79 50 78 51 34 53 66 54 46 55 65 56 47 57
REMARK SMILES IDX 50 58 64 59 83 60 48 61 49 62 63 64 84 65 51 66 35 67 36 68
REMARK SMILES IDX 44 69 37 70 39 71 45 72 38 73 40 74 41 75 42 76 43 77 67 78
REMARK SMILES IDX 68 79 76 80 69 81 71 82 77 83 70 84 72 85 73 86 74 87 75 88
REMARK SMILES IDX 52 89 53 90 61 91 54 92 56 93 62 94 55 95 57 96 58 97 59 98
REMARK SMILES IDX 60 99
REMARK H PARENT 19 6 6 16 23 33 82 52 50 63
REMARK Flexibility Score: inf
ROOT
ATOM      1  C   UNL A   1      37.635  19.967  25.365  1.00  0.00     0.042 C 
ENDROOT
BRANCH   1   2
ATOM      2  C   UNL A   1      36.919  21.278  25.111  1.00  0.00     0.118 C 
BRANCH   2   3
ATOM      3  N   UNL A   1      35.919  21.575  26.115  1.00  0.00    -0.352 N 
ATOM      4  C   UNL A   1      34.574  21.354  26.148  1.00  0.00     0.253 C 
ATOM      5  O   UNL A   1      33.983  21.670  27.184  1.00  0.00    -0.269 OA
ATOM      6  H   UNL A   1      36.275  22.017  26.920  1.00  0.00     0.163 HD
BRANCH   4   7
ATOM      7  C   UNL A   1      33.777  20.768  25.033  1.00  0.00     0.067 A 
ATOM      8  C   UNL A   1      33.223  21.392  23.898  1.00  0.00     0.054 A 
ATOM      9  C   UNL A   1      32.352  20.642  23.075  1.00  0.00     0.031 A 
ATOM     10  C   UNL A   1      32.202  19.265  23.230  1.00  0.00     0.049 A 
ATOM     11  C   UNL A   1      33.610  19.370  25.179  1.00  0.00     0.063 A 
ATOM     12  C   UNL A   1      32.900  18.631  24.242  1.00  0.00     0.131 A 
BRANCH   8  13
ATOM     13  N   UNL A   1      33.326  22.735  23.500  1.00  0.00    -0.325 N 
ATOM     14  C   UNL A   1      33.138  23.944  24.106  1.00  0.00     0.231 C 
ATOM     15  O   UNL A   1      33.793  24.836  23.536  1.00  0.00    -0.274 OA
ATOM     16  H   UNL A   1      33.599  22.828  22.559  1.00  0.00     0.169 HD
BRANCH  14  17
ATOM     17  C   UNL A   1      32.344  24.298  25.398  1.00  0.00     0.108 C 
BRANCH  17  18
ATOM     18  C   UNL A   1      30.866  23.892  25.439  1.00  0.00     0.015 C 
ATOM     19  C   UNL A   1      30.625  22.637  26.263  1.00  0.00     0.005 C 
ENDBRANCH  17  18
BRANCH  17  20
ATOM     20  C   UNL A   1      32.494  25.771  25.881  1.00  0.00    -0.036 A 
ATOM     21  C   UNL A   1      33.720  26.440  26.024  1.00  0.00     0.004 A 
ATOM     22  C   UNL A   1      31.338  26.492  26.260  1.00  0.00     0.004 A 
ATOM     23  C   UNL A   1      33.786  27.759  26.497  1.00  0.00     0.000 A 
ATOM     24  C   UNL A   1      31.399  27.821  26.694  1.00  0.00     0.000 A 
ATOM     25  C   UNL A   1      32.627  28.453  26.819  1.00  0.00     0.000 A 
ENDBRANCH  17  20
ENDBRANCH  14  17
ENDBRANCH   8  13
BRANCH  12  26
ATOM     26  O   UNL A   1      32.821  17.235  24.330  1.00  0.00    -0.427 OA
BRANCH  26  27
ATOM     27  C   UNL A   1      33.947  16.479  24.008  1.00  0.00     0.308 C 
ATOM     28  C   UNL A   1      34.731  15.919  25.163  1.00  0.00     0.139 C 
ATOM     29  O   UNL A   1      34.232  16.222  22.841  1.00  0.00    -0.252 OA
ENDBRANCH  26  27
ENDBRANCH  12  26
ENDBRANCH   4   7
ENDBRANCH   2   3
ENDBRANCH   1   2
BRANCH   1  30
ATOM     30  C   UNL A   1      39.093  20.003  24.920  1.00  0.00     0.118 C 
BRANCH  30  31
ATOM     31  N   UNL A   1      40.003  19.278  25.803  1.00  0.00    -0.352 N 
ATOM     32  C   UNL A   1      40.985  19.747  26.658  1.00  0.00     0.251 C 
ATOM     33  H   UNL A   1      39.902  18.300  25.787  1.00  0.00     0.163 HD
ATOM     34  O   UNL A   1      41.733  18.976  27.232  1.00  0.00    -0.269 OA
BRANCH  32  35
ATOM     35  C   UNL A   1      41.143  21.207  26.834  1.00  0.00     0.039 A 
ATOM     36  C   UNL A   1      40.836  21.789  28.064  1.00  0.00     0.014 A 
ATOM     37  C   UNL A   1      41.674  21.981  25.805  1.00  0.00     0.014 A 
ATOM     38  C   UNL A   1      41.188  23.122  28.299  1.00  0.00     0.010 A 
ATOM     39  C   UNL A   1      42.158  23.247  26.089  1.00  0.00     0.010 A 
ATOM     40  C   UNL A   1      41.920  23.840  27.339  1.00  0.00    -0.014 A 
BRANCH  40  41
ATOM     41  C   UNL A   1      42.466  25.198  27.605  1.00  0.00     0.031 A 
ATOM     42  C   UNL A   1      41.600  26.240  28.268  1.00  0.00     0.074 A 
ATOM     43  C   UNL A   1      43.680  25.542  27.124  1.00  0.00     0.049 A 
ATOM     44  N   UNL A   1      41.834  27.513  28.452  1.00  0.00    -0.248 NA
ATOM     45  C   UNL A   1      40.271  25.807  28.732  1.00  0.00     0.031 C 
ATOM     46  C   UNL A   1      44.572  24.667  26.357  1.00  0.00     0.029 A 
ATOM     47  N   UNL A   1      44.362  26.733  27.181  1.00  0.00    -0.354 N 
ATOM     48  C   UNL A   1      40.662  28.041  28.982  1.00  0.00     0.074 A 
ATOM     49  C   UNL A   1      39.703  26.961  29.046  1.00  0.00     0.031 C 
ATOM     50  C   UNL A   1      45.686  25.343  26.032  1.00  0.00     0.029 A 
ATOM     51  C   UNL A   1      45.578  26.707  26.537  1.00  0.00     0.049 A 
ATOM     52  H   UNL A   1      44.014  27.530  27.640  1.00  0.00     0.167 HD
ATOM     53  C   UNL A   1      40.416  29.297  29.420  1.00  0.00     0.034 A 
ATOM     54  C   UNL A   1      46.504  27.674  26.371  1.00  0.00     0.034 A 
ATOM     55  C   UNL A   1      41.406  30.337  29.454  1.00  0.00     0.049 A 
ATOM     56  C   UNL A   1      46.256  29.028  26.977  1.00  0.00     0.074 A 
ATOM     57  C   UNL A   1      41.308  31.600  30.009  1.00  0.00     0.029 A 
ATOM     58  N   UNL A   1      42.682  30.228  28.924  1.00  0.00    -0.354 N 
ATOM     59  N   UNL A   1      45.207  29.455  27.638  1.00  0.00    -0.248 NA
ATOM     60  C   UNL A   1      47.331  30.023  26.851  1.00  0.00     0.031 C 
ATOM     61  C   UNL A   1      42.526  32.259  29.806  1.00  0.00     0.029 A 
ATOM     62  C   UNL A   1      43.384  31.401  29.136  1.00  0.00     0.049 A 
ATOM     63  H   UNL A   1      43.036  29.433  28.464  1.00  0.00     0.167 HD
ATOM     64  C   UNL A   1      45.507  30.754  28.033  1.00  0.00     0.074 A 
ATOM     65  C   UNL A   1      46.846  31.035  27.558  1.00  0.00     0.031 C 
ATOM     66  C   UNL A   1      44.737  31.641  28.710  1.00  0.00     0.034 A 
BRANCH  53  67
ATOM     67  C   UNL A   1      39.046  29.589  29.976  1.00  0.00     0.023 A 
ATOM     68  C   UNL A   1      38.719  29.162  31.280  1.00  0.00     0.012 A 
ATOM     69  C   UNL A   1      38.097  30.312  29.228  1.00  0.00     0.148 A 
ATOM     70  C   UNL A   1      37.456  29.409  31.814  1.00  0.00     0.002 A 
ATOM     71  C   UNL A   1      36.855  30.597  29.788  1.00  0.00     0.091 A 
ATOM     72  F   UNL A   1      38.415  30.692  27.983  1.00  0.00    -0.205 F 
ATOM     73  C   UNL A   1      36.530  30.135  31.072  1.00  0.00     0.022 A 
BRANCH  71  74
ATOM     74  S   UNL A   1      35.622  31.596  28.946  1.00  0.00     0.127 S 
ATOM     75  O   UNL A   1      36.448  32.651  28.359  1.00  0.00    -0.237 OA
ATOM     76  O   UNL A   1      35.066  30.650  27.979  1.00  0.00    -0.237 OA
ATOM     77  O   UNL A   1      34.688  32.030  29.975  1.00  0.00    -0.744 OA
ENDBRANCH  71  74
ENDBRANCH  53  67
BRANCH  54  78
ATOM     78  C   UNL A   1      47.788  27.365  25.678  1.00  0.00     0.023 A 
ATOM     79  C   UNL A   1      48.848  26.804  26.419  1.00  0.00     0.012 A 
ATOM     80  C   UNL A   1      47.957  27.580  24.297  1.00  0.00     0.148 A 
ATOM     81  C   UNL A   1      50.062  26.493  25.804  1.00  0.00     0.002 A 
ATOM     82  C   UNL A   1      49.149  27.219  23.680  1.00  0.00     0.091 A 
ATOM     83  F   UNL A   1      46.941  28.124  23.611  1.00  0.00    -0.205 F 
ATOM     84  C   UNL A   1      50.209  26.691  24.433  1.00  0.00     0.022 A 
BRANCH  82  85
ATOM     85  S   UNL A   1      49.378  27.312  21.900  1.00  0.00     0.127 S 
ATOM     86  O   UNL A   1      50.767  26.889  21.753  1.00  0.00    -0.237 OA
ATOM     87  O   UNL A   1      48.386  26.350  21.415  1.00  0.00    -0.237 OA
ATOM     88  O   UNL A   1      49.090  28.695  21.542  1.00  0.00    -0.744 OA
ENDBRANCH  82  85
ENDBRANCH  54  78
BRANCH  66  89
ATOM     89  C   UNL A   1      45.325  32.994  29.007  1.00  0.00     0.023 A 
ATOM     90  C   UNL A   1      46.129  33.168  30.150  1.00  0.00     0.012 A 
ATOM     91  C   UNL A   1      45.158  34.064  28.107  1.00  0.00     0.148 A 
ATOM     92  C   UNL A   1      46.737  34.395  30.408  1.00  0.00     0.002 A 
ATOM     93  C   UNL A   1      45.805  35.270  28.346  1.00  0.00     0.091 A 
ATOM     94  F   UNL A   1      44.372  33.884  27.035  1.00  0.00    -0.205 F 
ATOM     95  C   UNL A   1      46.586  35.441  29.500  1.00  0.00     0.022 A 
BRANCH  93  96
ATOM     96  S   UNL A   1      45.745  36.637  27.180  1.00  0.00     0.127 S 
ATOM     97  O   UNL A   1      44.306  36.785  26.969  1.00  0.00    -0.237 OA
ATOM     98  O   UNL A   1      46.366  37.723  27.941  1.00  0.00    -0.237 OA
ATOM     99  O   UNL A   1      46.510  36.204  26.019  1.00  0.00    -0.744 OA
ENDBRANCH  93  96
ENDBRANCH  66  89
ENDBRANCH  40  41
ENDBRANCH  32  35
ENDBRANCH  30  31
ENDBRANCH   1  30
TORSDOF 19
ENDMDL
