MODEL 1
REMARK VINA RESULT:     -12.0      0.000      0.000
REMARK SMILES O=C(NCCCNC(=O)[C@]12CCC[NH2+][C@@H]1CCN(C(=O)Cc1c(F)cccc1Cl)C2)c1ccc(-c2c3nc(c(-c4cccc(S(=O)(=O)[O-])c4F)c4ccc([nH]4)c(-c4cccc(S(=O)(=O)[O-])c4F)c4nc(c(-c5cccc(S(=O)(=O)[O-])c5F)c5ccc2[nH]5)C=C4)C=C3)cc1
REMARK SMILES IDX 5 1 4 2 3 3 1 4 2 5 31 7 32 8 93 9 33 10 92 11 34 12 35 13
REMARK SMILES IDX 36 14 86 15 37 16 91 17 85 18 87 19 38 20 90 21 84 22 83 23
REMARK SMILES IDX 39 25 71 26 51 27 70 28 52 29 55 30 69 31 88 32 53 33 54 34
REMARK SMILES IDX 68 36 89 37 56 38 40 39 41 40 49 41 42 42 44 43 50 44 43 45
REMARK SMILES IDX 45 46 46 47 47 48 48 49 72 50 73 51 81 52 74 53 76 54 82 55
REMARK SMILES IDX 75 56 77 57 78 58 79 59 80 60 57 61 58 62 66 63 59 64 61 65
REMARK SMILES IDX 67 66 60 67 62 68 63 69 64 70 65 71 6 72 7 73 8 74 9 76
REMARK SMILES IDX 10 77 11 78 15 79 30 80 12 81 14 82 16 83 18 84 13 85 17 88
REMARK SMILES IDX 19 89 20 90 21 91 22 92 23 93 28 94 24 95 25 96 27 97 29 98
REMARK SMILES IDX 26 99
REMARK H PARENT 3 6 87 24 55 35 7 75 14 86 14 87
REMARK Flexibility Score: inf
ROOT
ATOM      1  C   UNL A   1      33.446  28.308  27.263  1.00  0.00     0.042 C 
ENDROOT
BRANCH   1   2
ATOM      2  C   UNL A   1      33.994  29.504  26.488  1.00  0.00     0.118 C 
BRANCH   2   3
ATOM      3  N   UNL A   1      33.803  30.774  27.172  1.00  0.00    -0.352 N 
ATOM      4  O   UNL A   1      34.068  32.408  28.681  1.00  0.00    -0.269 OA
ATOM      5  C   UNL A   1      34.544  31.413  28.136  1.00  0.00     0.251 C 
ATOM      6  H   UNL A   1      32.997  31.265  26.893  1.00  0.00     0.163 HD
BRANCH   5   7
ATOM      7  C   UNL A   1      35.851  30.881  28.587  1.00  0.00     0.039 A 
ATOM      8  C   UNL A   1      37.054  31.366  28.081  1.00  0.00     0.014 A 
ATOM      9  C   UNL A   1      35.875  29.878  29.565  1.00  0.00     0.014 A 
ATOM     10  C   UNL A   1      38.247  30.720  28.373  1.00  0.00     0.010 A 
ATOM     11  C   UNL A   1      37.087  29.293  29.944  1.00  0.00     0.010 A 
ATOM     12  C   UNL A   1      38.276  29.692  29.324  1.00  0.00    -0.014 A 
BRANCH  12  13
ATOM     13  C   UNL A   1      39.591  29.217  29.801  1.00  0.00     0.031 A 
ATOM     14  C   UNL A   1      40.312  29.875  30.935  1.00  0.00     0.074 A 
ATOM     15  C   UNL A   1      40.116  28.152  29.167  1.00  0.00     0.049 A 
ATOM     16  N   UNL A   1      41.447  29.533  31.483  1.00  0.00    -0.248 NA
ATOM     17  C   UNL A   1      39.689  31.067  31.529  1.00  0.00     0.031 C 
ATOM     18  C   UNL A   1      39.496  27.480  28.020  1.00  0.00     0.029 A 
ATOM     19  N   UNL A   1      41.270  27.452  29.380  1.00  0.00    -0.354 N 
ATOM     20  C   UNL A   1      41.697  30.482  32.466  1.00  0.00     0.074 A 
ATOM     21  C   UNL A   1      40.590  31.416  32.440  1.00  0.00     0.031 C 
ATOM     22  C   UNL A   1      40.268  26.457  27.640  1.00  0.00     0.029 A 
ATOM     23  C   UNL A   1      41.463  26.438  28.473  1.00  0.00     0.049 A 
ATOM     24  H   UNL A   1      41.901  27.654  30.109  1.00  0.00     0.167 HD
ATOM     25  C   UNL A   1      42.755  30.553  33.311  1.00  0.00     0.034 A 
ATOM     26  C   UNL A   1      42.502  25.600  28.305  1.00  0.00     0.034 A 
ATOM     27  C   UNL A   1      43.835  29.599  33.321  1.00  0.00     0.049 A 
ATOM     28  C   UNL A   1      43.646  25.688  29.266  1.00  0.00     0.074 A 
ATOM     29  C   UNL A   1      44.919  29.535  34.179  1.00  0.00     0.029 A 
ATOM     30  N   UNL A   1      43.979  28.552  32.419  1.00  0.00    -0.354 N 
ATOM     31  N   UNL A   1      43.803  26.508  30.276  1.00  0.00    -0.248 NA
ATOM     32  C   UNL A   1      44.738  24.725  29.090  1.00  0.00     0.031 C 
ATOM     33  C   UNL A   1      45.731  28.468  33.779  1.00  0.00     0.029 A 
ATOM     34  C   UNL A   1      45.141  27.849  32.688  1.00  0.00     0.049 A 
ATOM     35  H   UNL A   1      43.346  28.342  31.695  1.00  0.00     0.167 HD
ATOM     36  C   UNL A   1      45.001  26.150  30.875  1.00  0.00     0.074 A 
ATOM     37  C   UNL A   1      45.521  25.024  30.119  1.00  0.00     0.031 C 
ATOM     38  C   UNL A   1      45.618  26.708  31.944  1.00  0.00     0.034 A 
BRANCH  25  39
ATOM     39  C   UNL A   1      42.790  31.684  34.306  1.00  0.00     0.023 A 
ATOM     40  C   UNL A   1      43.384  32.911  33.950  1.00  0.00     0.012 A 
ATOM     41  C   UNL A   1      42.180  31.556  35.570  1.00  0.00     0.148 A 
ATOM     42  C   UNL A   1      43.395  33.983  34.845  1.00  0.00     0.002 A 
ATOM     43  C   UNL A   1      42.162  32.640  36.441  1.00  0.00     0.091 A 
ATOM     44  F   UNL A   1      41.641  30.375  35.906  1.00  0.00    -0.205 F 
ATOM     45  C   UNL A   1      42.776  33.851  36.085  1.00  0.00     0.022 A 
BRANCH  43  46
ATOM     46  S   UNL A   1      41.322  32.575  38.029  1.00  0.00     0.127 S 
ATOM     47  O   UNL A   1      39.990  32.117  37.640  1.00  0.00    -0.237 OA
ATOM     48  O   UNL A   1      42.114  31.589  38.766  1.00  0.00    -0.237 OA
ATOM     49  O   UNL A   1      41.397  33.926  38.568  1.00  0.00    -0.744 OA
ENDBRANCH  43  46
ENDBRANCH  25  39
BRANCH  26  50
ATOM     50  C   UNL A   1      42.443  24.608  27.200  1.00  0.00     0.023 A 
ATOM     51  C   UNL A   1      43.120  24.867  25.995  1.00  0.00     0.012 A 
ATOM     52  C   UNL A   1      41.850  23.345  27.404  1.00  0.00     0.148 A 
ATOM     53  C   UNL A   1      43.209  23.880  25.010  1.00  0.00     0.002 A 
ATOM     54  C   UNL A   1      41.998  22.350  26.449  1.00  0.00     0.091 A 
ATOM     55  F   UNL A   1      41.205  23.129  28.560  1.00  0.00    -0.205 F 
ATOM     56  C   UNL A   1      42.666  22.618  25.246  1.00  0.00     0.022 A 
BRANCH  54  57
ATOM     57  S   UNL A   1      41.488  20.652  26.748  1.00  0.00     0.127 S 
ATOM     58  O   UNL A   1      41.990  19.976  25.556  1.00  0.00    -0.237 OA
ATOM     59  O   UNL A   1      42.204  20.335  27.985  1.00  0.00    -0.237 OA
ATOM     60  O   UNL A   1      40.039  20.696  26.891  1.00  0.00    -0.744 OA
ENDBRANCH  54  57
ENDBRANCH  26  50
BRANCH  38  61
ATOM     61  C   UNL A   1      46.921  26.098  32.381  1.00  0.00     0.023 A 
ATOM     62  C   UNL A   1      48.131  26.578  31.843  1.00  0.00     0.012 A 
ATOM     63  C   UNL A   1      46.948  25.113  33.386  1.00  0.00     0.148 A 
ATOM     64  C   UNL A   1      49.350  26.069  32.286  1.00  0.00     0.002 A 
ATOM     65  C   UNL A   1      48.167  24.643  33.855  1.00  0.00     0.091 A 
ATOM     66  F   UNL A   1      45.781  24.658  33.866  1.00  0.00    -0.205 F 
ATOM     67  C   UNL A   1      49.369  25.113  33.300  1.00  0.00     0.022 A 
BRANCH  65  68
ATOM     68  S   UNL A   1      48.292  23.480  35.217  1.00  0.00     0.127 S 
ATOM     69  O   UNL A   1      47.519  24.154  36.258  1.00  0.00    -0.237 OA
ATOM     70  O   UNL A   1      47.655  22.285  34.661  1.00  0.00    -0.237 OA
ATOM     71  O   UNL A   1      49.715  23.333  35.493  1.00  0.00    -0.744 OA
ENDBRANCH  65  68
ENDBRANCH  38  61
ENDBRANCH  12  13
ENDBRANCH   5   7
ENDBRANCH   2   3
ENDBRANCH   1   2
BRANCH   1  72
ATOM     72  C   UNL A   1      31.922  28.244  27.228  1.00  0.00     0.117 C 
BRANCH  72  73
ATOM     73  N   UNL A   1      31.480  26.866  27.091  1.00  0.00    -0.355 N 
ATOM     74  C   UNL A   1      30.875  26.264  26.042  1.00  0.00     0.234 C 
ATOM     75  H   UNL A   1      31.642  26.290  27.872  1.00  0.00     0.163 HD
ATOM     76  O   UNL A   1      29.876  25.607  26.363  1.00  0.00    -0.274 OA
BRANCH  74  77
ATOM     77  C   UNL A   1      31.402  26.290  24.584  1.00  0.00     0.118 C 
ATOM     78  C   UNL A   1      31.411  27.804  24.171  1.00  0.00     0.031 C 
ATOM     79  C   UNL A   1      30.496  25.630  23.522  1.00  0.00     0.201 C 
ATOM     80  C   UNL A   1      32.841  25.745  24.518  1.00  0.00     0.142 C 
ATOM     81  C   UNL A   1      29.986  28.388  24.078  1.00  0.00     0.063 C 
ATOM     82  N   UNL A   1      29.095  26.064  23.624  1.00  0.00    -0.343 N 
ATOM     83  C   UNL A   1      30.626  24.118  23.435  1.00  0.00     0.087 C 
ATOM     84  N   UNL A   1      32.982  24.312  24.206  1.00  0.00    -0.341 N 
ATOM     85  C   UNL A   1      28.995  27.497  23.321  1.00  0.00     0.260 C 
ATOM     86  H   UNL A   1      28.528  25.537  22.960  1.00  0.00     0.346 HD
ATOM     87  H   UNL A   1      28.760  25.897  24.573  1.00  0.00     0.346 HD
ATOM     88  C   UNL A   1      32.087  23.761  23.193  1.00  0.00     0.125 C 
BRANCH  84  89
ATOM     89  C   UNL A   1      34.172  23.705  24.616  1.00  0.00     0.227 C 
ATOM     90  O   UNL A   1      35.231  23.957  24.031  1.00  0.00    -0.275 OA
BRANCH  89  91
ATOM     91  C   UNL A   1      34.191  22.775  25.829  1.00  0.00     0.140 C 
BRANCH  91  92
ATOM     92  C   UNL A   1      34.001  21.332  25.423  1.00  0.00     0.016 A 
ATOM     93  C   UNL A   1      32.691  20.837  25.341  1.00  0.00     0.128 A 
ATOM     94  C   UNL A   1      35.044  20.464  25.074  1.00  0.00     0.047 A 
ATOM     95  F   UNL A   1      31.662  21.611  25.712  1.00  0.00    -0.207 F 
ATOM     96  C   UNL A   1      32.412  19.550  24.892  1.00  0.00     0.039 A 
ATOM     97  C   UNL A   1      34.772  19.167  24.625  1.00  0.00     0.021 A 
ATOM     98  Cl  UNL A   1      36.706  20.909  25.184  1.00  0.00    -0.084 Cl
ATOM     99  C   UNL A   1      33.457  18.714  24.529  1.00  0.00     0.005 A 
ENDBRANCH  91  92
ENDBRANCH  89  91
ENDBRANCH  84  89
ENDBRANCH  74  77
ENDBRANCH  72  73
ENDBRANCH   1  72
TORSDOF 16
ENDMDL
MODEL 2
REMARK VINA RESULT:     -12.0      2.026      2.563
REMARK SMILES O=C(NCCCNC(=O)[C@]12CCC[NH2+][C@@H]1CCN(C(=O)Cc1c(F)cccc1Cl)C2)c1ccc(-c2c3nc(c(-c4cccc(S(=O)(=O)[O-])c4F)c4ccc([nH]4)c(-c4cccc(S(=O)(=O)[O-])c4F)c4nc(c(-c5cccc(S(=O)(=O)[O-])c5F)c5ccc2[nH]5)C=C4)C=C3)cc1
REMARK SMILES IDX 5 1 4 2 3 3 1 4 2 5 31 7 32 8 93 9 33 10 92 11 34 12 35 13
REMARK SMILES IDX 36 14 86 15 37 16 91 17 85 18 87 19 38 20 90 21 84 22 83 23
REMARK SMILES IDX 39 25 71 26 51 27 70 28 52 29 55 30 69 31 88 32 53 33 54 34
REMARK SMILES IDX 68 36 89 37 56 38 40 39 41 40 49 41 42 42 44 43 50 44 43 45
REMARK SMILES IDX 45 46 46 47 47 48 48 49 72 50 73 51 81 52 74 53 76 54 82 55
REMARK SMILES IDX 75 56 77 57 78 58 79 59 80 60 57 61 58 62 66 63 59 64 61 65
REMARK SMILES IDX 67 66 60 67 62 68 63 69 64 70 65 71 6 72 7 73 8 74 9 76
REMARK SMILES IDX 10 77 11 78 15 79 30 80 12 81 14 82 16 83 18 84 13 85 17 88
REMARK SMILES IDX 19 89 20 90 21 91 22 92 23 93 28 94 24 95 25 96 27 97 29 98
REMARK SMILES IDX 26 99
REMARK H PARENT 3 6 87 24 55 35 7 75 14 86 14 87
REMARK Flexibility Score: inf
ROOT
ATOM      1  C   UNL A   1      31.680  29.736  27.059  1.00  0.00     0.042 C 
ENDROOT
BRANCH   1   2
ATOM      2  C   UNL A   1      32.916  30.476  26.557  1.00  0.00     0.118 C 
BRANCH   2   3
ATOM      3  N   UNL A   1      32.909  31.897  26.873  1.00  0.00    -0.352 N 
ATOM      4  O   UNL A   1      33.396  33.821  27.913  1.00  0.00    -0.269 OA
ATOM      5  C   UNL A   1      33.725  32.659  27.674  1.00  0.00     0.251 C 
ATOM      6  H   UNL A   1      32.188  32.403  26.434  1.00  0.00     0.163 HD
BRANCH   5   7
ATOM      7  C   UNL A   1      34.932  32.088  28.314  1.00  0.00     0.039 A 
ATOM      8  C   UNL A   1      36.121  32.806  28.410  1.00  0.00     0.014 A 
ATOM      9  C   UNL A   1      34.866  30.799  28.859  1.00  0.00     0.014 A 
ATOM     10  C   UNL A   1      37.284  32.181  28.837  1.00  0.00     0.010 A 
ATOM     11  C   UNL A   1      36.012  30.199  29.389  1.00  0.00     0.010 A 
ATOM     12  C   UNL A   1      37.234  30.878  29.350  1.00  0.00    -0.014 A 
BRANCH  12  13
ATOM     13  C   UNL A   1      38.432  30.351  30.037  1.00  0.00     0.031 A 
ATOM     14  C   UNL A   1      38.823  30.796  31.410  1.00  0.00     0.074 A 
ATOM     15  C   UNL A   1      39.161  29.439  29.366  1.00  0.00     0.049 A 
ATOM     16  N   UNL A   1      39.820  30.381  32.146  1.00  0.00    -0.248 NA
ATOM     17  C   UNL A   1      37.999  31.837  32.042  1.00  0.00     0.031 C 
ATOM     18  C   UNL A   1      38.871  28.985  28.002  1.00  0.00     0.029 A 
ATOM     19  N   UNL A   1      40.279  28.738  29.721  1.00  0.00    -0.354 N 
ATOM     20  C   UNL A   1      39.769  31.129  33.314  1.00  0.00     0.074 A 
ATOM     21  C   UNL A   1      38.638  32.025  33.191  1.00  0.00     0.031 C 
ATOM     22  C   UNL A   1      39.779  28.072  27.641  1.00  0.00     0.029 A 
ATOM     23  C   UNL A   1      40.746  27.921  28.720  1.00  0.00     0.049 A 
ATOM     24  H   UNL A   1      40.707  28.811  30.605  1.00  0.00     0.167 HD
ATOM     25  C   UNL A   1      40.594  31.062  34.388  1.00  0.00     0.034 A 
ATOM     26  C   UNL A   1      41.850  27.155  28.660  1.00  0.00     0.034 A 
ATOM     27  C   UNL A   1      41.705  30.148  34.486  1.00  0.00     0.049 A 
ATOM     28  C   UNL A   1      42.730  27.083  29.867  1.00  0.00     0.074 A 
ATOM     29  C   UNL A   1      42.561  29.946  35.554  1.00  0.00     0.029 A 
ATOM     30  N   UNL A   1      42.125  29.297  33.471  1.00  0.00    -0.354 N 
ATOM     31  N   UNL A   1      42.592  27.698  31.017  1.00  0.00    -0.248 NA
ATOM     32  C   UNL A   1      43.896  26.197  29.789  1.00  0.00     0.031 C 
ATOM     33  C   UNL A   1      43.514  28.994  35.175  1.00  0.00     0.029 A 
ATOM     34  C   UNL A   1      43.238  28.582  33.881  1.00  0.00     0.049 A 
ATOM     35  H   UNL A   1      41.694  29.215  32.590  1.00  0.00     0.167 HD
ATOM     36  C   UNL A   1      43.639  27.259  31.812  1.00  0.00     0.074 A 
ATOM     37  C   UNL A   1      44.396  26.312  31.013  1.00  0.00     0.031 C 
ATOM     38  C   UNL A   1      43.951  27.616  33.081  1.00  0.00     0.034 A 
BRANCH  25  39
ATOM     39  C   UNL A   1      40.320  31.981  35.549  1.00  0.00     0.023 A 
ATOM     40  C   UNL A   1      41.105  33.139  35.726  1.00  0.00     0.012 A 
ATOM     41  C   UNL A   1      39.246  31.737  36.429  1.00  0.00     0.148 A 
ATOM     42  C   UNL A   1      40.844  34.022  36.775  1.00  0.00     0.002 A 
ATOM     43  C   UNL A   1      38.970  32.642  37.449  1.00  0.00     0.091 A 
ATOM     44  F   UNL A   1      38.524  30.620  36.266  1.00  0.00    -0.205 F 
ATOM     45  C   UNL A   1      39.772  33.779  37.629  1.00  0.00     0.022 A 
BRANCH  43  46
ATOM     46  S   UNL A   1      37.561  32.440  38.548  1.00  0.00     0.127 S 
ATOM     47  O   UNL A   1      37.564  30.996  38.770  1.00  0.00    -0.237 OA
ATOM     48  O   UNL A   1      37.953  33.236  39.713  1.00  0.00    -0.237 OA
ATOM     49  O   UNL A   1      36.417  32.968  37.819  1.00  0.00    -0.744 OA
ENDBRANCH  43  46
ENDBRANCH  25  39
BRANCH  26  50
ATOM     50  C   UNL A   1      42.117  26.392  27.412  1.00  0.00     0.023 A 
ATOM     51  C   UNL A   1      42.824  27.002  26.360  1.00  0.00     0.012 A 
ATOM     52  C   UNL A   1      41.809  25.018  27.335  1.00  0.00     0.148 A 
ATOM     53  C   UNL A   1      43.224  26.252  25.251  1.00  0.00     0.002 A 
ATOM     54  C   UNL A   1      42.265  24.267  26.261  1.00  0.00     0.091 A 
ATOM     55  F   UNL A   1      41.128  24.465  28.349  1.00  0.00    -0.205 F 
ATOM     56  C   UNL A   1      42.961  24.884  25.211  1.00  0.00     0.022 A 
BRANCH  54  57
ATOM     57  S   UNL A   1      42.127  22.475  26.218  1.00  0.00     0.127 S 
ATOM     58  O   UNL A   1      40.680  22.288  26.185  1.00  0.00    -0.237 OA
ATOM     59  O   UNL A   1      42.821  22.149  24.971  1.00  0.00    -0.237 OA
ATOM     60  O   UNL A   1      42.802  22.000  27.419  1.00  0.00    -0.744 OA
ENDBRANCH  54  57
ENDBRANCH  26  50
BRANCH  38  61
ATOM     61  C   UNL A   1      45.155  26.964  33.702  1.00  0.00     0.023 A 
ATOM     62  C   UNL A   1      46.382  27.655  33.737  1.00  0.00     0.012 A 
ATOM     63  C   UNL A   1      45.045  25.706  34.324  1.00  0.00     0.148 A 
ATOM     64  C   UNL A   1      47.490  27.091  34.368  1.00  0.00     0.002 A 
ATOM     65  C   UNL A   1      46.141  25.171  34.990  1.00  0.00     0.091 A 
ATOM     66  F   UNL A   1      43.872  25.060  34.256  1.00  0.00    -0.205 F 
ATOM     67  C   UNL A   1      47.366  25.858  35.005  1.00  0.00     0.022 A 
BRANCH  65  68
ATOM     68  S   UNL A   1      46.050  23.633  35.911  1.00  0.00     0.127 S 
ATOM     69  O   UNL A   1      44.938  23.895  36.822  1.00  0.00    -0.237 OA
ATOM     70  O   UNL A   1      45.760  22.659  34.858  1.00  0.00    -0.237 OA
ATOM     71  O   UNL A   1      47.351  23.467  36.546  1.00  0.00    -0.744 OA
ENDBRANCH  65  68
ENDBRANCH  38  61
ENDBRANCH  12  13
ENDBRANCH   5   7
ENDBRANCH   2   3
ENDBRANCH   1   2
BRANCH   1  72
ATOM     72  C   UNL A   1      31.880  28.223  27.082  1.00  0.00     0.117 C 
BRANCH  72  73
ATOM     73  N   UNL A   1      31.090  27.595  26.036  1.00  0.00    -0.355 N 
ATOM     74  C   UNL A   1      31.456  27.248  24.781  1.00  0.00     0.234 C 
ATOM     75  H   UNL A   1      30.156  27.395  26.273  1.00  0.00     0.163 HD
ATOM     76  O   UNL A   1      30.655  27.624  23.915  1.00  0.00    -0.274 OA
BRANCH  74  77
ATOM     77  C   UNL A   1      32.695  26.385  24.430  1.00  0.00     0.118 C 
ATOM     78  C   UNL A   1      33.936  27.303  24.709  1.00  0.00     0.031 C 
ATOM     79  C   UNL A   1      32.855  26.001  22.942  1.00  0.00     0.201 C 
ATOM     80  C   UNL A   1      32.772  25.148  25.344  1.00  0.00     0.142 C 
ATOM     81  C   UNL A   1      34.006  28.496  23.734  1.00  0.00     0.063 C 
ATOM     82  N   UNL A   1      32.694  27.150  22.040  1.00  0.00    -0.343 N 
ATOM     83  C   UNL A   1      32.025  24.805  22.507  1.00  0.00     0.087 C 
ATOM     84  N   UNL A   1      32.160  23.912  24.823  1.00  0.00    -0.341 N 
ATOM     85  C   UNL A   1      33.775  28.117  22.266  1.00  0.00     0.260 C 
ATOM     86  H   UNL A   1      32.724  26.829  21.073  1.00  0.00     0.346 HD
ATOM     87  H   UNL A   1      31.798  27.600  22.226  1.00  0.00     0.346 HD
ATOM     88  C   UNL A   1      32.353  23.621  23.406  1.00  0.00     0.125 C 
BRANCH  84  89
ATOM     89  C   UNL A   1      31.780  22.963  25.775  1.00  0.00     0.227 C 
ATOM     90  O   UNL A   1      30.629  22.514  25.781  1.00  0.00    -0.275 OA
BRANCH  89  91
ATOM     91  C   UNL A   1      32.798  22.419  26.778  1.00  0.00     0.140 C 
BRANCH  91  92
ATOM     92  C   UNL A   1      33.963  21.757  26.080  1.00  0.00     0.016 A 
ATOM     93  C   UNL A   1      35.218  22.381  26.155  1.00  0.00     0.128 A 
ATOM     94  C   UNL A   1      33.888  20.533  25.403  1.00  0.00     0.047 A 
ATOM     95  F   UNL A   1      35.333  23.577  26.749  1.00  0.00    -0.207 F 
ATOM     96  C   UNL A   1      36.365  21.804  25.621  1.00  0.00     0.039 A 
ATOM     97  C   UNL A   1      35.037  19.948  24.859  1.00  0.00     0.021 A 
ATOM     98  Cl  UNL A   1      32.407  19.681  25.174  1.00  0.00    -0.084 Cl
ATOM     99  C   UNL A   1      36.275  20.580  24.974  1.00  0.00     0.005 A 
ENDBRANCH  91  92
ENDBRANCH  89  91
ENDBRANCH  84  89
ENDBRANCH  74  77
ENDBRANCH  72  73
ENDBRANCH   1  72
TORSDOF 16
ENDMDL
MODEL 3
REMARK VINA RESULT:     -11.9      4.494      9.448
REMARK SMILES O=C(NCCCNC(=O)[C@]12CCC[NH2+][C@@H]1CCN(C(=O)Cc1c(F)cccc1Cl)C2)c1ccc(-c2c3nc(c(-c4cccc(S(=O)(=O)[O-])c4F)c4ccc([nH]4)c(-c4cccc(S(=O)(=O)[O-])c4F)c4nc(c(-c5cccc(S(=O)(=O)[O-])c5F)c5ccc2[nH]5)C=C4)C=C3)cc1
REMARK SMILES IDX 5 1 4 2 3 3 1 4 2 5 31 7 32 8 93 9 33 10 92 11 34 12 35 13
REMARK SMILES IDX 36 14 86 15 37 16 91 17 85 18 87 19 38 20 90 21 84 22 83 23
REMARK SMILES IDX 39 25 71 26 51 27 70 28 52 29 55 30 69 31 88 32 53 33 54 34
REMARK SMILES IDX 68 36 89 37 56 38 40 39 41 40 49 41 42 42 44 43 50 44 43 45
REMARK SMILES IDX 45 46 46 47 47 48 48 49 72 50 73 51 81 52 74 53 76 54 82 55
REMARK SMILES IDX 75 56 77 57 78 58 79 59 80 60 57 61 58 62 66 63 59 64 61 65
REMARK SMILES IDX 67 66 60 67 62 68 63 69 64 70 65 71 6 72 7 73 8 74 9 76
REMARK SMILES IDX 10 77 11 78 15 79 30 80 12 81 14 82 16 83 18 84 13 85 17 88
REMARK SMILES IDX 19 89 20 90 21 91 22 92 23 93 28 94 24 95 25 96 27 97 29 98
REMARK SMILES IDX 26 99
REMARK H PARENT 3 6 87 24 55 35 7 75 14 86 14 87
REMARK Flexibility Score: inf
ROOT
ATOM      1  C   UNL A   1      36.358  23.762  24.608  1.00  0.00     0.042 C 
ENDROOT
BRANCH   1   2
ATOM      2  C   UNL A   1      36.690  23.287  26.021  1.00  0.00     0.118 C 
BRANCH   2   3
ATOM      3  N   UNL A   1      37.850  22.410  26.079  1.00  0.00    -0.352 N 
ATOM      4  O   UNL A   1      39.993  21.765  26.192  1.00  0.00    -0.269 OA
ATOM      5  C   UNL A   1      39.166  22.655  26.388  1.00  0.00     0.251 C 
ATOM      6  H   UNL A   1      37.657  21.472  25.857  1.00  0.00     0.163 HD
BRANCH   5   7
ATOM      7  C   UNL A   1      39.614  23.984  26.865  1.00  0.00     0.039 A 
ATOM      8  C   UNL A   1      39.628  24.312  28.218  1.00  0.00     0.014 A 
ATOM      9  C   UNL A   1      40.058  24.927  25.929  1.00  0.00     0.014 A 
ATOM     10  C   UNL A   1      39.864  25.619  28.620  1.00  0.00     0.010 A 
ATOM     11  C   UNL A   1      40.401  26.219  26.339  1.00  0.00     0.010 A 
ATOM     12  C   UNL A   1      40.274  26.578  27.685  1.00  0.00    -0.014 A 
BRANCH  12  13
ATOM     13  C   UNL A   1      40.772  27.876  28.187  1.00  0.00     0.031 A 
ATOM     14  C   UNL A   1      42.228  28.218  28.201  1.00  0.00     0.074 A 
ATOM     15  C   UNL A   1      39.847  28.747  28.632  1.00  0.00     0.049 A 
ATOM     16  N   UNL A   1      42.796  29.335  28.570  1.00  0.00    -0.248 NA
ATOM     17  C   UNL A   1      43.169  27.183  27.750  1.00  0.00     0.031 C 
ATOM     18  C   UNL A   1      38.408  28.471  28.694  1.00  0.00     0.029 A 
ATOM     19  N   UNL A   1      39.964  30.021  29.114  1.00  0.00    -0.354 N 
ATOM     20  C   UNL A   1      44.163  29.133  28.429  1.00  0.00     0.074 A 
ATOM     21  C   UNL A   1      44.339  27.782  27.937  1.00  0.00     0.031 C 
ATOM     22  C   UNL A   1      37.774  29.547  29.171  1.00  0.00     0.029 A 
ATOM     23  C   UNL A   1      38.764  30.563  29.506  1.00  0.00     0.049 A 
ATOM     24  H   UNL A   1      40.821  30.502  29.174  1.00  0.00     0.167 HD
ATOM     25  C   UNL A   1      45.169  30.005  28.685  1.00  0.00     0.034 A 
ATOM     26  C   UNL A   1      38.487  31.738  30.099  1.00  0.00     0.034 A 
ATOM     27  C   UNL A   1      44.959  31.349  29.161  1.00  0.00     0.049 A 
ATOM     28  C   UNL A   1      39.614  32.689  30.349  1.00  0.00     0.074 A 
ATOM     29  C   UNL A   1      45.900  32.339  29.386  1.00  0.00     0.029 A 
ATOM     30  N   UNL A   1      43.725  31.887  29.505  1.00  0.00    -0.354 N 
ATOM     31  N   UNL A   1      40.888  32.533  30.085  1.00  0.00    -0.248 NA
ATOM     32  C   UNL A   1      39.272  33.984  30.948  1.00  0.00     0.031 C 
ATOM     33  C   UNL A   1      45.238  33.464  29.891  1.00  0.00     0.029 A 
ATOM     34  C   UNL A   1      43.881  33.186  29.956  1.00  0.00     0.049 A 
ATOM     35  H   UNL A   1      42.866  31.413  29.437  1.00  0.00     0.167 HD
ATOM     36  C   UNL A   1      41.503  33.717  30.463  1.00  0.00     0.074 A 
ATOM     37  C   UNL A   1      40.454  34.587  30.961  1.00  0.00     0.031 C 
ATOM     38  C   UNL A   1      42.816  34.047  30.411  1.00  0.00     0.034 A 
BRANCH  25  39
ATOM     39  C   UNL A   1      46.582  29.546  28.438  1.00  0.00     0.023 A 
ATOM     40  C   UNL A   1      47.204  29.829  27.205  1.00  0.00     0.012 A 
ATOM     41  C   UNL A   1      47.319  28.892  29.446  1.00  0.00     0.148 A 
ATOM     42  C   UNL A   1      48.525  29.443  26.969  1.00  0.00     0.002 A 
ATOM     43  C   UNL A   1      48.646  28.545  29.217  1.00  0.00     0.091 A 
ATOM     44  F   UNL A   1      46.707  28.606  30.604  1.00  0.00    -0.205 F 
ATOM     45  C   UNL A   1      49.248  28.811  27.978  1.00  0.00     0.022 A 
BRANCH  43  46
ATOM     46  S   UNL A   1      49.669  27.793  30.489  1.00  0.00     0.127 S 
ATOM     47  O   UNL A   1      50.947  27.650  29.795  1.00  0.00    -0.237 OA
ATOM     48  O   UNL A   1      49.659  28.809  31.543  1.00  0.00    -0.237 OA
ATOM     49  O   UNL A   1      48.999  26.551  30.848  1.00  0.00    -0.744 OA
ENDBRANCH  43  46
ENDBRANCH  25  39
BRANCH  26  50
ATOM     50  C   UNL A   1      37.073  32.045  30.440  1.00  0.00     0.023 A 
ATOM     51  C   UNL A   1      36.623  31.880  31.762  1.00  0.00     0.012 A 
ATOM     52  C   UNL A   1      36.223  32.648  29.490  1.00  0.00     0.148 A 
ATOM     53  C   UNL A   1      35.349  32.315  32.134  1.00  0.00     0.002 A 
ATOM     54  C   UNL A   1      34.984  33.136  29.881  1.00  0.00     0.091 A 
ATOM     55  F   UNL A   1      36.675  32.786  28.235  1.00  0.00    -0.205 F 
ATOM     56  C   UNL A   1      34.539  32.959  31.200  1.00  0.00     0.022 A 
BRANCH  54  57
ATOM     57  S   UNL A   1      33.959  34.132  28.792  1.00  0.00     0.127 S 
ATOM     58  O   UNL A   1      34.898  35.163  28.360  1.00  0.00    -0.237 OA
ATOM     59  O   UNL A   1      33.587  33.164  27.759  1.00  0.00    -0.237 OA
ATOM     60  O   UNL A   1      32.845  34.591  29.611  1.00  0.00    -0.744 OA
ENDBRANCH  54  57
ENDBRANCH  26  50
BRANCH  38  61
ATOM     61  C   UNL A   1      43.198  35.421  30.888  1.00  0.00     0.023 A 
ATOM     62  C   UNL A   1      43.540  35.620  32.240  1.00  0.00     0.012 A 
ATOM     63  C   UNL A   1      43.300  36.490  29.979  1.00  0.00     0.148 A 
ATOM     64  C   UNL A   1      43.959  36.873  32.684  1.00  0.00     0.002 A 
ATOM     65  C   UNL A   1      43.763  37.723  30.418  1.00  0.00     0.091 A 
ATOM     66  F   UNL A   1      42.948  36.279  28.702  1.00  0.00    -0.205 F 
ATOM     67  C   UNL A   1      44.084  37.919  31.771  1.00  0.00     0.022 A 
BRANCH  65  68
ATOM     68  S   UNL A   1      44.039  39.102  29.301  1.00  0.00     0.127 S 
ATOM     69  O   UNL A   1      42.685  39.377  28.826  1.00  0.00    -0.237 OA
ATOM     70  O   UNL A   1      44.590  40.119  30.197  1.00  0.00    -0.237 OA
ATOM     71  O   UNL A   1      44.969  38.620  28.289  1.00  0.00    -0.744 OA
ENDBRANCH  65  68
ENDBRANCH  38  61
ENDBRANCH  12  13
ENDBRANCH   5   7
ENDBRANCH   2   3
ENDBRANCH   1   2
BRANCH   1  72
ATOM     72  C   UNL A   1      35.169  23.015  24.011  1.00  0.00     0.117 C 
BRANCH  72  73
ATOM     73  N   UNL A   1      34.143  23.956  23.591  1.00  0.00    -0.355 N 
ATOM     74  C   UNL A   1      32.912  24.166  24.110  1.00  0.00     0.234 C 
ATOM     75  H   UNL A   1      34.377  24.520  22.819  1.00  0.00     0.163 HD
ATOM     76  O   UNL A   1      32.018  24.194  23.255  1.00  0.00    -0.274 OA
BRANCH  74  77
ATOM     77  C   UNL A   1      32.621  24.443  25.607  1.00  0.00     0.118 C 
ATOM     78  C   UNL A   1      33.135  23.175  26.374  1.00  0.00     0.031 C 
ATOM     79  C   UNL A   1      31.130  24.527  26.004  1.00  0.00     0.201 C 
ATOM     80  C   UNL A   1      33.406  25.675  26.094  1.00  0.00     0.142 C 
ATOM     81  C   UNL A   1      32.302  21.919  26.043  1.00  0.00     0.063 C 
ATOM     82  N   UNL A   1      30.339  23.409  25.472  1.00  0.00    -0.343 N 
ATOM     83  C   UNL A   1      30.481  25.874  25.733  1.00  0.00     0.087 C 
ATOM     84  N   UNL A   1      32.694  26.964  26.045  1.00  0.00    -0.341 N 
ATOM     85  C   UNL A   1      30.787  22.148  26.077  1.00  0.00     0.260 C 
ATOM     86  H   UNL A   1      29.353  23.557  25.690  1.00  0.00     0.346 HD
ATOM     87  H   UNL A   1      30.464  23.359  24.461  1.00  0.00     0.346 HD
ATOM     88  C   UNL A   1      31.287  26.961  26.432  1.00  0.00     0.125 C 
BRANCH  84  89
ATOM     89  C   UNL A   1      33.493  28.110  25.999  1.00  0.00     0.227 C 
ATOM     90  O   UNL A   1      34.231  28.391  26.948  1.00  0.00    -0.275 OA
BRANCH  89  91
ATOM     91  C   UNL A   1      33.513  28.991  24.750  1.00  0.00     0.140 C 
BRANCH  91  92
ATOM     92  C   UNL A   1      32.204  28.916  23.998  1.00  0.00     0.016 A 
ATOM     93  C   UNL A   1      31.135  29.701  24.457  1.00  0.00     0.128 A 
ATOM     94  C   UNL A   1      31.999  28.155  22.841  1.00  0.00     0.047 A 
ATOM     95  F   UNL A   1      31.265  30.409  25.587  1.00  0.00    -0.207 F 
ATOM     96  C   UNL A   1      29.921  29.767  23.781  1.00  0.00     0.039 A 
ATOM     97  C   UNL A   1      30.779  28.212  22.157  1.00  0.00     0.021 A 
ATOM     98  Cl  UNL A   1      33.196  27.096  22.194  1.00  0.00    -0.084 Cl
ATOM     99  C   UNL A   1      29.745  29.023  22.624  1.00  0.00     0.005 A 
ENDBRANCH  91  92
ENDBRANCH  89  91
ENDBRANCH  84  89
ENDBRANCH  74  77
ENDBRANCH  72  73
ENDBRANCH   1  72
TORSDOF 16
ENDMDL
