MODEL 1
REMARK VINA RESULT:     -12.4      0.000      0.000
REMARK SMILES Cc1cc(C)n2nc(SCC(=O)N3CCC(C(=O)NCCCNC(=O)c4ccc(-c5c6nc(c(-c7cccc(S(=O)(=O)[O-])c7F)c7ccc([nH]7)c(-c7cccc(S(=O)(=O)[O-])c7F)c7nc(c(-c8cccc(S(=O)(=O)[O-])c8F)c8ccc5[nH]8)C=C7)C=C6)cc4)CC3)nc2n1
REMARK SMILES IDX 21 1 20 2 19 3 17 4 18 5 16 7 11 8 12 9 13 10 14 11 90 12
REMARK SMILES IDX 15 13 89 14 10 15 9 16 8 17 1 18 2 19 3 20 93 21 4 22 92 23
REMARK SMILES IDX 5 24 6 25 91 26 7 27 22 28 23 29 24 30 25 32 26 33 27 34
REMARK SMILES IDX 88 35 28 36 87 37 29 38 30 39 31 40 81 41 32 42 86 43 80 44
REMARK SMILES IDX 82 45 33 46 85 47 79 48 78 49 34 51 66 52 46 53 65 54 47 55
REMARK SMILES IDX 50 56 64 57 83 58 48 59 49 60 63 62 84 63 51 64 35 65 36 66
REMARK SMILES IDX 44 67 37 68 39 69 45 70 38 71 40 72 41 73 42 74 43 75 67 76
REMARK SMILES IDX 68 77 76 78 69 79 71 80 77 81 70 82 72 83 73 84 74 85 75 86
REMARK SMILES IDX 52 87 53 88 61 89 54 90 56 91 62 92 55 93 57 94 58 95 59 96
REMARK SMILES IDX 60 97
REMARK H PARENT 19 6 23 31 82 50 50 61
REMARK Flexibility Score: inf
ROOT
ATOM      1  C   UNL A   1      33.462  30.768  27.286  1.00  0.00     0.042 C 
ENDROOT
BRANCH   1   2
ATOM      2  C   UNL A   1      34.025  29.468  26.712  1.00  0.00     0.117 C 
BRANCH   2   3
ATOM      3  N   UNL A   1      33.741  29.275  25.294  1.00  0.00    -0.356 N 
ATOM      4  C   UNL A   1      32.802  28.506  24.673  1.00  0.00     0.223 C 
ATOM      5  O   UNL A   1      32.668  28.616  23.454  1.00  0.00    -0.275 OA
ATOM      6  H   UNL A   1      34.322  29.784  24.685  1.00  0.00     0.163 HD
BRANCH   4   7
ATOM      7  C   UNL A   1      31.904  27.559  25.457  1.00  0.00     0.082 C 
ATOM      8  C   UNL A   1      31.024  23.818  24.558  1.00  0.00     0.233 C 
ATOM      9  O   UNL A   1      30.698  23.952  23.374  1.00  0.00    -0.274 OA
ATOM     10  N   UNL A   1      30.893  24.877  25.453  1.00  0.00    -0.342 N 
ATOM     11  C   UNL A   1      29.951  25.945  25.149  1.00  0.00     0.120 C 
ATOM     12  C   UNL A   1      31.849  25.225  26.494  1.00  0.00     0.120 C 
ATOM     13  C   UNL A   1      30.653  27.191  24.647  1.00  0.00     0.035 C 
ATOM     14  C   UNL A   1      32.723  26.386  26.029  1.00  0.00     0.035 C 
BRANCH   8  15
ATOM     15  C   UNL A   1      31.267  22.422  25.116  1.00  0.00     0.178 C 
BRANCH  15  16
ATOM     16  S   UNL A   1      32.257  21.278  24.160  1.00  0.00    -0.074 SA
BRANCH  16  17
ATOM     17  C   UNL A   1      33.895  21.655  24.582  1.00  0.00     0.211 A 
ATOM     18  C   UNL A   1      38.504  24.432  26.596  1.00  0.00     0.067 C 
ATOM     19  C   UNL A   1      37.560  23.418  26.000  1.00  0.00     0.043 A 
ATOM     20  C   UNL A   1      38.135  22.073  25.671  1.00  0.00     0.047 A 
ATOM     21  N   UNL A   1      36.316  23.757  25.843  1.00  0.00    -0.216 NA
ATOM     22  C   UNL A   1      37.280  21.160  25.177  1.00  0.00     0.045 A 
ATOM     23  C   UNL A   1      35.489  22.808  25.322  1.00  0.00     0.253 A 
ATOM     24  C   UNL A   1      37.697  19.768  24.818  1.00  0.00     0.067 C 
ATOM     25  N   UNL A   1      35.940  21.522  24.994  1.00  0.00    -0.200 N 
ATOM     26  N   UNL A   1      34.206  22.890  25.058  1.00  0.00    -0.183 NA
ATOM     27  N   UNL A   1      34.900  20.786  24.526  1.00  0.00    -0.138 NA
ENDBRANCH  16  17
ENDBRANCH  15  16
ENDBRANCH   8  15
ENDBRANCH   4   7
ENDBRANCH   2   3
ENDBRANCH   1   2
BRANCH   1  28
ATOM     28  C   UNL A   1      34.551  31.749  27.657  1.00  0.00     0.118 C 
BRANCH  28  29
ATOM     29  N   UNL A   1      34.428  32.244  29.033  1.00  0.00    -0.352 N 
ATOM     30  C   UNL A   1      35.214  31.904  30.123  1.00  0.00     0.251 C 
ATOM     31  H   UNL A   1      33.706  32.892  29.200  1.00  0.00     0.163 HD
ATOM     32  O   UNL A   1      34.849  32.133  31.260  1.00  0.00    -0.269 OA
BRANCH  30  33
ATOM     33  C   UNL A   1      36.515  31.267  29.839  1.00  0.00     0.039 A 
ATOM     34  C   UNL A   1      37.675  32.008  29.609  1.00  0.00     0.014 A 
ATOM     35  C   UNL A   1      36.551  29.877  29.904  1.00  0.00     0.014 A 
ATOM     36  C   UNL A   1      38.888  31.327  29.521  1.00  0.00     0.010 A 
ATOM     37  C   UNL A   1      37.752  29.244  30.041  1.00  0.00     0.010 A 
ATOM     38  C   UNL A   1      38.915  29.943  29.759  1.00  0.00    -0.014 A 
BRANCH  38  39
ATOM     39  C   UNL A   1      40.160  29.194  29.803  1.00  0.00     0.031 A 
ATOM     40  C   UNL A   1      40.685  28.955  31.170  1.00  0.00     0.074 A 
ATOM     41  C   UNL A   1      40.674  28.588  28.711  1.00  0.00     0.049 A 
ATOM     42  N   UNL A   1      41.719  29.507  31.711  1.00  0.00    -0.248 NA
ATOM     43  C   UNL A   1      39.887  28.146  32.102  1.00  0.00     0.031 C 
ATOM     44  C   UNL A   1      40.096  28.478  27.362  1.00  0.00     0.029 A 
ATOM     45  N   UNL A   1      41.785  27.815  28.615  1.00  0.00    -0.354 N 
ATOM     46  C   UNL A   1      41.848  28.916  32.965  1.00  0.00     0.074 A 
ATOM     47  C   UNL A   1      40.587  28.277  33.232  1.00  0.00     0.031 C 
ATOM     48  C   UNL A   1      40.719  27.493  26.679  1.00  0.00     0.029 A 
ATOM     49  C   UNL A   1      41.854  27.043  27.459  1.00  0.00     0.049 A 
ATOM     50  H   UNL A   1      42.485  27.800  29.306  1.00  0.00     0.167 HD
ATOM     51  C   UNL A   1      43.071  28.786  33.552  1.00  0.00     0.034 A 
ATOM     52  C   UNL A   1      42.773  26.087  27.179  1.00  0.00     0.034 A 
ATOM     53  C   UNL A   1      44.052  29.611  32.884  1.00  0.00     0.049 A 
ATOM     54  C   UNL A   1      43.950  26.375  28.029  1.00  0.00     0.074 A 
ATOM     55  C   UNL A   1      44.175  30.962  32.627  1.00  0.00     0.029 A 
ATOM     56  N   UNL A   1      44.896  28.982  31.998  1.00  0.00    -0.354 N 
ATOM     57  N   UNL A   1      44.678  27.450  27.900  1.00  0.00    -0.248 NA
ATOM     58  C   UNL A   1      44.031  25.712  29.320  1.00  0.00     0.031 C 
ATOM     59  C   UNL A   1      44.689  31.034  31.299  1.00  0.00     0.029 A 
ATOM     60  C   UNL A   1      44.928  29.732  30.851  1.00  0.00     0.049 A 
ATOM     61  H   UNL A   1      45.386  28.144  32.158  1.00  0.00     0.167 HD
ATOM     62  C   UNL A   1      44.927  27.855  29.205  1.00  0.00     0.074 A 
ATOM     63  C   UNL A   1      44.597  26.691  30.031  1.00  0.00     0.031 C 
ATOM     64  C   UNL A   1      45.087  29.176  29.522  1.00  0.00     0.034 A 
BRANCH  51  65
ATOM     65  C   UNL A   1      43.492  27.662  34.476  1.00  0.00     0.023 A 
ATOM     66  C   UNL A   1      43.975  28.031  35.754  1.00  0.00     0.012 A 
ATOM     67  C   UNL A   1      43.689  26.317  34.089  1.00  0.00     0.148 A 
ATOM     68  C   UNL A   1      44.679  27.135  36.567  1.00  0.00     0.002 A 
ATOM     69  C   UNL A   1      44.320  25.408  34.934  1.00  0.00     0.091 A 
ATOM     70  F   UNL A   1      43.390  25.920  32.853  1.00  0.00    -0.205 F 
ATOM     71  C   UNL A   1      44.848  25.821  36.158  1.00  0.00     0.022 A 
BRANCH  69  72
ATOM     72  S   UNL A   1      44.518  23.678  34.480  1.00  0.00     0.127 S 
ATOM     73  O   UNL A   1      45.133  23.129  35.685  1.00  0.00    -0.237 OA
ATOM     74  O   UNL A   1      43.131  23.271  34.249  1.00  0.00    -0.237 OA
ATOM     75  O   UNL A   1      45.345  23.680  33.281  1.00  0.00    -0.744 OA
ENDBRANCH  69  72
ENDBRANCH  51  65
BRANCH  52  76
ATOM     76  C   UNL A   1      42.626  24.823  26.423  1.00  0.00     0.023 A 
ATOM     77  C   UNL A   1      43.346  24.631  25.228  1.00  0.00     0.012 A 
ATOM     78  C   UNL A   1      42.010  23.698  27.018  1.00  0.00     0.148 A 
ATOM     79  C   UNL A   1      43.480  23.357  24.661  1.00  0.00     0.002 A 
ATOM     80  C   UNL A   1      42.149  22.433  26.454  1.00  0.00     0.091 A 
ATOM     81  F   UNL A   1      41.367  23.861  28.181  1.00  0.00    -0.205 F 
ATOM     82  C   UNL A   1      42.892  22.257  25.280  1.00  0.00     0.022 A 
BRANCH  80  83
ATOM     83  S   UNL A   1      41.468  20.953  27.218  1.00  0.00     0.127 S 
ATOM     84  O   UNL A   1      40.976  20.215  26.054  1.00  0.00    -0.237 OA
ATOM     85  O   UNL A   1      42.648  20.374  27.856  1.00  0.00    -0.237 OA
ATOM     86  O   UNL A   1      40.428  21.417  28.126  1.00  0.00    -0.744 OA
ENDBRANCH  80  83
ENDBRANCH  52  76
BRANCH  64  87
ATOM     87  C   UNL A   1      45.170  30.183  28.392  1.00  0.00     0.023 A 
ATOM     88  C   UNL A   1      44.018  30.760  27.814  1.00  0.00     0.012 A 
ATOM     89  C   UNL A   1      46.426  30.721  28.064  1.00  0.00     0.148 A 
ATOM     90  C   UNL A   1      44.114  31.837  26.929  1.00  0.00     0.002 A 
ATOM     91  C   UNL A   1      46.516  31.825  27.223  1.00  0.00     0.091 A 
ATOM     92  F   UNL A   1      47.514  30.169  28.623  1.00  0.00    -0.205 F 
ATOM     93  C   UNL A   1      45.364  32.381  26.646  1.00  0.00     0.022 A 
BRANCH  91  94
ATOM     94  S   UNL A   1      48.075  32.666  26.932  1.00  0.00     0.127 S 
ATOM     95  O   UNL A   1      47.694  33.685  25.957  1.00  0.00    -0.237 OA
ATOM     96  O   UNL A   1      48.403  33.182  28.261  1.00  0.00    -0.237 OA
ATOM     97  O   UNL A   1      48.997  31.648  26.443  1.00  0.00    -0.744 OA
ENDBRANCH  91  94
ENDBRANCH  64  87
ENDBRANCH  38  39
ENDBRANCH  30  33
ENDBRANCH  28  29
ENDBRANCH   1  28
TORSDOF 16
ENDMDL
MODEL 2
REMARK VINA RESULT:     -11.8      1.316      2.008
REMARK SMILES Cc1cc(C)n2nc(SCC(=O)N3CCC(C(=O)NCCCNC(=O)c4ccc(-c5c6nc(c(-c7cccc(S(=O)(=O)[O-])c7F)c7ccc([nH]7)c(-c7cccc(S(=O)(=O)[O-])c7F)c7nc(c(-c8cccc(S(=O)(=O)[O-])c8F)c8ccc5[nH]8)C=C7)C=C6)cc4)CC3)nc2n1
REMARK SMILES IDX 21 1 20 2 19 3 17 4 18 5 16 7 11 8 12 9 13 10 14 11 90 12
REMARK SMILES IDX 15 13 89 14 10 15 9 16 8 17 1 18 2 19 3 20 93 21 4 22 92 23
REMARK SMILES IDX 5 24 6 25 91 26 7 27 22 28 23 29 24 30 25 32 26 33 27 34
REMARK SMILES IDX 88 35 28 36 87 37 29 38 30 39 31 40 81 41 32 42 86 43 80 44
REMARK SMILES IDX 82 45 33 46 85 47 79 48 78 49 34 51 66 52 46 53 65 54 47 55
REMARK SMILES IDX 50 56 64 57 83 58 48 59 49 60 63 62 84 63 51 64 35 65 36 66
REMARK SMILES IDX 44 67 37 68 39 69 45 70 38 71 40 72 41 73 42 74 43 75 67 76
REMARK SMILES IDX 68 77 76 78 69 79 71 80 77 81 70 82 72 83 73 84 74 85 75 86
REMARK SMILES IDX 52 87 53 88 61 89 54 90 56 91 62 92 55 93 57 94 58 95 59 96
REMARK SMILES IDX 60 97
REMARK H PARENT 19 6 23 31 82 50 50 61
REMARK Flexibility Score: inf
ROOT
ATOM      1  C   UNL A   1      34.387  30.907  27.619  1.00  0.00     0.042 C 
ENDROOT
BRANCH   1   2
ATOM      2  C   UNL A   1      33.037  30.881  26.904  1.00  0.00     0.117 C 
BRANCH   2   3
ATOM      3  N   UNL A   1      32.068  29.968  27.501  1.00  0.00    -0.356 N 
ATOM      4  C   UNL A   1      31.916  28.620  27.362  1.00  0.00     0.223 C 
ATOM      5  O   UNL A   1      31.100  28.046  28.085  1.00  0.00    -0.275 OA
ATOM      6  H   UNL A   1      31.418  30.395  28.104  1.00  0.00     0.163 HD
BRANCH   4   7
ATOM      7  C   UNL A   1      32.753  27.823  26.372  1.00  0.00     0.082 C 
ATOM      8  C   UNL A   1      31.469  25.882  23.185  1.00  0.00     0.233 C 
ATOM      9  O   UNL A   1      30.537  25.241  23.684  1.00  0.00    -0.274 OA
ATOM     10  N   UNL A   1      32.551  26.280  23.965  1.00  0.00    -0.342 N 
ATOM     11  C   UNL A   1      32.838  25.559  25.197  1.00  0.00     0.120 C 
ATOM     12  C   UNL A   1      33.227  27.567  23.876  1.00  0.00     0.120 C 
ATOM     13  C   UNL A   1      32.389  26.332  26.421  1.00  0.00     0.035 C 
ATOM     14  C   UNL A   1      32.733  28.491  24.985  1.00  0.00     0.035 C 
BRANCH   8  15
ATOM     15  C   UNL A   1      31.597  25.964  21.670  1.00  0.00     0.178 C 
BRANCH  15  16
ATOM     16  S   UNL A   1      32.831  24.952  20.859  1.00  0.00    -0.074 SA
BRANCH  16  17
ATOM     17  C   UNL A   1      33.256  23.752  22.035  1.00  0.00     0.211 A 
ATOM     18  C   UNL A   1      33.049  19.087  25.384  1.00  0.00     0.067 C 
ATOM     19  C   UNL A   1      33.460  20.351  24.671  1.00  0.00     0.043 A 
ATOM     20  C   UNL A   1      34.852  20.845  24.923  1.00  0.00     0.047 A 
ATOM     21  N   UNL A   1      32.604  20.907  23.866  1.00  0.00    -0.216 NA
ATOM     22  C   UNL A   1      35.228  21.950  24.254  1.00  0.00     0.045 A 
ATOM     23  C   UNL A   1      33.019  22.035  23.224  1.00  0.00     0.253 A 
ATOM     24  C   UNL A   1      36.591  22.555  24.383  1.00  0.00     0.067 C 
ATOM     25  N   UNL A   1      34.308  22.561  23.394  1.00  0.00    -0.200 N 
ATOM     26  N   UNL A   1      32.360  22.787  22.374  1.00  0.00    -0.183 NA
ATOM     27  N   UNL A   1      34.450  23.663  22.615  1.00  0.00    -0.138 NA
ENDBRANCH  16  17
ENDBRANCH  15  16
ENDBRANCH   8  15
ENDBRANCH   4   7
ENDBRANCH   2   3
ENDBRANCH   1   2
BRANCH   1  28
ATOM     28  C   UNL A   1      34.799  32.307  28.015  1.00  0.00     0.118 C 
BRANCH  28  29
ATOM     29  N   UNL A   1      34.637  32.565  29.450  1.00  0.00    -0.352 N 
ATOM     30  C   UNL A   1      35.374  32.021  30.490  1.00  0.00     0.251 C 
ATOM     31  H   UNL A   1      33.926  33.197  29.702  1.00  0.00     0.163 HD
ATOM     32  O   UNL A   1      34.972  32.065  31.638  1.00  0.00    -0.269 OA
BRANCH  30  33
ATOM     33  C   UNL A   1      36.668  31.401  30.144  1.00  0.00     0.039 A 
ATOM     34  C   UNL A   1      37.831  32.152  29.966  1.00  0.00     0.014 A 
ATOM     35  C   UNL A   1      36.696  30.011  30.095  1.00  0.00     0.014 A 
ATOM     36  C   UNL A   1      39.039  31.474  29.813  1.00  0.00     0.010 A 
ATOM     37  C   UNL A   1      37.894  29.361  30.170  1.00  0.00     0.010 A 
ATOM     38  C   UNL A   1      39.059  30.074  29.936  1.00  0.00    -0.014 A 
BRANCH  38  39
ATOM     39  C   UNL A   1      40.299  29.317  29.909  1.00  0.00     0.031 A 
ATOM     40  C   UNL A   1      40.886  29.049  31.245  1.00  0.00     0.074 A 
ATOM     41  C   UNL A   1      40.757  28.728  28.782  1.00  0.00     0.049 A 
ATOM     42  N   UNL A   1      41.947  29.584  31.747  1.00  0.00    -0.248 NA
ATOM     43  C   UNL A   1      40.125  28.228  32.198  1.00  0.00     0.031 C 
ATOM     44  C   UNL A   1      40.116  28.648  27.460  1.00  0.00     0.029 A 
ATOM     45  N   UNL A   1      41.857  27.950  28.620  1.00  0.00    -0.354 N 
ATOM     46  C   UNL A   1      42.130  28.968  32.983  1.00  0.00     0.074 A 
ATOM     47  C   UNL A   1      40.879  28.332  33.296  1.00  0.00     0.031 C 
ATOM     48  C   UNL A   1      40.700  27.672  26.731  1.00  0.00     0.029 A 
ATOM     49  C   UNL A   1      41.866  27.200  27.448  1.00  0.00     0.049 A 
ATOM     50  H   UNL A   1      42.588  27.918  29.277  1.00  0.00     0.167 HD
ATOM     51  C   UNL A   1      43.378  28.820  33.510  1.00  0.00     0.034 A 
ATOM     52  C   UNL A   1      42.764  26.244  27.108  1.00  0.00     0.034 A 
ATOM     53  C   UNL A   1      44.333  29.651  32.812  1.00  0.00     0.049 A 
ATOM     54  C   UNL A   1      43.982  26.508  27.908  1.00  0.00     0.074 A 
ATOM     55  C   UNL A   1      44.453  31.006  32.575  1.00  0.00     0.029 A 
ATOM     56  N   UNL A   1      45.130  29.033  31.875  1.00  0.00    -0.354 N 
ATOM     57  N   UNL A   1      44.711  27.580  27.765  1.00  0.00    -0.248 NA
ATOM     58  C   UNL A   1      44.118  25.820  29.181  1.00  0.00     0.031 C 
ATOM     59  C   UNL A   1      44.906  31.100  31.225  1.00  0.00     0.029 A 
ATOM     60  C   UNL A   1      45.114  29.805  30.743  1.00  0.00     0.049 A 
ATOM     61  H   UNL A   1      45.621  28.190  31.997  1.00  0.00     0.167 HD
ATOM     62  C   UNL A   1      45.023  27.959  29.064  1.00  0.00     0.074 A 
ATOM     63  C   UNL A   1      44.724  26.782  29.883  1.00  0.00     0.031 C 
ATOM     64  C   UNL A   1      45.207  29.273  29.397  1.00  0.00     0.034 A 
BRANCH  51  65
ATOM     65  C   UNL A   1      43.833  27.677  34.392  1.00  0.00     0.023 A 
ATOM     66  C   UNL A   1      44.527  28.019  35.577  1.00  0.00     0.012 A 
ATOM     67  C   UNL A   1      43.859  26.314  34.015  1.00  0.00     0.148 A 
ATOM     68  C   UNL A   1      45.264  27.077  36.303  1.00  0.00     0.002 A 
ATOM     69  C   UNL A   1      44.527  25.365  34.783  1.00  0.00     0.091 A 
ATOM     70  F   UNL A   1      43.351  25.928  32.845  1.00  0.00    -0.205 F 
ATOM     71  C   UNL A   1      45.260  25.747  35.908  1.00  0.00     0.022 A 
BRANCH  69  72
ATOM     72  S   UNL A   1      44.512  23.619  34.350  1.00  0.00     0.127 S 
ATOM     73  O   UNL A   1      45.469  23.072  35.307  1.00  0.00    -0.237 OA
ATOM     74  O   UNL A   1      43.114  23.264  34.598  1.00  0.00    -0.237 OA
ATOM     75  O   UNL A   1      44.901  23.560  32.947  1.00  0.00    -0.744 OA
ENDBRANCH  69  72
ENDBRANCH  51  65
BRANCH  52  76
ATOM     76  C   UNL A   1      42.573  24.995  26.337  1.00  0.00     0.023 A 
ATOM     77  C   UNL A   1      43.490  24.648  25.324  1.00  0.00     0.012 A 
ATOM     78  C   UNL A   1      41.667  24.007  26.784  1.00  0.00     0.148 A 
ATOM     79  C   UNL A   1      43.527  23.349  24.798  1.00  0.00     0.002 A 
ATOM     80  C   UNL A   1      41.710  22.717  26.261  1.00  0.00     0.091 A 
ATOM     81  F   UNL A   1      40.827  24.311  27.781  1.00  0.00    -0.205 F 
ATOM     82  C   UNL A   1      42.647  22.382  25.274  1.00  0.00     0.022 A 
BRANCH  80  83
ATOM     83  S   UNL A   1      40.646  21.394  26.858  1.00  0.00     0.127 S 
ATOM     84  O   UNL A   1      41.286  20.212  26.281  1.00  0.00    -0.237 OA
ATOM     85  O   UNL A   1      40.790  21.523  28.306  1.00  0.00    -0.237 OA
ATOM     86  O   UNL A   1      39.319  21.683  26.331  1.00  0.00    -0.744 OA
ENDBRANCH  80  83
ENDBRANCH  52  76
BRANCH  64  87
ATOM     87  C   UNL A   1      45.244  30.300  28.284  1.00  0.00     0.023 A 
ATOM     88  C   UNL A   1      44.068  30.831  27.712  1.00  0.00     0.012 A 
ATOM     89  C   UNL A   1      46.474  30.903  27.968  1.00  0.00     0.148 A 
ATOM     90  C   UNL A   1      44.115  31.926  26.844  1.00  0.00     0.002 A 
ATOM     91  C   UNL A   1      46.514  32.023  27.145  1.00  0.00     0.091 A 
ATOM     92  F   UNL A   1      47.586  30.394  28.521  1.00  0.00    -0.205 F 
ATOM     93  C   UNL A   1      45.338  32.533  26.573  1.00  0.00     0.022 A 
BRANCH  91  94
ATOM     94  S   UNL A   1      48.031  32.941  26.871  1.00  0.00     0.127 S 
ATOM     95  O   UNL A   1      48.961  31.884  26.481  1.00  0.00    -0.237 OA
ATOM     96  O   UNL A   1      47.654  33.853  25.791  1.00  0.00    -0.237 OA
ATOM     97  O   UNL A   1      48.335  33.605  28.133  1.00  0.00    -0.744 OA
ENDBRANCH  91  94
ENDBRANCH  64  87
ENDBRANCH  38  39
ENDBRANCH  30  33
ENDBRANCH  28  29
ENDBRANCH   1  28
TORSDOF 16
ENDMDL
MODEL 3
REMARK VINA RESULT:     -11.5      3.570      7.615
REMARK SMILES Cc1cc(C)n2nc(SCC(=O)N3CCC(C(=O)NCCCNC(=O)c4ccc(-c5c6nc(c(-c7cccc(S(=O)(=O)[O-])c7F)c7ccc([nH]7)c(-c7cccc(S(=O)(=O)[O-])c7F)c7nc(c(-c8cccc(S(=O)(=O)[O-])c8F)c8ccc5[nH]8)C=C7)C=C6)cc4)CC3)nc2n1
REMARK SMILES IDX 21 1 20 2 19 3 17 4 18 5 16 7 11 8 12 9 13 10 14 11 90 12
REMARK SMILES IDX 15 13 89 14 10 15 9 16 8 17 1 18 2 19 3 20 93 21 4 22 92 23
REMARK SMILES IDX 5 24 6 25 91 26 7 27 22 28 23 29 24 30 25 32 26 33 27 34
REMARK SMILES IDX 88 35 28 36 87 37 29 38 30 39 31 40 81 41 32 42 86 43 80 44
REMARK SMILES IDX 82 45 33 46 85 47 79 48 78 49 34 51 66 52 46 53 65 54 47 55
REMARK SMILES IDX 50 56 64 57 83 58 48 59 49 60 63 62 84 63 51 64 35 65 36 66
REMARK SMILES IDX 44 67 37 68 39 69 45 70 38 71 40 72 41 73 42 74 43 75 67 76
REMARK SMILES IDX 68 77 76 78 69 79 71 80 77 81 70 82 72 83 73 84 74 85 75 86
REMARK SMILES IDX 52 87 53 88 61 89 54 90 56 91 62 92 55 93 57 94 58 95 59 96
REMARK SMILES IDX 60 97
REMARK H PARENT 19 6 23 31 82 50 50 61
REMARK Flexibility Score: inf
ROOT
ATOM      1  C   UNL A   1      31.782  32.772  26.763  1.00  0.00     0.042 C 
ENDROOT
BRANCH   1   2
ATOM      2  C   UNL A   1      31.693  31.249  26.664  1.00  0.00     0.117 C 
BRANCH   2   3
ATOM      3  N   UNL A   1      32.980  30.572  26.787  1.00  0.00    -0.356 N 
ATOM      4  C   UNL A   1      33.365  29.321  26.406  1.00  0.00     0.223 C 
ATOM      5  O   UNL A   1      34.557  29.024  26.495  1.00  0.00    -0.275 OA
ATOM      6  H   UNL A   1      33.686  31.107  27.216  1.00  0.00     0.163 HD
BRANCH   4   7
ATOM      7  C   UNL A   1      32.367  28.318  25.846  1.00  0.00     0.082 C 
ATOM      8  C   UNL A   1      33.140  25.257  23.478  1.00  0.00     0.233 C 
ATOM      9  O   UNL A   1      33.824  25.819  22.615  1.00  0.00    -0.274 OA
ATOM     10  N   UNL A   1      32.195  25.972  24.208  1.00  0.00    -0.342 N 
ATOM     11  C   UNL A   1      31.665  27.210  23.656  1.00  0.00     0.120 C 
ATOM     12  C   UNL A   1      31.930  25.810  25.631  1.00  0.00     0.120 C 
ATOM     13  C   UNL A   1      32.275  28.430  24.318  1.00  0.00     0.035 C 
ATOM     14  C   UNL A   1      32.633  26.913  26.418  1.00  0.00     0.035 C 
BRANCH   8  15
ATOM     15  C   UNL A   1      33.097  23.735  23.527  1.00  0.00     0.178 C 
BRANCH  15  16
ATOM     16  S   UNL A   1      31.707  22.944  24.330  1.00  0.00    -0.074 SA
BRANCH  16  17
ATOM     17  C   UNL A   1      32.060  21.249  24.251  1.00  0.00     0.211 A 
ATOM     18  C   UNL A   1      32.988  15.796  25.803  1.00  0.00     0.067 C 
ATOM     19  C   UNL A   1      32.788  17.076  25.033  1.00  0.00     0.043 A 
ATOM     20  C   UNL A   1      32.768  16.968  23.538  1.00  0.00     0.047 A 
ATOM     21  N   UNL A   1      32.614  18.175  25.704  1.00  0.00    -0.216 NA
ATOM     22  C   UNL A   1      32.551  18.108  22.856  1.00  0.00     0.045 A 
ATOM     23  C   UNL A   1      32.415  19.309  24.974  1.00  0.00     0.253 A 
ATOM     24  C   UNL A   1      32.483  18.160  21.362  1.00  0.00     0.067 C 
ATOM     25  N   UNL A   1      32.373  19.296  23.573  1.00  0.00    -0.200 N 
ATOM     26  N   UNL A   1      32.223  20.536  25.396  1.00  0.00    -0.183 NA
ATOM     27  N   UNL A   1      32.135  20.553  23.120  1.00  0.00    -0.138 NA
ENDBRANCH  16  17
ENDBRANCH  15  16
ENDBRANCH   8  15
ENDBRANCH   4   7
ENDBRANCH   2   3
ENDBRANCH   1   2
BRANCH   1  28
ATOM     28  C   UNL A   1      32.930  33.223  27.636  1.00  0.00     0.118 C 
BRANCH  28  29
ATOM     29  N   UNL A   1      32.645  34.469  28.356  1.00  0.00    -0.352 N 
ATOM     30  C   UNL A   1      33.280  34.950  29.490  1.00  0.00     0.251 C 
ATOM     31  H   UNL A   1      31.920  35.027  27.992  1.00  0.00     0.163 HD
ATOM     32  O   UNL A   1      32.779  35.824  30.172  1.00  0.00    -0.269 OA
BRANCH  30  33
ATOM     33  C   UNL A   1      34.594  34.364  29.822  1.00  0.00     0.039 A 
ATOM     34  C   UNL A   1      34.762  33.450  30.864  1.00  0.00     0.014 A 
ATOM     35  C   UNL A   1      35.651  34.696  28.979  1.00  0.00     0.014 A 
ATOM     36  C   UNL A   1      35.997  32.819  30.996  1.00  0.00     0.010 A 
ATOM     37  C   UNL A   1      36.773  33.919  28.973  1.00  0.00     0.010 A 
ATOM     38  C   UNL A   1      36.991  33.048  30.029  1.00  0.00    -0.014 A 
BRANCH  38  39
ATOM     39  C   UNL A   1      38.255  32.330  30.039  1.00  0.00     0.031 A 
ATOM     40  C   UNL A   1      38.212  31.002  29.381  1.00  0.00     0.074 A 
ATOM     41  C   UNL A   1      39.411  32.915  30.423  1.00  0.00     0.049 A 
ATOM     42  N   UNL A   1      38.263  29.848  29.958  1.00  0.00    -0.248 NA
ATOM     43  C   UNL A   1      37.911  30.935  27.943  1.00  0.00     0.031 C 
ATOM     44  C   UNL A   1      39.652  34.317  30.799  1.00  0.00     0.029 A 
ATOM     45  N   UNL A   1      40.663  32.392  30.429  1.00  0.00    -0.354 N 
ATOM     46  C   UNL A   1      38.261  28.911  28.928  1.00  0.00     0.074 A 
ATOM     47  C   UNL A   1      37.816  29.616  27.755  1.00  0.00     0.031 C 
ATOM     48  C   UNL A   1      40.976  34.581  30.744  1.00  0.00     0.029 A 
ATOM     49  C   UNL A   1      41.682  33.335  30.525  1.00  0.00     0.049 A 
ATOM     50  H   UNL A   1      40.837  31.426  30.370  1.00  0.00     0.167 HD
ATOM     51  C   UNL A   1      38.876  27.706  29.081  1.00  0.00     0.034 A 
ATOM     52  C   UNL A   1      43.012  33.102  30.412  1.00  0.00     0.034 A 
ATOM     53  C   UNL A   1      39.177  27.454  30.472  1.00  0.00     0.049 A 
ATOM     54  C   UNL A   1      43.212  31.664  30.701  1.00  0.00     0.074 A 
ATOM     55  C   UNL A   1      38.428  27.364  31.628  1.00  0.00     0.029 A 
ATOM     56  N   UNL A   1      40.472  27.676  30.880  1.00  0.00    -0.354 N 
ATOM     57  N   UNL A   1      42.976  31.131  31.868  1.00  0.00    -0.248 NA
ATOM     58  C   UNL A   1      43.215  30.741  29.578  1.00  0.00     0.031 C 
ATOM     59  C   UNL A   1      39.211  28.023  32.622  1.00  0.00     0.029 A 
ATOM     60  C   UNL A   1      40.424  28.404  32.040  1.00  0.00     0.049 A 
ATOM     61  H   UNL A   1      41.286  27.369  30.420  1.00  0.00     0.167 HD
ATOM     62  C   UNL A   1      42.346  29.928  31.576  1.00  0.00     0.074 A 
ATOM     63  C   UNL A   1      42.619  29.695  30.156  1.00  0.00     0.031 C 
ATOM     64  C   UNL A   1      41.418  29.387  32.423  1.00  0.00     0.034 A 
BRANCH  51  65
ATOM     65  C   UNL A   1      39.546  26.911  27.979  1.00  0.00     0.023 A 
ATOM     66  C   UNL A   1      39.151  25.560  27.833  1.00  0.00     0.012 A 
ATOM     67  C   UNL A   1      40.699  27.314  27.267  1.00  0.00     0.148 A 
ATOM     68  C   UNL A   1      39.901  24.646  27.083  1.00  0.00     0.002 A 
ATOM     69  C   UNL A   1      41.397  26.421  26.458  1.00  0.00     0.091 A 
ATOM     70  F   UNL A   1      41.219  28.527  27.455  1.00  0.00    -0.205 F 
ATOM     71  C   UNL A   1      41.022  25.078  26.392  1.00  0.00     0.022 A 
BRANCH  69  72
ATOM     72  S   UNL A   1      42.826  26.938  25.495  1.00  0.00     0.127 S 
ATOM     73  O   UNL A   1      43.185  25.696  24.816  1.00  0.00    -0.237 OA
ATOM     74  O   UNL A   1      42.248  27.972  24.636  1.00  0.00    -0.237 OA
ATOM     75  O   UNL A   1      43.790  27.441  26.465  1.00  0.00    -0.744 OA
ENDBRANCH  69  72
ENDBRANCH  51  65
BRANCH  52  76
ATOM     76  C   UNL A   1      44.080  33.956  29.845  1.00  0.00     0.023 A 
ATOM     77  C   UNL A   1      45.024  34.560  30.699  1.00  0.00     0.012 A 
ATOM     78  C   UNL A   1      44.347  33.945  28.457  1.00  0.00     0.148 A 
ATOM     79  C   UNL A   1      46.212  35.104  30.193  1.00  0.00     0.002 A 
ATOM     80  C   UNL A   1      45.531  34.483  27.959  1.00  0.00     0.091 A 
ATOM     81  F   UNL A   1      43.481  33.329  27.642  1.00  0.00    -0.205 F 
ATOM     82  C   UNL A   1      46.471  35.055  28.827  1.00  0.00     0.022 A 
BRANCH  80  83
ATOM     83  S   UNL A   1      45.968  34.412  26.215  1.00  0.00     0.127 S 
ATOM     84  O   UNL A   1      47.213  35.181  26.187  1.00  0.00    -0.237 OA
ATOM     85  O   UNL A   1      46.130  32.977  26.003  1.00  0.00    -0.237 OA
ATOM     86  O   UNL A   1      44.858  35.031  25.502  1.00  0.00    -0.744 OA
ENDBRANCH  80  83
ENDBRANCH  52  76
BRANCH  64  87
ATOM     87  C   UNL A   1      41.219  30.031  33.780  1.00  0.00     0.023 A 
ATOM     88  C   UNL A   1      42.146  29.870  34.832  1.00  0.00     0.012 A 
ATOM     89  C   UNL A   1      40.202  30.991  33.924  1.00  0.00     0.148 A 
ATOM     90  C   UNL A   1      42.061  30.638  35.997  1.00  0.00     0.002 A 
ATOM     91  C   UNL A   1      40.149  31.789  35.061  1.00  0.00     0.091 A 
ATOM     92  F   UNL A   1      39.329  31.141  32.916  1.00  0.00    -0.205 F 
ATOM     93  C   UNL A   1      41.071  31.611  36.105  1.00  0.00     0.022 A 
BRANCH  91  94
ATOM     94  S   UNL A   1      38.995  33.156  35.204  1.00  0.00     0.127 S 
ATOM     95  O   UNL A   1      39.875  34.261  35.578  1.00  0.00    -0.237 OA
ATOM     96  O   UNL A   1      38.446  33.243  33.850  1.00  0.00    -0.237 OA
ATOM     97  O   UNL A   1      38.024  32.761  36.217  1.00  0.00    -0.744 OA
ENDBRANCH  91  94
ENDBRANCH  64  87
ENDBRANCH  38  39
ENDBRANCH  30  33
ENDBRANCH  28  29
ENDBRANCH   1  28
TORSDOF 16
ENDMDL
