MODEL 1
REMARK VINA RESULT:      -9.2      0.000      0.000
REMARK SMILES NS(=O)(=O)c1ccc(-n2nc(NC(=O)NCCCCCCCCCCC(=O)NCCCNC(=O)c3ccc(-c4c5nc(c(-c6cccc(S(=O)(=O)[O-])c6F)c6ccc([nH]6)c(-c6cccc(S(=O)(=O)[O-])c6F)c6nc(c(-c7cccc(S(=O)(=O)[O-])c7F)c7ccc4[nH]7)C=C6)C=C5)cc3)cc2-c2ccccc2)cc1
REMARK SMILES IDX 22 1 21 2 20 3 19 4 18 5 17 6 16 7 15 8 12 9 13 10 14 12
REMARK SMILES IDX 11 14 9 15 10 16 99 17 98 18 8 19 5 20 6 21 107 22 7 23
REMARK SMILES IDX 106 24 2 25 3 26 4 27 1 28 100 31 101 32 105 33 102 34
REMARK SMILES IDX 104 35 103 36 23 37 24 38 25 39 26 40 27 41 28 42 29 44
REMARK SMILES IDX 30 45 31 46 32 47 33 48 34 50 35 51 36 52 97 53 37 54 96 55
REMARK SMILES IDX 38 56 39 57 40 58 90 59 41 60 95 61 89 62 91 63 42 64 94 65
REMARK SMILES IDX 88 66 87 67 43 69 75 70 55 71 74 72 56 73 59 74 73 75 92 76
REMARK SMILES IDX 57 77 58 78 72 80 93 81 60 82 44 83 45 84 53 85 46 86 48 87
REMARK SMILES IDX 54 88 47 89 49 90 50 91 51 92 52 93 76 94 77 95 85 96 78 97
REMARK SMILES IDX 80 98 86 99 79 100 81 101 82 102 83 103 84 104 61 105 62 106
REMARK SMILES IDX 70 107 63 108 65 109 71 110 64 111 66 112 67 113 68 114
REMARK SMILES IDX 69 115
REMARK H PARENT 12 11 15 13 1 29 1 30 28 43 32 49 91 68 59 79
REMARK Flexibility Score: inf
ROOT
ATOM      1  C   UNL A   1      44.803  24.120  30.065  1.00  0.00     0.000 C 
ENDROOT
BRANCH   1   2
ATOM      2  C   UNL A   1      44.001  23.626  31.247  1.00  0.00     0.000 C 
BRANCH   2   3
ATOM      3  C   UNL A   1      44.287  24.387  32.535  1.00  0.00     0.000 C 
BRANCH   3   4
ATOM      4  C   UNL A   1      44.010  23.660  33.856  1.00  0.00     0.000 C 
BRANCH   4   5
ATOM      5  C   UNL A   1      45.051  22.631  34.313  1.00  0.00     0.002 C 
BRANCH   5   6
ATOM      6  C   UNL A   1      45.776  22.924  35.626  1.00  0.00     0.021 C 
BRANCH   6   7
ATOM      7  C   UNL A   1      46.335  21.723  36.371  1.00  0.00     0.117 C 
BRANCH   7   8
ATOM      8  N   UNL A   1      45.609  20.487  36.242  1.00  0.00    -0.338 N 
ATOM      9  N   UNL A   1      47.054  19.302  34.761  1.00  0.00    -0.291 N 
ATOM     10  C   UNL A   1      45.930  19.394  35.511  1.00  0.00     0.320 C 
ATOM     11  H   UNL A   1      46.991  18.649  34.027  1.00  0.00     0.173 HD
ATOM     12  O   UNL A   1      45.092  18.490  35.424  1.00  0.00    -0.248 OA
ATOM     13  H   UNL A   1      44.769  20.428  36.754  1.00  0.00     0.165 HD
BRANCH   9  14
ATOM     14  C   UNL A   1      48.271  19.947  34.831  1.00  0.00     0.157 A 
ATOM     15  N   UNL A   1      49.848  21.160  35.562  1.00  0.00    -0.231 N 
ATOM     16  N   UNL A   1      48.928  20.254  35.951  1.00  0.00    -0.149 NA
ATOM     17  C   UNL A   1      50.083  21.082  34.195  1.00  0.00     0.076 A 
ATOM     18  C   UNL A   1      49.029  20.336  33.700  1.00  0.00     0.078 A 
BRANCH  15  19
ATOM     19  C   UNL A   1      50.399  22.085  36.492  1.00  0.00     0.065 A 
ATOM     20  C   UNL A   1      51.534  23.930  38.245  1.00  0.00     0.082 A 
ATOM     21  C   UNL A   1      50.454  24.315  37.449  1.00  0.00     0.024 A 
ATOM     22  C   UNL A   1      52.030  22.620  38.193  1.00  0.00     0.024 A 
ATOM     23  C   UNL A   1      49.893  23.394  36.563  1.00  0.00     0.030 A 
ATOM     24  C   UNL A   1      51.444  21.687  37.332  1.00  0.00     0.030 A 
BRANCH  20  25
ATOM     25  S   UNL A   1      52.319  25.105  39.306  1.00  0.00     0.238 S 
ATOM     26  O   UNL A   1      51.487  25.329  40.456  1.00  0.00    -0.207 OA
ATOM     27  O   UNL A   1      52.862  26.170  38.487  1.00  0.00    -0.207 OA
BRANCH  25  28
ATOM     28  N   UNL A   1      53.658  24.272  39.901  1.00  0.00    -0.225 NA
ATOM     29  H   UNL A   1      54.461  24.444  39.296  1.00  0.00     0.137 HD
ATOM     30  H   UNL A   1      53.455  23.272  39.919  1.00  0.00     0.137 HD
ENDBRANCH  25  28
ENDBRANCH  20  25
ENDBRANCH  15  19
BRANCH  17  31
ATOM     31  C   UNL A   1      51.255  21.666  33.549  1.00  0.00     0.000 A 
ATOM     32  C   UNL A   1      52.371  20.852  33.291  1.00  0.00     0.010 A 
ATOM     33  C   UNL A   1      51.318  23.026  33.241  1.00  0.00     0.010 A 
ATOM     34  C   UNL A   1      53.547  21.394  32.779  1.00  0.00     0.001 A 
ATOM     35  C   UNL A   1      52.497  23.567  32.717  1.00  0.00     0.001 A 
ATOM     36  C   UNL A   1      53.610  22.754  32.496  1.00  0.00     0.000 A 
ENDBRANCH  17  31
ENDBRANCH   9  14
ENDBRANCH   7   8
ENDBRANCH   6   7
ENDBRANCH   5   6
ENDBRANCH   4   5
ENDBRANCH   3   4
ENDBRANCH   2   3
ENDBRANCH   1   2
BRANCH   1  37
ATOM     37  C   UNL A   1      44.839  25.646  29.939  1.00  0.00     0.001 C 
BRANCH  37  38
ATOM     38  C   UNL A   1      45.296  26.150  28.577  1.00  0.00     0.010 C 
BRANCH  38  39
ATOM     39  C   UNL A   1      45.135  25.171  27.412  1.00  0.00     0.100 C 
BRANCH  39  40
ATOM     40  C   UNL A   1      44.883  25.830  26.074  1.00  0.00     0.219 C 
ATOM     41  O   UNL A   1      44.921  27.057  25.985  1.00  0.00    -0.275 OA
ATOM     42  N   UNL A   1      44.639  25.114  24.939  1.00  0.00    -0.356 N 
ATOM     43  H   UNL A   1      44.337  25.657  24.176  1.00  0.00     0.163 HD
BRANCH  42  44
ATOM     44  C   UNL A   1      44.746  23.689  24.653  1.00  0.00     0.117 C 
BRANCH  44  45
ATOM     45  C   UNL A   1      43.393  22.958  24.598  1.00  0.00     0.042 C 
BRANCH  45  46
ATOM     46  C   UNL A   1      43.091  22.113  25.809  1.00  0.00     0.118 C 
BRANCH  46  47
ATOM     47  N   UNL A   1      41.677  21.728  25.914  1.00  0.00    -0.352 N 
ATOM     48  C   UNL A   1      40.684  22.405  26.609  1.00  0.00     0.251 C 
ATOM     49  H   UNL A   1      41.406  20.906  25.444  1.00  0.00     0.163 HD
ATOM     50  O   UNL A   1      39.656  21.843  26.966  1.00  0.00    -0.269 OA
BRANCH  48  51
ATOM     51  C   UNL A   1      40.915  23.831  26.898  1.00  0.00     0.039 A 
ATOM     52  C   UNL A   1      40.278  24.867  26.213  1.00  0.00     0.014 A 
ATOM     53  C   UNL A   1      41.709  24.090  28.005  1.00  0.00     0.014 A 
ATOM     54  C   UNL A   1      40.394  26.159  26.723  1.00  0.00     0.010 A 
ATOM     55  C   UNL A   1      41.536  25.267  28.663  1.00  0.00     0.010 A 
ATOM     56  C   UNL A   1      41.012  26.341  27.970  1.00  0.00    -0.014 A 
BRANCH  56  57
ATOM     57  C   UNL A   1      41.087  27.629  28.638  1.00  0.00     0.031 A 
ATOM     58  C   UNL A   1      42.074  28.564  28.049  1.00  0.00     0.074 A 
ATOM     59  C   UNL A   1      40.172  28.013  29.559  1.00  0.00     0.049 A 
ATOM     60  N   UNL A   1      43.207  28.917  28.558  1.00  0.00    -0.248 NA
ATOM     61  C   UNL A   1      41.870  29.024  26.667  1.00  0.00     0.031 C 
ATOM     62  C   UNL A   1      38.943  27.316  29.980  1.00  0.00     0.029 A 
ATOM     63  N   UNL A   1      40.059  29.202  30.205  1.00  0.00    -0.354 N 
ATOM     64  C   UNL A   1      43.722  29.863  27.679  1.00  0.00     0.074 A 
ATOM     65  C   UNL A   1      43.000  29.699  26.445  1.00  0.00     0.031 C 
ATOM     66  C   UNL A   1      38.101  28.193  30.565  1.00  0.00     0.029 A 
ATOM     67  C   UNL A   1      38.797  29.450  30.738  1.00  0.00     0.049 A 
ATOM     68  H   UNL A   1      40.808  29.835  30.289  1.00  0.00     0.167 HD
ATOM     69  C   UNL A   1      44.485  30.896  28.132  1.00  0.00     0.034 A 
ATOM     70  C   UNL A   1      38.347  30.625  31.241  1.00  0.00     0.034 A 
ATOM     71  C   UNL A   1      44.918  30.676  29.490  1.00  0.00     0.049 A 
ATOM     72  C   UNL A   1      39.546  31.428  31.581  1.00  0.00     0.074 A 
ATOM     73  C   UNL A   1      45.598  29.660  30.137  1.00  0.00     0.029 A 
ATOM     74  N   UNL A   1      44.262  31.374  30.477  1.00  0.00    -0.354 N 
ATOM     75  N   UNL A   1      40.393  31.090  32.513  1.00  0.00    -0.248 NA
ATOM     76  C   UNL A   1      40.057  32.338  30.568  1.00  0.00     0.031 C 
ATOM     77  C   UNL A   1      44.910  29.496  31.375  1.00  0.00     0.029 A 
ATOM     78  C   UNL A   1      43.920  30.477  31.456  1.00  0.00     0.049 A 
ATOM     79  H   UNL A   1      44.074  32.341  30.480  1.00  0.00     0.167 HD
ATOM     80  C   UNL A   1      41.638  31.345  31.952  1.00  0.00     0.074 A 
ATOM     81  C   UNL A   1      41.366  32.210  30.804  1.00  0.00     0.031 C 
ATOM     82  C   UNL A   1      42.731  30.591  32.276  1.00  0.00     0.034 A 
BRANCH  69  83
ATOM     83  C   UNL A   1      44.534  32.264  27.499  1.00  0.00     0.023 A 
ATOM     84  C   UNL A   1      45.592  32.530  26.602  1.00  0.00     0.012 A 
ATOM     85  C   UNL A   1      43.758  33.368  27.917  1.00  0.00     0.148 A 
ATOM     86  C   UNL A   1      45.876  33.829  26.169  1.00  0.00     0.002 A 
ATOM     87  C   UNL A   1      43.982  34.641  27.410  1.00  0.00     0.091 A 
ATOM     88  F   UNL A   1      42.885  33.232  28.920  1.00  0.00    -0.205 F 
ATOM     89  C   UNL A   1      45.061  34.884  26.560  1.00  0.00     0.022 A 
BRANCH  87  90
ATOM     90  S   UNL A   1      42.908  36.019  27.830  1.00  0.00     0.127 S 
ATOM     91  O   UNL A   1      41.588  35.442  27.604  1.00  0.00    -0.237 OA
ATOM     92  O   UNL A   1      43.254  36.249  29.233  1.00  0.00    -0.237 OA
ATOM     93  O   UNL A   1      43.303  37.102  26.938  1.00  0.00    -0.744 OA
ENDBRANCH  87  90
ENDBRANCH  69  83
BRANCH  70  94
ATOM     94  C   UNL A   1      36.984  31.206  31.215  1.00  0.00     0.023 A 
ATOM     95  C   UNL A   1      36.399  31.671  32.411  1.00  0.00     0.012 A 
ATOM     96  C   UNL A   1      36.371  31.565  29.993  1.00  0.00     0.148 A 
ATOM     97  C   UNL A   1      35.267  32.495  32.389  1.00  0.00     0.002 A 
ATOM     98  C   UNL A   1      35.242  32.378  29.977  1.00  0.00     0.091 A 
ATOM     99  F   UNL A   1      36.952  31.189  28.846  1.00  0.00    -0.205 F 
ATOM    100  C   UNL A   1      34.693  32.856  31.173  1.00  0.00     0.022 A 
BRANCH  98 101
ATOM    101  S   UNL A   1      34.464  32.902  28.444  1.00  0.00     0.127 S 
ATOM    102  O   UNL A   1      33.932  31.640  27.927  1.00  0.00    -0.237 OA
ATOM    103  O   UNL A   1      33.453  33.840  28.925  1.00  0.00    -0.237 OA
ATOM    104  O   UNL A   1      35.535  33.476  27.641  1.00  0.00    -0.744 OA
ENDBRANCH  98 101
ENDBRANCH  70  94
BRANCH  82 105
ATOM    105  C   UNL A   1      42.618  29.611  33.422  1.00  0.00     0.023 A 
ATOM    106  C   UNL A   1      42.089  28.312  33.265  1.00  0.00     0.012 A 
ATOM    107  C   UNL A   1      43.234  29.942  34.641  1.00  0.00     0.148 A 
ATOM    108  C   UNL A   1      42.155  27.375  34.301  1.00  0.00     0.002 A 
ATOM    109  C   UNL A   1      43.341  28.994  35.652  1.00  0.00     0.091 A 
ATOM    110  F   UNL A   1      43.736  31.179  34.780  1.00  0.00    -0.205 F 
ATOM    111  C   UNL A   1      42.795  27.712  35.491  1.00  0.00     0.022 A 
BRANCH 109 112
ATOM    112  S   UNL A   1      44.265  29.329  37.153  1.00  0.00     0.127 S 
ATOM    113  O   UNL A   1      43.490  30.411  37.755  1.00  0.00    -0.237 OA
ATOM    114  O   UNL A   1      44.187  28.052  37.864  1.00  0.00    -0.237 OA
ATOM    115  O   UNL A   1      45.613  29.686  36.724  1.00  0.00    -0.744 OA
ENDBRANCH 109 112
ENDBRANCH  82 105
ENDBRANCH  56  57
ENDBRANCH  48  51
ENDBRANCH  46  47
ENDBRANCH  45  46
ENDBRANCH  44  45
ENDBRANCH  42  44
ENDBRANCH  39  40
ENDBRANCH  38  39
ENDBRANCH  37  38
ENDBRANCH   1  37
TORSDOF 28
ENDMDL
MODEL 2
REMARK VINA RESULT:      -8.8      1.636      2.667
REMARK SMILES NS(=O)(=O)c1ccc(-n2nc(NC(=O)NCCCCCCCCCCC(=O)NCCCNC(=O)c3ccc(-c4c5nc(c(-c6cccc(S(=O)(=O)[O-])c6F)c6ccc([nH]6)c(-c6cccc(S(=O)(=O)[O-])c6F)c6nc(c(-c7cccc(S(=O)(=O)[O-])c7F)c7ccc4[nH]7)C=C6)C=C5)cc3)cc2-c2ccccc2)cc1
REMARK SMILES IDX 22 1 21 2 20 3 19 4 18 5 17 6 16 7 15 8 12 9 13 10 14 12
REMARK SMILES IDX 11 14 9 15 10 16 99 17 98 18 8 19 5 20 6 21 107 22 7 23
REMARK SMILES IDX 106 24 2 25 3 26 4 27 1 28 100 31 101 32 105 33 102 34
REMARK SMILES IDX 104 35 103 36 23 37 24 38 25 39 26 40 27 41 28 42 29 44
REMARK SMILES IDX 30 45 31 46 32 47 33 48 34 50 35 51 36 52 97 53 37 54 96 55
REMARK SMILES IDX 38 56 39 57 40 58 90 59 41 60 95 61 89 62 91 63 42 64 94 65
REMARK SMILES IDX 88 66 87 67 43 69 75 70 55 71 74 72 56 73 59 74 73 75 92 76
REMARK SMILES IDX 57 77 58 78 72 80 93 81 60 82 44 83 45 84 53 85 46 86 48 87
REMARK SMILES IDX 54 88 47 89 49 90 50 91 51 92 52 93 76 94 77 95 85 96 78 97
REMARK SMILES IDX 80 98 86 99 79 100 81 101 82 102 83 103 84 104 61 105 62 106
REMARK SMILES IDX 70 107 63 108 65 109 71 110 64 111 66 112 67 113 68 114
REMARK SMILES IDX 69 115
REMARK H PARENT 12 11 15 13 1 29 1 30 28 43 32 49 91 68 59 79
REMARK Flexibility Score: inf
ROOT
ATOM      1  C   UNL A   1      44.786  24.100  30.287  1.00  0.00     0.000 C 
ENDROOT
BRANCH   1   2
ATOM      2  C   UNL A   1      43.960  23.623  31.460  1.00  0.00     0.000 C 
BRANCH   2   3
ATOM      3  C   UNL A   1      44.512  24.063  32.810  1.00  0.00     0.000 C 
BRANCH   3   4
ATOM      4  C   UNL A   1      44.377  23.082  33.979  1.00  0.00     0.000 C 
BRANCH   4   5
ATOM      5  C   UNL A   1      45.481  22.030  34.133  1.00  0.00     0.002 C 
BRANCH   5   6
ATOM      6  C   UNL A   1      45.430  21.159  35.387  1.00  0.00     0.021 C 
BRANCH   6   7
ATOM      7  C   UNL A   1      46.341  19.941  35.402  1.00  0.00     0.117 C 
BRANCH   7   8
ATOM      8  N   UNL A   1      47.040  19.642  34.180  1.00  0.00    -0.338 N 
ATOM      9  N   UNL A   1      49.169  20.600  34.668  1.00  0.00    -0.291 N 
ATOM     10  C   UNL A   1      48.316  19.944  33.844  1.00  0.00     0.320 C 
ATOM     11  H   UNL A   1      49.899  21.063  34.198  1.00  0.00     0.173 HD
ATOM     12  O   UNL A   1      48.677  19.723  32.684  1.00  0.00    -0.248 OA
ATOM     13  H   UNL A   1      46.523  19.153  33.499  1.00  0.00     0.165 HD
BRANCH   9  14
ATOM     14  C   UNL A   1      49.209  20.743  36.038  1.00  0.00     0.157 A 
ATOM     15  N   UNL A   1      49.451  21.635  37.947  1.00  0.00    -0.231 N 
ATOM     16  N   UNL A   1      48.955  21.865  36.714  1.00  0.00    -0.149 NA
ATOM     17  C   UNL A   1      49.586  20.273  38.186  1.00  0.00     0.076 A 
ATOM     18  C   UNL A   1      49.482  19.685  36.939  1.00  0.00     0.078 A 
BRANCH  15  19
ATOM     19  C   UNL A   1      49.828  22.713  38.795  1.00  0.00     0.065 A 
ATOM     20  C   UNL A   1      50.558  24.883  40.382  1.00  0.00     0.082 A 
ATOM     21  C   UNL A   1      49.205  24.597  40.191  1.00  0.00     0.024 A 
ATOM     22  C   UNL A   1      51.548  24.072  39.811  1.00  0.00     0.024 A 
ATOM     23  C   UNL A   1      48.839  23.517  39.387  1.00  0.00     0.030 A 
ATOM     24  C   UNL A   1      51.181  22.968  39.035  1.00  0.00     0.030 A 
BRANCH  20  25
ATOM     25  S   UNL A   1      51.043  26.299  41.322  1.00  0.00     0.238 S 
ATOM     26  O   UNL A   1      50.773  27.485  40.557  1.00  0.00    -0.207 OA
ATOM     27  O   UNL A   1      52.320  26.019  41.946  1.00  0.00    -0.207 OA
BRANCH  25  28
ATOM     28  N   UNL A   1      49.928  26.339  42.585  1.00  0.00    -0.225 NA
ATOM     29  H   UNL A   1      50.009  25.487  43.138  1.00  0.00     0.137 HD
ATOM     30  H   UNL A   1      48.984  26.406  42.203  1.00  0.00     0.137 HD
ENDBRANCH  25  28
ENDBRANCH  20  25
ENDBRANCH  15  19
BRANCH  17  31
ATOM     31  C   UNL A   1      49.749  19.707  39.523  1.00  0.00     0.000 A 
ATOM     32  C   UNL A   1      48.631  19.614  40.368  1.00  0.00     0.010 A 
ATOM     33  C   UNL A   1      51.001  19.318  40.003  1.00  0.00     0.010 A 
ATOM     34  C   UNL A   1      48.765  19.185  41.685  1.00  0.00     0.001 A 
ATOM     35  C   UNL A   1      51.133  18.877  41.324  1.00  0.00     0.001 A 
ATOM     36  C   UNL A   1      50.019  18.820  42.164  1.00  0.00     0.000 A 
ENDBRANCH  17  31
ENDBRANCH   9  14
ENDBRANCH   7   8
ENDBRANCH   6   7
ENDBRANCH   5   6
ENDBRANCH   4   5
ENDBRANCH   3   4
ENDBRANCH   2   3
ENDBRANCH   1   2
BRANCH   1  37
ATOM     37  C   UNL A   1      44.746  25.617  30.082  1.00  0.00     0.001 C 
BRANCH  37  38
ATOM     38  C   UNL A   1      45.386  26.089  28.784  1.00  0.00     0.010 C 
BRANCH  38  39
ATOM     39  C   UNL A   1      45.185  25.180  27.570  1.00  0.00     0.100 C 
BRANCH  39  40
ATOM     40  C   UNL A   1      45.040  25.919  26.256  1.00  0.00     0.219 C 
ATOM     41  O   UNL A   1      45.154  27.143  26.233  1.00  0.00    -0.275 OA
ATOM     42  N   UNL A   1      44.811  25.275  25.076  1.00  0.00    -0.356 N 
ATOM     43  H   UNL A   1      44.580  25.872  24.329  1.00  0.00     0.163 HD
BRANCH  42  44
ATOM     44  C   UNL A   1      44.848  23.862  24.723  1.00  0.00     0.117 C 
BRANCH  44  45
ATOM     45  C   UNL A   1      43.459  23.219  24.564  1.00  0.00     0.042 C 
BRANCH  45  46
ATOM     46  C   UNL A   1      43.060  22.307  25.695  1.00  0.00     0.118 C 
BRANCH  46  47
ATOM     47  N   UNL A   1      41.627  21.982  25.705  1.00  0.00    -0.352 N 
ATOM     48  C   UNL A   1      40.631  22.651  26.404  1.00  0.00     0.251 C 
ATOM     49  H   UNL A   1      41.345  21.211  25.162  1.00  0.00     0.163 HD
ATOM     50  O   UNL A   1      39.564  22.113  26.669  1.00  0.00    -0.269 OA
BRANCH  48  51
ATOM     51  C   UNL A   1      40.909  24.039  26.811  1.00  0.00     0.039 A 
ATOM     52  C   UNL A   1      40.318  25.151  26.208  1.00  0.00     0.014 A 
ATOM     53  C   UNL A   1      41.698  24.178  27.943  1.00  0.00     0.014 A 
ATOM     54  C   UNL A   1      40.474  26.391  26.823  1.00  0.00     0.010 A 
ATOM     55  C   UNL A   1      41.559  25.302  28.695  1.00  0.00     0.010 A 
ATOM     56  C   UNL A   1      41.081  26.448  28.087  1.00  0.00    -0.014 A 
BRANCH  56  57
ATOM     57  C   UNL A   1      41.194  27.673  28.860  1.00  0.00     0.031 A 
ATOM     58  C   UNL A   1      42.201  28.629  28.343  1.00  0.00     0.074 A 
ATOM     59  C   UNL A   1      40.295  28.002  29.817  1.00  0.00     0.049 A 
ATOM     60  N   UNL A   1      43.346  28.910  28.869  1.00  0.00    -0.248 NA
ATOM     61  C   UNL A   1      41.999  29.209  27.005  1.00  0.00     0.031 C 
ATOM     62  C   UNL A   1      39.052  27.303  30.189  1.00  0.00     0.029 A 
ATOM     63  N   UNL A   1      40.217  29.134  30.561  1.00  0.00    -0.354 N 
ATOM     64  C   UNL A   1      43.879  29.913  28.068  1.00  0.00     0.074 A 
ATOM     65  C   UNL A   1      43.145  29.871  26.831  1.00  0.00     0.031 C 
ATOM     66  C   UNL A   1      38.236  28.148  30.853  1.00  0.00     0.029 A 
ATOM     67  C   UNL A   1      38.965  29.369  31.124  1.00  0.00     0.049 A 
ATOM     68  H   UNL A   1      40.982  29.740  30.692  1.00  0.00     0.167 HD
ATOM     69  C   UNL A   1      44.671  30.885  28.599  1.00  0.00     0.034 A 
ATOM     70  C   UNL A   1      38.549  30.509  31.727  1.00  0.00     0.034 A 
ATOM     71  C   UNL A   1      45.108  30.541  29.930  1.00  0.00     0.049 A 
ATOM     72  C   UNL A   1      39.770  31.250  32.123  1.00  0.00     0.074 A 
ATOM     73  C   UNL A   1      45.765  29.459  30.484  1.00  0.00     0.029 A 
ATOM     74  N   UNL A   1      44.476  31.171  30.977  1.00  0.00    -0.354 N 
ATOM     75  N   UNL A   1      40.614  30.814  33.016  1.00  0.00    -0.248 NA
ATOM     76  C   UNL A   1      40.297  32.229  31.185  1.00  0.00     0.031 C 
ATOM     77  C   UNL A   1      45.081  29.209  31.710  1.00  0.00     0.029 A 
ATOM     78  C   UNL A   1      44.117  30.204  31.882  1.00  0.00     0.049 A 
ATOM     79  H   UNL A   1      44.313  32.138  31.063  1.00  0.00     0.167 HD
ATOM     80  C   UNL A   1      41.861  31.084  32.468  1.00  0.00     0.074 A 
ATOM     81  C   UNL A   1      41.604  32.048  31.398  1.00  0.00     0.031 C 
ATOM     82  C   UNL A   1      42.937  30.279  32.718  1.00  0.00     0.034 A 
BRANCH  69  83
ATOM     83  C   UNL A   1      44.751  32.300  28.082  1.00  0.00     0.023 A 
ATOM     84  C   UNL A   1      45.974  32.717  27.513  1.00  0.00     0.012 A 
ATOM     85  C   UNL A   1      43.792  33.303  28.344  1.00  0.00     0.148 A 
ATOM     86  C   UNL A   1      46.235  34.065  27.246  1.00  0.00     0.002 A 
ATOM     87  C   UNL A   1      44.017  34.627  27.989  1.00  0.00     0.091 A 
ATOM     88  F   UNL A   1      42.708  33.020  29.072  1.00  0.00    -0.205 F 
ATOM     89  C   UNL A   1      45.250  35.020  27.468  1.00  0.00     0.022 A 
BRANCH  87  90
ATOM     90  S   UNL A   1      42.745  35.880  28.191  1.00  0.00     0.127 S 
ATOM     91  O   UNL A   1      43.512  37.108  28.016  1.00  0.00    -0.237 OA
ATOM     92  O   UNL A   1      41.831  35.556  27.094  1.00  0.00    -0.237 OA
ATOM     93  O   UNL A   1      42.184  35.650  29.516  1.00  0.00    -0.744 OA
ENDBRANCH  87  90
ENDBRANCH  69  83
BRANCH  70  94
ATOM     94  C   UNL A   1      37.201  31.123  31.762  1.00  0.00     0.023 A 
ATOM     95  C   UNL A   1      36.656  31.546  32.991  1.00  0.00     0.012 A 
ATOM     96  C   UNL A   1      36.569  31.554  30.573  1.00  0.00     0.148 A 
ATOM     97  C   UNL A   1      35.545  32.398  33.035  1.00  0.00     0.002 A 
ATOM     98  C   UNL A   1      35.461  32.394  30.622  1.00  0.00     0.091 A 
ATOM     99  F   UNL A   1      37.113  31.218  29.396  1.00  0.00    -0.205 F 
ATOM    100  C   UNL A   1      34.953  32.829  31.852  1.00  0.00     0.022 A 
BRANCH  98 101
ATOM    101  S   UNL A   1      34.661  33.008  29.134  1.00  0.00     0.127 S 
ATOM    102  O   UNL A   1      35.788  33.588  28.402  1.00  0.00    -0.237 OA
ATOM    103  O   UNL A   1      34.122  31.781  28.555  1.00  0.00    -0.237 OA
ATOM    104  O   UNL A   1      33.679  33.981  29.594  1.00  0.00    -0.744 OA
ENDBRANCH  98 101
ENDBRANCH  70  94
BRANCH  82 105
ATOM    105  C   UNL A   1      42.806  29.209  33.780  1.00  0.00     0.023 A 
ATOM    106  C   UNL A   1      42.190  27.963  33.534  1.00  0.00     0.012 A 
ATOM    107  C   UNL A   1      43.489  29.394  34.994  1.00  0.00     0.148 A 
ATOM    108  C   UNL A   1      42.237  26.935  34.482  1.00  0.00     0.002 A 
ATOM    109  C   UNL A   1      43.574  28.355  35.913  1.00  0.00     0.091 A 
ATOM    110  F   UNL A   1      44.074  30.581  35.217  1.00  0.00    -0.205 F 
ATOM    111  C   UNL A   1      42.943  27.127  35.667  1.00  0.00     0.022 A 
BRANCH 109 112
ATOM    112  S   UNL A   1      44.575  28.499  37.395  1.00  0.00     0.127 S 
ATOM    113  O   UNL A   1      45.918  28.661  36.843  1.00  0.00    -0.237 OA
ATOM    114  O   UNL A   1      44.028  29.699  38.031  1.00  0.00    -0.237 OA
ATOM    115  O   UNL A   1      44.351  27.274  38.153  1.00  0.00    -0.744 OA
ENDBRANCH 109 112
ENDBRANCH  82 105
ENDBRANCH  56  57
ENDBRANCH  48  51
ENDBRANCH  46  47
ENDBRANCH  45  46
ENDBRANCH  44  45
ENDBRANCH  42  44
ENDBRANCH  39  40
ENDBRANCH  38  39
ENDBRANCH  37  38
ENDBRANCH   1  37
TORSDOF 28
ENDMDL
MODEL 3
REMARK VINA RESULT:      -8.6      2.864      3.948
REMARK SMILES NS(=O)(=O)c1ccc(-n2nc(NC(=O)NCCCCCCCCCCC(=O)NCCCNC(=O)c3ccc(-c4c5nc(c(-c6cccc(S(=O)(=O)[O-])c6F)c6ccc([nH]6)c(-c6cccc(S(=O)(=O)[O-])c6F)c6nc(c(-c7cccc(S(=O)(=O)[O-])c7F)c7ccc4[nH]7)C=C6)C=C5)cc3)cc2-c2ccccc2)cc1
REMARK SMILES IDX 22 1 21 2 20 3 19 4 18 5 17 6 16 7 15 8 12 9 13 10 14 12
REMARK SMILES IDX 11 14 9 15 10 16 99 17 98 18 8 19 5 20 6 21 107 22 7 23
REMARK SMILES IDX 106 24 2 25 3 26 4 27 1 28 100 31 101 32 105 33 102 34
REMARK SMILES IDX 104 35 103 36 23 37 24 38 25 39 26 40 27 41 28 42 29 44
REMARK SMILES IDX 30 45 31 46 32 47 33 48 34 50 35 51 36 52 97 53 37 54 96 55
REMARK SMILES IDX 38 56 39 57 40 58 90 59 41 60 95 61 89 62 91 63 42 64 94 65
REMARK SMILES IDX 88 66 87 67 43 69 75 70 55 71 74 72 56 73 59 74 73 75 92 76
REMARK SMILES IDX 57 77 58 78 72 80 93 81 60 82 44 83 45 84 53 85 46 86 48 87
REMARK SMILES IDX 54 88 47 89 49 90 50 91 51 92 52 93 76 94 77 95 85 96 78 97
REMARK SMILES IDX 80 98 86 99 79 100 81 101 82 102 83 103 84 104 61 105 62 106
REMARK SMILES IDX 70 107 63 108 65 109 71 110 64 111 66 112 67 113 68 114
REMARK SMILES IDX 69 115
REMARK H PARENT 12 11 15 13 1 29 1 30 28 43 32 49 91 68 59 79
REMARK Flexibility Score: inf
ROOT
ATOM      1  C   UNL A   1      44.884  24.333  30.519  1.00  0.00     0.000 C 
ENDROOT
BRANCH   1   2
ATOM      2  C   UNL A   1      44.056  24.160  31.771  1.00  0.00     0.000 C 
BRANCH   2   3
ATOM      3  C   UNL A   1      44.503  25.051  32.923  1.00  0.00     0.000 C 
BRANCH   3   4
ATOM      4  C   UNL A   1      44.262  24.535  34.346  1.00  0.00     0.000 C 
BRANCH   4   5
ATOM      5  C   UNL A   1      45.500  24.297  35.217  1.00  0.00     0.002 C 
BRANCH   5   6
ATOM      6  C   UNL A   1      45.289  23.516  36.513  1.00  0.00     0.021 C 
BRANCH   6   7
ATOM      7  C   UNL A   1      45.659  22.042  36.482  1.00  0.00     0.117 C 
BRANCH   7   8
ATOM      8  N   UNL A   1      45.944  21.474  35.191  1.00  0.00    -0.338 N 
ATOM      9  N   UNL A   1      47.833  20.123  35.731  1.00  0.00    -0.291 N 
ATOM     10  C   UNL A   1      46.929  20.612  34.848  1.00  0.00     0.320 C 
ATOM     11  H   UNL A   1      48.672  19.821  35.315  1.00  0.00     0.173 HD
ATOM     12  O   UNL A   1      47.086  20.360  33.649  1.00  0.00    -0.248 OA
ATOM     13  H   UNL A   1      45.342  21.748  34.460  1.00  0.00     0.165 HD
BRANCH   9  14
ATOM     14  C   UNL A   1      47.801  19.968  37.100  1.00  0.00     0.157 A 
ATOM     15  N   UNL A   1      48.454  19.886  39.116  1.00  0.00    -0.231 N 
ATOM     16  N   UNL A   1      48.592  20.592  37.975  1.00  0.00    -0.149 NA
ATOM     17  C   UNL A   1      47.280  19.142  39.107  1.00  0.00     0.076 A 
ATOM     18  C   UNL A   1      46.875  19.144  37.785  1.00  0.00     0.078 A 
BRANCH  15  19
ATOM     19  C   UNL A   1      49.467  19.908  40.114  1.00  0.00     0.065 A 
ATOM     20  C   UNL A   1      51.516  19.957  42.001  1.00  0.00     0.082 A 
ATOM     21  C   UNL A   1      50.992  21.160  41.527  1.00  0.00     0.024 A 
ATOM     22  C   UNL A   1      51.001  18.730  41.562  1.00  0.00     0.024 A 
ATOM     23  C   UNL A   1      49.973  21.136  40.574  1.00  0.00     0.030 A 
ATOM     24  C   UNL A   1      49.956  18.705  40.634  1.00  0.00     0.030 A 
BRANCH  20  25
ATOM     25  S   UNL A   1      52.868  19.964  43.139  1.00  0.00     0.238 S 
ATOM     26  O   UNL A   1      54.090  19.736  42.419  1.00  0.00    -0.207 OA
ATOM     27  O   UNL A   1      52.478  19.217  44.318  1.00  0.00    -0.207 OA
BRANCH  25  28
ATOM     28  N   UNL A   1      52.958  21.571  43.639  1.00  0.00    -0.225 NA
ATOM     29  H   UNL A   1      52.591  22.177  42.906  1.00  0.00     0.137 HD
ATOM     30  H   UNL A   1      53.931  21.815  43.825  1.00  0.00     0.137 HD
ENDBRANCH  25  28
ENDBRANCH  20  25
ENDBRANCH  15  19
BRANCH  17  31
ATOM     31  C   UNL A   1      46.683  18.573  40.311  1.00  0.00     0.000 A 
ATOM     32  C   UNL A   1      46.611  17.176  40.444  1.00  0.00     0.010 A 
ATOM     33  C   UNL A   1      46.124  19.382  41.303  1.00  0.00     0.010 A 
ATOM     34  C   UNL A   1      45.950  16.595  41.523  1.00  0.00     0.001 A 
ATOM     35  C   UNL A   1      45.470  18.797  42.391  1.00  0.00     0.001 A 
ATOM     36  C   UNL A   1      45.376  17.408  42.495  1.00  0.00     0.000 A 
ENDBRANCH  17  31
ENDBRANCH   9  14
ENDBRANCH   7   8
ENDBRANCH   6   7
ENDBRANCH   5   6
ENDBRANCH   4   5
ENDBRANCH   3   4
ENDBRANCH   2   3
ENDBRANCH   1   2
BRANCH   1  37
ATOM     37  C   UNL A   1      44.831  25.748  29.935  1.00  0.00     0.001 C 
BRANCH  37  38
ATOM     38  C   UNL A   1      45.679  25.941  28.686  1.00  0.00     0.010 C 
BRANCH  38  39
ATOM     39  C   UNL A   1      45.377  24.998  27.519  1.00  0.00     0.100 C 
BRANCH  39  40
ATOM     40  C   UNL A   1      45.201  25.693  26.186  1.00  0.00     0.219 C 
ATOM     41  O   UNL A   1      45.377  26.908  26.107  1.00  0.00    -0.275 OA
ATOM     42  N   UNL A   1      44.878  25.017  25.046  1.00  0.00    -0.356 N 
ATOM     43  H   UNL A   1      44.639  25.597  24.287  1.00  0.00     0.163 HD
BRANCH  42  44
ATOM     44  C   UNL A   1      44.823  23.592  24.749  1.00  0.00     0.117 C 
BRANCH  44  45
ATOM     45  C   UNL A   1      43.395  23.027  24.650  1.00  0.00     0.042 C 
BRANCH  45  46
ATOM     46  C   UNL A   1      42.960  22.219  25.846  1.00  0.00     0.118 C 
BRANCH  46  47
ATOM     47  N   UNL A   1      41.518  21.939  25.868  1.00  0.00    -0.352 N 
ATOM     48  C   UNL A   1      40.538  22.694  26.499  1.00  0.00     0.251 C 
ATOM     49  H   UNL A   1      41.216  21.135  25.388  1.00  0.00     0.163 HD
ATOM     50  O   UNL A   1      39.452  22.212  26.796  1.00  0.00    -0.269 OA
BRANCH  48  51
ATOM     51  C   UNL A   1      40.855  24.102  26.792  1.00  0.00     0.039 A 
ATOM     52  C   UNL A   1      40.239  25.179  26.151  1.00  0.00     0.014 A 
ATOM     53  C   UNL A   1      41.714  24.306  27.861  1.00  0.00     0.014 A 
ATOM     54  C   UNL A   1      40.446  26.456  26.670  1.00  0.00     0.010 A 
ATOM     55  C   UNL A   1      41.634  25.480  28.541  1.00  0.00     0.010 A 
ATOM     56  C   UNL A   1      41.132  26.589  27.887  1.00  0.00    -0.014 A 
BRANCH  56  57
ATOM     57  C   UNL A   1      41.305  27.862  28.565  1.00  0.00     0.031 A 
ATOM     58  C   UNL A   1      42.436  28.674  28.058  1.00  0.00     0.074 A 
ATOM     59  C   UNL A   1      40.374  28.353  29.417  1.00  0.00     0.049 A 
ATOM     60  N   UNL A   1      43.560  28.895  28.652  1.00  0.00    -0.248 NA
ATOM     61  C   UNL A   1      42.391  29.150  26.666  1.00  0.00     0.031 C 
ATOM     62  C   UNL A   1      39.045  27.805  29.740  1.00  0.00     0.029 A 
ATOM     63  N   UNL A   1      40.351  29.549  30.058  1.00  0.00    -0.354 N 
ATOM     64  C   UNL A   1      44.246  29.772  27.820  1.00  0.00     0.074 A 
ATOM     65  C   UNL A   1      43.605  29.689  26.534  1.00  0.00     0.031 C 
ATOM     66  C   UNL A   1      38.268  28.775  30.265  1.00  0.00     0.029 A 
ATOM     67  C   UNL A   1      39.090  29.944  30.497  1.00  0.00     0.049 A 
ATOM     68  H   UNL A   1      41.160  30.092  30.202  1.00  0.00     0.167 HD
ATOM     69  C   UNL A   1      45.087  30.711  28.334  1.00  0.00     0.034 A 
ATOM     70  C   UNL A   1      38.743  31.165  30.970  1.00  0.00     0.034 A 
ATOM     71  C   UNL A   1      45.389  30.447  29.720  1.00  0.00     0.049 A 
ATOM     72  C   UNL A   1      39.997  31.825  31.404  1.00  0.00     0.074 A 
ATOM     73  C   UNL A   1      45.895  29.362  30.411  1.00  0.00     0.029 A 
ATOM     74  N   UNL A   1      44.745  31.220  30.658  1.00  0.00    -0.354 N 
ATOM     75  N   UNL A   1      40.726  31.394  32.395  1.00  0.00    -0.248 NA
ATOM     76  C   UNL A   1      40.685  32.666  30.437  1.00  0.00     0.031 C 
ATOM     77  C   UNL A   1      45.101  29.283  31.593  1.00  0.00     0.029 A 
ATOM     78  C   UNL A   1      44.228  30.373  31.604  1.00  0.00     0.049 A 
ATOM     79  H   UNL A   1      44.671  32.202  30.652  1.00  0.00     0.167 HD
ATOM     80  C   UNL A   1      42.031  31.501  31.931  1.00  0.00     0.074 A 
ATOM     81  C   UNL A   1      41.949  32.387  30.770  1.00  0.00     0.031 C 
ATOM     82  C   UNL A   1      43.003  30.627  32.333  1.00  0.00     0.034 A 
BRANCH  69  83
ATOM     83  C   UNL A   1      45.342  32.062  27.713  1.00  0.00     0.023 A 
ATOM     84  C   UNL A   1      44.222  32.797  27.267  1.00  0.00     0.012 A 
ATOM     85  C   UNL A   1      46.615  32.534  27.321  1.00  0.00     0.148 A 
ATOM     86  C   UNL A   1      44.363  33.925  26.453  1.00  0.00     0.002 A 
ATOM     87  C   UNL A   1      46.755  33.709  26.594  1.00  0.00     0.091 A 
ATOM     88  F   UNL A   1      47.700  31.781  27.520  1.00  0.00    -0.205 F 
ATOM     89  C   UNL A   1      45.631  34.392  26.129  1.00  0.00     0.022 A 
BRANCH  87  90
ATOM     90  S   UNL A   1      48.375  34.389  26.216  1.00  0.00     0.127 S 
ATOM     91  O   UNL A   1      48.022  35.592  25.471  1.00  0.00    -0.237 OA
ATOM     92  O   UNL A   1      48.919  34.624  27.554  1.00  0.00    -0.237 OA
ATOM     93  O   UNL A   1      49.067  33.345  25.470  1.00  0.00    -0.744 OA
ENDBRANCH  87  90
ENDBRANCH  69  83
BRANCH  70  94
ATOM     94  C   UNL A   1      37.462  31.900  30.845  1.00  0.00     0.023 A 
ATOM     95  C   UNL A   1      36.597  31.619  29.767  1.00  0.00     0.012 A 
ATOM     96  C   UNL A   1      36.955  32.664  31.920  1.00  0.00     0.148 A 
ATOM     97  C   UNL A   1      35.265  32.052  29.777  1.00  0.00     0.002 A 
ATOM     98  C   UNL A   1      35.633  33.098  31.922  1.00  0.00     0.091 A 
ATOM     99  F   UNL A   1      37.742  32.881  32.983  1.00  0.00    -0.205 F 
ATOM    100  C   UNL A   1      34.780  32.783  30.858  1.00  0.00     0.022 A 
BRANCH  98 101
ATOM    101  S   UNL A   1      34.934  34.024  33.295  1.00  0.00     0.127 S 
ATOM    102  O   UNL A   1      35.167  33.120  34.421  1.00  0.00    -0.237 OA
ATOM    103  O   UNL A   1      35.761  35.228  33.296  1.00  0.00    -0.237 OA
ATOM    104  O   UNL A   1      33.530  34.216  32.959  1.00  0.00    -0.744 OA
ENDBRANCH  98 101
ENDBRANCH  70  94
BRANCH  82 105
ATOM    105  C   UNL A   1      42.690  29.670  33.462  1.00  0.00     0.023 A 
ATOM    106  C   UNL A   1      41.912  28.506  33.282  1.00  0.00     0.012 A 
ATOM    107  C   UNL A   1      43.355  29.851  34.687  1.00  0.00     0.148 A 
ATOM    108  C   UNL A   1      41.785  27.558  34.302  1.00  0.00     0.002 A 
ATOM    109  C   UNL A   1      43.266  28.885  35.681  1.00  0.00     0.091 A 
ATOM    110  F   UNL A   1      44.094  30.959  34.847  1.00  0.00    -0.205 F 
ATOM    111  C   UNL A   1      42.475  27.740  35.498  1.00  0.00     0.022 A 
BRANCH 109 112
ATOM    112  S   UNL A   1      44.232  29.002  37.188  1.00  0.00     0.127 S 
ATOM    113  O   UNL A   1      45.587  29.177  36.670  1.00  0.00    -0.237 OA
ATOM    114  O   UNL A   1      43.666  30.188  37.835  1.00  0.00    -0.237 OA
ATOM    115  O   UNL A   1      43.994  27.762  37.916  1.00  0.00    -0.744 OA
ENDBRANCH 109 112
ENDBRANCH  82 105
ENDBRANCH  56  57
ENDBRANCH  48  51
ENDBRANCH  46  47
ENDBRANCH  45  46
ENDBRANCH  44  45
ENDBRANCH  42  44
ENDBRANCH  39  40
ENDBRANCH  38  39
ENDBRANCH  37  38
ENDBRANCH   1  37
TORSDOF 28
ENDMDL
