MODEL 1
REMARK VINA RESULT:     -12.0      0.000      0.000
REMARK SMILES C[N@@H+](CCS(C)(=O)=O)Cc1oc2ccccc2c1C(=O)NCCCNC(=O)c1ccc(-c2c3nc(c(-c4cccc(S(=O)(=O)[O-])c4F)c4ccc([nH]4)c(-c4cccc(S(=O)(=O)[O-])c4F)c4nc(c(-c5cccc(S(=O)(=O)[O-])c5F)c5ccc2[nH]5)C=C4)C=C3)cc1
REMARK SMILES IDX 22 1 21 2 19 3 20 4 18 6 10 7 11 8 12 9 17 10 13 11 16 12
REMARK SMILES IDX 14 13 15 14 9 15 2 16 1 17 3 19 4 20 5 21 6 22 7 23 8 24
REMARK SMILES IDX 23 25 24 26 25 27 26 28 27 30 28 31 29 32 90 33 30 34 89 35
REMARK SMILES IDX 31 36 32 37 33 38 83 39 34 40 88 41 82 42 84 43 35 44 87 45
REMARK SMILES IDX 81 46 80 47 36 49 68 50 48 51 67 52 49 53 52 54 66 55 85 56
REMARK SMILES IDX 50 57 51 58 65 60 86 61 53 62 37 63 38 64 46 65 39 66 41 67
REMARK SMILES IDX 47 68 40 69 42 70 43 71 44 72 45 73 69 74 70 75 78 76 71 77
REMARK SMILES IDX 73 78 79 79 72 80 74 81 75 82 76 83 77 84 54 85 55 86 63 87
REMARK SMILES IDX 56 88 58 89 64 90 57 91 59 92 60 93 61 94 62 95
REMARK H PARENT 21 5 2 18 25 29 84 48 52 59
REMARK Flexibility Score: inf
ROOT
ATOM      1  C   UNL A   1      32.174  27.503  26.874  1.00  0.00     0.118 C 
ENDROOT
BRANCH   1   2
ATOM      2  N   UNL A   1      31.105  26.532  26.824  1.00  0.00    -0.352 N 
ATOM      3  C   UNL A   1      31.115  25.288  26.239  1.00  0.00     0.255 C 
ATOM      4  O   UNL A   1      30.162  24.543  26.469  1.00  0.00    -0.269 OA
ATOM      5  H   UNL A   1      30.263  26.795  27.263  1.00  0.00     0.163 HD
BRANCH   3   6
ATOM      6  C   UNL A   1      32.159  24.929  25.297  1.00  0.00     0.095 A 
ATOM      7  C   UNL A   1      32.149  25.389  23.981  1.00  0.00     0.172 A 
ATOM      8  O   UNL A   1      33.246  24.927  23.324  1.00  0.00    -0.454 OA
ATOM      9  C   UNL A   1      34.023  24.268  24.210  1.00  0.00     0.135 A 
ATOM     10  C   UNL A   1      33.375  24.157  25.430  1.00  0.00     0.034 A 
ATOM     11  C   UNL A   1      35.310  23.803  23.942  1.00  0.00     0.048 A 
ATOM     12  C   UNL A   1      34.044  23.417  26.432  1.00  0.00     0.013 A 
ATOM     13  C   UNL A   1      36.003  23.226  25.005  1.00  0.00     0.004 A 
ATOM     14  C   UNL A   1      35.376  23.020  26.230  1.00  0.00     0.001 A 
BRANCH   7  15
ATOM     15  C   UNL A   1      31.247  26.249  23.150  1.00  0.00     0.339 C 
BRANCH  15  16
ATOM     16  N   UNL A   1      31.213  27.691  23.435  1.00  0.00    -0.330 N 
ATOM     17  C   UNL A   1      32.120  28.515  22.662  1.00  0.00     0.333 C 
ATOM     18  H   UNL A   1      31.644  27.673  24.360  1.00  0.00     0.348 HD
BRANCH  16  19
ATOM     19  C   UNL A   1      29.937  28.308  23.798  1.00  0.00     0.278 C 
BRANCH  19  20
ATOM     20  C   UNL A   1      29.674  29.764  23.420  1.00  0.00     0.197 C 
BRANCH  20  21
ATOM     21  S   UNL A   1      28.050  30.021  22.693  1.00  0.00     0.152 S 
ATOM     22  C   UNL A   1      27.129  28.580  23.142  1.00  0.00     0.158 C 
ATOM     23  O   UNL A   1      27.420  31.134  23.372  1.00  0.00    -0.229 OA
ATOM     24  O   UNL A   1      28.129  29.981  21.241  1.00  0.00    -0.229 OA
ENDBRANCH  20  21
ENDBRANCH  19  20
ENDBRANCH  16  19
ENDBRANCH  15  16
ENDBRANCH   7  15
ENDBRANCH   3   6
ENDBRANCH   1   2
BRANCH   1  25
ATOM     25  C   UNL A   1      31.771  28.951  27.011  1.00  0.00     0.042 C 
BRANCH  25  26
ATOM     26  C   UNL A   1      32.552  29.920  26.149  1.00  0.00     0.118 C 
BRANCH  26  27
ATOM     27  N   UNL A   1      32.439  31.317  26.562  1.00  0.00    -0.352 N 
ATOM     28  C   UNL A   1      33.267  32.098  27.336  1.00  0.00     0.251 C 
ATOM     29  H   UNL A   1      31.635  31.777  26.230  1.00  0.00     0.163 HD
ATOM     30  O   UNL A   1      32.915  33.233  27.648  1.00  0.00    -0.269 OA
BRANCH  28  31
ATOM     31  C   UNL A   1      34.551  31.558  27.828  1.00  0.00     0.039 A 
ATOM     32  C   UNL A   1      35.629  32.424  28.031  1.00  0.00     0.014 A 
ATOM     33  C   UNL A   1      34.682  30.205  28.136  1.00  0.00     0.014 A 
ATOM     34  C   UNL A   1      36.793  31.946  28.637  1.00  0.00     0.010 A 
ATOM     35  C   UNL A   1      35.768  29.771  28.878  1.00  0.00     0.010 A 
ATOM     36  C   UNL A   1      36.850  30.628  29.118  1.00  0.00    -0.014 A 
BRANCH  36  37
ATOM     37  C   UNL A   1      38.029  30.111  29.858  1.00  0.00     0.031 A 
ATOM     38  C   UNL A   1      38.284  30.556  31.276  1.00  0.00     0.074 A 
ATOM     39  C   UNL A   1      38.927  29.330  29.226  1.00  0.00     0.049 A 
ATOM     40  N   UNL A   1      39.292  30.276  32.060  1.00  0.00    -0.248 NA
ATOM     41  C   UNL A   1      37.302  31.475  31.876  1.00  0.00     0.031 C 
ATOM     42  C   UNL A   1      38.852  28.915  27.823  1.00  0.00     0.029 A 
ATOM     43  N   UNL A   1      40.096  28.766  29.675  1.00  0.00    -0.354 N 
ATOM     44  C   UNL A   1      39.089  31.019  33.216  1.00  0.00     0.074 A 
ATOM     45  C   UNL A   1      37.896  31.806  33.011  1.00  0.00     0.031 C 
ATOM     46  C   UNL A   1      39.915  28.149  27.531  1.00  0.00     0.029 A 
ATOM     47  C   UNL A   1      40.768  28.050  28.711  1.00  0.00     0.049 A 
ATOM     48  H   UNL A   1      40.422  28.865  30.598  1.00  0.00     0.167 HD
ATOM     49  C   UNL A   1      39.809  31.023  34.363  1.00  0.00     0.034 A 
ATOM     50  C   UNL A   1      41.943  27.393  28.768  1.00  0.00     0.034 A 
ATOM     51  C   UNL A   1      40.967  30.200  34.579  1.00  0.00     0.049 A 
ATOM     52  C   UNL A   1      42.696  27.360  30.068  1.00  0.00     0.074 A 
ATOM     53  C   UNL A   1      41.702  30.039  35.739  1.00  0.00     0.029 A 
ATOM     54  N   UNL A   1      41.566  29.411  33.609  1.00  0.00    -0.354 N 
ATOM     55  N   UNL A   1      42.396  27.932  31.209  1.00  0.00    -0.248 NA
ATOM     56  C   UNL A   1      43.930  26.561  30.102  1.00  0.00     0.031 C 
ATOM     57  C   UNL A   1      42.773  29.183  35.457  1.00  0.00     0.029 A 
ATOM     58  C   UNL A   1      42.678  28.777  34.135  1.00  0.00     0.049 A 
ATOM     59  H   UNL A   1      41.249  29.317  32.682  1.00  0.00     0.167 HD
ATOM     60  C   UNL A   1      43.384  27.540  32.105  1.00  0.00     0.074 A 
ATOM     61  C   UNL A   1      44.280  26.663  31.377  1.00  0.00     0.031 C 
ATOM     62  C   UNL A   1      43.540  27.881  33.409  1.00  0.00     0.034 A 
BRANCH  49  63
ATOM     63  C   UNL A   1      39.336  31.920  35.478  1.00  0.00     0.023 A 
ATOM     64  C   UNL A   1      38.398  31.444  36.419  1.00  0.00     0.012 A 
ATOM     65  C   UNL A   1      39.833  33.231  35.608  1.00  0.00     0.148 A 
ATOM     66  C   UNL A   1      37.922  32.272  37.434  1.00  0.00     0.002 A 
ATOM     67  C   UNL A   1      39.395  34.034  36.655  1.00  0.00     0.091 A 
ATOM     68  F   UNL A   1      40.705  33.679  34.693  1.00  0.00    -0.205 F 
ATOM     69  C   UNL A   1      38.426  33.563  37.557  1.00  0.00     0.022 A 
BRANCH  67  70
ATOM     70  S   UNL A   1      40.049  35.680  36.950  1.00  0.00     0.127 S 
ATOM     71  O   UNL A   1      39.375  36.046  38.195  1.00  0.00    -0.237 OA
ATOM     72  O   UNL A   1      41.483  35.419  37.086  1.00  0.00    -0.237 OA
ATOM     73  O   UNL A   1      39.684  36.471  35.784  1.00  0.00    -0.744 OA
ENDBRANCH  67  70
ENDBRANCH  49  63
BRANCH  50  74
ATOM     74  C   UNL A   1      42.438  26.667  27.565  1.00  0.00     0.023 A 
ATOM     75  C   UNL A   1      43.276  27.331  26.647  1.00  0.00     0.012 A 
ATOM     76  C   UNL A   1      42.132  25.308  27.359  1.00  0.00     0.148 A 
ATOM     77  C   UNL A   1      43.782  26.660  25.534  1.00  0.00     0.002 A 
ATOM     78  C   UNL A   1      42.684  24.631  26.279  1.00  0.00     0.091 A 
ATOM     79  F   UNL A   1      41.329  24.699  28.243  1.00  0.00    -0.205 F 
ATOM     80  C   UNL A   1      43.496  25.308  25.355  1.00  0.00     0.022 A 
BRANCH  78  81
ATOM     81  S   UNL A   1      42.485  22.861  26.044  1.00  0.00     0.127 S 
ATOM     82  O   UNL A   1      43.017  22.676  24.697  1.00  0.00    -0.237 OA
ATOM     83  O   UNL A   1      43.320  22.323  27.119  1.00  0.00    -0.237 OA
ATOM     84  O   UNL A   1      41.061  22.599  26.199  1.00  0.00    -0.744 OA
ENDBRANCH  78  81
ENDBRANCH  50  74
BRANCH  62  85
ATOM     85  C   UNL A   1      44.706  27.283  34.151  1.00  0.00     0.023 A 
ATOM     86  C   UNL A   1      45.967  27.909  34.108  1.00  0.00     0.012 A 
ATOM     87  C   UNL A   1      44.527  26.140  34.957  1.00  0.00     0.148 A 
ATOM     88  C   UNL A   1      47.042  27.386  34.827  1.00  0.00     0.002 A 
ATOM     89  C   UNL A   1      45.587  25.658  35.713  1.00  0.00     0.091 A 
ATOM     90  F   UNL A   1      43.323  25.551  34.972  1.00  0.00    -0.205 F 
ATOM     91  C   UNL A   1      46.850  26.270  35.638  1.00  0.00     0.022 A 
BRANCH  89  92
ATOM     92  S   UNL A   1      45.407  24.291  36.863  1.00  0.00     0.127 S 
ATOM     93  O   UNL A   1      46.711  24.285  37.524  1.00  0.00    -0.237 OA
ATOM     94  O   UNL A   1      44.297  24.739  37.704  1.00  0.00    -0.237 OA
ATOM     95  O   UNL A   1      45.115  23.117  36.051  1.00  0.00    -0.744 OA
ENDBRANCH  89  92
ENDBRANCH  62  85
ENDBRANCH  36  37
ENDBRANCH  28  31
ENDBRANCH  26  27
ENDBRANCH  25  26
ENDBRANCH   1  25
TORSDOF 18
ENDMDL
MODEL 2
REMARK VINA RESULT:     -11.9      2.312      3.118
REMARK SMILES C[N@@H+](CCS(C)(=O)=O)Cc1oc2ccccc2c1C(=O)NCCCNC(=O)c1ccc(-c2c3nc(c(-c4cccc(S(=O)(=O)[O-])c4F)c4ccc([nH]4)c(-c4cccc(S(=O)(=O)[O-])c4F)c4nc(c(-c5cccc(S(=O)(=O)[O-])c5F)c5ccc2[nH]5)C=C4)C=C3)cc1
REMARK SMILES IDX 22 1 21 2 19 3 20 4 18 6 10 7 11 8 12 9 17 10 13 11 16 12
REMARK SMILES IDX 14 13 15 14 9 15 2 16 1 17 3 19 4 20 5 21 6 22 7 23 8 24
REMARK SMILES IDX 23 25 24 26 25 27 26 28 27 30 28 31 29 32 90 33 30 34 89 35
REMARK SMILES IDX 31 36 32 37 33 38 83 39 34 40 88 41 82 42 84 43 35 44 87 45
REMARK SMILES IDX 81 46 80 47 36 49 68 50 48 51 67 52 49 53 52 54 66 55 85 56
REMARK SMILES IDX 50 57 51 58 65 60 86 61 53 62 37 63 38 64 46 65 39 66 41 67
REMARK SMILES IDX 47 68 40 69 42 70 43 71 44 72 45 73 69 74 70 75 78 76 71 77
REMARK SMILES IDX 73 78 79 79 72 80 74 81 75 82 76 83 77 84 54 85 55 86 63 87
REMARK SMILES IDX 56 88 58 89 64 90 57 91 59 92 60 93 61 94 62 95
REMARK H PARENT 21 5 2 18 25 29 84 48 52 59
REMARK Flexibility Score: inf
ROOT
ATOM      1  C   UNL A   1      33.861  26.063  25.736  1.00  0.00     0.118 C 
ENDROOT
BRANCH   1   2
ATOM      2  N   UNL A   1      34.037  26.077  24.301  1.00  0.00    -0.352 N 
ATOM      3  C   UNL A   1      33.949  25.022  23.425  1.00  0.00     0.255 C 
ATOM      4  O   UNL A   1      33.950  25.280  22.222  1.00  0.00    -0.269 OA
ATOM      5  H   UNL A   1      34.248  26.952  23.902  1.00  0.00     0.163 HD
BRANCH   3   6
ATOM      6  C   UNL A   1      33.971  23.656  23.916  1.00  0.00     0.095 A 
ATOM      7  C   UNL A   1      32.818  22.875  23.961  1.00  0.00     0.172 A 
ATOM      8  O   UNL A   1      33.120  21.637  24.437  1.00  0.00    -0.454 OA
ATOM      9  C   UNL A   1      34.458  21.561  24.600  1.00  0.00     0.135 A 
ATOM     10  C   UNL A   1      35.041  22.799  24.377  1.00  0.00     0.034 A 
ATOM     11  C   UNL A   1      35.152  20.393  24.908  1.00  0.00     0.048 A 
ATOM     12  C   UNL A   1      36.436  22.883  24.591  1.00  0.00     0.013 A 
ATOM     13  C   UNL A   1      36.543  20.481  24.948  1.00  0.00     0.004 A 
ATOM     14  C   UNL A   1      37.179  21.711  24.806  1.00  0.00     0.001 A 
BRANCH   7  15
ATOM     15  C   UNL A   1      31.374  23.069  23.615  1.00  0.00     0.339 C 
BRANCH  15  16
ATOM     16  N   UNL A   1      30.614  24.079  24.368  1.00  0.00    -0.330 N 
ATOM     17  C   UNL A   1      30.812  24.085  25.804  1.00  0.00     0.333 C 
ATOM     18  H   UNL A   1      29.683  23.679  24.261  1.00  0.00     0.348 HD
BRANCH  16  19
ATOM     19  C   UNL A   1      30.367  25.382  23.749  1.00  0.00     0.278 C 
BRANCH  19  20
ATOM     20  C   UNL A   1      30.292  26.627  24.628  1.00  0.00     0.197 C 
BRANCH  20  21
ATOM     21  S   UNL A   1      30.856  28.116  23.792  1.00  0.00     0.152 S 
ATOM     22  C   UNL A   1      29.486  28.607  22.789  1.00  0.00     0.158 C 
ATOM     23  O   UNL A   1      31.027  29.156  24.784  1.00  0.00    -0.229 OA
ATOM     24  O   UNL A   1      31.920  27.800  22.851  1.00  0.00    -0.229 OA
ENDBRANCH  20  21
ENDBRANCH  19  20
ENDBRANCH  16  19
ENDBRANCH  15  16
ENDBRANCH   7  15
ENDBRANCH   3   6
ENDBRANCH   1   2
BRANCH   1  25
ATOM     25  C   UNL A   1      33.490  27.373  26.388  1.00  0.00     0.042 C 
BRANCH  25  26
ATOM     26  C   UNL A   1      34.360  28.551  26.005  1.00  0.00     0.118 C 
BRANCH  26  27
ATOM     27  N   UNL A   1      33.886  29.837  26.511  1.00  0.00    -0.352 N 
ATOM     28  C   UNL A   1      34.403  30.672  27.475  1.00  0.00     0.251 C 
ATOM     29  H   UNL A   1      33.057  30.161  26.091  1.00  0.00     0.163 HD
ATOM     30  O   UNL A   1      33.771  31.667  27.820  1.00  0.00    -0.269 OA
BRANCH  28  31
ATOM     31  C   UNL A   1      35.690  30.349  28.124  1.00  0.00     0.039 A 
ATOM     32  C   UNL A   1      35.693  29.660  29.340  1.00  0.00     0.014 A 
ATOM     33  C   UNL A   1      36.897  30.682  27.513  1.00  0.00     0.014 A 
ATOM     34  C   UNL A   1      36.904  29.220  29.880  1.00  0.00     0.010 A 
ATOM     35  C   UNL A   1      38.076  30.110  27.964  1.00  0.00     0.010 A 
ATOM     36  C   UNL A   1      38.101  29.391  29.166  1.00  0.00    -0.014 A 
BRANCH  36  37
ATOM     37  C   UNL A   1      39.394  28.849  29.657  1.00  0.00     0.031 A 
ATOM     38  C   UNL A   1      40.120  29.536  30.785  1.00  0.00     0.074 A 
ATOM     39  C   UNL A   1      39.967  27.808  29.022  1.00  0.00     0.049 A 
ATOM     40  N   UNL A   1      41.288  29.260  31.303  1.00  0.00    -0.248 NA
ATOM     41  C   UNL A   1      39.470  30.718  31.379  1.00  0.00     0.031 C 
ATOM     42  C   UNL A   1      39.419  27.122  27.850  1.00  0.00     0.029 A 
ATOM     43  N   UNL A   1      41.155  27.160  29.257  1.00  0.00    -0.354 N 
ATOM     44  C   UNL A   1      41.531  30.257  32.240  1.00  0.00     0.074 A 
ATOM     45  C   UNL A   1      40.418  31.176  32.180  1.00  0.00     0.031 C 
ATOM     46  C   UNL A   1      40.256  26.140  27.480  1.00  0.00     0.029 A 
ATOM     47  C   UNL A   1      41.419  26.150  28.361  1.00  0.00     0.049 A 
ATOM     48  H   UNL A   1      41.760  27.396  29.996  1.00  0.00     0.167 HD
ATOM     49  C   UNL A   1      42.567  30.382  33.101  1.00  0.00     0.034 A 
ATOM     50  C   UNL A   1      42.481  25.328  28.256  1.00  0.00     0.034 A 
ATOM     51  C   UNL A   1      43.646  29.438  33.190  1.00  0.00     0.049 A 
ATOM     52  C   UNL A   1      43.594  25.444  29.260  1.00  0.00     0.074 A 
ATOM     53  C   UNL A   1      44.686  29.404  34.102  1.00  0.00     0.029 A 
ATOM     54  N   UNL A   1      43.832  28.369  32.328  1.00  0.00    -0.354 N 
ATOM     55  N   UNL A   1      43.723  26.290  30.253  1.00  0.00    -0.248 NA
ATOM     56  C   UNL A   1      44.690  24.471  29.152  1.00  0.00     0.031 C 
ATOM     57  C   UNL A   1      45.525  28.337  33.763  1.00  0.00     0.029 A 
ATOM     58  C   UNL A   1      44.983  27.680  32.669  1.00  0.00     0.049 A 
ATOM     59  H   UNL A   1      43.235  28.134  31.581  1.00  0.00     0.167 HD
ATOM     60  C   UNL A   1      44.895  25.934  30.909  1.00  0.00     0.074 A 
ATOM     61  C   UNL A   1      45.428  24.781  30.210  1.00  0.00     0.031 C 
ATOM     62  C   UNL A   1      45.482  26.514  31.985  1.00  0.00     0.034 A 
BRANCH  49  63
ATOM     63  C   UNL A   1      42.558  31.565  34.036  1.00  0.00     0.023 A 
ATOM     64  C   UNL A   1      43.134  32.789  33.632  1.00  0.00     0.012 A 
ATOM     65  C   UNL A   1      41.962  31.474  35.308  1.00  0.00     0.148 A 
ATOM     66  C   UNL A   1      43.168  33.881  34.498  1.00  0.00     0.002 A 
ATOM     67  C   UNL A   1      41.950  32.584  36.145  1.00  0.00     0.091 A 
ATOM     68  F   UNL A   1      41.440  30.298  35.688  1.00  0.00    -0.205 F 
ATOM     69  C   UNL A   1      42.568  33.781  35.750  1.00  0.00     0.022 A 
BRANCH  67  70
ATOM     70  S   UNL A   1      41.128  32.581  37.741  1.00  0.00     0.127 S 
ATOM     71  O   UNL A   1      39.805  32.065  37.390  1.00  0.00    -0.237 OA
ATOM     72  O   UNL A   1      41.959  31.657  38.513  1.00  0.00    -0.237 OA
ATOM     73  O   UNL A   1      41.157  33.960  38.209  1.00  0.00    -0.744 OA
ENDBRANCH  67  70
ENDBRANCH  49  63
BRANCH  50  74
ATOM     74  C   UNL A   1      42.502  24.287  27.190  1.00  0.00     0.023 A 
ATOM     75  C   UNL A   1      43.197  24.534  25.990  1.00  0.00     0.012 A 
ATOM     76  C   UNL A   1      41.889  23.035  27.384  1.00  0.00     0.148 A 
ATOM     77  C   UNL A   1      43.262  23.560  24.993  1.00  0.00     0.002 A 
ATOM     78  C   UNL A   1      42.004  22.049  26.412  1.00  0.00     0.091 A 
ATOM     79  F   UNL A   1      41.229  22.825  28.532  1.00  0.00    -0.205 F 
ATOM     80  C   UNL A   1      42.676  22.314  25.208  1.00  0.00     0.022 A 
BRANCH  78  81
ATOM     81  S   UNL A   1      41.403  20.375  26.658  1.00  0.00     0.127 S 
ATOM     82  O   UNL A   1      41.857  19.712  25.438  1.00  0.00    -0.237 OA
ATOM     83  O   UNL A   1      42.110  19.980  27.877  1.00  0.00    -0.237 OA
ATOM     84  O   UNL A   1      39.959  20.491  26.809  1.00  0.00    -0.744 OA
ENDBRANCH  78  81
ENDBRANCH  50  74
BRANCH  62  85
ATOM     85  C   UNL A   1      46.755  25.897  32.503  1.00  0.00     0.023 A 
ATOM     86  C   UNL A   1      48.003  26.364  32.045  1.00  0.00     0.012 A 
ATOM     87  C   UNL A   1      46.711  24.905  33.503  1.00  0.00     0.148 A 
ATOM     88  C   UNL A   1      49.188  25.827  32.550  1.00  0.00     0.002 A 
ATOM     89  C   UNL A   1      47.894  24.415  34.040  1.00  0.00     0.091 A 
ATOM     90  F   UNL A   1      45.513  24.464  33.913  1.00  0.00    -0.205 F 
ATOM     91  C   UNL A   1      49.134  24.864  33.555  1.00  0.00     0.022 A 
BRANCH  89  92
ATOM     92  S   UNL A   1      47.922  23.251  35.407  1.00  0.00     0.127 S 
ATOM     93  O   UNL A   1      49.359  23.060  35.605  1.00  0.00    -0.237 OA
ATOM     94  O   UNL A   1      47.253  24.003  36.468  1.00  0.00    -0.237 OA
ATOM     95  O   UNL A   1      47.195  22.074  34.949  1.00  0.00    -0.744 OA
ENDBRANCH  89  92
ENDBRANCH  62  85
ENDBRANCH  36  37
ENDBRANCH  28  31
ENDBRANCH  26  27
ENDBRANCH  25  26
ENDBRANCH   1  25
TORSDOF 18
ENDMDL
MODEL 3
REMARK VINA RESULT:     -11.6      1.626      2.118
REMARK SMILES C[N@@H+](CCS(C)(=O)=O)Cc1oc2ccccc2c1C(=O)NCCCNC(=O)c1ccc(-c2c3nc(c(-c4cccc(S(=O)(=O)[O-])c4F)c4ccc([nH]4)c(-c4cccc(S(=O)(=O)[O-])c4F)c4nc(c(-c5cccc(S(=O)(=O)[O-])c5F)c5ccc2[nH]5)C=C4)C=C3)cc1
REMARK SMILES IDX 22 1 21 2 19 3 20 4 18 6 10 7 11 8 12 9 17 10 13 11 16 12
REMARK SMILES IDX 14 13 15 14 9 15 2 16 1 17 3 19 4 20 5 21 6 22 7 23 8 24
REMARK SMILES IDX 23 25 24 26 25 27 26 28 27 30 28 31 29 32 90 33 30 34 89 35
REMARK SMILES IDX 31 36 32 37 33 38 83 39 34 40 88 41 82 42 84 43 35 44 87 45
REMARK SMILES IDX 81 46 80 47 36 49 68 50 48 51 67 52 49 53 52 54 66 55 85 56
REMARK SMILES IDX 50 57 51 58 65 60 86 61 53 62 37 63 38 64 46 65 39 66 41 67
REMARK SMILES IDX 47 68 40 69 42 70 43 71 44 72 45 73 69 74 70 75 78 76 71 77
REMARK SMILES IDX 73 78 79 79 72 80 74 81 75 82 76 83 77 84 54 85 55 86 63 87
REMARK SMILES IDX 56 88 58 89 64 90 57 91 59 92 60 93 61 94 62 95
REMARK H PARENT 21 5 2 18 25 29 84 48 52 59
REMARK Flexibility Score: inf
ROOT
ATOM      1  C   UNL A   1      33.104  27.089  25.478  1.00  0.00     0.118 C 
ENDROOT
BRANCH   1   2
ATOM      2  N   UNL A   1      33.608  27.075  24.123  1.00  0.00    -0.352 N 
ATOM      3  C   UNL A   1      33.590  26.037  23.222  1.00  0.00     0.255 C 
ATOM      4  O   UNL A   1      33.902  26.288  22.059  1.00  0.00    -0.269 OA
ATOM      5  H   UNL A   1      34.017  27.913  23.807  1.00  0.00     0.163 HD
BRANCH   3   6
ATOM      6  C   UNL A   1      33.322  24.682  23.669  1.00  0.00     0.095 A 
ATOM      7  C   UNL A   1      32.044  24.129  23.607  1.00  0.00     0.172 A 
ATOM      8  O   UNL A   1      32.074  22.849  24.062  1.00  0.00    -0.454 OA
ATOM      9  C   UNL A   1      33.359  22.520  24.316  1.00  0.00     0.135 A 
ATOM     10  C   UNL A   1      34.176  23.631  24.175  1.00  0.00     0.034 A 
ATOM     11  C   UNL A   1      33.799  21.237  24.634  1.00  0.00     0.048 A 
ATOM     12  C   UNL A   1      35.543  23.448  24.489  1.00  0.00     0.013 A 
ATOM     13  C   UNL A   1      35.175  21.062  24.774  1.00  0.00     0.004 A 
ATOM     14  C   UNL A   1      36.037  22.154  24.718  1.00  0.00     0.001 A 
BRANCH   7  15
ATOM     15  C   UNL A   1      30.690  24.598  23.167  1.00  0.00     0.339 C 
BRANCH  15  16
ATOM     16  N   UNL A   1      29.861  25.323  24.141  1.00  0.00    -0.330 N 
ATOM     17  C   UNL A   1      30.219  25.151  25.535  1.00  0.00     0.333 C 
ATOM     18  H   UNL A   1      29.006  24.775  24.050  1.00  0.00     0.348 HD
BRANCH  16  19
ATOM     19  C   UNL A   1      29.324  26.633  23.773  1.00  0.00     0.278 C 
BRANCH  19  20
ATOM     20  C   UNL A   1      30.253  27.678  23.160  1.00  0.00     0.197 C 
BRANCH  20  21
ATOM     21  S   UNL A   1      29.417  29.222  22.769  1.00  0.00     0.152 S 
ATOM     22  C   UNL A   1      27.697  28.850  22.940  1.00  0.00     0.158 C 
ATOM     23  O   UNL A   1      29.730  30.182  23.806  1.00  0.00    -0.229 OA
ATOM     24  O   UNL A   1      29.594  29.555  21.364  1.00  0.00    -0.229 OA
ENDBRANCH  20  21
ENDBRANCH  19  20
ENDBRANCH  16  19
ENDBRANCH  15  16
ENDBRANCH   7  15
ENDBRANCH   3   6
ENDBRANCH   1   2
BRANCH   1  25
ATOM     25  C   UNL A   1      32.441  28.364  25.943  1.00  0.00     0.042 C 
BRANCH  25  26
ATOM     26  C   UNL A   1      32.936  29.628  25.273  1.00  0.00     0.118 C 
BRANCH  26  27
ATOM     27  N   UNL A   1      32.548  30.860  25.955  1.00  0.00    -0.352 N 
ATOM     28  C   UNL A   1      33.148  31.547  26.985  1.00  0.00     0.251 C 
ATOM     29  H   UNL A   1      31.717  31.268  25.621  1.00  0.00     0.163 HD
ATOM     30  O   UNL A   1      32.582  32.518  27.480  1.00  0.00    -0.269 OA
BRANCH  28  31
ATOM     31  C   UNL A   1      34.448  31.093  27.523  1.00  0.00     0.039 A 
ATOM     32  C   UNL A   1      35.460  32.027  27.755  1.00  0.00     0.014 A 
ATOM     33  C   UNL A   1      34.654  29.753  27.845  1.00  0.00     0.014 A 
ATOM     34  C   UNL A   1      36.631  31.627  28.404  1.00  0.00     0.010 A 
ATOM     35  C   UNL A   1      35.740  29.393  28.626  1.00  0.00     0.010 A 
ATOM     36  C   UNL A   1      36.756  30.319  28.896  1.00  0.00    -0.014 A 
BRANCH  36  37
ATOM     37  C   UNL A   1      37.941  29.882  29.679  1.00  0.00     0.031 A 
ATOM     38  C   UNL A   1      38.139  30.382  31.087  1.00  0.00     0.074 A 
ATOM     39  C   UNL A   1      38.889  29.126  29.092  1.00  0.00     0.049 A 
ATOM     40  N   UNL A   1      39.140  30.174  31.902  1.00  0.00    -0.248 NA
ATOM     41  C   UNL A   1      37.099  31.269  31.636  1.00  0.00     0.031 C 
ATOM     42  C   UNL A   1      38.869  28.666  27.702  1.00  0.00     0.029 A 
ATOM     43  N   UNL A   1      40.073  28.634  29.585  1.00  0.00    -0.354 N 
ATOM     44  C   UNL A   1      38.874  30.941  33.030  1.00  0.00     0.074 A 
ATOM     45  C   UNL A   1      37.649  31.663  32.773  1.00  0.00     0.031 C 
ATOM     46  C   UNL A   1      39.974  27.945  27.458  1.00  0.00     0.029 A 
ATOM     47  C   UNL A   1      40.802  27.923  28.660  1.00  0.00     0.049 A 
ATOM     48  H   UNL A   1      40.371  28.776  30.511  1.00  0.00     0.167 HD
ATOM     49  C   UNL A   1      39.564  31.014  34.192  1.00  0.00     0.034 A 
ATOM     50  C   UNL A   1      42.005  27.325  28.764  1.00  0.00     0.034 A 
ATOM     51  C   UNL A   1      40.754  30.255  34.460  1.00  0.00     0.049 A 
ATOM     52  C   UNL A   1      42.726  27.367  30.081  1.00  0.00     0.074 A 
ATOM     53  C   UNL A   1      41.468  30.165  35.641  1.00  0.00     0.029 A 
ATOM     54  N   UNL A   1      41.414  29.468  33.530  1.00  0.00    -0.354 N 
ATOM     55  N   UNL A   1      42.372  27.958  31.197  1.00  0.00    -0.248 NA
ATOM     56  C   UNL A   1      43.996  26.631  30.168  1.00  0.00     0.031 C 
ATOM     57  C   UNL A   1      42.585  29.354  35.411  1.00  0.00     0.029 A 
ATOM     58  C   UNL A   1      42.541  28.904  34.101  1.00  0.00     0.049 A 
ATOM     59  H   UNL A   1      41.124  29.330  32.599  1.00  0.00     0.167 HD
ATOM     60  C   UNL A   1      43.355  27.642  32.127  1.00  0.00     0.074 A 
ATOM     61  C   UNL A   1      44.310  26.788  31.447  1.00  0.00     0.031 C 
ATOM     62  C   UNL A   1      43.463  28.029  33.422  1.00  0.00     0.034 A 
BRANCH  49  63
ATOM     63  C   UNL A   1      39.022  31.921  35.268  1.00  0.00     0.023 A 
ATOM     64  C   UNL A   1      39.119  33.322  35.125  1.00  0.00     0.012 A 
ATOM     65  C   UNL A   1      38.400  31.389  36.413  1.00  0.00     0.148 A 
ATOM     66  C   UNL A   1      38.658  34.174  36.127  1.00  0.00     0.002 A 
ATOM     67  C   UNL A   1      37.893  32.246  37.383  1.00  0.00     0.091 A 
ATOM     68  F   UNL A   1      38.336  30.056  36.547  1.00  0.00    -0.205 F 
ATOM     69  C   UNL A   1      38.037  33.637  37.251  1.00  0.00     0.022 A 
BRANCH  67  70
ATOM     70  S   UNL A   1      37.000  31.654  38.823  1.00  0.00     0.127 S 
ATOM     71  O   UNL A   1      35.918  32.633  38.923  1.00  0.00    -0.237 OA
ATOM     72  O   UNL A   1      36.577  30.320  38.395  1.00  0.00    -0.237 OA
ATOM     73  O   UNL A   1      37.956  31.665  39.921  1.00  0.00    -0.744 OA
ENDBRANCH  67  70
ENDBRANCH  49  63
BRANCH  50  74
ATOM     74  C   UNL A   1      42.563  26.588  27.596  1.00  0.00     0.023 A 
ATOM     75  C   UNL A   1      43.453  27.241  26.721  1.00  0.00     0.012 A 
ATOM     76  C   UNL A   1      42.263  25.229  27.383  1.00  0.00     0.148 A 
ATOM     77  C   UNL A   1      44.017  26.560  25.643  1.00  0.00     0.002 A 
ATOM     78  C   UNL A   1      42.872  24.541  26.341  1.00  0.00     0.091 A 
ATOM     79  F   UNL A   1      41.411  24.630  28.225  1.00  0.00    -0.205 F 
ATOM     80  C   UNL A   1      43.737  25.208  25.459  1.00  0.00     0.022 A 
BRANCH  78  81
ATOM     81  S   UNL A   1      42.679  22.770  26.109  1.00  0.00     0.127 S 
ATOM     82  O   UNL A   1      41.226  22.624  26.113  1.00  0.00    -0.237 OA
ATOM     83  O   UNL A   1      43.318  22.570  24.807  1.00  0.00    -0.237 OA
ATOM     84  O   UNL A   1      43.377  22.147  27.225  1.00  0.00    -0.744 OA
ENDBRANCH  78  81
ENDBRANCH  50  74
BRANCH  62  85
ATOM     85  C   UNL A   1      44.638  27.511  34.210  1.00  0.00     0.023 A 
ATOM     86  C   UNL A   1      45.848  28.231  34.228  1.00  0.00     0.012 A 
ATOM     87  C   UNL A   1      44.511  26.348  34.996  1.00  0.00     0.148 A 
ATOM     88  C   UNL A   1      46.928  27.780  34.988  1.00  0.00     0.002 A 
ATOM     89  C   UNL A   1      45.571  25.937  35.793  1.00  0.00     0.091 A 
ATOM     90  F   UNL A   1      43.355  25.670  34.952  1.00  0.00    -0.205 F 
ATOM     91  C   UNL A   1      46.786  26.643  35.779  1.00  0.00     0.022 A 
BRANCH  89  92
ATOM     92  S   UNL A   1      45.445  24.545  36.921  1.00  0.00     0.127 S 
ATOM     93  O   UNL A   1      45.165  23.442  36.002  1.00  0.00    -0.237 OA
ATOM     94  O   UNL A   1      46.778  24.514  37.524  1.00  0.00    -0.237 OA
ATOM     95  O   UNL A   1      44.370  24.873  37.847  1.00  0.00    -0.744 OA
ENDBRANCH  89  92
ENDBRANCH  62  85
ENDBRANCH  36  37
ENDBRANCH  28  31
ENDBRANCH  26  27
ENDBRANCH  25  26
ENDBRANCH   1  25
TORSDOF 18
ENDMDL
