MODEL 1
REMARK VINA RESULT:     -12.4      0.000      0.000
REMARK SMILES Cc1ccccc1-c1nc(CC(=O)NCCCNC(=O)c2ccc(-c3c4nc(c(-c5cccc(S(=O)(=O)[O-])c5F)c5ccc([nH]5)c(-c5cccc(S(=O)(=O)[O-])c5F)c5nc(c(-c6cccc(S(=O)(=O)[O-])c6F)c6ccc3[nH]6)C=C5)C=C4)cc2)cs1
REMARK SMILES IDX 16 1 15 2 14 3 12 4 13 5 11 7 10 8 8 9 9 10 85 11 84 12 7 13
REMARK SMILES IDX 1 14 2 15 3 16 4 17 6 18 5 19 17 20 18 21 19 22 20 24 21 25
REMARK SMILES IDX 22 26 83 27 23 28 82 29 24 30 25 31 26 32 76 33 27 34 81 35
REMARK SMILES IDX 75 36 77 37 28 38 80 39 74 40 73 41 29 43 61 44 41 45 60 46
REMARK SMILES IDX 42 47 45 48 59 49 78 50 43 51 44 52 58 54 79 55 46 56 30 57
REMARK SMILES IDX 31 58 39 59 32 60 34 61 40 62 33 63 35 64 36 65 37 66 38 67
REMARK SMILES IDX 62 68 63 69 71 70 64 71 66 72 72 73 65 74 67 75 68 76 69 77
REMARK SMILES IDX 70 78 47 79 48 80 56 81 49 82 51 83 57 84 50 85 52 86 53 87
REMARK SMILES IDX 54 88 55 89
REMARK H PARENT 14 6 18 23 77 42 45 53
REMARK Flexibility Score: inf
ROOT
ATOM      1  C   UNL A   1      37.636  21.260  25.103  1.00  0.00     0.042 C 
ENDROOT
BRANCH   1   2
ATOM      2  C   UNL A   1      36.186  21.498  24.701  1.00  0.00     0.117 C 
BRANCH   2   3
ATOM      3  N   UNL A   1      35.247  21.104  25.743  1.00  0.00    -0.356 N 
ATOM      4  C   UNL A   1      33.885  20.985  25.668  1.00  0.00     0.226 C 
ATOM      5  O   UNL A   1      33.261  20.651  26.677  1.00  0.00    -0.275 OA
ATOM      6  H   UNL A   1      35.645  20.893  26.618  1.00  0.00     0.163 HD
BRANCH   4   7
ATOM      7  C   UNL A   1      33.162  21.232  24.356  1.00  0.00     0.157 C 
BRANCH   7   8
ATOM      8  C   UNL A   1      33.040  22.685  24.047  1.00  0.00     0.061 A 
ATOM      9  C   UNL A   1      32.850  24.812  24.674  1.00  0.00     0.123 A 
ATOM     10  N   UNL A   1      33.099  23.588  25.101  1.00  0.00    -0.241 NA
ATOM     11  S   UNL A   1      32.658  24.960  22.969  1.00  0.00    -0.122 S 
ATOM     12  C   UNL A   1      32.837  23.264  22.808  1.00  0.00     0.091 A 
BRANCH   9  13
ATOM     13  C   UNL A   1      32.731  25.988  25.546  1.00  0.00     0.013 A 
ATOM     14  C   UNL A   1      30.224  25.592  25.910  1.00  0.00     0.045 C 
ATOM     15  C   UNL A   1      31.500  26.362  26.123  1.00  0.00    -0.041 A 
ATOM     16  C   UNL A   1      31.434  27.530  26.907  1.00  0.00     0.004 A 
ATOM     17  C   UNL A   1      32.566  28.314  27.125  1.00  0.00     0.000 A 
ATOM     18  C   UNL A   1      33.862  26.798  25.771  1.00  0.00     0.011 A 
ATOM     19  C   UNL A   1      33.780  27.949  26.556  1.00  0.00     0.001 A 
ENDBRANCH   9  13
ENDBRANCH   7   8
ENDBRANCH   4   7
ENDBRANCH   2   3
ENDBRANCH   1   2
BRANCH   1  20
ATOM     20  C   UNL A   1      38.279  22.421  25.834  1.00  0.00     0.118 C 
BRANCH  20  21
ATOM     21  N   UNL A   1      39.455  22.066  26.608  1.00  0.00    -0.352 N 
ATOM     22  C   UNL A   1      40.395  22.882  27.226  1.00  0.00     0.251 C 
ATOM     23  H   UNL A   1      39.611  21.100  26.710  1.00  0.00     0.163 HD
ATOM     24  O   UNL A   1      41.380  22.367  27.713  1.00  0.00    -0.269 OA
BRANCH  22  25
ATOM     25  C   UNL A   1      40.118  24.338  27.401  1.00  0.00     0.039 A 
ATOM     26  C   UNL A   1      40.917  25.253  26.698  1.00  0.00     0.014 A 
ATOM     27  C   UNL A   1      39.241  24.801  28.373  1.00  0.00     0.014 A 
ATOM     28  C   UNL A   1      41.023  26.570  27.150  1.00  0.00     0.010 A 
ATOM     29  C   UNL A   1      39.428  26.058  28.894  1.00  0.00     0.010 A 
ATOM     30  C   UNL A   1      40.366  26.920  28.322  1.00  0.00    -0.014 A 
BRANCH  30  31
ATOM     31  C   UNL A   1      40.593  28.126  29.099  1.00  0.00     0.031 A 
ATOM     32  C   UNL A   1      39.652  29.265  28.958  1.00  0.00     0.074 A 
ATOM     33  C   UNL A   1      41.445  28.049  30.148  1.00  0.00     0.049 A 
ATOM     34  N   UNL A   1      39.769  30.388  29.577  1.00  0.00    -0.248 NA
ATOM     35  C   UNL A   1      38.490  29.218  28.074  1.00  0.00     0.031 C 
ATOM     36  C   UNL A   1      41.436  28.889  31.345  1.00  0.00     0.029 A 
ATOM     37  N   UNL A   1      42.582  27.262  30.348  1.00  0.00    -0.354 N 
ATOM     38  C   UNL A   1      38.593  31.090  29.409  1.00  0.00     0.074 A 
ATOM     39  C   UNL A   1      37.877  30.363  28.390  1.00  0.00     0.031 C 
ATOM     40  C   UNL A   1      42.634  28.799  31.944  1.00  0.00     0.029 A 
ATOM     41  C   UNL A   1      43.494  28.087  31.019  1.00  0.00     0.049 A 
ATOM     42  H   UNL A   1      42.713  26.325  30.075  1.00  0.00     0.167 HD
ATOM     43  C   UNL A   1      38.330  32.124  30.258  1.00  0.00     0.034 A 
ATOM     44  C   UNL A   1      44.621  28.631  30.458  1.00  0.00     0.034 A 
ATOM     45  C   UNL A   1      39.516  32.427  31.077  1.00  0.00     0.049 A 
ATOM     46  C   UNL A   1      44.685  30.154  30.556  1.00  0.00     0.074 A 
ATOM     47  C   UNL A   1      39.883  32.112  32.375  1.00  0.00     0.029 A 
ATOM     48  N   UNL A   1      40.658  32.924  30.456  1.00  0.00    -0.354 N 
ATOM     49  N   UNL A   1      43.666  30.915  30.849  1.00  0.00    -0.248 NA
ATOM     50  C   UNL A   1      45.898  30.940  30.335  1.00  0.00     0.031 C 
ATOM     51  C   UNL A   1      41.281  32.339  32.501  1.00  0.00     0.029 A 
ATOM     52  C   UNL A   1      41.757  32.824  31.294  1.00  0.00     0.049 A 
ATOM     53  H   UNL A   1      40.682  33.297  29.546  1.00  0.00     0.167 HD
ATOM     54  C   UNL A   1      44.013  32.238  30.752  1.00  0.00     0.074 A 
ATOM     55  C   UNL A   1      45.443  32.196  30.503  1.00  0.00     0.031 C 
ATOM     56  C   UNL A   1      43.079  33.240  30.830  1.00  0.00     0.034 A 
BRANCH  43  57
ATOM     57  C   UNL A   1      36.963  32.730  30.561  1.00  0.00     0.023 A 
ATOM     58  C   UNL A   1      36.422  32.479  31.846  1.00  0.00     0.012 A 
ATOM     59  C   UNL A   1      36.117  33.440  29.677  1.00  0.00     0.148 A 
ATOM     60  C   UNL A   1      35.115  32.833  32.202  1.00  0.00     0.002 A 
ATOM     61  C   UNL A   1      34.803  33.779  30.022  1.00  0.00     0.091 A 
ATOM     62  F   UNL A   1      36.564  33.830  28.487  1.00  0.00    -0.205 F 
ATOM     63  C   UNL A   1      34.296  33.467  31.283  1.00  0.00     0.022 A 
BRANCH  61  64
ATOM     64  S   UNL A   1      33.673  34.585  28.868  1.00  0.00     0.127 S 
ATOM     65  O   UNL A   1      33.401  33.514  27.908  1.00  0.00    -0.237 OA
ATOM     66  O   UNL A   1      32.542  34.932  29.728  1.00  0.00    -0.237 OA
ATOM     67  O   UNL A   1      34.390  35.725  28.309  1.00  0.00    -0.744 OA
ENDBRANCH  61  64
ENDBRANCH  43  57
BRANCH  44  68
ATOM     68  C   UNL A   1      45.201  27.821  29.347  1.00  0.00     0.023 A 
ATOM     69  C   UNL A   1      45.730  26.556  29.691  1.00  0.00     0.012 A 
ATOM     70  C   UNL A   1      44.903  28.089  27.998  1.00  0.00     0.148 A 
ATOM     71  C   UNL A   1      45.810  25.531  28.747  1.00  0.00     0.002 A 
ATOM     72  C   UNL A   1      44.995  27.062  27.058  1.00  0.00     0.091 A 
ATOM     73  F   UNL A   1      44.482  29.315  27.662  1.00  0.00    -0.205 F 
ATOM     74  C   UNL A   1      45.406  25.773  27.441  1.00  0.00     0.022 A 
BRANCH  72  75
ATOM     75  S   UNL A   1      44.458  27.273  25.353  1.00  0.00     0.127 S 
ATOM     76  O   UNL A   1      44.106  25.905  24.984  1.00  0.00    -0.237 OA
ATOM     77  O   UNL A   1      43.322  28.184  25.496  1.00  0.00    -0.237 OA
ATOM     78  O   UNL A   1      45.602  27.854  24.667  1.00  0.00    -0.744 OA
ENDBRANCH  72  75
ENDBRANCH  44  68
BRANCH  56  79
ATOM     79  C   UNL A   1      43.304  34.702  30.466  1.00  0.00     0.023 A 
ATOM     80  C   UNL A   1      43.673  35.670  31.421  1.00  0.00     0.012 A 
ATOM     81  C   UNL A   1      43.304  35.129  29.110  1.00  0.00     0.148 A 
ATOM     82  C   UNL A   1      43.967  36.994  31.068  1.00  0.00     0.002 A 
ATOM     83  C   UNL A   1      43.707  36.417  28.754  1.00  0.00     0.091 A 
ATOM     84  F   UNL A   1      42.892  34.297  28.143  1.00  0.00    -0.205 F 
ATOM     85  C   UNL A   1      44.009  37.362  29.733  1.00  0.00     0.022 A 
BRANCH  83  86
ATOM     86  S   UNL A   1      44.007  36.843  27.031  1.00  0.00     0.127 S 
ATOM     87  O   UNL A   1      45.132  35.976  26.692  1.00  0.00    -0.237 OA
ATOM     88  O   UNL A   1      42.743  36.476  26.387  1.00  0.00    -0.237 OA
ATOM     89  O   UNL A   1      44.271  38.275  27.043  1.00  0.00    -0.744 OA
ENDBRANCH  83  86
ENDBRANCH  56  79
ENDBRANCH  30  31
ENDBRANCH  22  25
ENDBRANCH  20  21
ENDBRANCH   1  20
TORSDOF 15
ENDMDL
MODEL 2
REMARK VINA RESULT:     -12.2      4.014      9.458
REMARK SMILES Cc1ccccc1-c1nc(CC(=O)NCCCNC(=O)c2ccc(-c3c4nc(c(-c5cccc(S(=O)(=O)[O-])c5F)c5ccc([nH]5)c(-c5cccc(S(=O)(=O)[O-])c5F)c5nc(c(-c6cccc(S(=O)(=O)[O-])c6F)c6ccc3[nH]6)C=C5)C=C4)cc2)cs1
REMARK SMILES IDX 16 1 15 2 14 3 12 4 13 5 11 7 10 8 8 9 9 10 85 11 84 12 7 13
REMARK SMILES IDX 1 14 2 15 3 16 4 17 6 18 5 19 17 20 18 21 19 22 20 24 21 25
REMARK SMILES IDX 22 26 83 27 23 28 82 29 24 30 25 31 26 32 76 33 27 34 81 35
REMARK SMILES IDX 75 36 77 37 28 38 80 39 74 40 73 41 29 43 61 44 41 45 60 46
REMARK SMILES IDX 42 47 45 48 59 49 78 50 43 51 44 52 58 54 79 55 46 56 30 57
REMARK SMILES IDX 31 58 39 59 32 60 34 61 40 62 33 63 35 64 36 65 37 66 38 67
REMARK SMILES IDX 62 68 63 69 71 70 64 71 66 72 72 73 65 74 67 75 68 76 69 77
REMARK SMILES IDX 70 78 47 79 48 80 56 81 49 82 51 83 57 84 50 85 52 86 53 87
REMARK SMILES IDX 54 88 55 89
REMARK H PARENT 14 6 18 23 77 42 45 53
REMARK Flexibility Score: inf
ROOT
ATOM      1  C   UNL A   1      32.839  30.139  26.176  1.00  0.00     0.042 C 
ENDROOT
BRANCH   1   2
ATOM      2  C   UNL A   1      33.169  28.855  25.427  1.00  0.00     0.117 C 
BRANCH   2   3
ATOM      3  N   UNL A   1      32.050  28.372  24.628  1.00  0.00    -0.356 N 
ATOM      4  C   UNL A   1      31.108  27.433  24.953  1.00  0.00     0.226 C 
ATOM      5  O   UNL A   1      30.243  27.147  24.124  1.00  0.00    -0.275 OA
ATOM      6  H   UNL A   1      31.959  28.775  23.734  1.00  0.00     0.163 HD
BRANCH   4   7
ATOM      7  C   UNL A   1      31.114  26.779  26.324  1.00  0.00     0.157 C 
BRANCH   7   8
ATOM      8  C   UNL A   1      31.803  25.457  26.313  1.00  0.00     0.061 A 
ATOM      9  C   UNL A   1      33.505  24.140  25.748  1.00  0.00     0.123 A 
ATOM     10  N   UNL A   1      33.093  25.393  25.801  1.00  0.00    -0.241 NA
ATOM     11  S   UNL A   1      32.419  22.989  26.426  1.00  0.00    -0.122 S 
ATOM     12  C   UNL A   1      31.291  24.243  26.730  1.00  0.00     0.091 A 
BRANCH   9  13
ATOM     13  C   UNL A   1      34.782  23.711  25.163  1.00  0.00     0.013 A 
ATOM     14  C   UNL A   1      33.706  23.280  22.876  1.00  0.00     0.045 C 
ATOM     15  C   UNL A   1      34.880  23.299  23.817  1.00  0.00    -0.041 A 
ATOM     16  C   UNL A   1      36.119  22.846  23.325  1.00  0.00     0.004 A 
ATOM     17  C   UNL A   1      37.247  22.805  24.144  1.00  0.00     0.000 A 
ATOM     18  C   UNL A   1      35.931  23.654  25.978  1.00  0.00     0.011 A 
ATOM     19  C   UNL A   1      37.153  23.208  25.471  1.00  0.00     0.001 A 
ENDBRANCH   9  13
ENDBRANCH   7   8
ENDBRANCH   4   7
ENDBRANCH   2   3
ENDBRANCH   1   2
BRANCH   1  20
ATOM     20  C   UNL A   1      33.584  30.306  27.486  1.00  0.00     0.118 C 
BRANCH  20  21
ATOM     21  N   UNL A   1      34.354  31.533  27.586  1.00  0.00    -0.352 N 
ATOM     22  C   UNL A   1      35.649  31.737  28.048  1.00  0.00     0.251 C 
ATOM     23  H   UNL A   1      33.887  32.344  27.280  1.00  0.00     0.163 HD
ATOM     24  O   UNL A   1      36.049  32.876  28.167  1.00  0.00    -0.269 OA
BRANCH  22  25
ATOM     25  C   UNL A   1      36.557  30.573  28.257  1.00  0.00     0.039 A 
ATOM     26  C   UNL A   1      36.766  30.122  29.570  1.00  0.00     0.014 A 
ATOM     27  C   UNL A   1      37.339  30.064  27.227  1.00  0.00     0.014 A 
ATOM     28  C   UNL A   1      37.909  29.380  29.873  1.00  0.00     0.010 A 
ATOM     29  C   UNL A   1      38.522  29.438  27.535  1.00  0.00     0.010 A 
ATOM     30  C   UNL A   1      38.837  29.154  28.866  1.00  0.00    -0.014 A 
BRANCH  30  31
ATOM     31  C   UNL A   1      40.198  28.679  29.049  1.00  0.00     0.031 A 
ATOM     32  C   UNL A   1      40.494  27.239  28.846  1.00  0.00     0.074 A 
ATOM     33  C   UNL A   1      41.189  29.600  29.074  1.00  0.00     0.049 A 
ATOM     34  N   UNL A   1      41.654  26.704  29.005  1.00  0.00    -0.248 NA
ATOM     35  C   UNL A   1      39.470  26.274  28.453  1.00  0.00     0.031 C 
ATOM     36  C   UNL A   1      42.590  29.386  28.714  1.00  0.00     0.029 A 
ATOM     37  N   UNL A   1      41.197  30.924  29.521  1.00  0.00    -0.354 N 
ATOM     38  C   UNL A   1      41.609  25.429  28.480  1.00  0.00     0.074 A 
ATOM     39  C   UNL A   1      40.209  25.181  28.243  1.00  0.00     0.031 C 
ATOM     40  C   UNL A   1      43.327  30.376  29.242  1.00  0.00     0.029 A 
ATOM     41  C   UNL A   1      42.445  31.104  30.133  1.00  0.00     0.049 A 
ATOM     42  H   UNL A   1      40.478  31.589  29.424  1.00  0.00     0.167 HD
ATOM     43  C   UNL A   1      42.789  24.806  28.195  1.00  0.00     0.034 A 
ATOM     44  C   UNL A   1      42.648  31.206  31.485  1.00  0.00     0.034 A 
ATOM     45  C   UNL A   1      43.919  25.578  28.737  1.00  0.00     0.049 A 
ATOM     46  C   UNL A   1      43.630  30.177  32.041  1.00  0.00     0.074 A 
ATOM     47  C   UNL A   1      44.828  26.460  28.175  1.00  0.00     0.029 A 
ATOM     48  N   UNL A   1      44.054  25.703  30.116  1.00  0.00    -0.354 N 
ATOM     49  N   UNL A   1      44.015  29.107  31.399  1.00  0.00    -0.248 NA
ATOM     50  C   UNL A   1      44.257  30.270  33.359  1.00  0.00     0.031 C 
ATOM     51  C   UNL A   1      45.444  27.185  29.231  1.00  0.00     0.029 A 
ATOM     52  C   UNL A   1      44.940  26.720  30.434  1.00  0.00     0.049 A 
ATOM     53  H   UNL A   1      43.584  25.144  30.777  1.00  0.00     0.167 HD
ATOM     54  C   UNL A   1      44.811  28.329  32.200  1.00  0.00     0.074 A 
ATOM     55  C   UNL A   1      44.993  29.143  33.390  1.00  0.00     0.031 C 
ATOM     56  C   UNL A   1      45.195  27.066  31.831  1.00  0.00     0.034 A 
BRANCH  43  57
ATOM     57  C   UNL A   1      42.994  23.641  27.231  1.00  0.00     0.023 A 
ATOM     58  C   UNL A   1      43.702  23.916  26.036  1.00  0.00     0.012 A 
ATOM     59  C   UNL A   1      42.478  22.328  27.340  1.00  0.00     0.148 A 
ATOM     60  C   UNL A   1      43.822  22.989  24.993  1.00  0.00     0.002 A 
ATOM     61  C   UNL A   1      42.579  21.403  26.293  1.00  0.00     0.091 A 
ATOM     62  F   UNL A   1      41.897  21.925  28.466  1.00  0.00    -0.205 F 
ATOM     63  C   UNL A   1      43.243  21.736  25.112  1.00  0.00     0.022 A 
BRANCH  61  64
ATOM     64  S   UNL A   1      41.831  19.762  26.369  1.00  0.00     0.127 S 
ATOM     65  O   UNL A   1      40.404  20.073  26.266  1.00  0.00    -0.237 OA
ATOM     66  O   UNL A   1      42.396  19.105  25.192  1.00  0.00    -0.237 OA
ATOM     67  O   UNL A   1      42.229  19.182  27.647  1.00  0.00    -0.744 OA
ENDBRANCH  61  64
ENDBRANCH  43  57
BRANCH  44  68
ATOM     68  C   UNL A   1      41.488  31.772  32.235  1.00  0.00     0.023 A 
ATOM     69  C   UNL A   1      41.125  33.105  31.933  1.00  0.00     0.012 A 
ATOM     70  C   UNL A   1      40.561  30.950  32.903  1.00  0.00     0.148 A 
ATOM     71  C   UNL A   1      39.822  33.559  32.143  1.00  0.00     0.002 A 
ATOM     72  C   UNL A   1      39.263  31.415  33.118  1.00  0.00     0.091 A 
ATOM     73  F   UNL A   1      40.936  29.716  33.263  1.00  0.00    -0.205 F 
ATOM     74  C   UNL A   1      38.882  32.701  32.699  1.00  0.00     0.022 A 
BRANCH  72  75
ATOM     75  S   UNL A   1      37.970  30.362  33.797  1.00  0.00     0.127 S 
ATOM     76  O   UNL A   1      38.473  29.031  33.468  1.00  0.00    -0.237 OA
ATOM     77  O   UNL A   1      38.010  30.700  35.220  1.00  0.00    -0.237 OA
ATOM     78  O   UNL A   1      36.751  30.779  33.120  1.00  0.00    -0.744 OA
ENDBRANCH  72  75
ENDBRANCH  44  68
BRANCH  56  79
ATOM     79  C   UNL A   1      45.835  26.024  32.741  1.00  0.00     0.023 A 
ATOM     80  C   UNL A   1      47.231  25.889  32.871  1.00  0.00     0.012 A 
ATOM     81  C   UNL A   1      45.046  25.238  33.624  1.00  0.00     0.148 A 
ATOM     82  C   UNL A   1      47.815  24.993  33.775  1.00  0.00     0.002 A 
ATOM     83  C   UNL A   1      45.633  24.431  34.600  1.00  0.00     0.091 A 
ATOM     84  F   UNL A   1      43.709  25.244  33.518  1.00  0.00    -0.205 F 
ATOM     85  C   UNL A   1      47.018  24.281  34.658  1.00  0.00     0.022 A 
BRANCH  83  86
ATOM     86  S   UNL A   1      44.637  23.696  35.906  1.00  0.00     0.127 S 
ATOM     87  O   UNL A   1      44.087  24.873  36.572  1.00  0.00    -0.237 OA
ATOM     88  O   UNL A   1      43.655  22.909  35.154  1.00  0.00    -0.237 OA
ATOM     89  O   UNL A   1      45.574  22.891  36.678  1.00  0.00    -0.744 OA
ENDBRANCH  83  86
ENDBRANCH  56  79
ENDBRANCH  30  31
ENDBRANCH  22  25
ENDBRANCH  20  21
ENDBRANCH   1  20
TORSDOF 15
ENDMDL
MODEL 3
REMARK VINA RESULT:     -11.9      4.146      9.661
REMARK SMILES Cc1ccccc1-c1nc(CC(=O)NCCCNC(=O)c2ccc(-c3c4nc(c(-c5cccc(S(=O)(=O)[O-])c5F)c5ccc([nH]5)c(-c5cccc(S(=O)(=O)[O-])c5F)c5nc(c(-c6cccc(S(=O)(=O)[O-])c6F)c6ccc3[nH]6)C=C5)C=C4)cc2)cs1
REMARK SMILES IDX 16 1 15 2 14 3 12 4 13 5 11 7 10 8 8 9 9 10 85 11 84 12 7 13
REMARK SMILES IDX 1 14 2 15 3 16 4 17 6 18 5 19 17 20 18 21 19 22 20 24 21 25
REMARK SMILES IDX 22 26 83 27 23 28 82 29 24 30 25 31 26 32 76 33 27 34 81 35
REMARK SMILES IDX 75 36 77 37 28 38 80 39 74 40 73 41 29 43 61 44 41 45 60 46
REMARK SMILES IDX 42 47 45 48 59 49 78 50 43 51 44 52 58 54 79 55 46 56 30 57
REMARK SMILES IDX 31 58 39 59 32 60 34 61 40 62 33 63 35 64 36 65 37 66 38 67
REMARK SMILES IDX 62 68 63 69 71 70 64 71 66 72 72 73 65 74 67 75 68 76 69 77
REMARK SMILES IDX 70 78 47 79 48 80 56 81 49 82 51 83 57 84 50 85 52 86 53 87
REMARK SMILES IDX 54 88 55 89
REMARK H PARENT 14 6 18 23 77 42 45 53
REMARK Flexibility Score: inf
ROOT
ATOM      1  C   UNL A   1      32.824  30.017  25.886  1.00  0.00     0.042 C 
ENDROOT
BRANCH   1   2
ATOM      2  C   UNL A   1      31.781  28.979  25.492  1.00  0.00     0.117 C 
BRANCH   2   3
ATOM      3  N   UNL A   1      31.134  29.293  24.225  1.00  0.00    -0.356 N 
ATOM      4  C   UNL A   1      31.581  29.052  22.953  1.00  0.00     0.226 C 
ATOM      5  O   UNL A   1      30.886  29.414  22.001  1.00  0.00    -0.275 OA
ATOM      6  H   UNL A   1      30.258  29.737  24.292  1.00  0.00     0.163 HD
BRANCH   4   7
ATOM      7  C   UNL A   1      32.894  28.326  22.722  1.00  0.00     0.157 C 
BRANCH   7   8
ATOM      8  C   UNL A   1      32.767  26.855  22.930  1.00  0.00     0.061 A 
ATOM      9  C   UNL A   1      33.589  24.890  23.572  1.00  0.00     0.123 A 
ATOM     10  N   UNL A   1      33.799  26.193  23.583  1.00  0.00    -0.241 NA
ATOM     11  S   UNL A   1      32.084  24.403  22.891  1.00  0.00    -0.122 S 
ATOM     12  C   UNL A   1      31.734  26.037  22.512  1.00  0.00     0.091 A 
BRANCH   9  13
ATOM     13  C   UNL A   1      34.537  23.892  24.084  1.00  0.00     0.013 A 
ATOM     14  C   UNL A   1      33.455  23.906  26.408  1.00  0.00     0.045 C 
ATOM     15  C   UNL A   1      34.484  23.433  25.417  1.00  0.00    -0.041 A 
ATOM     16  C   UNL A   1      35.453  22.518  25.869  1.00  0.00     0.004 A 
ATOM     17  C   UNL A   1      36.457  22.055  25.019  1.00  0.00     0.000 A 
ATOM     18  C   UNL A   1      35.566  23.421  23.243  1.00  0.00     0.011 A 
ATOM     19  C   UNL A   1      36.515  22.508  23.706  1.00  0.00     0.001 A 
ENDBRANCH   9  13
ENDBRANCH   7   8
ENDBRANCH   4   7
ENDBRANCH   2   3
ENDBRANCH   1   2
BRANCH   1  20
ATOM     20  C   UNL A   1      33.246  29.955  27.341  1.00  0.00     0.118 C 
BRANCH  20  21
ATOM     21  N   UNL A   1      33.851  31.175  27.844  1.00  0.00    -0.352 N 
ATOM     22  C   UNL A   1      35.028  31.357  28.559  1.00  0.00     0.251 C 
ATOM     23  H   UNL A   1      33.350  32.000  27.648  1.00  0.00     0.163 HD
ATOM     24  O   UNL A   1      35.277  32.462  28.995  1.00  0.00    -0.269 OA
BRANCH  22  25
ATOM     25  C   UNL A   1      36.017  30.245  28.663  1.00  0.00     0.039 A 
ATOM     26  C   UNL A   1      36.255  29.685  29.928  1.00  0.00     0.014 A 
ATOM     27  C   UNL A   1      36.833  29.895  27.595  1.00  0.00     0.014 A 
ATOM     28  C   UNL A   1      37.447  29.000  30.168  1.00  0.00     0.010 A 
ATOM     29  C   UNL A   1      38.058  29.327  27.851  1.00  0.00     0.010 A 
ATOM     30  C   UNL A   1      38.391  28.939  29.151  1.00  0.00    -0.014 A 
BRANCH  30  31
ATOM     31  C   UNL A   1      39.781  28.545  29.299  1.00  0.00     0.031 A 
ATOM     32  C   UNL A   1      40.170  27.144  29.005  1.00  0.00     0.074 A 
ATOM     33  C   UNL A   1      40.709  29.527  29.379  1.00  0.00     0.049 A 
ATOM     34  N   UNL A   1      41.365  26.679  29.125  1.00  0.00    -0.248 NA
ATOM     35  C   UNL A   1      39.210  26.139  28.554  1.00  0.00     0.031 C 
ATOM     36  C   UNL A   1      42.118  29.430  29.001  1.00  0.00     0.029 A 
ATOM     37  N   UNL A   1      40.632  30.817  29.908  1.00  0.00    -0.354 N 
ATOM     38  C   UNL A   1      41.401  25.439  28.520  1.00  0.00     0.074 A 
ATOM     39  C   UNL A   1      40.019  25.113  28.273  1.00  0.00     0.031 C 
ATOM     40  C   UNL A   1      42.792  30.432  29.588  1.00  0.00     0.029 A 
ATOM     41  C   UNL A   1      41.870  31.041  30.526  1.00  0.00     0.049 A 
ATOM     42  H   UNL A   1      39.870  31.438  29.856  1.00  0.00     0.167 HD
ATOM     43  C   UNL A   1      42.617  24.915  28.192  1.00  0.00     0.034 A 
ATOM     44  C   UNL A   1      42.076  31.072  31.881  1.00  0.00     0.034 A 
ATOM     45  C   UNL A   1      43.698  25.725  28.778  1.00  0.00     0.049 A 
ATOM     46  C   UNL A   1      43.129  30.077  32.368  1.00  0.00     0.074 A 
ATOM     47  C   UNL A   1      44.541  26.700  28.269  1.00  0.00     0.029 A 
ATOM     48  N   UNL A   1      43.834  25.772  30.161  1.00  0.00    -0.354 N 
ATOM     49  N   UNL A   1      43.580  29.078  31.658  1.00  0.00    -0.248 NA
ATOM     50  C   UNL A   1      43.759  30.130  33.686  1.00  0.00     0.031 C 
ATOM     51  C   UNL A   1      45.116  27.396  29.367  1.00  0.00     0.029 A 
ATOM     52  C   UNL A   1      44.653  26.824  30.540  1.00  0.00     0.049 A 
ATOM     53  H   UNL A   1      43.408  25.143  30.787  1.00  0.00     0.167 HD
ATOM     54  C   UNL A   1      44.431  28.306  32.405  1.00  0.00     0.074 A 
ATOM     55  C   UNL A   1      44.569  29.054  33.643  1.00  0.00     0.031 C 
ATOM     56  C   UNL A   1      44.896  27.097  31.955  1.00  0.00     0.034 A 
BRANCH  43  57
ATOM     57  C   UNL A   1      42.892  23.829  27.155  1.00  0.00     0.023 A 
ATOM     58  C   UNL A   1      43.496  24.240  25.943  1.00  0.00     0.012 A 
ATOM     59  C   UNL A   1      42.529  22.463  27.217  1.00  0.00     0.148 A 
ATOM     60  C   UNL A   1      43.656  23.385  24.845  1.00  0.00     0.002 A 
ATOM     61  C   UNL A   1      42.669  21.609  26.117  1.00  0.00     0.091 A 
ATOM     62  F   UNL A   1      42.060  21.943  28.348  1.00  0.00    -0.205 F 
ATOM     63  C   UNL A   1      43.224  22.072  24.924  1.00  0.00     0.022 A 
BRANCH  61  64
ATOM     64  S   UNL A   1      42.108  19.893  26.140  1.00  0.00     0.127 S 
ATOM     65  O   UNL A   1      40.662  20.042  25.967  1.00  0.00    -0.237 OA
ATOM     66  O   UNL A   1      42.803  19.321  24.989  1.00  0.00    -0.237 OA
ATOM     67  O   UNL A   1      42.505  19.342  27.432  1.00  0.00    -0.744 OA
ENDBRANCH  61  64
ENDBRANCH  43  57
BRANCH  44  68
ATOM     68  C   UNL A   1      40.888  31.511  32.670  1.00  0.00     0.023 A 
ATOM     69  C   UNL A   1      40.015  30.495  33.124  1.00  0.00     0.012 A 
ATOM     70  C   UNL A   1      40.822  32.782  33.270  1.00  0.00     0.148 A 
ATOM     71  C   UNL A   1      39.214  30.688  34.250  1.00  0.00     0.002 A 
ATOM     72  C   UNL A   1      40.010  32.970  34.390  1.00  0.00     0.091 A 
ATOM     73  F   UNL A   1      41.588  33.766  32.783  1.00  0.00    -0.205 F 
ATOM     74  C   UNL A   1      39.241  31.912  34.905  1.00  0.00     0.022 A 
BRANCH  72  75
ATOM     75  S   UNL A   1      40.010  34.509  35.324  1.00  0.00     0.127 S 
ATOM     76  O   UNL A   1      39.167  34.160  36.465  1.00  0.00    -0.237 OA
ATOM     77  O   UNL A   1      41.428  34.682  35.637  1.00  0.00    -0.237 OA
ATOM     78  O   UNL A   1      39.477  35.505  34.407  1.00  0.00    -0.744 OA
ENDBRANCH  72  75
ENDBRANCH  44  68
BRANCH  56  79
ATOM     79  C   UNL A   1      45.611  26.046  32.795  1.00  0.00     0.023 A 
ATOM     80  C   UNL A   1      47.015  25.968  32.874  1.00  0.00     0.012 A 
ATOM     81  C   UNL A   1      44.887  25.186  33.666  1.00  0.00     0.148 A 
ATOM     82  C   UNL A   1      47.668  25.058  33.717  1.00  0.00     0.002 A 
ATOM     83  C   UNL A   1      45.541  24.364  34.584  1.00  0.00     0.091 A 
ATOM     84  F   UNL A   1      43.549  25.138  33.603  1.00  0.00    -0.205 F 
ATOM     85  C   UNL A   1      46.933  24.274  34.590  1.00  0.00     0.022 A 
BRANCH  83  86
ATOM     86  S   UNL A   1      44.623  23.527  35.886  1.00  0.00     0.127 S 
ATOM     87  O   UNL A   1      43.817  22.574  35.130  1.00  0.00    -0.237 OA
ATOM     88  O   UNL A   1      45.689  22.919  36.688  1.00  0.00    -0.237 OA
ATOM     89  O   UNL A   1      43.900  24.590  36.572  1.00  0.00    -0.744 OA
ENDBRANCH  83  86
ENDBRANCH  56  79
ENDBRANCH  30  31
ENDBRANCH  22  25
ENDBRANCH  20  21
ENDBRANCH   1  20
TORSDOF 15
ENDMDL
