MODEL 1
REMARK VINA RESULT:     -11.7      0.000      0.000
REMARK SMILES CS(=O)(=O)c1ccc(/C=C(/C(=O)NCCCNC(=O)c2ccc(-c3c4nc(c(-c5cccc(S(=O)(=O)[O-])c5F)c5ccc([nH]5)c(-c5cccc(S(=O)(=O)[O-])c5F)c5nc(c(-c6cccc(S(=O)(=O)[O-])c6F)c6ccc3[nH]6)C=C5)C=C4)cc2)c2cccc(Br)c2)cc1
REMARK SMILES IDX 15 1 14 2 13 3 11 4 12 5 10 7 9 8 8 9 5 10 6 11 91 12 7 13
REMARK SMILES IDX 90 14 2 15 1 16 3 17 4 18 83 19 84 20 89 21 85 22 87 23
REMARK SMILES IDX 86 24 88 25 16 26 17 27 18 28 19 30 20 31 21 32 82 33 22 34
REMARK SMILES IDX 81 35 23 36 24 37 25 38 75 39 26 40 80 41 74 42 76 43 27 44
REMARK SMILES IDX 79 45 73 46 72 47 28 49 60 50 40 51 59 52 41 53 44 54 58 55
REMARK SMILES IDX 77 56 42 57 43 58 57 60 78 61 45 62 29 63 30 64 38 65 31 66
REMARK SMILES IDX 33 67 39 68 32 69 34 70 35 71 36 72 37 73 61 74 62 75 70 76
REMARK SMILES IDX 63 77 65 78 71 79 64 80 66 81 67 82 68 83 69 84 46 85 47 86
REMARK SMILES IDX 55 87 48 88 50 89 56 90 49 91 51 92 52 93 53 94 54 95
REMARK H PARENT 13 6 17 29 76 48 44 59
REMARK Flexibility Score: inf
ROOT
ATOM      1  C   UNL A   1      32.499  27.389  26.494  1.00  0.00     0.042 C 
ENDROOT
BRANCH   1   2
ATOM      2  C   UNL A   1      32.639  25.973  25.930  1.00  0.00     0.118 C 
BRANCH   2   3
ATOM      3  N   UNL A   1      32.335  25.938  24.510  1.00  0.00    -0.352 N 
ATOM      4  C   UNL A   1      32.442  24.992  23.541  1.00  0.00     0.251 C 
ATOM      5  O   UNL A   1      32.044  25.321  22.420  1.00  0.00    -0.269 OA
ATOM      6  H   UNL A   1      31.969  26.789  24.176  1.00  0.00     0.163 HD
BRANCH   4   7
ATOM      7  C   UNL A   1      32.925  23.581  23.792  1.00  0.00     0.047 C 
ATOM      8  C   UNL A   1      32.068  22.571  24.065  1.00  0.00     0.022 C 
BRANCH   8   9
ATOM      9  C   UNL A   1      32.345  21.131  24.257  1.00  0.00    -0.025 A 
ATOM     10  C   UNL A   1      32.924  18.388  24.442  1.00  0.00     0.067 A 
ATOM     11  C   UNL A   1      32.994  19.192  25.581  1.00  0.00     0.021 A 
ATOM     12  C   UNL A   1      32.522  18.929  23.221  1.00  0.00     0.021 A 
ATOM     13  C   UNL A   1      32.687  20.554  25.485  1.00  0.00     0.009 A 
ATOM     14  C   UNL A   1      32.233  20.294  23.134  1.00  0.00     0.009 A 
BRANCH  10  15
ATOM     15  S   UNL A   1      33.356  16.667  24.528  1.00  0.00     0.175 S 
ATOM     16  C   UNL A   1      34.954  16.622  25.296  1.00  0.00     0.163 C 
ATOM     17  O   UNL A   1      33.537  16.193  23.171  1.00  0.00    -0.224 OA
ATOM     18  O   UNL A   1      32.409  16.033  25.428  1.00  0.00    -0.224 OA
ENDBRANCH  10  15
ENDBRANCH   8   9
BRANCH   7  19
ATOM     19  C   UNL A   1      34.393  23.383  23.908  1.00  0.00    -0.012 A 
ATOM     20  C   UNL A   1      35.116  22.999  22.764  1.00  0.00     0.009 A 
ATOM     21  C   UNL A   1      35.090  23.642  25.095  1.00  0.00     0.024 A 
ATOM     22  C   UNL A   1      36.506  22.896  22.794  1.00  0.00     0.002 A 
ATOM     23  C   UNL A   1      36.484  23.556  25.111  1.00  0.00     0.018 A 
ATOM     24  C   UNL A   1      37.194  23.187  23.968  1.00  0.00     0.016 A 
ATOM     25  Br  UNL A   1      37.431  23.992  26.689  1.00  0.00    -0.051 Br
ENDBRANCH   7  19
ENDBRANCH   4   7
ENDBRANCH   2   3
ENDBRANCH   1   2
BRANCH   1  26
ATOM     26  C   UNL A   1      33.831  28.116  26.689  1.00  0.00     0.118 C 
BRANCH  26  27
ATOM     27  N   UNL A   1      33.652  29.532  26.981  1.00  0.00    -0.352 N 
ATOM     28  C   UNL A   1      34.427  30.385  27.728  1.00  0.00     0.251 C 
ATOM     29  H   UNL A   1      32.850  29.940  26.581  1.00  0.00     0.163 HD
ATOM     30  O   UNL A   1      33.985  31.495  28.018  1.00  0.00    -0.269 OA
BRANCH  28  31
ATOM     31  C   UNL A   1      35.775  29.983  28.191  1.00  0.00     0.039 A 
ATOM     32  C   UNL A   1      35.910  29.435  29.471  1.00  0.00     0.014 A 
ATOM     33  C   UNL A   1      36.908  30.194  27.399  1.00  0.00     0.014 A 
ATOM     34  C   UNL A   1      37.172  29.054  29.936  1.00  0.00     0.010 A 
ATOM     35  C   UNL A   1      38.156  29.758  27.841  1.00  0.00     0.010 A 
ATOM     36  C   UNL A   1      38.303  29.191  29.117  1.00  0.00    -0.014 A 
BRANCH  36  37
ATOM     37  C   UNL A   1      39.643  28.732  29.567  1.00  0.00     0.031 A 
ATOM     38  C   UNL A   1      40.375  29.463  30.660  1.00  0.00     0.074 A 
ATOM     39  C   UNL A   1      40.245  27.715  28.921  1.00  0.00     0.049 A 
ATOM     40  N   UNL A   1      41.573  29.244  31.138  1.00  0.00    -0.248 NA
ATOM     41  C   UNL A   1      39.683  30.606  31.274  1.00  0.00     0.031 C 
ATOM     42  C   UNL A   1      39.678  26.986  27.785  1.00  0.00     0.029 A 
ATOM     43  N   UNL A   1      41.481  27.145  29.101  1.00  0.00    -0.354 N 
ATOM     44  C   UNL A   1      41.796  30.243  32.078  1.00  0.00     0.074 A 
ATOM     45  C   UNL A   1      40.618  31.085  32.083  1.00  0.00     0.031 C 
ATOM     46  C   UNL A   1      40.567  26.071  27.365  1.00  0.00     0.029 A 
ATOM     47  C   UNL A   1      41.771  26.161  28.185  1.00  0.00     0.049 A 
ATOM     48  H   UNL A   1      42.099  27.415  29.818  1.00  0.00     0.167 HD
ATOM     49  C   UNL A   1      42.868  30.428  32.884  1.00  0.00     0.034 A 
ATOM     50  C   UNL A   1      42.883  25.419  28.018  1.00  0.00     0.034 A 
ATOM     51  C   UNL A   1      44.013  29.558  32.915  1.00  0.00     0.049 A 
ATOM     52  C   UNL A   1      44.033  25.595  28.971  1.00  0.00     0.074 A 
ATOM     53  C   UNL A   1      45.097  29.592  33.775  1.00  0.00     0.029 A 
ATOM     54  N   UNL A   1      44.226  28.499  32.046  1.00  0.00    -0.354 N 
ATOM     55  N   UNL A   1      44.149  26.428  29.975  1.00  0.00    -0.248 NA
ATOM     56  C   UNL A   1      45.187  24.701  28.794  1.00  0.00     0.031 C 
ATOM     57  C   UNL A   1      45.973  28.560  33.416  1.00  0.00     0.029 A 
ATOM     58  C   UNL A   1      45.428  27.877  32.341  1.00  0.00     0.049 A 
ATOM     59  H   UNL A   1      43.613  28.229  31.324  1.00  0.00     0.167 HD
ATOM     60  C   UNL A   1      45.374  26.145  30.567  1.00  0.00     0.074 A 
ATOM     61  C   UNL A   1      45.954  25.045  29.821  1.00  0.00     0.031 C 
ATOM     62  C   UNL A   1      45.972  26.752  31.622  1.00  0.00     0.034 A 
BRANCH  49  63
ATOM     63  C   UNL A   1      42.824  31.588  33.844  1.00  0.00     0.023 A 
ATOM     64  C   UNL A   1      43.281  32.853  33.422  1.00  0.00     0.012 A 
ATOM     65  C   UNL A   1      42.302  31.443  35.144  1.00  0.00     0.148 A 
ATOM     66  C   UNL A   1      43.257  33.945  34.289  1.00  0.00     0.002 A 
ATOM     67  C   UNL A   1      42.244  32.545  35.991  1.00  0.00     0.091 A 
ATOM     68  F   UNL A   1      41.895  30.228  35.542  1.00  0.00    -0.205 F 
ATOM     69  C   UNL A   1      42.731  33.793  35.568  1.00  0.00     0.022 A 
BRANCH  67  70
ATOM     70  S   UNL A   1      41.513  32.456  37.629  1.00  0.00     0.127 S 
ATOM     71  O   UNL A   1      41.624  33.842  38.079  1.00  0.00    -0.237 OA
ATOM     72  O   UNL A   1      40.147  32.017  37.342  1.00  0.00    -0.237 OA
ATOM     73  O   UNL A   1      42.313  31.485  38.362  1.00  0.00    -0.744 OA
ENDBRANCH  67  70
ENDBRANCH  49  63
BRANCH  50  74
ATOM     74  C   UNL A   1      42.915  24.385  26.946  1.00  0.00     0.023 A 
ATOM     75  C   UNL A   1      43.635  24.643  25.764  1.00  0.00     0.012 A 
ATOM     76  C   UNL A   1      42.304  23.129  27.121  1.00  0.00     0.148 A 
ATOM     77  C   UNL A   1      43.734  23.672  24.766  1.00  0.00     0.002 A 
ATOM     78  C   UNL A   1      42.451  22.147  26.148  1.00  0.00     0.091 A 
ATOM     79  F   UNL A   1      41.615  22.910  28.250  1.00  0.00    -0.205 F 
ATOM     80  C   UNL A   1      43.154  22.422  24.965  1.00  0.00     0.022 A 
BRANCH  78  81
ATOM     81  S   UNL A   1      41.860  20.467  26.376  1.00  0.00     0.127 S 
ATOM     82  O   UNL A   1      42.248  20.199  27.758  1.00  0.00    -0.237 OA
ATOM     83  O   UNL A   1      40.422  20.622  26.157  1.00  0.00    -0.237 OA
ATOM     84  O   UNL A   1      42.539  19.670  25.363  1.00  0.00    -0.744 OA
ENDBRANCH  78  81
ENDBRANCH  50  74
BRANCH  62  85
ATOM     85  C   UNL A   1      47.322  26.238  32.050  1.00  0.00     0.023 A 
ATOM     86  C   UNL A   1      47.413  25.346  33.136  1.00  0.00     0.012 A 
ATOM     87  C   UNL A   1      48.486  26.574  31.331  1.00  0.00     0.148 A 
ATOM     88  C   UNL A   1      48.645  24.816  33.517  1.00  0.00     0.002 A 
ATOM     89  C   UNL A   1      49.705  26.008  31.689  1.00  0.00     0.091 A 
ATOM     90  F   UNL A   1      48.383  27.443  30.314  1.00  0.00    -0.205 F 
ATOM     91  C   UNL A   1      49.788  25.137  32.787  1.00  0.00     0.022 A 
BRANCH  89  92
ATOM     92  S   UNL A   1      51.208  26.297  30.748  1.00  0.00     0.127 S 
ATOM     93  O   UNL A   1      50.830  25.806  29.425  1.00  0.00    -0.237 OA
ATOM     94  O   UNL A   1      51.361  27.750  30.839  1.00  0.00    -0.237 OA
ATOM     95  O   UNL A   1      52.252  25.542  31.426  1.00  0.00    -0.744 OA
ENDBRANCH  89  92
ENDBRANCH  62  85
ENDBRANCH  36  37
ENDBRANCH  28  31
ENDBRANCH  26  27
ENDBRANCH   1  26
TORSDOF 16
ENDMDL
MODEL 2
REMARK VINA RESULT:     -11.2      2.546      3.212
REMARK SMILES CS(=O)(=O)c1ccc(/C=C(/C(=O)NCCCNC(=O)c2ccc(-c3c4nc(c(-c5cccc(S(=O)(=O)[O-])c5F)c5ccc([nH]5)c(-c5cccc(S(=O)(=O)[O-])c5F)c5nc(c(-c6cccc(S(=O)(=O)[O-])c6F)c6ccc3[nH]6)C=C5)C=C4)cc2)c2cccc(Br)c2)cc1
REMARK SMILES IDX 15 1 14 2 13 3 11 4 12 5 10 7 9 8 8 9 5 10 6 11 91 12 7 13
REMARK SMILES IDX 90 14 2 15 1 16 3 17 4 18 83 19 84 20 89 21 85 22 87 23
REMARK SMILES IDX 86 24 88 25 16 26 17 27 18 28 19 30 20 31 21 32 82 33 22 34
REMARK SMILES IDX 81 35 23 36 24 37 25 38 75 39 26 40 80 41 74 42 76 43 27 44
REMARK SMILES IDX 79 45 73 46 72 47 28 49 60 50 40 51 59 52 41 53 44 54 58 55
REMARK SMILES IDX 77 56 42 57 43 58 57 60 78 61 45 62 29 63 30 64 38 65 31 66
REMARK SMILES IDX 33 67 39 68 32 69 34 70 35 71 36 72 37 73 61 74 62 75 70 76
REMARK SMILES IDX 63 77 65 78 71 79 64 80 66 81 67 82 68 83 69 84 46 85 47 86
REMARK SMILES IDX 55 87 48 88 50 89 56 90 49 91 51 92 52 93 53 94 54 95
REMARK H PARENT 13 6 17 29 76 48 44 59
REMARK Flexibility Score: inf
ROOT
ATOM      1  C   UNL A   1      33.475  29.414  25.455  1.00  0.00     0.042 C 
ENDROOT
BRANCH   1   2
ATOM      2  C   UNL A   1      33.975  28.029  25.038  1.00  0.00     0.118 C 
BRANCH   2   3
ATOM      3  N   UNL A   1      33.930  27.864  23.596  1.00  0.00    -0.352 N 
ATOM      4  C   UNL A   1      33.630  26.829  22.768  1.00  0.00     0.251 C 
ATOM      5  O   UNL A   1      33.669  27.076  21.560  1.00  0.00    -0.269 OA
ATOM      6  H   UNL A   1      34.171  28.686  23.109  1.00  0.00     0.163 HD
BRANCH   4   7
ATOM      7  C   UNL A   1      33.179  25.469  23.253  1.00  0.00     0.047 C 
ATOM      8  C   UNL A   1      33.762  24.328  22.821  1.00  0.00     0.022 C 
BRANCH   8   9
ATOM      9  C   UNL A   1      33.513  22.931  23.239  1.00  0.00    -0.025 A 
ATOM     10  C   UNL A   1      32.998  20.239  23.855  1.00  0.00     0.067 A 
ATOM     11  C   UNL A   1      33.891  20.972  24.637  1.00  0.00     0.021 A 
ATOM     12  C   UNL A   1      32.323  20.848  22.797  1.00  0.00     0.021 A 
ATOM     13  C   UNL A   1      34.130  22.318  24.336  1.00  0.00     0.009 A 
ATOM     14  C   UNL A   1      32.581  22.188  22.495  1.00  0.00     0.009 A 
BRANCH  10  15
ATOM     15  S   UNL A   1      32.716  18.517  24.187  1.00  0.00     0.175 S 
ATOM     16  C   UNL A   1      34.328  17.786  24.283  1.00  0.00     0.163 C 
ATOM     17  O   UNL A   1      32.072  17.946  23.021  1.00  0.00    -0.224 OA
ATOM     18  O   UNL A   1      32.106  18.430  25.502  1.00  0.00    -0.224 OA
ENDBRANCH  10  15
ENDBRANCH   8   9
BRANCH   7  19
ATOM     19  C   UNL A   1      31.947  25.425  24.083  1.00  0.00    -0.012 A 
ATOM     20  C   UNL A   1      32.033  24.918  25.393  1.00  0.00     0.009 A 
ATOM     21  C   UNL A   1      30.726  25.944  23.636  1.00  0.00     0.024 A 
ATOM     22  C   UNL A   1      30.931  24.946  26.247  1.00  0.00     0.002 A 
ATOM     23  C   UNL A   1      29.632  25.986  24.503  1.00  0.00     0.018 A 
ATOM     24  C   UNL A   1      29.729  25.492  25.805  1.00  0.00     0.016 A 
ATOM     25  Br  UNL A   1      28.009  26.767  23.927  1.00  0.00    -0.051 Br
ENDBRANCH   7  19
ENDBRANCH   4   7
ENDBRANCH   2   3
ENDBRANCH   1   2
BRANCH   1  26
ATOM     26  C   UNL A   1      33.709  29.742  26.932  1.00  0.00     0.118 C 
BRANCH  26  27
ATOM     27  N   UNL A   1      33.743  31.176  27.182  1.00  0.00    -0.352 N 
ATOM     28  C   UNL A   1      34.590  31.915  27.971  1.00  0.00     0.251 C 
ATOM     29  H   UNL A   1      33.052  31.697  26.712  1.00  0.00     0.163 HD
ATOM     30  O   UNL A   1      34.317  33.091  28.204  1.00  0.00    -0.269 OA
BRANCH  28  31
ATOM     31  C   UNL A   1      35.815  31.315  28.547  1.00  0.00     0.039 A 
ATOM     32  C   UNL A   1      35.752  30.011  29.049  1.00  0.00     0.014 A 
ATOM     33  C   UNL A   1      37.004  32.043  28.647  1.00  0.00     0.014 A 
ATOM     34  C   UNL A   1      36.891  29.421  29.605  1.00  0.00     0.010 A 
ATOM     35  C   UNL A   1      38.154  31.433  29.147  1.00  0.00     0.010 A 
ATOM     36  C   UNL A   1      38.108  30.119  29.638  1.00  0.00    -0.014 A 
BRANCH  36  37
ATOM     37  C   UNL A   1      39.346  29.488  30.164  1.00  0.00     0.031 A 
ATOM     38  C   UNL A   1      40.003  30.015  31.411  1.00  0.00     0.074 A 
ATOM     39  C   UNL A   1      39.936  28.501  29.462  1.00  0.00     0.049 A 
ATOM     40  N   UNL A   1      41.116  29.631  31.980  1.00  0.00    -0.248 NA
ATOM     41  C   UNL A   1      39.339  31.138  32.089  1.00  0.00     0.031 C 
ATOM     42  C   UNL A   1      39.447  27.965  28.190  1.00  0.00     0.029 A 
ATOM     43  N   UNL A   1      41.093  27.801  29.697  1.00  0.00    -0.354 N 
ATOM     44  C   UNL A   1      41.309  30.488  33.057  1.00  0.00     0.074 A 
ATOM     45  C   UNL A   1      40.210  31.431  33.045  1.00  0.00     0.031 C 
ATOM     46  C   UNL A   1      40.302  27.026  27.753  1.00  0.00     0.029 A 
ATOM     47  C   UNL A   1      41.407  26.908  28.700  1.00  0.00     0.049 A 
ATOM     48  H   UNL A   1      41.644  27.926  30.503  1.00  0.00     0.167 HD
ATOM     49  C   UNL A   1      42.293  30.477  33.988  1.00  0.00     0.034 A 
ATOM     50  C   UNL A   1      42.468  26.089  28.558  1.00  0.00     0.034 A 
ATOM     51  C   UNL A   1      43.353  29.507  34.029  1.00  0.00     0.049 A 
ATOM     52  C   UNL A   1      43.510  26.045  29.641  1.00  0.00     0.074 A 
ATOM     53  C   UNL A   1      44.330  29.338  34.995  1.00  0.00     0.029 A 
ATOM     54  N   UNL A   1      43.579  28.541  33.060  1.00  0.00    -0.354 N 
ATOM     55  N   UNL A   1      43.576  26.741  30.748  1.00  0.00    -0.248 NA
ATOM     56  C   UNL A   1      44.602  25.074  29.474  1.00  0.00     0.031 C 
ATOM     57  C   UNL A   1      45.155  28.278  34.603  1.00  0.00     0.029 A 
ATOM     58  C   UNL A   1      44.686  27.779  33.399  1.00  0.00     0.049 A 
ATOM     59  H   UNL A   1      43.034  28.415  32.251  1.00  0.00     0.167 HD
ATOM     60  C   UNL A   1      44.698  26.278  31.426  1.00  0.00     0.074 A 
ATOM     61  C   UNL A   1      45.270  25.223  30.611  1.00  0.00     0.031 C 
ATOM     62  C   UNL A   1      45.217  26.699  32.605  1.00  0.00     0.034 A 
BRANCH  49  63
ATOM     63  C   UNL A   1      42.231  31.516  35.077  1.00  0.00     0.023 A 
ATOM     64  C   UNL A   1      41.574  31.211  36.287  1.00  0.00     0.012 A 
ATOM     65  C   UNL A   1      42.846  32.773  34.926  1.00  0.00     0.148 A 
ATOM     66  C   UNL A   1      41.496  32.152  37.312  1.00  0.00     0.002 A 
ATOM     67  C   UNL A   1      42.799  33.694  35.968  1.00  0.00     0.091 A 
ATOM     68  F   UNL A   1      43.445  33.060  33.760  1.00  0.00    -0.205 F 
ATOM     69  C   UNL A   1      42.116  33.389  37.157  1.00  0.00     0.022 A 
BRANCH  67  70
ATOM     70  S   UNL A   1      43.633  35.282  35.881  1.00  0.00     0.127 S 
ATOM     71  O   UNL A   1      42.811  35.996  34.907  1.00  0.00    -0.237 OA
ATOM     72  O   UNL A   1      43.517  35.776  37.254  1.00  0.00    -0.237 OA
ATOM     73  O   UNL A   1      44.998  34.986  35.465  1.00  0.00    -0.744 OA
ENDBRANCH  67  70
ENDBRANCH  49  63
BRANCH  50  74
ATOM     74  C   UNL A   1      42.540  25.189  27.373  1.00  0.00     0.023 A 
ATOM     75  C   UNL A   1      43.181  25.642  26.204  1.00  0.00     0.012 A 
ATOM     76  C   UNL A   1      42.050  23.871  27.424  1.00  0.00     0.148 A 
ATOM     77  C   UNL A   1      43.319  24.802  25.099  1.00  0.00     0.002 A 
ATOM     78  C   UNL A   1      42.237  23.022  26.339  1.00  0.00     0.091 A 
ATOM     79  F   UNL A   1      41.434  23.465  28.544  1.00  0.00    -0.205 F 
ATOM     80  C   UNL A   1      42.859  23.489  25.172  1.00  0.00     0.022 A 
BRANCH  78  81
ATOM     81  S   UNL A   1      41.804  21.279  26.393  1.00  0.00     0.127 S 
ATOM     82  O   UNL A   1      40.376  21.317  26.090  1.00  0.00    -0.237 OA
ATOM     83  O   UNL A   1      42.646  20.727  25.331  1.00  0.00    -0.237 OA
ATOM     84  O   UNL A   1      42.155  20.828  27.733  1.00  0.00    -0.744 OA
ENDBRANCH  78  81
ENDBRANCH  50  74
BRANCH  62  85
ATOM     85  C   UNL A   1      46.463  26.016  33.104  1.00  0.00     0.023 A 
ATOM     86  C   UNL A   1      47.723  26.578  32.824  1.00  0.00     0.012 A 
ATOM     87  C   UNL A   1      46.384  24.865  33.913  1.00  0.00     0.148 A 
ATOM     88  C   UNL A   1      48.888  25.993  33.320  1.00  0.00     0.002 A 
ATOM     89  C   UNL A   1      47.545  24.311  34.440  1.00  0.00     0.091 A 
ATOM     90  F   UNL A   1      45.176  24.331  34.150  1.00  0.00    -0.205 F 
ATOM     91  C   UNL A   1      48.798  24.868  34.137  1.00  0.00     0.022 A 
BRANCH  89  92
ATOM     92  S   UNL A   1      47.512  22.918  35.574  1.00  0.00     0.127 S 
ATOM     93  O   UNL A   1      46.442  23.304  36.491  1.00  0.00    -0.237 OA
ATOM     94  O   UNL A   1      47.182  21.800  34.689  1.00  0.00    -0.237 OA
ATOM     95  O   UNL A   1      48.846  22.848  36.156  1.00  0.00    -0.744 OA
ENDBRANCH  89  92
ENDBRANCH  62  85
ENDBRANCH  36  37
ENDBRANCH  28  31
ENDBRANCH  26  27
ENDBRANCH   1  26
TORSDOF 16
ENDMDL
MODEL 3
REMARK VINA RESULT:     -11.2      1.684      2.489
REMARK SMILES CS(=O)(=O)c1ccc(/C=C(/C(=O)NCCCNC(=O)c2ccc(-c3c4nc(c(-c5cccc(S(=O)(=O)[O-])c5F)c5ccc([nH]5)c(-c5cccc(S(=O)(=O)[O-])c5F)c5nc(c(-c6cccc(S(=O)(=O)[O-])c6F)c6ccc3[nH]6)C=C5)C=C4)cc2)c2cccc(Br)c2)cc1
REMARK SMILES IDX 15 1 14 2 13 3 11 4 12 5 10 7 9 8 8 9 5 10 6 11 91 12 7 13
REMARK SMILES IDX 90 14 2 15 1 16 3 17 4 18 83 19 84 20 89 21 85 22 87 23
REMARK SMILES IDX 86 24 88 25 16 26 17 27 18 28 19 30 20 31 21 32 82 33 22 34
REMARK SMILES IDX 81 35 23 36 24 37 25 38 75 39 26 40 80 41 74 42 76 43 27 44
REMARK SMILES IDX 79 45 73 46 72 47 28 49 60 50 40 51 59 52 41 53 44 54 58 55
REMARK SMILES IDX 77 56 42 57 43 58 57 60 78 61 45 62 29 63 30 64 38 65 31 66
REMARK SMILES IDX 33 67 39 68 32 69 34 70 35 71 36 72 37 73 61 74 62 75 70 76
REMARK SMILES IDX 63 77 65 78 71 79 64 80 66 81 67 82 68 83 69 84 46 85 47 86
REMARK SMILES IDX 55 87 48 88 50 89 56 90 49 91 51 92 52 93 53 94 54 95
REMARK H PARENT 13 6 17 29 76 48 44 59
REMARK Flexibility Score: inf
ROOT
ATOM      1  C   UNL A   1      33.507  29.591  25.749  1.00  0.00     0.042 C 
ENDROOT
BRANCH   1   2
ATOM      2  C   UNL A   1      33.702  28.117  25.385  1.00  0.00     0.118 C 
BRANCH   2   3
ATOM      3  N   UNL A   1      33.906  27.949  23.957  1.00  0.00    -0.352 N 
ATOM      4  C   UNL A   1      33.816  26.896  23.104  1.00  0.00     0.251 C 
ATOM      5  O   UNL A   1      34.037  27.144  21.916  1.00  0.00    -0.269 OA
ATOM      6  H   UNL A   1      34.168  28.785  23.507  1.00  0.00     0.163 HD
BRANCH   4   7
ATOM      7  C   UNL A   1      33.383  25.508  23.524  1.00  0.00     0.047 C 
ATOM      8  C   UNL A   1      34.021  24.399  23.086  1.00  0.00     0.022 C 
BRANCH   8   9
ATOM      9  C   UNL A   1      33.795  22.982  23.448  1.00  0.00    -0.025 A 
ATOM     10  C   UNL A   1      33.290  20.268  23.967  1.00  0.00     0.067 A 
ATOM     11  C   UNL A   1      34.339  20.917  24.618  1.00  0.00     0.021 A 
ATOM     12  C   UNL A   1      32.459  20.972  23.095  1.00  0.00     0.021 A 
ATOM     13  C   UNL A   1      34.576  22.274  24.369  1.00  0.00     0.009 A 
ATOM     14  C   UNL A   1      32.713  22.323  22.842  1.00  0.00     0.009 A 
BRANCH  10  15
ATOM     15  S   UNL A   1      33.001  18.535  24.230  1.00  0.00     0.175 S 
ATOM     16  C   UNL A   1      32.336  17.933  22.701  1.00  0.00     0.163 C 
ATOM     17  O   UNL A   1      31.947  18.411  25.216  1.00  0.00    -0.224 OA
ATOM     18  O   UNL A   1      34.298  17.912  24.430  1.00  0.00    -0.224 OA
ENDBRANCH  10  15
ENDBRANCH   8   9
BRANCH   7  19
ATOM     19  C   UNL A   1      32.115  25.403  24.291  1.00  0.00    -0.012 A 
ATOM     20  C   UNL A   1      32.155  24.872  25.593  1.00  0.00     0.009 A 
ATOM     21  C   UNL A   1      30.898  25.885  23.793  1.00  0.00     0.024 A 
ATOM     22  C   UNL A   1      31.012  24.841  26.392  1.00  0.00     0.002 A 
ATOM     23  C   UNL A   1      29.763  25.870  24.606  1.00  0.00     0.018 A 
ATOM     24  C   UNL A   1      29.814  25.353  25.901  1.00  0.00     0.016 A 
ATOM     25  Br  UNL A   1      28.142  26.603  23.964  1.00  0.00    -0.051 Br
ENDBRANCH   7  19
ENDBRANCH   4   7
ENDBRANCH   2   3
ENDBRANCH   1   2
BRANCH   1  26
ATOM     26  C   UNL A   1      33.552  29.872  27.253  1.00  0.00     0.118 C 
BRANCH  26  27
ATOM     27  N   UNL A   1      33.643  31.296  27.547  1.00  0.00    -0.352 N 
ATOM     28  C   UNL A   1      34.572  31.987  28.286  1.00  0.00     0.251 C 
ATOM     29  H   UNL A   1      32.928  31.848  27.156  1.00  0.00     0.163 HD
ATOM     30  O   UNL A   1      34.349  33.160  28.581  1.00  0.00    -0.269 OA
BRANCH  28  31
ATOM     31  C   UNL A   1      35.826  31.340  28.734  1.00  0.00     0.039 A 
ATOM     32  C   UNL A   1      37.047  31.930  28.391  1.00  0.00     0.014 A 
ATOM     33  C   UNL A   1      35.809  30.132  29.438  1.00  0.00     0.014 A 
ATOM     34  C   UNL A   1      38.247  31.336  28.794  1.00  0.00     0.010 A 
ATOM     35  C   UNL A   1      37.004  29.574  29.891  1.00  0.00     0.010 A 
ATOM     36  C   UNL A   1      38.235  30.165  29.567  1.00  0.00    -0.014 A 
BRANCH  36  37
ATOM     37  C   UNL A   1      39.496  29.554  30.061  1.00  0.00     0.031 A 
ATOM     38  C   UNL A   1      40.243  30.166  31.215  1.00  0.00     0.074 A 
ATOM     39  C   UNL A   1      40.024  28.503  29.404  1.00  0.00     0.049 A 
ATOM     40  N   UNL A   1      41.386  29.807  31.739  1.00  0.00    -0.248 NA
ATOM     41  C   UNL A   1      39.642  31.353  31.842  1.00  0.00     0.031 C 
ATOM     42  C   UNL A   1      39.443  27.877  28.215  1.00  0.00     0.029 A 
ATOM     43  N   UNL A   1      41.184  27.801  29.618  1.00  0.00    -0.354 N 
ATOM     44  C   UNL A   1      41.663  30.744  32.728  1.00  0.00     0.074 A 
ATOM     45  C   UNL A   1      40.579  31.704  32.711  1.00  0.00     0.031 C 
ATOM     46  C   UNL A   1      40.253  26.889  27.800  1.00  0.00     0.029 A 
ATOM     47  C   UNL A   1      41.418  26.825  28.679  1.00  0.00     0.049 A 
ATOM     48  H   UNL A   1      41.789  27.980  30.374  1.00  0.00     0.167 HD
ATOM     49  C   UNL A   1      42.707  30.789  33.590  1.00  0.00     0.034 A 
ATOM     50  C   UNL A   1      42.455  25.977  28.535  1.00  0.00     0.034 A 
ATOM     51  C   UNL A   1      43.753  29.804  33.640  1.00  0.00     0.049 A 
ATOM     52  C   UNL A   1      43.567  25.999  29.547  1.00  0.00     0.074 A 
ATOM     53  C   UNL A   1      44.790  29.694  34.551  1.00  0.00     0.029 A 
ATOM     54  N   UNL A   1      43.901  28.759  32.740  1.00  0.00    -0.354 N 
ATOM     55  N   UNL A   1      43.717  26.780  30.587  1.00  0.00    -0.248 NA
ATOM     56  C   UNL A   1      44.631  24.997  29.388  1.00  0.00     0.031 C 
ATOM     57  C   UNL A   1      45.573  28.590  34.192  1.00  0.00     0.029 A 
ATOM     58  C   UNL A   1      45.016  28.005  33.066  1.00  0.00     0.049 A 
ATOM     59  H   UNL A   1      43.301  28.580  31.981  1.00  0.00     0.167 HD
ATOM     60  C   UNL A   1      44.875  26.351  31.225  1.00  0.00     0.074 A 
ATOM     61  C   UNL A   1      45.376  25.223  30.463  1.00  0.00     0.031 C 
ATOM     62  C   UNL A   1      45.478  26.855  32.330  1.00  0.00     0.034 A 
BRANCH  49  63
ATOM     63  C   UNL A   1      42.733  31.913  34.593  1.00  0.00     0.023 A 
ATOM     64  C   UNL A   1      43.260  33.164  34.215  1.00  0.00     0.012 A 
ATOM     65  C   UNL A   1      42.208  31.750  35.889  1.00  0.00     0.148 A 
ATOM     66  C   UNL A   1      43.303  34.222  35.122  1.00  0.00     0.002 A 
ATOM     67  C   UNL A   1      42.216  32.822  36.776  1.00  0.00     0.091 A 
ATOM     68  F   UNL A   1      41.732  30.546  36.244  1.00  0.00    -0.205 F 
ATOM     69  C   UNL A   1      42.772  34.054  36.397  1.00  0.00     0.022 A 
BRANCH  67  70
ATOM     70  S   UNL A   1      41.487  32.715  38.414  1.00  0.00     0.127 S 
ATOM     71  O   UNL A   1      41.701  34.068  38.923  1.00  0.00    -0.237 OA
ATOM     72  O   UNL A   1      40.091  32.390  38.117  1.00  0.00    -0.237 OA
ATOM     73  O   UNL A   1      42.215  31.655  39.099  1.00  0.00    -0.744 OA
ENDBRANCH  67  70
ENDBRANCH  49  63
BRANCH  50  74
ATOM     74  C   UNL A   1      42.435  24.984  27.425  1.00  0.00     0.023 A 
ATOM     75  C   UNL A   1      43.041  25.313  26.197  1.00  0.00     0.012 A 
ATOM     76  C   UNL A   1      41.891  23.698  27.603  1.00  0.00     0.148 A 
ATOM     77  C   UNL A   1      43.093  24.382  25.159  1.00  0.00     0.002 A 
ATOM     78  C   UNL A   1      41.992  22.758  26.584  1.00  0.00     0.091 A 
ATOM     79  F   UNL A   1      41.310  23.411  28.776  1.00  0.00    -0.205 F 
ATOM     80  C   UNL A   1      42.580  23.102  25.357  1.00  0.00     0.022 A 
BRANCH  78  81
ATOM     81  S   UNL A   1      41.488  21.047  26.796  1.00  0.00     0.127 S 
ATOM     82  O   UNL A   1      41.893  20.456  25.524  1.00  0.00    -0.237 OA
ATOM     83  O   UNL A   1      42.289  20.638  27.950  1.00  0.00    -0.237 OA
ATOM     84  O   UNL A   1      40.053  21.088  27.046  1.00  0.00    -0.744 OA
ENDBRANCH  78  81
ENDBRANCH  50  74
BRANCH  62  85
ATOM     85  C   UNL A   1      46.744  26.190  32.799  1.00  0.00     0.023 A 
ATOM     86  C   UNL A   1      46.677  25.185  33.785  1.00  0.00     0.012 A 
ATOM     87  C   UNL A   1      47.987  26.499  32.212  1.00  0.00     0.148 A 
ATOM     88  C   UNL A   1      47.829  24.518  34.197  1.00  0.00     0.002 A 
ATOM     89  C   UNL A   1      49.126  25.800  32.597  1.00  0.00     0.091 A 
ATOM     90  F   UNL A   1      48.035  27.474  31.292  1.00  0.00    -0.205 F 
ATOM     91  C   UNL A   1      49.050  24.815  33.595  1.00  0.00     0.022 A 
BRANCH  89  92
ATOM     92  S   UNL A   1      50.720  26.058  31.809  1.00  0.00     0.127 S 
ATOM     93  O   UNL A   1      51.015  27.440  32.181  1.00  0.00    -0.237 OA
ATOM     94  O   UNL A   1      51.561  25.057  32.468  1.00  0.00    -0.237 OA
ATOM     95  O   UNL A   1      50.504  25.820  30.389  1.00  0.00    -0.744 OA
ENDBRANCH  89  92
ENDBRANCH  62  85
ENDBRANCH  36  37
ENDBRANCH  28  31
ENDBRANCH  26  27
ENDBRANCH   1  26
TORSDOF 16
ENDMDL
