MODEL 1
REMARK VINA RESULT:     -11.9      0.000      0.000
REMARK SMILES O=C(CCC(=O)/[NH+]=C1\S[C@H]2CS(=O)(=O)C[C@@H]2N1c1ccc(Oc2ccccc2)cc1)NCCCNC(=O)c1ccc(-c2c3nc(c(-c4cccc(S(=O)(=O)[O-])c4F)c4ccc([nH]4)c(-c4cccc(S(=O)(=O)[O-])c4F)c4nc(c(-c5cccc(S(=O)(=O)[O-])c5F)c5ccc2[nH]5)C=C4)C=C3)cc1
REMARK SMILES IDX 32 1 31 2 2 3 1 4 3 6 4 7 5 8 6 9 7 10 8 11 9 13 17 14 10 15
REMARK SMILES IDX 16 16 11 17 15 18 12 19 13 20 14 21 18 22 19 23 30 24 20 25
REMARK SMILES IDX 29 26 21 27 22 28 23 29 24 30 28 31 25 32 27 33 26 34 33 35
REMARK SMILES IDX 34 36 35 37 36 38 37 40 38 41 39 42 100 43 40 44 99 45 41 46
REMARK SMILES IDX 42 47 43 48 93 49 44 50 98 51 92 52 94 53 45 54 97 55 91 56
REMARK SMILES IDX 90 57 46 59 78 60 58 61 77 62 59 63 62 64 76 65 95 66 60 67
REMARK SMILES IDX 61 68 75 70 96 71 63 72 47 73 48 74 56 75 49 76 51 77 57 78
REMARK SMILES IDX 50 79 52 80 53 81 54 82 55 83 79 84 80 85 88 86 81 87 83 88
REMARK SMILES IDX 89 89 82 90 84 91 85 92 86 93 87 94 64 95 65 96 73 97 66 98
REMARK SMILES IDX 68 99 74 100 67 101 69 102 70 103 71 104 72 105
REMARK H PARENT 31 5 7 12 35 39 94 58 62 69
REMARK Flexibility Score: inf
ROOT
ATOM      1  C   UNL A   1      44.468  39.418  33.353  1.00  0.00     0.117 C 
ENDROOT
BRANCH   1   2
ATOM      2  N   UNL A   1      44.372  40.568  34.238  1.00  0.00    -0.356 N 
ATOM      3  C   UNL A   1      43.456  41.570  34.283  1.00  0.00     0.220 C 
ATOM      4  O   UNL A   1      43.489  42.366  35.224  1.00  0.00    -0.275 OA
ATOM      5  H   UNL A   1      45.086  40.630  34.914  1.00  0.00     0.163 HD
BRANCH   3   6
ATOM      6  C   UNL A   1      42.430  41.710  33.192  1.00  0.00     0.112 C 
BRANCH   6   7
ATOM      7  C   UNL A   1      42.886  41.487  31.754  1.00  0.00     0.138 C 
BRANCH   7   8
ATOM      8  C   UNL A   1      43.250  42.636  30.807  1.00  0.00     0.308 C 
ATOM      9  O   UNL A   1      43.367  43.762  31.285  1.00  0.00    -0.247 OA
ATOM     10  N   UNL A   1      43.371  42.426  29.457  1.00  0.00    -0.204 N 
ATOM     11  C   UNL A   1      44.267  41.648  28.951  1.00  0.00     0.319 C 
ATOM     12  H   UNL A   1      42.750  42.887  28.850  1.00  0.00     0.316 HD
ATOM     13  S   UNL A   1      45.464  40.740  29.926  1.00  0.00    -0.029 SA
ATOM     14  N   UNL A   1      44.386  41.278  27.611  1.00  0.00    -0.217 N 
ATOM     15  C   UNL A   1      46.180  40.015  28.446  1.00  0.00     0.120 C 
ATOM     16  C   UNL A   1      45.033  39.993  27.435  1.00  0.00     0.212 C 
ATOM     17  C   UNL A   1      46.681  38.597  28.451  1.00  0.00     0.156 C 
ATOM     18  C   UNL A   1      45.712  39.617  26.135  1.00  0.00     0.188 C 
ATOM     19  S   UNL A   1      46.800  38.287  26.678  1.00  0.00     0.155 S 
ATOM     20  O   UNL A   1      48.150  38.595  26.257  1.00  0.00    -0.229 OA
ATOM     21  O   UNL A   1      46.167  37.018  26.390  1.00  0.00    -0.229 OA
BRANCH  14  22
ATOM     22  C   UNL A   1      44.100  42.049  26.487  1.00  0.00     0.128 A 
ATOM     23  C   UNL A   1      43.080  41.709  25.584  1.00  0.00     0.056 A 
ATOM     24  C   UNL A   1      44.919  43.131  26.166  1.00  0.00     0.056 A 
ATOM     25  C   UNL A   1      42.871  42.455  24.413  1.00  0.00     0.051 A 
ATOM     26  C   UNL A   1      44.737  43.845  24.978  1.00  0.00     0.051 A 
ATOM     27  C   UNL A   1      43.683  43.555  24.117  1.00  0.00     0.127 A 
BRANCH  27  28
ATOM     28  O   UNL A   1      43.313  44.282  23.013  1.00  0.00    -0.457 OA
BRANCH  28  29
ATOM     29  C   UNL A   1      43.495  43.767  21.727  1.00  0.00     0.127 A 
ATOM     30  C   UNL A   1      44.971  44.370  20.918  1.00  0.00     0.047 A 
ATOM     31  C   UNL A   1      42.120  43.102  20.843  1.00  0.00     0.047 A 
ATOM     32  C   UNL A   1      45.169  44.395  19.153  1.00  0.00     0.004 A 
ATOM     33  C   UNL A   1      42.098  43.131  19.045  1.00  0.00     0.004 A 
ATOM     34  C   UNL A   1      43.806  43.904  18.078  1.00  0.00     0.000 A 
ENDBRANCH  28  29
ENDBRANCH  27  28
ENDBRANCH  14  22
ENDBRANCH   7   8
ENDBRANCH   6   7
ENDBRANCH   3   6
ENDBRANCH   1   2
BRANCH   1  35
ATOM     35  C   UNL A   1      43.887  38.123  33.897  1.00  0.00     0.042 C 
BRANCH  35  36
ATOM     36  C   UNL A   1      44.825  36.933  33.883  1.00  0.00     0.118 C 
BRANCH  36  37
ATOM     37  N   UNL A   1      46.011  37.140  33.070  1.00  0.00    -0.352 N 
ATOM     38  C   UNL A   1      46.561  36.341  32.095  1.00  0.00     0.251 C 
ATOM     39  H   UNL A   1      46.495  37.980  33.243  1.00  0.00     0.163 HD
ATOM     40  O   UNL A   1      47.660  36.648  31.633  1.00  0.00    -0.269 OA
BRANCH  38  41
ATOM     41  C   UNL A   1      45.850  35.150  31.566  1.00  0.00     0.039 A 
ATOM     42  C   UNL A   1      46.105  33.889  32.109  1.00  0.00     0.014 A 
ATOM     43  C   UNL A   1      45.011  35.243  30.458  1.00  0.00     0.014 A 
ATOM     44  C   UNL A   1      45.592  32.751  31.481  1.00  0.00     0.010 A 
ATOM     45  C   UNL A   1      44.415  34.129  29.892  1.00  0.00     0.010 A 
ATOM     46  C   UNL A   1      44.806  32.873  30.319  1.00  0.00    -0.014 A 
BRANCH  46  47
ATOM     47  C   UNL A   1      44.328  31.704  29.567  1.00  0.00     0.031 A 
ATOM     48  C   UNL A   1      45.229  30.888  28.588  1.00  0.00     0.074 A 
ATOM     49  C   UNL A   1      43.028  31.386  29.808  1.00  0.00     0.049 A 
ATOM     50  N   UNL A   1      44.497  29.560  27.836  1.00  0.00    -0.248 NA
ATOM     51  C   UNL A   1      47.354  30.713  27.984  1.00  0.00     0.031 C 
ATOM     52  C   UNL A   1      42.144  32.194  30.670  1.00  0.00     0.029 A 
ATOM     53  N   UNL A   1      42.204  30.356  29.397  1.00  0.00    -0.354 N 
ATOM     54  C   UNL A   1      45.725  28.622  26.902  1.00  0.00     0.074 A 
ATOM     55  C   UNL A   1      47.421  29.417  27.051  1.00  0.00     0.031 C 
ATOM     56  C   UNL A   1      40.934  31.628  30.740  1.00  0.00     0.029 A 
ATOM     57  C   UNL A   1      40.920  30.427  29.914  1.00  0.00     0.049 A 
ATOM     58  H   UNL A   1      42.502  29.636  28.794  1.00  0.00     0.167 HD
ATOM     59  C   UNL A   1      45.629  27.451  26.238  1.00  0.00     0.034 A 
ATOM     60  C   UNL A   1      39.824  29.649  29.779  1.00  0.00     0.034 A 
ATOM     61  C   UNL A   1      44.482  26.611  26.207  1.00  0.00     0.049 A 
ATOM     62  C   UNL A   1      39.894  28.367  28.997  1.00  0.00     0.074 A 
ATOM     63  C   UNL A   1      44.386  25.369  25.611  1.00  0.00     0.029 A 
ATOM     64  N   UNL A   1      43.269  26.875  26.822  1.00  0.00    -0.354 N 
ATOM     65  N   UNL A   1      40.904  27.832  28.357  1.00  0.00    -0.248 NA
ATOM     66  C   UNL A   1      38.667  27.552  28.973  1.00  0.00     0.031 C 
ATOM     67  C   UNL A   1      43.109  24.874  25.855  1.00  0.00     0.029 A 
ATOM     68  C   UNL A   1      42.424  25.792  26.634  1.00  0.00     0.049 A 
ATOM     69  H   UNL A   1      43.044  27.697  27.313  1.00  0.00     0.167 HD
ATOM     70  C   UNL A   1      40.450  26.600  27.900  1.00  0.00     0.074 A 
ATOM     71  C   UNL A   1      39.083  26.457  28.356  1.00  0.00     0.031 C 
ATOM     72  C   UNL A   1      41.091  25.666  27.158  1.00  0.00     0.034 A 
BRANCH  59  73
ATOM     73  C   UNL A   1      46.876  27.027  25.514  1.00  0.00     0.023 A 
ATOM     74  C   UNL A   1      47.806  26.166  26.135  1.00  0.00     0.012 A 
ATOM     75  C   UNL A   1      47.147  27.521  24.224  1.00  0.00     0.148 A 
ATOM     76  C   UNL A   1      49.037  25.904  25.535  1.00  0.00     0.002 A 
ATOM     77  C   UNL A   1      48.340  27.186  23.598  1.00  0.00     0.091 A 
ATOM     78  F   UNL A   1      46.247  28.331  23.648  1.00  0.00    -0.205 F 
ATOM     79  C   UNL A   1      49.301  26.409  24.266  1.00  0.00     0.022 A 
BRANCH  77  80
ATOM     80  S   UNL A   1      48.719  27.678  21.914  1.00  0.00     0.127 S 
ATOM     81  O   UNL A   1      50.158  27.928  21.995  1.00  0.00    -0.237 OA
ATOM     82  O   UNL A   1      48.348  26.483  21.158  1.00  0.00    -0.237 OA
ATOM     83  O   UNL A   1      47.898  28.850  21.643  1.00  0.00    -0.744 OA
ENDBRANCH  77  80
ENDBRANCH  59  73
BRANCH  60  84
ATOM     84  C   UNL A   1      38.541  30.040  30.455  1.00  0.00     0.023 A 
ATOM     85  C   UNL A   1      38.227  29.542  31.737  1.00  0.00     0.012 A 
ATOM     86  C   UNL A   1      37.634  30.916  29.825  1.00  0.00     0.148 A 
ATOM     87  C   UNL A   1      37.019  29.874  32.356  1.00  0.00     0.002 A 
ATOM     88  C   UNL A   1      36.464  31.294  30.476  1.00  0.00     0.091 A 
ATOM     89  F   UNL A   1      37.941  31.374  28.604  1.00  0.00    -0.205 F 
ATOM     90  C   UNL A   1      36.144  30.757  31.732  1.00  0.00     0.022 A 
BRANCH  88  91
ATOM     91  S   UNL A   1      35.345  32.530  29.807  1.00  0.00     0.127 S 
ATOM     92  O   UNL A   1      34.320  32.598  30.846  1.00  0.00    -0.237 OA
ATOM     93  O   UNL A   1      36.213  33.704  29.720  1.00  0.00    -0.237 OA
ATOM     94  O   UNL A   1      34.904  32.009  28.521  1.00  0.00    -0.744 OA
ENDBRANCH  88  91
ENDBRANCH  60  84
BRANCH  72  95
ATOM     95  C   UNL A   1      40.351  24.389  26.852  1.00  0.00     0.023 A 
ATOM     96  C   UNL A   1      39.081  24.434  26.244  1.00  0.00     0.012 A 
ATOM     97  C   UNL A   1      40.962  23.142  27.090  1.00  0.00     0.148 A 
ATOM     98  C   UNL A   1      38.413  23.255  25.916  1.00  0.00     0.002 A 
ATOM     99  C   UNL A   1      40.319  21.975  26.701  1.00  0.00     0.091 A 
ATOM    100  F   UNL A   1      42.166  23.121  27.680  1.00  0.00    -0.205 F 
ATOM    101  C   UNL A   1      39.037  22.028  26.131  1.00  0.00     0.022 A 
BRANCH  99 102
ATOM    102  S   UNL A   1      41.097  20.361  26.824  1.00  0.00     0.127 S 
ATOM    103  O   UNL A   1      42.449  20.645  26.342  1.00  0.00    -0.237 OA
ATOM    104  O   UNL A   1      41.005  20.082  28.257  1.00  0.00    -0.237 OA
ATOM    105  O   UNL A   1      40.310  19.469  25.982  1.00  0.00    -0.744 OA
ENDBRANCH  99 102
ENDBRANCH  72  95
ENDBRANCH  46  47
ENDBRANCH  38  41
ENDBRANCH  36  37
ENDBRANCH  35  36
ENDBRANCH   1  35
TORSDOF 18
ENDMDL
MODEL 2
REMARK VINA RESULT:     -11.8      4.914     11.964
REMARK SMILES O=C(CCC(=O)/[NH+]=C1\S[C@H]2CS(=O)(=O)C[C@@H]2N1c1ccc(Oc2ccccc2)cc1)NCCCNC(=O)c1ccc(-c2c3nc(c(-c4cccc(S(=O)(=O)[O-])c4F)c4ccc([nH]4)c(-c4cccc(S(=O)(=O)[O-])c4F)c4nc(c(-c5cccc(S(=O)(=O)[O-])c5F)c5ccc2[nH]5)C=C4)C=C3)cc1
REMARK SMILES IDX 32 1 31 2 2 3 1 4 3 6 4 7 5 8 6 9 7 10 8 11 9 13 17 14 10 15
REMARK SMILES IDX 16 16 11 17 15 18 12 19 13 20 14 21 18 22 19 23 30 24 20 25
REMARK SMILES IDX 29 26 21 27 22 28 23 29 24 30 28 31 25 32 27 33 26 34 33 35
REMARK SMILES IDX 34 36 35 37 36 38 37 40 38 41 39 42 100 43 40 44 99 45 41 46
REMARK SMILES IDX 42 47 43 48 93 49 44 50 98 51 92 52 94 53 45 54 97 55 91 56
REMARK SMILES IDX 90 57 46 59 78 60 58 61 77 62 59 63 62 64 76 65 95 66 60 67
REMARK SMILES IDX 61 68 75 70 96 71 63 72 47 73 48 74 56 75 49 76 51 77 57 78
REMARK SMILES IDX 50 79 52 80 53 81 54 82 55 83 79 84 80 85 88 86 81 87 83 88
REMARK SMILES IDX 89 89 82 90 84 91 85 92 86 93 87 94 64 95 65 96 73 97 66 98
REMARK SMILES IDX 68 99 74 100 67 101 69 102 70 103 71 104 72 105
REMARK H PARENT 31 5 7 12 35 39 94 58 62 69
REMARK Flexibility Score: inf
ROOT
ATOM      1  C   UNL A   1      41.282  22.719  27.664  1.00  0.00     0.117 C 
ENDROOT
BRANCH   1   2
ATOM      2  N   UNL A   1      40.106  23.566  27.553  1.00  0.00    -0.356 N 
ATOM      3  C   UNL A   1      39.986  24.918  27.609  1.00  0.00     0.220 C 
ATOM      4  O   UNL A   1      38.899  25.431  27.337  1.00  0.00    -0.275 OA
ATOM      5  H   UNL A   1      39.259  23.082  27.417  1.00  0.00     0.163 HD
BRANCH   3   6
ATOM      6  C   UNL A   1      41.161  25.768  28.008  1.00  0.00     0.112 C 
BRANCH   6   7
ATOM      7  C   UNL A   1      40.880  27.042  28.798  1.00  0.00     0.138 C 
BRANCH   7   8
ATOM      8  C   UNL A   1      40.566  28.385  28.132  1.00  0.00     0.308 C 
ATOM      9  O   UNL A   1      40.243  28.379  26.946  1.00  0.00    -0.247 OA
ATOM     10  N   UNL A   1      40.710  29.565  28.817  1.00  0.00    -0.204 N 
ATOM     11  C   UNL A   1      40.009  29.853  29.861  1.00  0.00     0.319 C 
ATOM     12  H   UNL A   1      41.375  30.217  28.501  1.00  0.00     0.316 HD
ATOM     13  S   UNL A   1      38.765  28.769  30.557  1.00  0.00    -0.029 SA
ATOM     14  N   UNL A   1      40.171  30.963  30.690  1.00  0.00    -0.217 N 
ATOM     15  C   UNL A   1      38.406  29.950  31.862  1.00  0.00     0.120 C 
ATOM     16  C   UNL A   1      39.710  30.729  32.045  1.00  0.00     0.212 C 
ATOM     17  C   UNL A   1      38.072  29.482  33.252  1.00  0.00     0.156 C 
ATOM     18  C   UNL A   1      39.318  31.870  32.958  1.00  0.00     0.188 C 
ATOM     19  S   UNL A   1      38.303  31.012  34.176  1.00  0.00     0.155 S 
ATOM     20  O   UNL A   1      37.024  31.683  34.265  1.00  0.00    -0.229 OA
ATOM     21  O   UNL A   1      39.113  30.727  35.341  1.00  0.00    -0.229 OA
BRANCH  14  22
ATOM     22  C   UNL A   1      40.565  32.248  30.324  1.00  0.00     0.128 A 
ATOM     23  C   UNL A   1      39.639  33.253  30.001  1.00  0.00     0.056 A 
ATOM     24  C   UNL A   1      41.919  32.531  30.151  1.00  0.00     0.056 A 
ATOM     25  C   UNL A   1      40.066  34.513  29.552  1.00  0.00     0.051 A 
ATOM     26  C   UNL A   1      42.340  33.771  29.661  1.00  0.00     0.051 A 
ATOM     27  C   UNL A   1      41.429  34.792  29.409  1.00  0.00     0.127 A 
BRANCH  27  28
ATOM     28  O   UNL A   1      41.735  36.090  29.081  1.00  0.00    -0.457 OA
BRANCH  28  29
ATOM     29  C   UNL A   1      43.036  36.446  28.720  1.00  0.00     0.127 A 
ATOM     30  C   UNL A   1      44.124  36.693  30.116  1.00  0.00     0.047 A 
ATOM     31  C   UNL A   1      43.348  37.139  27.127  1.00  0.00     0.047 A 
ATOM     32  C   UNL A   1      45.591  37.691  30.040  1.00  0.00     0.004 A 
ATOM     33  C   UNL A   1      44.735  38.256  26.879  1.00  0.00     0.004 A 
ATOM     34  C   UNL A   1      45.987  38.610  28.539  1.00  0.00     0.000 A 
ENDBRANCH  28  29
ENDBRANCH  27  28
ENDBRANCH  14  22
ENDBRANCH   7   8
ENDBRANCH   6   7
ENDBRANCH   3   6
ENDBRANCH   1   2
BRANCH   1  35
ATOM     35  C   UNL A   1      41.400  21.622  26.617  1.00  0.00     0.042 C 
BRANCH  35  36
ATOM     36  C   UNL A   1      42.693  20.833  26.646  1.00  0.00     0.118 C 
BRANCH  36  37
ATOM     37  N   UNL A   1      43.386  20.808  25.369  1.00  0.00    -0.352 N 
ATOM     38  C   UNL A   1      44.155  21.776  24.765  1.00  0.00     0.251 C 
ATOM     39  H   UNL A   1      43.292  19.971  24.859  1.00  0.00     0.163 HD
ATOM     40  O   UNL A   1      44.529  21.592  23.607  1.00  0.00    -0.269 OA
BRANCH  38  41
ATOM     41  C   UNL A   1      44.569  23.007  25.483  1.00  0.00     0.039 A 
ATOM     42  C   UNL A   1      45.630  22.959  26.390  1.00  0.00     0.014 A 
ATOM     43  C   UNL A   1      43.848  24.192  25.360  1.00  0.00     0.014 A 
ATOM     44  C   UNL A   1      45.887  24.061  27.210  1.00  0.00     0.010 A 
ATOM     45  C   UNL A   1      44.161  25.322  26.095  1.00  0.00     0.010 A 
ATOM     46  C   UNL A   1      45.093  25.221  27.112  1.00  0.00    -0.014 A 
BRANCH  46  47
ATOM     47  C   UNL A   1      45.260  26.366  28.018  1.00  0.00     0.031 A 
ATOM     48  C   UNL A   1      45.637  27.799  27.529  1.00  0.00     0.074 A 
ATOM     49  C   UNL A   1      45.045  26.069  29.328  1.00  0.00     0.049 A 
ATOM     50  N   UNL A   1      45.757  28.987  28.728  1.00  0.00    -0.248 NA
ATOM     51  C   UNL A   1      45.848  28.948  25.646  1.00  0.00     0.031 C 
ATOM     52  C   UNL A   1      44.765  24.704  29.813  1.00  0.00     0.029 A 
ATOM     53  N   UNL A   1      45.015  26.822  30.486  1.00  0.00    -0.354 N 
ATOM     54  C   UNL A   1      46.001  30.609  27.973  1.00  0.00     0.074 A 
ATOM     55  C   UNL A   1      46.053  30.466  26.100  1.00  0.00     0.031 C 
ATOM     56  C   UNL A   1      44.573  24.720  31.136  1.00  0.00     0.029 A 
ATOM     57  C   UNL A   1      44.739  26.083  31.626  1.00  0.00     0.049 A 
ATOM     58  H   UNL A   1      45.175  27.793  30.500  1.00  0.00     0.167 HD
ATOM     59  C   UNL A   1      46.047  31.843  28.517  1.00  0.00     0.034 A 
ATOM     60  C   UNL A   1      44.616  26.408  32.932  1.00  0.00     0.034 A 
ATOM     61  C   UNL A   1      45.810  32.151  29.885  1.00  0.00     0.049 A 
ATOM     62  C   UNL A   1      44.695  27.845  33.368  1.00  0.00     0.074 A 
ATOM     63  C   UNL A   1      45.763  33.410  30.450  1.00  0.00     0.029 A 
ATOM     64  N   UNL A   1      45.529  31.233  30.885  1.00  0.00    -0.354 N 
ATOM     65  N   UNL A   1      44.893  28.925  32.654  1.00  0.00    -0.248 NA
ATOM     66  C   UNL A   1      44.472  28.102  34.801  1.00  0.00     0.031 C 
ATOM     67  C   UNL A   1      45.460  33.263  31.800  1.00  0.00     0.029 A 
ATOM     68  C   UNL A   1      45.282  31.916  32.066  1.00  0.00     0.049 A 
ATOM     69  H   UNL A   1      45.508  30.256  30.773  1.00  0.00     0.167 HD
ATOM     70  C   UNL A   1      44.769  29.989  33.542  1.00  0.00     0.074 A 
ATOM     71  C   UNL A   1      44.455  29.425  34.837  1.00  0.00     0.031 C 
ATOM     72  C   UNL A   1      44.912  31.317  33.320  1.00  0.00     0.034 A 
BRANCH  59  73
ATOM     73  C   UNL A   1      46.345  32.953  27.550  1.00  0.00     0.023 A 
ATOM     74  C   UNL A   1      45.298  33.723  27.000  1.00  0.00     0.012 A 
ATOM     75  C   UNL A   1      47.671  33.207  27.151  1.00  0.00     0.148 A 
ATOM     76  C   UNL A   1      45.554  34.640  25.982  1.00  0.00     0.002 A 
ATOM     77  C   UNL A   1      47.926  34.182  26.197  1.00  0.00     0.091 A 
ATOM     78  F   UNL A   1      48.653  32.471  27.691  1.00  0.00    -0.205 F 
ATOM     79  C   UNL A   1      46.867  34.873  25.584  1.00  0.00     0.022 A 
BRANCH  77  80
ATOM     80  S   UNL A   1      49.590  34.648  25.711  1.00  0.00     0.127 S 
ATOM     81  O   UNL A   1      49.329  35.594  24.627  1.00  0.00    -0.237 OA
ATOM     82  O   UNL A   1      50.106  35.253  26.939  1.00  0.00    -0.237 OA
ATOM     83  O   UNL A   1      50.254  33.414  25.314  1.00  0.00    -0.744 OA
ENDBRANCH  77  80
ENDBRANCH  59  73
BRANCH  60  84
ATOM     84  C   UNL A   1      44.348  25.334  33.947  1.00  0.00     0.023 A 
ATOM     85  C   UNL A   1      43.030  25.059  34.368  1.00  0.00     0.012 A 
ATOM     86  C   UNL A   1      45.407  24.579  34.491  1.00  0.00     0.148 A 
ATOM     87  C   UNL A   1      42.778  24.086  35.338  1.00  0.00     0.002 A 
ATOM     88  C   UNL A   1      45.142  23.568  35.408  1.00  0.00     0.091 A 
ATOM     89  F   UNL A   1      46.654  24.858  34.090  1.00  0.00    -0.205 F 
ATOM     90  C   UNL A   1      43.831  23.334  35.849  1.00  0.00     0.022 A 
BRANCH  88  91
ATOM     91  S   UNL A   1      46.418  22.459  36.018  1.00  0.00     0.127 S 
ATOM     92  O   UNL A   1      45.657  21.589  36.911  1.00  0.00    -0.237 OA
ATOM     93  O   UNL A   1      46.877  21.825  34.782  1.00  0.00    -0.237 OA
ATOM     94  O   UNL A   1      47.407  23.312  36.662  1.00  0.00    -0.744 OA
ENDBRANCH  88  91
ENDBRANCH  60  84
BRANCH  72  95
ATOM     95  C   UNL A   1      44.667  32.249  34.479  1.00  0.00     0.023 A 
ATOM     96  C   UNL A   1      45.722  32.598  35.343  1.00  0.00     0.012 A 
ATOM     97  C   UNL A   1      43.401  32.845  34.652  1.00  0.00     0.148 A 
ATOM     98  C   UNL A   1      45.511  33.496  36.388  1.00  0.00     0.002 A 
ATOM     99  C   UNL A   1      43.216  33.787  35.655  1.00  0.00     0.091 A 
ATOM    100  F   UNL A   1      42.407  32.489  33.826  1.00  0.00    -0.205 F 
ATOM    101  C   UNL A   1      44.264  34.101  36.535  1.00  0.00     0.022 A 
BRANCH  99 102
ATOM    102  S   UNL A   1      41.685  34.707  35.839  1.00  0.00     0.127 S 
ATOM    103  O   UNL A   1      41.981  35.548  36.998  1.00  0.00    -0.237 OA
ATOM    104  O   UNL A   1      41.601  35.425  34.567  1.00  0.00    -0.237 OA
ATOM    105  O   UNL A   1      40.639  33.712  36.042  1.00  0.00    -0.744 OA
ENDBRANCH  99 102
ENDBRANCH  72  95
ENDBRANCH  46  47
ENDBRANCH  38  41
ENDBRANCH  36  37
ENDBRANCH  35  36
ENDBRANCH   1  35
TORSDOF 18
ENDMDL
MODEL 3
REMARK VINA RESULT:     -11.6      5.397     15.397
REMARK SMILES O=C(CCC(=O)/[NH+]=C1\S[C@H]2CS(=O)(=O)C[C@@H]2N1c1ccc(Oc2ccccc2)cc1)NCCCNC(=O)c1ccc(-c2c3nc(c(-c4cccc(S(=O)(=O)[O-])c4F)c4ccc([nH]4)c(-c4cccc(S(=O)(=O)[O-])c4F)c4nc(c(-c5cccc(S(=O)(=O)[O-])c5F)c5ccc2[nH]5)C=C4)C=C3)cc1
REMARK SMILES IDX 32 1 31 2 2 3 1 4 3 6 4 7 5 8 6 9 7 10 8 11 9 13 17 14 10 15
REMARK SMILES IDX 16 16 11 17 15 18 12 19 13 20 14 21 18 22 19 23 30 24 20 25
REMARK SMILES IDX 29 26 21 27 22 28 23 29 24 30 28 31 25 32 27 33 26 34 33 35
REMARK SMILES IDX 34 36 35 37 36 38 37 40 38 41 39 42 100 43 40 44 99 45 41 46
REMARK SMILES IDX 42 47 43 48 93 49 44 50 98 51 92 52 94 53 45 54 97 55 91 56
REMARK SMILES IDX 90 57 46 59 78 60 58 61 77 62 59 63 62 64 76 65 95 66 60 67
REMARK SMILES IDX 61 68 75 70 96 71 63 72 47 73 48 74 56 75 49 76 51 77 57 78
REMARK SMILES IDX 50 79 52 80 53 81 54 82 55 83 79 84 80 85 88 86 81 87 83 88
REMARK SMILES IDX 89 89 82 90 84 91 85 92 86 93 87 94 64 95 65 96 73 97 66 98
REMARK SMILES IDX 68 99 74 100 67 101 69 102 70 103 71 104 72 105
REMARK H PARENT 31 5 7 12 35 39 94 58 62 69
REMARK Flexibility Score: inf
ROOT
ATOM      1  C   UNL A   1      45.206  22.028  23.866  1.00  0.00     0.117 C 
ENDROOT
BRANCH   1   2
ATOM      2  N   UNL A   1      46.145  21.047  24.384  1.00  0.00    -0.356 N 
ATOM      3  C   UNL A   1      45.952  19.755  24.757  1.00  0.00     0.220 C 
ATOM      4  O   UNL A   1      46.934  19.060  25.028  1.00  0.00    -0.275 OA
ATOM      5  H   UNL A   1      47.070  21.371  24.481  1.00  0.00     0.163 HD
BRANCH   3   6
ATOM      6  C   UNL A   1      44.560  19.192  24.850  1.00  0.00     0.112 C 
BRANCH   6   7
ATOM      7  C   UNL A   1      43.566  19.899  25.763  1.00  0.00     0.138 C 
BRANCH   7   8
ATOM      8  C   UNL A   1      42.134  19.400  25.985  1.00  0.00     0.308 C 
ATOM      9  O   UNL A   1      41.978  18.227  26.319  1.00  0.00    -0.247 OA
ATOM     10  N   UNL A   1      41.057  20.215  25.749  1.00  0.00    -0.204 N 
ATOM     11  C   UNL A   1      40.844  21.298  26.416  1.00  0.00     0.319 C 
ATOM     12  H   UNL A   1      40.421  19.965  25.041  1.00  0.00     0.316 HD
ATOM     13  S   UNL A   1      41.911  21.885  27.730  1.00  0.00    -0.029 SA
ATOM     14  N   UNL A   1      39.853  22.248  26.166  1.00  0.00    -0.217 N 
ATOM     15  C   UNL A   1      40.868  23.325  27.988  1.00  0.00     0.120 C 
ATOM     16  C   UNL A   1      40.212  23.574  26.629  1.00  0.00     0.212 C 
ATOM     17  C   UNL A   1      41.471  24.657  28.343  1.00  0.00     0.156 C 
ATOM     18  C   UNL A   1      39.161  24.621  26.928  1.00  0.00     0.188 C 
ATOM     19  S   UNL A   1      40.081  25.750  27.991  1.00  0.00     0.155 S 
ATOM     20  O   UNL A   1      39.335  25.939  29.216  1.00  0.00    -0.229 OA
ATOM     21  O   UNL A   1      40.559  26.858  27.193  1.00  0.00    -0.229 OA
BRANCH  14  22
ATOM     22  C   UNL A   1      38.566  22.027  25.682  1.00  0.00     0.128 A 
ATOM     23  C   UNL A   1      37.608  23.051  25.607  1.00  0.00     0.056 A 
ATOM     24  C   UNL A   1      38.159  20.731  25.370  1.00  0.00     0.056 A 
ATOM     25  C   UNL A   1      36.292  22.782  25.197  1.00  0.00     0.051 A 
ATOM     26  C   UNL A   1      36.837  20.458  25.006  1.00  0.00     0.051 A 
ATOM     27  C   UNL A   1      35.904  21.481  24.860  1.00  0.00     0.127 A 
BRANCH  27  28
ATOM     28  O   UNL A   1      34.632  21.355  24.359  1.00  0.00    -0.457 OA
BRANCH  28  29
ATOM     29  C   UNL A   1      33.793  22.467  24.257  1.00  0.00     0.127 A 
ATOM     30  C   UNL A   1      32.431  22.444  25.414  1.00  0.00     0.047 A 
ATOM     31  C   UNL A   1      33.775  23.422  22.773  1.00  0.00     0.047 A 
ATOM     32  C   UNL A   1      30.921  23.342  25.154  1.00  0.00     0.004 A 
ATOM     33  C   UNL A   1      32.295  24.323  22.292  1.00  0.00     0.004 A 
ATOM     34  C   UNL A   1      30.655  24.246  23.616  1.00  0.00     0.000 A 
ENDBRANCH  28  29
ENDBRANCH  27  28
ENDBRANCH  14  22
ENDBRANCH   7   8
ENDBRANCH   6   7
ENDBRANCH   3   6
ENDBRANCH   1   2
BRANCH   1  35
ATOM     35  C   UNL A   1      45.103  23.320  24.661  1.00  0.00     0.042 C 
BRANCH  35  36
ATOM     36  C   UNL A   1      46.313  23.659  25.509  1.00  0.00     0.118 C 
BRANCH  36  37
ATOM     37  N   UNL A   1      47.172  24.670  24.916  1.00  0.00    -0.352 N 
ATOM     38  C   UNL A   1      47.249  26.019  25.170  1.00  0.00     0.251 C 
ATOM     39  H   UNL A   1      47.793  24.339  24.228  1.00  0.00     0.163 HD
ATOM     40  O   UNL A   1      47.954  26.716  24.441  1.00  0.00    -0.269 OA
BRANCH  38  41
ATOM     41  C   UNL A   1      46.538  26.641  26.315  1.00  0.00     0.039 A 
ATOM     42  C   UNL A   1      45.148  26.775  26.281  1.00  0.00     0.014 A 
ATOM     43  C   UNL A   1      47.238  27.202  27.381  1.00  0.00     0.014 A 
ATOM     44  C   UNL A   1      44.505  27.538  27.260  1.00  0.00     0.010 A 
ATOM     45  C   UNL A   1      46.597  27.872  28.410  1.00  0.00     0.010 A 
ATOM     46  C   UNL A   1      45.249  28.153  28.286  1.00  0.00    -0.014 A 
BRANCH  46  47
ATOM     47  C   UNL A   1      44.631  29.044  29.278  1.00  0.00     0.031 A 
ATOM     48  C   UNL A   1      44.372  30.563  29.022  1.00  0.00     0.074 A 
ATOM     49  C   UNL A   1      44.294  28.427  30.441  1.00  0.00     0.049 A 
ATOM     50  N   UNL A   1      43.627  31.413  30.282  1.00  0.00    -0.248 NA
ATOM     51  C   UNL A   1      44.427  32.039  27.370  1.00  0.00     0.031 C 
ATOM     52  C   UNL A   1      44.603  27.013  30.726  1.00  0.00     0.029 A 
ATOM     53  N   UNL A   1      43.641  28.839  31.587  1.00  0.00    -0.354 N 
ATOM     54  C   UNL A   1      43.226  33.090  29.746  1.00  0.00     0.074 A 
ATOM     55  C   UNL A   1      43.766  33.365  27.967  1.00  0.00     0.031 C 
ATOM     56  C   UNL A   1      44.131  26.676  31.931  1.00  0.00     0.029 A 
ATOM     57  C   UNL A   1      43.503  27.842  32.541  1.00  0.00     0.049 A 
ATOM     58  H   UNL A   1      43.305  29.756  31.715  1.00  0.00     0.167 HD
ATOM     59  C   UNL A   1      42.546  34.079  30.363  1.00  0.00     0.034 A 
ATOM     60  C   UNL A   1      42.944  27.809  33.770  1.00  0.00     0.034 A 
ATOM     61  C   UNL A   1      41.885  33.968  31.618  1.00  0.00     0.049 A 
ATOM     62  C   UNL A   1      42.220  29.011  34.308  1.00  0.00     0.074 A 
ATOM     63  C   UNL A   1      41.110  34.934  32.228  1.00  0.00     0.029 A 
ATOM     64  N   UNL A   1      41.861  32.841  32.423  1.00  0.00    -0.354 N 
ATOM     65  N   UNL A   1      42.030  30.187  33.762  1.00  0.00    -0.248 NA
ATOM     66  C   UNL A   1      41.580  28.849  35.625  1.00  0.00     0.031 C 
ATOM     67  C   UNL A   1      40.616  34.400  33.414  1.00  0.00     0.029 A 
ATOM     68  C   UNL A   1      41.054  33.090  33.523  1.00  0.00     0.049 A 
ATOM     69  H   UNL A   1      42.339  32.000  32.244  1.00  0.00     0.167 HD
ATOM     70  C   UNL A   1      41.210  30.884  34.644  1.00  0.00     0.074 A 
ATOM     71  C   UNL A   1      40.920  29.991  35.746  1.00  0.00     0.031 C 
ATOM     72  C   UNL A   1      40.743  32.151  34.566  1.00  0.00     0.034 A 
BRANCH  59  73
ATOM     73  C   UNL A   1      42.484  35.375  29.607  1.00  0.00     0.023 A 
ATOM     74  C   UNL A   1      41.520  35.568  28.595  1.00  0.00     0.012 A 
ATOM     75  C   UNL A   1      43.418  36.395  29.873  1.00  0.00     0.148 A 
ATOM     76  C   UNL A   1      41.564  36.699  27.782  1.00  0.00     0.002 A 
ATOM     77  C   UNL A   1      43.401  37.556  29.113  1.00  0.00     0.091 A 
ATOM     78  F   UNL A   1      44.321  36.196  30.844  1.00  0.00    -0.205 F 
ATOM     79  C   UNL A   1      42.501  37.695  28.044  1.00  0.00     0.022 A 
BRANCH  77  80
ATOM     80  S   UNL A   1      44.479  38.950  29.454  1.00  0.00     0.127 S 
ATOM     81  O   UNL A   1      43.824  40.022  28.705  1.00  0.00    -0.237 OA
ATOM     82  O   UNL A   1      44.372  39.067  30.908  1.00  0.00    -0.237 OA
ATOM     83  O   UNL A   1      45.798  38.567  28.969  1.00  0.00    -0.744 OA
ENDBRANCH  77  80
ENDBRANCH  59  73
BRANCH  60  84
ATOM     84  C   UNL A   1      43.003  26.548  34.584  1.00  0.00     0.023 A 
ATOM     85  C   UNL A   1      41.871  25.714  34.694  1.00  0.00     0.012 A 
ATOM     86  C   UNL A   1      44.190  26.174  35.246  1.00  0.00     0.148 A 
ATOM     87  C   UNL A   1      41.909  24.558  35.479  1.00  0.00     0.002 A 
ATOM     88  C   UNL A   1      44.240  24.989  35.972  1.00  0.00     0.091 A 
ATOM     89  F   UNL A   1      45.254  26.982  35.142  1.00  0.00    -0.205 F 
ATOM     90  C   UNL A   1      43.094  24.190  36.108  1.00  0.00     0.022 A 
BRANCH  88  91
ATOM     91  S   UNL A   1      45.759  24.368  36.703  1.00  0.00     0.127 S 
ATOM     92  O   UNL A   1      45.283  23.193  37.429  1.00  0.00    -0.237 OA
ATOM     93  O   UNL A   1      46.563  24.075  35.516  1.00  0.00    -0.237 OA
ATOM     94  O   UNL A   1      46.273  25.452  37.527  1.00  0.00    -0.744 OA
ENDBRANCH  88  91
ENDBRANCH  60  84
BRANCH  72  95
ATOM     95  C   UNL A   1      39.821  32.624  35.662  1.00  0.00     0.023 A 
ATOM     96  C   UNL A   1      38.427  32.626  35.464  1.00  0.00     0.012 A 
ATOM     97  C   UNL A   1      40.344  32.982  36.922  1.00  0.00     0.148 A 
ATOM     98  C   UNL A   1      37.569  33.017  36.490  1.00  0.00     0.002 A 
ATOM     99  C   UNL A   1      39.479  33.307  37.958  1.00  0.00     0.091 A 
ATOM    100  F   UNL A   1      41.675  32.984  37.086  1.00  0.00    -0.205 F 
ATOM    101  C   UNL A   1      38.093  33.343  37.739  1.00  0.00     0.022 A 
BRANCH  99 102
ATOM    102  S   UNL A   1      40.056  33.617  39.629  1.00  0.00     0.127 S 
ATOM    103  O   UNL A   1      41.125  34.589  39.400  1.00  0.00    -0.237 OA
ATOM    104  O   UNL A   1      38.860  34.165  40.272  1.00  0.00    -0.237 OA
ATOM    105  O   UNL A   1      40.487  32.328  40.153  1.00  0.00    -0.744 OA
ENDBRANCH  99 102
ENDBRANCH  72  95
ENDBRANCH  46  47
ENDBRANCH  38  41
ENDBRANCH  36  37
ENDBRANCH  35  36
ENDBRANCH   1  35
TORSDOF 18
ENDMDL
