MODEL 1
REMARK VINA RESULT:     -11.7      0.000      0.000
REMARK SMILES O=C(C[NH+]1CCN(c2nccc(N3CCCCC3)n2)CC1)NCCCNC(=O)c1ccc(-c2c3nc(c(-c4cccc(S(=O)(=O)[O-])c4F)c4ccc([nH]4)c(-c4cccc(S(=O)(=O)[O-])c4F)c4nc(c(-c5cccc(S(=O)(=O)[O-])c5F)c5ccc2[nH]5)C=C4)C=C3)cc1
REMARK SMILES IDX 24 1 23 2 22 3 1 4 2 5 3 7 4 8 5 9 21 10 6 12 20 13 7 14
REMARK SMILES IDX 8 15 9 16 19 17 10 18 12 19 11 20 13 21 14 22 18 23 15 24
REMARK SMILES IDX 17 25 16 26 25 27 26 28 27 29 28 31 29 32 30 33 91 34 31 35
REMARK SMILES IDX 90 36 32 37 33 38 34 39 84 40 35 41 89 42 83 43 85 44 36 45
REMARK SMILES IDX 88 46 82 47 81 48 37 50 69 51 49 52 68 53 50 54 53 55 67 56
REMARK SMILES IDX 86 57 51 58 52 59 66 61 87 62 54 63 38 64 39 65 47 66 40 67
REMARK SMILES IDX 42 68 48 69 41 70 43 71 44 72 45 73 46 74 70 75 71 76 79 77
REMARK SMILES IDX 72 78 74 79 80 80 73 81 75 82 76 83 77 84 78 85 55 86 56 87
REMARK SMILES IDX 64 88 57 89 59 90 65 91 58 92 60 93 61 94 62 95 63 96
REMARK H PARENT 22 6 4 11 26 30 85 49 53 60
REMARK Flexibility Score: inf
ROOT
ATOM      1  C   UNL A   1      37.612  20.155  24.960  1.00  0.00     0.042 C 
ENDROOT
BRANCH   1   2
ATOM      2  C   UNL A   1      37.033  21.370  24.248  1.00  0.00     0.118 C 
BRANCH   2   3
ATOM      3  N   UNL A   1      35.622  21.573  24.513  1.00  0.00    -0.351 N 
ATOM      4  O   UNL A   1      35.430  23.393  23.126  1.00  0.00    -0.269 OA
ATOM      5  C   UNL A   1      34.911  22.575  23.883  1.00  0.00     0.275 C 
ATOM      6  H   UNL A   1      35.163  20.985  25.154  1.00  0.00     0.163 HD
BRANCH   5   7
ATOM      7  C   UNL A   1      33.413  22.570  24.188  1.00  0.00     0.363 C 
BRANCH   7   8
ATOM      8  N   UNL A   1      33.016  23.125  25.498  1.00  0.00    -0.324 N 
ATOM      9  C   UNL A   1      33.911  24.115  26.128  1.00  0.00     0.284 C 
ATOM     10  C   UNL A   1      31.633  23.640  25.507  1.00  0.00     0.284 C 
ATOM     11  H   UNL A   1      33.096  22.294  26.084  1.00  0.00     0.348 HD
ATOM     12  C   UNL A   1      33.800  25.589  25.655  1.00  0.00     0.181 C 
ATOM     13  C   UNL A   1      31.466  25.008  24.823  1.00  0.00     0.181 C 
ATOM     14  N   UNL A   1      32.432  25.956  25.340  1.00  0.00    -0.329 N 
BRANCH  14  15
ATOM     15  C   UNL A   1      32.099  27.283  25.311  1.00  0.00     0.227 A 
ATOM     16  N   UNL A   1      32.494  28.083  26.308  1.00  0.00    -0.221 NA
ATOM     17  N   UNL A   1      31.337  27.692  24.291  1.00  0.00    -0.196 NA
ATOM     18  C   UNL A   1      32.138  29.376  26.214  1.00  0.00     0.119 A 
ATOM     19  C   UNL A   1      30.959  28.977  24.254  1.00  0.00     0.134 A 
ATOM     20  C   UNL A   1      31.394  29.887  25.186  1.00  0.00     0.067 A 
BRANCH  19  21
ATOM     21  N   UNL A   1      30.011  29.356  23.331  1.00  0.00    -0.356 N 
ATOM     22  C   UNL A   1      29.657  30.763  23.267  1.00  0.00     0.118 C 
ATOM     23  C   UNL A   1      29.161  28.361  22.706  1.00  0.00     0.118 C 
ATOM     24  C   UNL A   1      28.210  30.978  23.687  1.00  0.00     0.022 C 
ATOM     25  C   UNL A   1      27.708  28.579  23.128  1.00  0.00     0.022 C 
ATOM     26  C   UNL A   1      27.280  30.033  22.930  1.00  0.00     0.004 C 
ENDBRANCH  19  21
ENDBRANCH  14  15
ENDBRANCH   7   8
ENDBRANCH   5   7
ENDBRANCH   2   3
ENDBRANCH   1   2
BRANCH   1  27
ATOM     27  C   UNL A   1      38.714  20.454  25.974  1.00  0.00     0.118 C 
BRANCH  27  28
ATOM     28  N   UNL A   1      39.760  19.448  26.009  1.00  0.00    -0.352 N 
ATOM     29  C   UNL A   1      41.114  19.582  26.189  1.00  0.00     0.251 C 
ATOM     30  H   UNL A   1      39.449  18.523  25.882  1.00  0.00     0.163 HD
ATOM     31  O   UNL A   1      41.827  18.580  26.137  1.00  0.00    -0.269 OA
BRANCH  29  32
ATOM     32  C   UNL A   1      41.744  20.899  26.462  1.00  0.00     0.039 A 
ATOM     33  C   UNL A   1      42.108  21.686  25.366  1.00  0.00     0.014 A 
ATOM     34  C   UNL A   1      42.036  21.349  27.755  1.00  0.00     0.014 A 
ATOM     35  C   UNL A   1      42.661  22.952  25.565  1.00  0.00     0.010 A 
ATOM     36  C   UNL A   1      42.512  22.646  27.957  1.00  0.00     0.010 A 
ATOM     37  C   UNL A   1      42.810  23.468  26.864  1.00  0.00    -0.014 A 
BRANCH  37  38
ATOM     38  C   UNL A   1      43.158  24.900  27.055  1.00  0.00     0.031 A 
ATOM     39  C   UNL A   1      42.212  25.873  27.698  1.00  0.00     0.074 A 
ATOM     40  C   UNL A   1      44.347  25.331  26.583  1.00  0.00     0.049 A 
ATOM     41  N   UNL A   1      42.414  27.127  28.011  1.00  0.00    -0.248 NA
ATOM     42  C   UNL A   1      40.859  25.389  28.013  1.00  0.00     0.031 C 
ATOM     43  C   UNL A   1      45.303  24.508  25.835  1.00  0.00     0.029 A 
ATOM     44  N   UNL A   1      44.953  26.559  26.652  1.00  0.00    -0.354 N 
ATOM     45  C   UNL A   1      41.217  27.590  28.541  1.00  0.00     0.074 A 
ATOM     46  C   UNL A   1      40.278  26.489  28.474  1.00  0.00     0.031 C 
ATOM     47  C   UNL A   1      46.387  25.243  25.546  1.00  0.00     0.029 A 
ATOM     48  C   UNL A   1      46.194  26.594  26.060  1.00  0.00     0.049 A 
ATOM     49  H   UNL A   1      44.540  27.341  27.085  1.00  0.00     0.167 HD
ATOM     50  C   UNL A   1      40.933  28.811  29.058  1.00  0.00     0.034 A 
ATOM     51  C   UNL A   1      47.085  27.597  25.949  1.00  0.00     0.034 A 
ATOM     52  C   UNL A   1      41.876  29.897  29.128  1.00  0.00     0.049 A 
ATOM     53  C   UNL A   1      46.768  28.919  26.587  1.00  0.00     0.074 A 
ATOM     54  C   UNL A   1      41.715  31.144  29.707  1.00  0.00     0.029 A 
ATOM     55  N   UNL A   1      43.153  29.875  28.586  1.00  0.00    -0.354 N 
ATOM     56  N   UNL A   1      45.696  29.281  27.249  1.00  0.00    -0.248 NA
ATOM     57  C   UNL A   1      47.804  29.956  26.505  1.00  0.00     0.031 C 
ATOM     58  C   UNL A   1      42.881  31.886  29.484  1.00  0.00     0.029 A 
ATOM     59  C   UNL A   1      43.786  31.088  28.805  1.00  0.00     0.049 A 
ATOM     60  H   UNL A   1      43.552  29.109  28.112  1.00  0.00     0.167 HD
ATOM     61  C   UNL A   1      45.941  30.575  27.692  1.00  0.00     0.074 A 
ATOM     62  C   UNL A   1      47.277  30.919  27.249  1.00  0.00     0.031 C 
ATOM     63  C   UNL A   1      45.129  31.408  28.389  1.00  0.00     0.034 A 
BRANCH  50  64
ATOM     64  C   UNL A   1      39.555  29.027  29.634  1.00  0.00     0.023 A 
ATOM     65  C   UNL A   1      39.290  28.644  30.967  1.00  0.00     0.012 A 
ATOM     66  C   UNL A   1      38.545  29.667  28.890  1.00  0.00     0.148 A 
ATOM     67  C   UNL A   1      38.035  28.861  31.535  1.00  0.00     0.002 A 
ATOM     68  C   UNL A   1      37.311  29.923  29.479  1.00  0.00     0.091 A 
ATOM     69  F   UNL A   1      38.805  30.010  27.621  1.00  0.00    -0.205 F 
ATOM     70  C   UNL A   1      37.050  29.509  30.795  1.00  0.00     0.022 A 
BRANCH  68  71
ATOM     71  S   UNL A   1      35.999  30.820  28.641  1.00  0.00     0.127 S 
ATOM     72  O   UNL A   1      35.531  29.826  27.677  1.00  0.00    -0.237 OA
ATOM     73  O   UNL A   1      35.068  31.095  29.735  1.00  0.00    -0.237 OA
ATOM     74  O   UNL A   1      36.627  32.003  28.063  1.00  0.00    -0.744 OA
ENDBRANCH  68  71
ENDBRANCH  50  64
BRANCH  51  75
ATOM     75  C   UNL A   1      48.391  27.361  25.273  1.00  0.00     0.023 A 
ATOM     76  C   UNL A   1      49.509  26.967  26.033  1.00  0.00     0.012 A 
ATOM     77  C   UNL A   1      48.522  27.495  23.877  1.00  0.00     0.148 A 
ATOM     78  C   UNL A   1      50.744  26.748  25.420  1.00  0.00     0.002 A 
ATOM     79  C   UNL A   1      49.738  27.218  23.267  1.00  0.00     0.091 A 
ATOM     80  F   UNL A   1      47.447  27.877  23.173  1.00  0.00    -0.205 F 
ATOM     81  C   UNL A   1      50.856  26.864  24.038  1.00  0.00     0.022 A 
BRANCH  79  82
ATOM     82  S   UNL A   1      49.938  27.208  21.482  1.00  0.00     0.127 S 
ATOM     83  O   UNL A   1      51.307  26.721  21.338  1.00  0.00    -0.237 OA
ATOM     84  O   UNL A   1      48.900  26.265  21.067  1.00  0.00    -0.237 OA
ATOM     85  O   UNL A   1      49.706  28.581  21.054  1.00  0.00    -0.744 OA
ENDBRANCH  79  82
ENDBRANCH  51  75
BRANCH  63  86
ATOM     86  C   UNL A   1      45.681  32.764  28.748  1.00  0.00     0.023 A 
ATOM     87  C   UNL A   1      46.380  32.947  29.959  1.00  0.00     0.012 A 
ATOM     88  C   UNL A   1      45.526  33.856  27.872  1.00  0.00     0.148 A 
ATOM     89  C   UNL A   1      46.863  34.204  30.318  1.00  0.00     0.002 A 
ATOM     90  C   UNL A   1      46.061  35.094  28.209  1.00  0.00     0.091 A 
ATOM     91  F   UNL A   1      44.842  33.672  26.732  1.00  0.00    -0.205 F 
ATOM     92  C   UNL A   1      46.712  35.274  29.439  1.00  0.00     0.022 A 
BRANCH  90  93
ATOM     93  S   UNL A   1      46.000  36.499  27.093  1.00  0.00     0.127 S 
ATOM     94  O   UNL A   1      46.678  35.971  25.910  1.00  0.00    -0.237 OA
ATOM     95  O   UNL A   1      44.560  36.705  26.929  1.00  0.00    -0.237 OA
ATOM     96  O   UNL A   1      46.688  37.583  27.780  1.00  0.00    -0.744 OA
ENDBRANCH  90  93
ENDBRANCH  63  86
ENDBRANCH  37  38
ENDBRANCH  29  32
ENDBRANCH  27  28
ENDBRANCH   1  27
TORSDOF 16
ENDMDL
MODEL 2
REMARK VINA RESULT:     -11.4     10.091     16.398
REMARK SMILES O=C(C[NH+]1CCN(c2nccc(N3CCCCC3)n2)CC1)NCCCNC(=O)c1ccc(-c2c3nc(c(-c4cccc(S(=O)(=O)[O-])c4F)c4ccc([nH]4)c(-c4cccc(S(=O)(=O)[O-])c4F)c4nc(c(-c5cccc(S(=O)(=O)[O-])c5F)c5ccc2[nH]5)C=C4)C=C3)cc1
REMARK SMILES IDX 24 1 23 2 22 3 1 4 2 5 3 7 4 8 5 9 21 10 6 12 20 13 7 14
REMARK SMILES IDX 8 15 9 16 19 17 10 18 12 19 11 20 13 21 14 22 18 23 15 24
REMARK SMILES IDX 17 25 16 26 25 27 26 28 27 29 28 31 29 32 30 33 91 34 31 35
REMARK SMILES IDX 90 36 32 37 33 38 34 39 84 40 35 41 89 42 83 43 85 44 36 45
REMARK SMILES IDX 88 46 82 47 81 48 37 50 69 51 49 52 68 53 50 54 53 55 67 56
REMARK SMILES IDX 86 57 51 58 52 59 66 61 87 62 54 63 38 64 39 65 47 66 40 67
REMARK SMILES IDX 42 68 48 69 41 70 43 71 44 72 45 73 46 74 70 75 71 76 79 77
REMARK SMILES IDX 72 78 74 79 80 80 73 81 75 82 76 83 77 84 78 85 55 86 56 87
REMARK SMILES IDX 64 88 57 89 59 90 65 91 58 92 60 93 61 94 62 95 63 96
REMARK H PARENT 22 6 4 11 26 30 85 49 53 60
REMARK Flexibility Score: inf
ROOT
ATOM      1  C   UNL A   1      46.409  23.814  39.698  1.00  0.00     0.042 C 
ENDROOT
BRANCH   1   2
ATOM      2  C   UNL A   1      45.929  22.420  39.317  1.00  0.00     0.118 C 
BRANCH   2   3
ATOM      3  N   UNL A   1      46.097  21.445  40.377  1.00  0.00    -0.351 N 
ATOM      4  O   UNL A   1      46.041  19.629  38.972  1.00  0.00    -0.269 OA
ATOM      5  C   UNL A   1      46.177  20.094  40.101  1.00  0.00     0.275 C 
ATOM      6  H   UNL A   1      46.156  21.752  41.309  1.00  0.00     0.163 HD
BRANCH   5   7
ATOM      7  C   UNL A   1      46.475  19.221  41.320  1.00  0.00     0.363 C 
BRANCH   7   8
ATOM      8  N   UNL A   1      45.713  19.537  42.546  1.00  0.00    -0.324 N 
ATOM      9  C   UNL A   1      44.274  19.214  42.567  1.00  0.00     0.284 C 
ATOM     10  C   UNL A   1      46.351  19.012  43.769  1.00  0.00     0.284 C 
ATOM     11  H   UNL A   1      45.750  20.557  42.529  1.00  0.00     0.348 HD
ATOM     12  C   UNL A   1      43.869  17.751  42.891  1.00  0.00     0.181 C 
ATOM     13  C   UNL A   1      46.156  17.501  43.981  1.00  0.00     0.181 C 
ATOM     14  N   UNL A   1      44.754  17.148  43.871  1.00  0.00    -0.329 N 
BRANCH  14  15
ATOM     15  C   UNL A   1      44.319  16.050  44.561  1.00  0.00     0.227 A 
ATOM     16  N   UNL A   1      44.281  16.086  45.897  1.00  0.00    -0.221 NA
ATOM     17  N   UNL A   1      44.002  14.969  43.839  1.00  0.00    -0.196 NA
ATOM     18  C   UNL A   1      43.838  14.975  46.513  1.00  0.00     0.119 A 
ATOM     19  C   UNL A   1      43.611  13.864  44.487  1.00  0.00     0.134 A 
ATOM     20  C   UNL A   1      43.456  13.840  45.852  1.00  0.00     0.067 A 
BRANCH  19  21
ATOM     21  N   UNL A   1      43.487  12.694  43.773  1.00  0.00    -0.356 N 
ATOM     22  C   UNL A   1      42.382  12.591  42.836  1.00  0.00     0.118 C 
ATOM     23  C   UNL A   1      44.207  11.505  44.186  1.00  0.00     0.118 C 
ATOM     24  C   UNL A   1      41.398  11.515  43.276  1.00  0.00     0.022 C 
ATOM     25  C   UNL A   1      43.217  10.426  44.626  1.00  0.00     0.022 C 
ATOM     26  C   UNL A   1      42.125  10.207  43.579  1.00  0.00     0.004 C 
ENDBRANCH  19  21
ENDBRANCH  14  15
ENDBRANCH   7   8
ENDBRANCH   5   7
ENDBRANCH   2   3
ENDBRANCH   1   2
BRANCH   1  27
ATOM     27  C   UNL A   1      46.421  24.835  38.563  1.00  0.00     0.118 C 
BRANCH  27  28
ATOM     28  N   UNL A   1      47.337  24.497  37.488  1.00  0.00    -0.352 N 
ATOM     29  C   UNL A   1      47.247  24.735  36.139  1.00  0.00     0.251 C 
ATOM     30  H   UNL A   1      48.151  24.022  37.771  1.00  0.00     0.163 HD
ATOM     31  O   UNL A   1      48.133  24.313  35.396  1.00  0.00    -0.269 OA
BRANCH  29  32
ATOM     32  C   UNL A   1      46.119  25.500  35.549  1.00  0.00     0.039 A 
ATOM     33  C   UNL A   1      46.378  26.798  35.097  1.00  0.00     0.014 A 
ATOM     34  C   UNL A   1      44.814  25.000  35.480  1.00  0.00     0.014 A 
ATOM     35  C   UNL A   1      45.366  27.543  34.492  1.00  0.00     0.010 A 
ATOM     36  C   UNL A   1      43.823  25.711  34.803  1.00  0.00     0.010 A 
ATOM     37  C   UNL A   1      44.095  26.982  34.282  1.00  0.00    -0.014 A 
BRANCH  37  38
ATOM     38  C   UNL A   1      43.110  27.683  33.418  1.00  0.00     0.031 A 
ATOM     39  C   UNL A   1      43.014  27.420  31.942  1.00  0.00     0.074 A 
ATOM     40  C   UNL A   1      42.322  28.619  33.986  1.00  0.00     0.049 A 
ATOM     41  N   UNL A   1      42.146  27.889  31.082  1.00  0.00    -0.248 NA
ATOM     42  C   UNL A   1      44.028  26.537  31.347  1.00  0.00     0.031 C 
ATOM     43  C   UNL A   1      42.402  29.048  35.386  1.00  0.00     0.029 A 
ATOM     44  N   UNL A   1      41.308  29.381  33.466  1.00  0.00    -0.354 N 
ATOM     45  C   UNL A   1      42.515  27.377  29.845  1.00  0.00     0.074 A 
ATOM     46  C   UNL A   1      43.710  26.587  30.060  1.00  0.00     0.031 C 
ATOM     47  C   UNL A   1      41.456  29.970  35.621  1.00  0.00     0.029 A 
ATOM     48  C   UNL A   1      40.721  30.219  34.386  1.00  0.00     0.049 A 
ATOM     49  H   UNL A   1      41.026  29.333  32.524  1.00  0.00     0.167 HD
ATOM     50  C   UNL A   1      41.901  27.529  28.646  1.00  0.00     0.034 A 
ATOM     51  C   UNL A   1      39.699  31.085  34.257  1.00  0.00     0.034 A 
ATOM     52  C   UNL A   1      40.708  28.309  28.444  1.00  0.00     0.049 A 
ATOM     53  C   UNL A   1      38.999  31.185  32.932  1.00  0.00     0.074 A 
ATOM     54  C   UNL A   1      39.960  28.460  27.288  1.00  0.00     0.029 A 
ATOM     55  N   UNL A   1      40.093  29.087  29.415  1.00  0.00    -0.354 N 
ATOM     56  N   UNL A   1      39.252  30.548  31.814  1.00  0.00    -0.248 NA
ATOM     57  C   UNL A   1      37.842  32.087  32.864  1.00  0.00     0.031 C 
ATOM     58  C   UNL A   1      38.917  29.354  27.552  1.00  0.00     0.029 A 
ATOM     59  C   UNL A   1      38.986  29.727  28.884  1.00  0.00     0.049 A 
ATOM     60  H   UNL A   1      40.401  29.171  30.347  1.00  0.00     0.167 HD
ATOM     61  C   UNL A   1      38.266  30.946  30.919  1.00  0.00     0.074 A 
ATOM     62  C   UNL A   1      37.395  31.854  31.637  1.00  0.00     0.031 C 
ATOM     63  C   UNL A   1      38.105  30.603  29.617  1.00  0.00     0.034 A 
BRANCH  50  64
ATOM     64  C   UNL A   1      42.484  26.800  27.460  1.00  0.00     0.023 A 
ATOM     65  C   UNL A   1      43.334  27.490  26.568  1.00  0.00     0.012 A 
ATOM     66  C   UNL A   1      42.254  25.424  27.264  1.00  0.00     0.148 A 
ATOM     67  C   UNL A   1      43.912  26.833  25.482  1.00  0.00     0.002 A 
ATOM     68  C   UNL A   1      42.872  24.765  26.206  1.00  0.00     0.091 A 
ATOM     69  F   UNL A   1      41.433  24.786  28.109  1.00  0.00    -0.205 F 
ATOM     70  C   UNL A   1      43.690  25.470  25.307  1.00  0.00     0.022 A 
BRANCH  68  71
ATOM     71  S   UNL A   1      42.716  22.996  25.936  1.00  0.00     0.127 S 
ATOM     72  O   UNL A   1      41.288  22.787  26.168  1.00  0.00    -0.237 OA
ATOM     73  O   UNL A   1      43.134  22.860  24.541  1.00  0.00    -0.237 OA
ATOM     74  O   UNL A   1      43.604  22.362  26.903  1.00  0.00    -0.744 OA
ENDBRANCH  68  71
ENDBRANCH  50  64
BRANCH  51  75
ATOM     75  C   UNL A   1      39.231  31.865  35.437  1.00  0.00     0.023 A 
ATOM     76  C   UNL A   1      38.343  31.273  36.356  1.00  0.00     0.012 A 
ATOM     77  C   UNL A   1      39.685  33.177  35.668  1.00  0.00     0.148 A 
ATOM     78  C   UNL A   1      37.886  31.988  37.464  1.00  0.00     0.002 A 
ATOM     79  C   UNL A   1      39.273  33.862  36.804  1.00  0.00     0.091 A 
ATOM     80  F   UNL A   1      40.526  33.724  34.778  1.00  0.00    -0.205 F 
ATOM     81  C   UNL A   1      38.357  33.278  37.693  1.00  0.00     0.022 A 
BRANCH  79  82
ATOM     82  S   UNL A   1      39.935  35.471  37.251  1.00  0.00     0.127 S 
ATOM     83  O   UNL A   1      39.559  36.280  36.095  1.00  0.00    -0.237 OA
ATOM     84  O   UNL A   1      39.199  35.769  38.479  1.00  0.00    -0.237 OA
ATOM     85  O   UNL A   1      41.365  35.266  37.443  1.00  0.00    -0.744 OA
ENDBRANCH  79  82
ENDBRANCH  51  75
BRANCH  63  86
ATOM     86  C   UNL A   1      36.918  31.186  28.895  1.00  0.00     0.023 A 
ATOM     87  C   UNL A   1      36.843  32.574  28.660  1.00  0.00     0.012 A 
ATOM     88  C   UNL A   1      35.883  30.353  28.428  1.00  0.00     0.148 A 
ATOM     89  C   UNL A   1      35.732  33.129  28.026  1.00  0.00     0.002 A 
ATOM     90  C   UNL A   1      34.806  30.905  27.745  1.00  0.00     0.091 A 
ATOM     91  F   UNL A   1      35.958  29.036  28.675  1.00  0.00    -0.205 F 
ATOM     92  C   UNL A   1      34.719  32.294  27.560  1.00  0.00     0.022 A 
BRANCH  90  93
ATOM     93  S   UNL A   1      33.509  29.895  27.024  1.00  0.00     0.127 S 
ATOM     94  O   UNL A   1      32.507  30.899  26.673  1.00  0.00    -0.237 OA
ATOM     95  O   UNL A   1      34.188  29.285  25.879  1.00  0.00    -0.237 OA
ATOM     96  O   UNL A   1      33.116  28.951  28.061  1.00  0.00    -0.744 OA
ENDBRANCH  90  93
ENDBRANCH  63  86
ENDBRANCH  37  38
ENDBRANCH  29  32
ENDBRANCH  27  28
ENDBRANCH   1  27
TORSDOF 16
ENDMDL
MODEL 3
REMARK VINA RESULT:     -11.3      1.887      7.725
REMARK SMILES O=C(C[NH+]1CCN(c2nccc(N3CCCCC3)n2)CC1)NCCCNC(=O)c1ccc(-c2c3nc(c(-c4cccc(S(=O)(=O)[O-])c4F)c4ccc([nH]4)c(-c4cccc(S(=O)(=O)[O-])c4F)c4nc(c(-c5cccc(S(=O)(=O)[O-])c5F)c5ccc2[nH]5)C=C4)C=C3)cc1
REMARK SMILES IDX 24 1 23 2 22 3 1 4 2 5 3 7 4 8 5 9 21 10 6 12 20 13 7 14
REMARK SMILES IDX 8 15 9 16 19 17 10 18 12 19 11 20 13 21 14 22 18 23 15 24
REMARK SMILES IDX 17 25 16 26 25 27 26 28 27 29 28 31 29 32 30 33 91 34 31 35
REMARK SMILES IDX 90 36 32 37 33 38 34 39 84 40 35 41 89 42 83 43 85 44 36 45
REMARK SMILES IDX 88 46 82 47 81 48 37 50 69 51 49 52 68 53 50 54 53 55 67 56
REMARK SMILES IDX 86 57 51 58 52 59 66 61 87 62 54 63 38 64 39 65 47 66 40 67
REMARK SMILES IDX 42 68 48 69 41 70 43 71 44 72 45 73 46 74 70 75 71 76 79 77
REMARK SMILES IDX 72 78 74 79 80 80 73 81 75 82 76 83 77 84 78 85 55 86 56 87
REMARK SMILES IDX 64 88 57 89 59 90 65 91 58 92 60 93 61 94 62 95 63 96
REMARK H PARENT 22 6 4 11 26 30 85 49 53 60
REMARK Flexibility Score: inf
ROOT
ATOM      1  C   UNL A   1      38.047  21.450  24.936  1.00  0.00     0.042 C 
ENDROOT
BRANCH   1   2
ATOM      2  C   UNL A   1      36.650  22.000  25.196  1.00  0.00     0.118 C 
BRANCH   2   3
ATOM      3  N   UNL A   1      35.594  21.151  24.680  1.00  0.00    -0.351 N 
ATOM      4  O   UNL A   1      34.387  21.147  26.633  1.00  0.00    -0.269 OA
ATOM      5  C   UNL A   1      34.501  20.816  25.456  1.00  0.00     0.275 C 
ATOM      6  H   UNL A   1      35.657  20.807  23.761  1.00  0.00     0.163 HD
BRANCH   5   7
ATOM      7  C   UNL A   1      33.429  20.015  24.717  1.00  0.00     0.363 C 
BRANCH   7   8
ATOM      8  N   UNL A   1      32.185  20.743  24.392  1.00  0.00    -0.324 N 
ATOM      9  C   UNL A   1      31.758  21.822  25.303  1.00  0.00     0.284 C 
ATOM     10  C   UNL A   1      32.158  21.238  23.002  1.00  0.00     0.284 C 
ATOM     11  H   UNL A   1      31.496  20.002  24.525  1.00  0.00     0.348 HD
ATOM     12  C   UNL A   1      32.422  23.213  25.133  1.00  0.00     0.181 C 
ATOM     13  C   UNL A   1      33.011  22.495  22.763  1.00  0.00     0.181 C 
ATOM     14  N   UNL A   1      32.695  23.518  23.741  1.00  0.00    -0.329 N 
BRANCH  14  15
ATOM     15  C   UNL A   1      32.885  24.824  23.379  1.00  0.00     0.227 A 
ATOM     16  N   UNL A   1      33.172  25.119  22.107  1.00  0.00    -0.221 NA
ATOM     17  N   UNL A   1      32.825  25.735  24.357  1.00  0.00    -0.196 NA
ATOM     18  C   UNL A   1      33.342  26.422  21.820  1.00  0.00     0.119 A 
ATOM     19  C   UNL A   1      33.048  27.019  24.044  1.00  0.00     0.134 A 
ATOM     20  C   UNL A   1      33.258  27.423  22.748  1.00  0.00     0.067 A 
BRANCH  19  21
ATOM     21  N   UNL A   1      33.194  27.928  25.067  1.00  0.00    -0.356 N 
ATOM     22  C   UNL A   1      33.108  27.429  26.428  1.00  0.00     0.118 C 
ATOM     23  C   UNL A   1      33.087  29.350  24.803  1.00  0.00     0.118 C 
ATOM     24  C   UNL A   1      31.888  27.999  27.138  1.00  0.00     0.022 C 
ATOM     25  C   UNL A   1      31.861  29.920  25.518  1.00  0.00     0.022 C 
ATOM     26  C   UNL A   1      31.836  29.518  26.992  1.00  0.00     0.004 C 
ENDBRANCH  19  21
ENDBRANCH  14  15
ENDBRANCH   7   8
ENDBRANCH   5   7
ENDBRANCH   2   3
ENDBRANCH   1   2
BRANCH   1  27
ATOM     27  C   UNL A   1      38.805  20.979  26.174  1.00  0.00     0.118 C 
BRANCH  27  28
ATOM     28  N   UNL A   1      39.884  20.054  25.877  1.00  0.00    -0.352 N 
ATOM     29  C   UNL A   1      41.244  20.225  25.948  1.00  0.00     0.251 C 
ATOM     30  H   UNL A   1      39.594  19.163  25.577  1.00  0.00     0.163 HD
ATOM     31  O   UNL A   1      41.983  19.304  25.600  1.00  0.00    -0.269 OA
BRANCH  29  32
ATOM     32  C   UNL A   1      41.854  21.485  26.447  1.00  0.00     0.039 A 
ATOM     33  C   UNL A   1      42.151  22.480  25.510  1.00  0.00     0.014 A 
ATOM     34  C   UNL A   1      42.188  21.689  27.790  1.00  0.00     0.014 A 
ATOM     35  C   UNL A   1      42.681  23.701  25.930  1.00  0.00     0.010 A 
ATOM     36  C   UNL A   1      42.642  22.937  28.221  1.00  0.00     0.010 A 
ATOM     37  C   UNL A   1      42.872  23.963  27.297  1.00  0.00    -0.014 A 
BRANCH  37  38
ATOM     38  C   UNL A   1      43.193  25.342  27.748  1.00  0.00     0.031 A 
ATOM     39  C   UNL A   1      44.595  25.881  27.732  1.00  0.00     0.074 A 
ATOM     40  C   UNL A   1      42.186  26.100  28.230  1.00  0.00     0.049 A 
ATOM     41  N   UNL A   1      45.009  27.091  28.011  1.00  0.00    -0.248 NA
ATOM     42  C   UNL A   1      45.673  24.944  27.383  1.00  0.00     0.031 C 
ATOM     43  C   UNL A   1      40.803  25.648  28.405  1.00  0.00     0.029 A 
ATOM     44  N   UNL A   1      42.166  27.400  28.666  1.00  0.00    -0.354 N 
ATOM     45  C   UNL A   1      46.392  27.061  27.888  1.00  0.00     0.074 A 
ATOM     46  C   UNL A   1      46.752  25.700  27.545  1.00  0.00     0.031 C 
ATOM     47  C   UNL A   1      40.063  26.663  28.878  1.00  0.00     0.029 A 
ATOM     48  C   UNL A   1      40.921  27.826  29.067  1.00  0.00     0.049 A 
ATOM     49  H   UNL A   1      42.965  27.974  28.689  1.00  0.00     0.167 HD
ATOM     50  C   UNL A   1      47.279  28.078  28.024  1.00  0.00     0.034 A 
ATOM     51  C   UNL A   1      40.509  29.023  29.526  1.00  0.00     0.034 A 
ATOM     52  C   UNL A   1      46.911  29.429  28.358  1.00  0.00     0.049 A 
ATOM     53  C   UNL A   1      41.502  30.147  29.606  1.00  0.00     0.074 A 
ATOM     54  C   UNL A   1      47.721  30.550  28.438  1.00  0.00     0.029 A 
ATOM     55  N   UNL A   1      45.629  29.846  28.684  1.00  0.00    -0.354 N 
ATOM     56  N   UNL A   1      42.779  30.145  29.307  1.00  0.00    -0.248 NA
ATOM     57  C   UNL A   1      40.987  31.452  30.040  1.00  0.00     0.031 C 
ATOM     58  C   UNL A   1      46.935  31.633  28.845  1.00  0.00     0.029 A 
ATOM     59  C   UNL A   1      45.626  31.200  28.977  1.00  0.00     0.049 A 
ATOM     60  H   UNL A   1      44.835  29.263  28.705  1.00  0.00     0.167 HD
ATOM     61  C   UNL A   1      43.213  31.452  29.484  1.00  0.00     0.074 A 
ATOM     62  C   UNL A   1      42.054  32.224  29.885  1.00  0.00     0.031 C 
ATOM     63  C   UNL A   1      44.460  31.965  29.342  1.00  0.00     0.034 A 
BRANCH  50  64
ATOM     64  C   UNL A   1      48.736  27.778  27.769  1.00  0.00     0.023 A 
ATOM     65  C   UNL A   1      49.547  27.315  28.827  1.00  0.00     0.012 A 
ATOM     66  C   UNL A   1      49.288  27.885  26.478  1.00  0.00     0.148 A 
ATOM     67  C   UNL A   1      50.889  27.001  28.613  1.00  0.00     0.002 A 
ATOM     68  C   UNL A   1      50.614  27.525  26.261  1.00  0.00     0.091 A 
ATOM     69  F   UNL A   1      48.511  28.342  25.486  1.00  0.00    -0.205 F 
ATOM     70  C   UNL A   1      51.419  27.096  27.329  1.00  0.00     0.022 A 
BRANCH  68  71
ATOM     71  S   UNL A   1      51.373  27.535  24.633  1.00  0.00     0.127 S 
ATOM     72  O   UNL A   1      51.345  28.959  24.304  1.00  0.00    -0.237 OA
ATOM     73  O   UNL A   1      52.705  26.999  24.912  1.00  0.00    -0.237 OA
ATOM     74  O   UNL A   1      50.537  26.684  23.794  1.00  0.00    -0.744 OA
ENDBRANCH  68  71
ENDBRANCH  50  64
BRANCH  51  75
ATOM     75  C   UNL A   1      39.075  29.235  29.869  1.00  0.00     0.023 A 
ATOM     76  C   UNL A   1      38.613  28.916  31.161  1.00  0.00     0.012 A 
ATOM     77  C   UNL A   1      38.176  29.779  28.932  1.00  0.00     0.148 A 
ATOM     78  C   UNL A   1      37.272  29.099  31.501  1.00  0.00     0.002 A 
ATOM     79  C   UNL A   1      36.856  30.014  29.296  1.00  0.00     0.091 A 
ATOM     80  F   UNL A   1      38.635  30.070  27.707  1.00  0.00    -0.205 F 
ATOM     81  C   UNL A   1      36.396  29.656  30.574  1.00  0.00     0.022 A 
BRANCH  79  82
ATOM     82  S   UNL A   1      35.695  30.853  28.214  1.00  0.00     0.127 S 
ATOM     83  O   UNL A   1      36.449  32.044  27.831  1.00  0.00    -0.237 OA
ATOM     84  O   UNL A   1      35.511  29.869  27.148  1.00  0.00    -0.237 OA
ATOM     85  O   UNL A   1      34.506  31.090  29.023  1.00  0.00    -0.744 OA
ENDBRANCH  79  82
ENDBRANCH  51  75
BRANCH  63  86
ATOM     86  C   UNL A   1      44.627  33.443  29.588  1.00  0.00     0.023 A 
ATOM     87  C   UNL A   1      45.003  33.911  30.864  1.00  0.00     0.012 A 
ATOM     88  C   UNL A   1      44.432  34.370  28.546  1.00  0.00     0.148 A 
ATOM     89  C   UNL A   1      45.125  35.277  31.113  1.00  0.00     0.002 A 
ATOM     90  C   UNL A   1      44.611  35.727  28.785  1.00  0.00     0.091 A 
ATOM     91  F   UNL A   1      44.056  33.912  27.342  1.00  0.00    -0.205 F 
ATOM     92  C   UNL A   1      44.939  36.184  30.071  1.00  0.00     0.022 A 
BRANCH  90  93
ATOM     93  S   UNL A   1      44.491  36.954  27.480  1.00  0.00     0.127 S 
ATOM     94  O   UNL A   1      44.535  38.203  28.238  1.00  0.00    -0.237 OA
ATOM     95  O   UNL A   1      45.688  36.680  26.683  1.00  0.00    -0.237 OA
ATOM     96  O   UNL A   1      43.236  36.681  26.792  1.00  0.00    -0.744 OA
ENDBRANCH  90  93
ENDBRANCH  63  86
ENDBRANCH  37  38
ENDBRANCH  29  32
ENDBRANCH  27  28
ENDBRANCH   1  27
TORSDOF 16
ENDMDL
