MODEL 1
REMARK VINA RESULT:     -11.6      0.000      0.000
REMARK SMILES CCOc1c(Br)cc(CNc2cccc(C(=O)NCCCNC(=O)c3ccc(-c4c5nc(c(-c6cccc(S(=O)(=O)[O-])c6F)c6ccc([nH]6)c(-c6cccc(S(=O)(=O)[O-])c6F)c6nc(c(-c7cccc(S(=O)(=O)[O-])c7F)c7ccc4[nH]7)C=C6)C=C5)cc3)c2C)cc1OC
REMARK SMILES IDX 19 1 18 2 16 3 17 4 15 6 11 7 12 8 88 9 13 10 89 11 14 12
REMARK SMILES IDX 10 13 9 15 8 16 4 17 5 18 91 19 6 20 7 21 90 22 3 23 2 24
REMARK SMILES IDX 1 25 92 26 93 27 20 28 21 29 22 30 23 31 24 33 25 34 26 35
REMARK SMILES IDX 87 36 27 37 86 38 28 39 29 40 30 41 80 42 31 43 85 44 79 45
REMARK SMILES IDX 81 46 32 47 84 48 78 49 77 50 33 52 65 53 45 54 64 55 46 56
REMARK SMILES IDX 49 57 63 58 82 59 47 60 48 61 62 63 83 64 50 65 34 66 35 67
REMARK SMILES IDX 43 68 36 69 38 70 44 71 37 72 39 73 40 74 41 75 42 76 66 77
REMARK SMILES IDX 67 78 75 79 68 80 70 81 76 82 69 83 71 84 72 85 73 86 74 87
REMARK SMILES IDX 51 88 52 89 60 90 53 91 55 92 61 93 54 94 56 95 57 96 58 97
REMARK SMILES IDX 59 98
REMARK H PARENT 18 5 10 14 22 32 81 51 49 62
REMARK Flexibility Score: inf
ROOT
ATOM      1  C   UNL A   1      36.177  23.369  25.442  1.00  0.00     0.118 C 
ENDROOT
BRANCH   1   2
ATOM      2  N   UNL A   1      35.750  22.076  24.937  1.00  0.00    -0.352 N 
ATOM      3  C   UNL A   1      34.529  21.464  24.765  1.00  0.00     0.251 C 
ATOM      4  O   UNL A   1      34.596  20.272  24.462  1.00  0.00    -0.269 OA
ATOM      5  H   UNL A   1      36.504  21.509  24.655  1.00  0.00     0.163 HD
BRANCH   3   6
ATOM      6  C   UNL A   1      33.182  22.131  24.940  1.00  0.00     0.044 A 
ATOM      7  C   UNL A   1      31.374  23.637  24.191  1.00  0.00     0.038 A 
ATOM      8  C   UNL A   1      30.597  23.237  25.283  1.00  0.00     0.026 A 
ATOM      9  C   UNL A   1      32.678  23.082  24.004  1.00  0.00    -0.015 A 
ATOM     10  C   UNL A   1      31.076  22.319  26.192  1.00  0.00     0.003 A 
ATOM     11  C   UNL A   1      33.459  23.578  22.804  1.00  0.00     0.047 C 
ATOM     12  C   UNL A   1      32.348  21.787  26.016  1.00  0.00     0.014 A 
BRANCH   7  13
ATOM     13  N   UNL A   1      30.883  24.625  23.341  1.00  0.00    -0.381 N 
ATOM     14  H   UNL A   1      31.265  24.722  22.439  1.00  0.00     0.160 HD
BRANCH  13  15
ATOM     15  C   UNL A   1      29.817  25.512  23.764  1.00  0.00     0.149 C 
BRANCH  15  16
ATOM     16  C   UNL A   1      30.418  26.824  24.202  1.00  0.00    -0.024 A 
ATOM     17  C   UNL A   1      31.597  29.276  24.952  1.00  0.00     0.175 A 
ATOM     18  C   UNL A   1      32.046  28.062  25.504  1.00  0.00     0.064 A 
ATOM     19  C   UNL A   1      30.497  29.265  24.078  1.00  0.00     0.162 A 
ATOM     20  Br  UNL A   1      33.398  27.986  26.838  1.00  0.00    -0.047 Br
ATOM     21  C   UNL A   1      31.480  26.848  25.112  1.00  0.00     0.025 A 
ATOM     22  C   UNL A   1      29.934  28.036  23.702  1.00  0.00     0.056 A 
BRANCH  17  23
ATOM     23  O   UNL A   1      32.215  30.438  25.339  1.00  0.00    -0.489 OA
BRANCH  23  24
ATOM     24  C   UNL A   1      31.594  31.029  26.491  1.00  0.00     0.226 C 
ATOM     25  C   UNL A   1      31.037  32.405  26.173  1.00  0.00     0.049 C 
ENDBRANCH  23  24
ENDBRANCH  17  23
BRANCH  19  26
ATOM     26  O   UNL A   1      29.853  30.317  23.487  1.00  0.00    -0.493 OA
ATOM     27  C   UNL A   1      28.953  30.062  22.422  1.00  0.00     0.278 C 
ENDBRANCH  19  26
ENDBRANCH  15  16
ENDBRANCH  13  15
ENDBRANCH   7  13
ENDBRANCH   3   6
ENDBRANCH   1   2
BRANCH   1  28
ATOM     28  C   UNL A   1      37.567  23.277  26.072  1.00  0.00     0.042 C 
BRANCH  28  29
ATOM     29  C   UNL A   1      38.481  22.281  25.388  1.00  0.00     0.118 C 
BRANCH  29  30
ATOM     30  N   UNL A   1      39.744  22.107  26.083  1.00  0.00    -0.352 N 
ATOM     31  C   UNL A   1      40.592  23.054  26.616  1.00  0.00     0.251 C 
ATOM     32  H   UNL A   1      40.038  21.173  26.189  1.00  0.00     0.163 HD
ATOM     33  O   UNL A   1      41.715  22.695  26.970  1.00  0.00    -0.269 OA
BRANCH  31  34
ATOM     34  C   UNL A   1      40.097  24.422  26.905  1.00  0.00     0.039 A 
ATOM     35  C   UNL A   1      40.656  25.472  26.164  1.00  0.00     0.014 A 
ATOM     36  C   UNL A   1      39.327  24.704  28.030  1.00  0.00     0.014 A 
ATOM     37  C   UNL A   1      40.696  26.753  26.705  1.00  0.00     0.010 A 
ATOM     38  C   UNL A   1      39.437  25.945  28.611  1.00  0.00     0.010 A 
ATOM     39  C   UNL A   1      40.202  26.936  27.988  1.00  0.00    -0.014 A 
BRANCH  39  40
ATOM     40  C   UNL A   1      40.474  28.084  28.831  1.00  0.00     0.031 A 
ATOM     41  C   UNL A   1      39.614  29.272  28.761  1.00  0.00     0.074 A 
ATOM     42  C   UNL A   1      41.314  27.900  29.873  1.00  0.00     0.049 A 
ATOM     43  N   UNL A   1      39.831  30.351  29.427  1.00  0.00    -0.248 NA
ATOM     44  C   UNL A   1      38.449  29.344  27.890  1.00  0.00     0.031 C 
ATOM     45  C   UNL A   1      41.353  28.640  31.127  1.00  0.00     0.029 A 
ATOM     46  N   UNL A   1      42.462  27.102  29.913  1.00  0.00    -0.354 N 
ATOM     47  C   UNL A   1      38.686  31.108  29.348  1.00  0.00     0.074 A 
ATOM     48  C   UNL A   1      37.939  30.522  28.264  1.00  0.00     0.031 C 
ATOM     49  C   UNL A   1      42.567  28.487  31.678  1.00  0.00     0.029 A 
ATOM     50  C   UNL A   1      43.394  27.818  30.689  1.00  0.00     0.049 A 
ATOM     51  H   UNL A   1      42.593  26.225  29.487  1.00  0.00     0.167 HD
ATOM     52  C   UNL A   1      38.459  32.028  30.329  1.00  0.00     0.034 A 
ATOM     53  C   UNL A   1      44.565  28.308  30.182  1.00  0.00     0.034 A 
ATOM     54  C   UNL A   1      39.670  32.228  31.153  1.00  0.00     0.049 A 
ATOM     55  C   UNL A   1      44.686  29.826  30.282  1.00  0.00     0.074 A 
ATOM     56  C   UNL A   1      40.064  31.888  32.436  1.00  0.00     0.029 A 
ATOM     57  N   UNL A   1      40.820  32.671  30.517  1.00  0.00    -0.354 N 
ATOM     58  N   UNL A   1      43.831  30.618  30.872  1.00  0.00    -0.248 NA
ATOM     59  C   UNL A   1      45.752  30.571  29.612  1.00  0.00     0.031 C 
ATOM     60  C   UNL A   1      41.477  32.096  32.540  1.00  0.00     0.029 A 
ATOM     61  C   UNL A   1      41.936  32.594  31.333  1.00  0.00     0.049 A 
ATOM     62  H   UNL A   1      40.841  33.003  29.591  1.00  0.00     0.167 HD
ATOM     63  C   UNL A   1      44.088  31.918  30.507  1.00  0.00     0.074 A 
ATOM     64  C   UNL A   1      45.331  31.838  29.757  1.00  0.00     0.031 C 
ATOM     65  C   UNL A   1      43.230  32.958  30.762  1.00  0.00     0.034 A 
BRANCH  52  66
ATOM     66  C   UNL A   1      37.103  32.620  30.703  1.00  0.00     0.023 A 
ATOM     67  C   UNL A   1      36.616  32.341  32.001  1.00  0.00     0.012 A 
ATOM     68  C   UNL A   1      36.216  33.345  29.867  1.00  0.00     0.148 A 
ATOM     69  C   UNL A   1      35.326  32.696  32.421  1.00  0.00     0.002 A 
ATOM     70  C   UNL A   1      34.930  33.704  30.281  1.00  0.00     0.091 A 
ATOM     71  F   UNL A   1      36.581  33.699  28.639  1.00  0.00    -0.205 F 
ATOM     72  C   UNL A   1      34.477  33.370  31.557  1.00  0.00     0.022 A 
BRANCH  70  73
ATOM     73  S   UNL A   1      33.768  34.568  29.202  1.00  0.00     0.127 S 
ATOM     74  O   UNL A   1      33.431  33.531  28.225  1.00  0.00    -0.237 OA
ATOM     75  O   UNL A   1      32.684  34.910  30.122  1.00  0.00    -0.237 OA
ATOM     76  O   UNL A   1      34.481  35.710  28.645  1.00  0.00    -0.744 OA
ENDBRANCH  70  73
ENDBRANCH  52  66
BRANCH  53  77
ATOM     77  C   UNL A   1      45.100  27.484  29.054  1.00  0.00     0.023 A 
ATOM     78  C   UNL A   1      44.636  27.789  27.752  1.00  0.00     0.012 A 
ATOM     79  C   UNL A   1      46.291  26.751  29.195  1.00  0.00     0.148 A 
ATOM     80  C   UNL A   1      45.413  27.494  26.630  1.00  0.00     0.002 A 
ATOM     81  C   UNL A   1      47.058  26.457  28.070  1.00  0.00     0.091 A 
ATOM     82  F   UNL A   1      46.708  26.431  30.426  1.00  0.00    -0.205 F 
ATOM     83  C   UNL A   1      46.640  26.862  26.792  1.00  0.00     0.022 A 
BRANCH  81  84
ATOM     84  S   UNL A   1      48.671  25.679  28.224  1.00  0.00     0.127 S 
ATOM     85  O   UNL A   1      48.775  25.510  29.669  1.00  0.00    -0.237 OA
ATOM     86  O   UNL A   1      48.495  24.439  27.466  1.00  0.00    -0.237 OA
ATOM     87  O   UNL A   1      49.597  26.620  27.612  1.00  0.00    -0.744 OA
ENDBRANCH  81  84
ENDBRANCH  53  77
BRANCH  65  88
ATOM     88  C   UNL A   1      43.539  34.411  30.420  1.00  0.00     0.023 A 
ATOM     89  C   UNL A   1      43.638  35.385  31.436  1.00  0.00     0.012 A 
ATOM     90  C   UNL A   1      43.621  34.890  29.084  1.00  0.00     0.148 A 
ATOM     91  C   UNL A   1      43.912  36.729  31.156  1.00  0.00     0.002 A 
ATOM     92  C   UNL A   1      43.817  36.240  28.805  1.00  0.00     0.091 A 
ATOM     93  F   UNL A   1      43.520  34.037  28.061  1.00  0.00    -0.205 F 
ATOM     94  C   UNL A   1      44.000  37.158  29.840  1.00  0.00     0.022 A 
BRANCH  92  95
ATOM     95  S   UNL A   1      43.765  36.906  27.132  1.00  0.00     0.127 S 
ATOM     96  O   UNL A   1      42.486  36.385  26.649  1.00  0.00    -0.237 OA
ATOM     97  O   UNL A   1      43.780  38.347  27.384  1.00  0.00    -0.237 OA
ATOM     98  O   UNL A   1      44.935  36.383  26.444  1.00  0.00    -0.744 OA
ENDBRANCH  92  95
ENDBRANCH  65  88
ENDBRANCH  39  40
ENDBRANCH  31  34
ENDBRANCH  29  30
ENDBRANCH  28  29
ENDBRANCH   1  28
TORSDOF 19
ENDMDL
MODEL 2
REMARK VINA RESULT:     -11.6      5.303     10.654
REMARK SMILES CCOc1c(Br)cc(CNc2cccc(C(=O)NCCCNC(=O)c3ccc(-c4c5nc(c(-c6cccc(S(=O)(=O)[O-])c6F)c6ccc([nH]6)c(-c6cccc(S(=O)(=O)[O-])c6F)c6nc(c(-c7cccc(S(=O)(=O)[O-])c7F)c7ccc4[nH]7)C=C6)C=C5)cc3)c2C)cc1OC
REMARK SMILES IDX 19 1 18 2 16 3 17 4 15 6 11 7 12 8 88 9 13 10 89 11 14 12
REMARK SMILES IDX 10 13 9 15 8 16 4 17 5 18 91 19 6 20 7 21 90 22 3 23 2 24
REMARK SMILES IDX 1 25 92 26 93 27 20 28 21 29 22 30 23 31 24 33 25 34 26 35
REMARK SMILES IDX 87 36 27 37 86 38 28 39 29 40 30 41 80 42 31 43 85 44 79 45
REMARK SMILES IDX 81 46 32 47 84 48 78 49 77 50 33 52 65 53 45 54 64 55 46 56
REMARK SMILES IDX 49 57 63 58 82 59 47 60 48 61 62 63 83 64 50 65 34 66 35 67
REMARK SMILES IDX 43 68 36 69 38 70 44 71 37 72 39 73 40 74 41 75 42 76 66 77
REMARK SMILES IDX 67 78 75 79 68 80 70 81 76 82 69 83 71 84 72 85 73 86 74 87
REMARK SMILES IDX 51 88 52 89 60 90 53 91 55 92 61 93 54 94 56 95 57 96 58 97
REMARK SMILES IDX 59 98
REMARK H PARENT 18 5 10 14 22 32 81 51 49 62
REMARK Flexibility Score: inf
ROOT
ATOM      1  C   UNL A   1      37.473  23.820  25.811  1.00  0.00     0.118 C 
ENDROOT
BRANCH   1   2
ATOM      2  N   UNL A   1      37.316  23.576  24.388  1.00  0.00    -0.352 N 
ATOM      3  C   UNL A   1      36.307  23.063  23.604  1.00  0.00     0.251 C 
ATOM      4  O   UNL A   1      36.629  22.854  22.434  1.00  0.00    -0.269 OA
ATOM      5  H   UNL A   1      38.110  23.834  23.867  1.00  0.00     0.163 HD
BRANCH   3   6
ATOM      6  C   UNL A   1      34.907  22.738  24.079  1.00  0.00     0.044 A 
ATOM      7  C   UNL A   1      32.504  23.255  24.318  1.00  0.00     0.038 A 
ATOM      8  C   UNL A   1      32.296  21.994  24.888  1.00  0.00     0.026 A 
ATOM      9  C   UNL A   1      33.817  23.640  23.901  1.00  0.00    -0.015 A 
ATOM     10  C   UNL A   1      33.344  21.117  25.063  1.00  0.00     0.003 A 
ATOM     11  C   UNL A   1      33.957  25.026  23.305  1.00  0.00     0.047 C 
ATOM     12  C   UNL A   1      34.622  21.495  24.667  1.00  0.00     0.014 A 
BRANCH   7  13
ATOM     13  N   UNL A   1      31.432  24.139  24.231  1.00  0.00    -0.381 N 
ATOM     14  H   UNL A   1      31.040  24.339  23.351  1.00  0.00     0.160 HD
BRANCH  13  15
ATOM     15  C   UNL A   1      30.886  24.771  25.416  1.00  0.00     0.149 C 
BRANCH  15  16
ATOM     16  C   UNL A   1      31.164  26.251  25.354  1.00  0.00    -0.024 A 
ATOM     17  C   UNL A   1      31.613  29.037  25.292  1.00  0.00     0.175 A 
ATOM     18  C   UNL A   1      30.873  28.404  24.277  1.00  0.00     0.064 A 
ATOM     19  C   UNL A   1      32.198  28.255  26.302  1.00  0.00     0.162 A 
ATOM     20  Br  UNL A   1      30.203  29.342  22.766  1.00  0.00    -0.047 Br
ATOM     21  C   UNL A   1      30.629  27.030  24.323  1.00  0.00     0.025 A 
ATOM     22  C   UNL A   1      31.949  26.874  26.328  1.00  0.00     0.056 A 
BRANCH  17  23
ATOM     23  O   UNL A   1      31.788  30.396  25.222  1.00  0.00    -0.489 OA
BRANCH  23  24
ATOM     24  C   UNL A   1      31.052  31.094  26.240  1.00  0.00     0.226 C 
ATOM     25  C   UNL A   1      31.914  32.138  26.926  1.00  0.00     0.049 C 
ENDBRANCH  23  24
ENDBRANCH  17  23
BRANCH  19  26
ATOM     26  O   UNL A   1      33.007  28.642  27.335  1.00  0.00    -0.493 OA
ATOM     27  C   UNL A   1      34.363  28.957  27.066  1.00  0.00     0.278 C 
ENDBRANCH  19  26
ENDBRANCH  15  16
ENDBRANCH  13  15
ENDBRANCH   7  13
ENDBRANCH   3   6
ENDBRANCH   1   2
BRANCH   1  28
ATOM     28  C   UNL A   1      38.940  24.072  26.163  1.00  0.00     0.042 C 
BRANCH  28  29
ATOM     29  C   UNL A   1      39.203  24.156  27.652  1.00  0.00     0.118 C 
BRANCH  29  30
ATOM     30  N   UNL A   1      39.215  25.522  28.145  1.00  0.00    -0.352 N 
ATOM     31  C   UNL A   1      40.273  26.287  28.589  1.00  0.00     0.251 C 
ATOM     32  H   UNL A   1      38.337  25.968  28.166  1.00  0.00     0.163 HD
ATOM     33  O   UNL A   1      40.023  27.345  29.165  1.00  0.00    -0.269 OA
BRANCH  31  34
ATOM     34  C   UNL A   1      41.665  25.918  28.228  1.00  0.00     0.039 A 
ATOM     35  C   UNL A   1      42.152  24.703  28.728  1.00  0.00     0.014 A 
ATOM     36  C   UNL A   1      42.545  26.835  27.661  1.00  0.00     0.014 A 
ATOM     37  C   UNL A   1      43.518  24.539  28.930  1.00  0.00     0.010 A 
ATOM     38  C   UNL A   1      43.887  26.718  27.935  1.00  0.00     0.010 A 
ATOM     39  C   UNL A   1      44.353  25.612  28.653  1.00  0.00    -0.014 A 
BRANCH  39  40
ATOM     40  C   UNL A   1      45.718  25.749  29.122  1.00  0.00     0.031 A 
ATOM     41  C   UNL A   1      46.831  25.236  28.313  1.00  0.00     0.074 A 
ATOM     42  C   UNL A   1      45.940  26.622  30.129  1.00  0.00     0.049 A 
ATOM     43  N   UNL A   1      48.061  25.262  28.693  1.00  0.00    -0.248 NA
ATOM     44  C   UNL A   1      46.632  24.612  27.013  1.00  0.00     0.031 C 
ATOM     45  C   UNL A   1      47.169  27.344  30.427  1.00  0.00     0.029 A 
ATOM     46  N   UNL A   1      45.118  26.879  31.231  1.00  0.00    -0.354 N 
ATOM     47  C   UNL A   1      48.828  24.989  27.585  1.00  0.00     0.074 A 
ATOM     48  C   UNL A   1      47.900  24.439  26.629  1.00  0.00     0.031 C 
ATOM     49  C   UNL A   1      47.143  27.724  31.714  1.00  0.00     0.029 A 
ATOM     50  C   UNL A   1      45.993  27.075  32.318  1.00  0.00     0.049 A 
ATOM     51  H   UNL A   1      44.135  26.915  31.245  1.00  0.00     0.167 HD
ATOM     52  C   UNL A   1      50.120  25.427  27.579  1.00  0.00     0.034 A 
ATOM     53  C   UNL A   1      46.039  26.236  33.396  1.00  0.00     0.034 A 
ATOM     54  C   UNL A   1      50.530  25.873  28.928  1.00  0.00     0.049 A 
ATOM     55  C   UNL A   1      47.399  25.574  33.597  1.00  0.00     0.074 A 
ATOM     56  C   UNL A   1      50.784  27.091  29.535  1.00  0.00     0.029 A 
ATOM     57  N   UNL A   1      50.478  24.948  29.960  1.00  0.00    -0.354 N 
ATOM     58  N   UNL A   1      48.474  25.822  32.897  1.00  0.00    -0.248 NA
ATOM     59  C   UNL A   1      47.606  24.485  34.552  1.00  0.00     0.031 C 
ATOM     60  C   UNL A   1      50.839  26.883  30.951  1.00  0.00     0.029 A 
ATOM     61  C   UNL A   1      50.654  25.534  31.201  1.00  0.00     0.049 A 
ATOM     62  H   UNL A   1      50.333  23.984  29.825  1.00  0.00     0.167 HD
ATOM     63  C   UNL A   1      49.409  24.844  33.137  1.00  0.00     0.074 A 
ATOM     64  C   UNL A   1      48.834  24.059  34.218  1.00  0.00     0.031 C 
ATOM     65  C   UNL A   1      50.545  24.683  32.384  1.00  0.00     0.034 A 
BRANCH  52  66
ATOM     66  C   UNL A   1      50.981  25.654  26.340  1.00  0.00     0.023 A 
ATOM     67  C   UNL A   1      52.263  25.057  26.330  1.00  0.00     0.012 A 
ATOM     68  C   UNL A   1      50.690  26.481  25.225  1.00  0.00     0.148 A 
ATOM     69  C   UNL A   1      53.209  25.306  25.326  1.00  0.00     0.002 A 
ATOM     70  C   UNL A   1      51.628  26.730  24.219  1.00  0.00     0.091 A 
ATOM     71  F   UNL A   1      49.501  27.062  25.106  1.00  0.00    -0.205 F 
ATOM     72  C   UNL A   1      52.897  26.152  24.273  1.00  0.00     0.022 A 
BRANCH  70  73
ATOM     73  S   UNL A   1      51.293  27.833  22.829  1.00  0.00     0.127 S 
ATOM     74  O   UNL A   1      51.106  29.120  23.500  1.00  0.00    -0.237 OA
ATOM     75  O   UNL A   1      52.522  27.729  22.045  1.00  0.00    -0.237 OA
ATOM     76  O   UNL A   1      50.100  27.321  22.166  1.00  0.00    -0.744 OA
ENDBRANCH  70  73
ENDBRANCH  52  66
BRANCH  53  77
ATOM     77  C   UNL A   1      44.724  25.582  33.681  1.00  0.00     0.023 A 
ATOM     78  C   UNL A   1      44.591  24.216  33.334  1.00  0.00     0.012 A 
ATOM     79  C   UNL A   1      43.828  26.136  34.612  1.00  0.00     0.148 A 
ATOM     80  C   UNL A   1      43.680  23.396  34.003  1.00  0.00     0.002 A 
ATOM     81  C   UNL A   1      42.919  25.311  35.270  1.00  0.00     0.091 A 
ATOM     82  F   UNL A   1      43.932  27.437  34.910  1.00  0.00    -0.205 F 
ATOM     83  C   UNL A   1      42.871  23.935  34.996  1.00  0.00     0.022 A 
BRANCH  81  84
ATOM     84  S   UNL A   1      41.879  25.945  36.592  1.00  0.00     0.127 S 
ATOM     85  O   UNL A   1      41.198  27.048  35.923  1.00  0.00    -0.237 OA
ATOM     86  O   UNL A   1      41.032  24.794  36.905  1.00  0.00    -0.237 OA
ATOM     87  O   UNL A   1      42.806  26.305  37.654  1.00  0.00    -0.744 OA
ENDBRANCH  81  84
ENDBRANCH  53  77
BRANCH  65  88
ATOM     88  C   UNL A   1      51.619  23.644  32.685  1.00  0.00     0.023 A 
ATOM     89  C   UNL A   1      51.368  22.270  32.483  1.00  0.00     0.012 A 
ATOM     90  C   UNL A   1      52.863  23.971  33.290  1.00  0.00     0.148 A 
ATOM     91  C   UNL A   1      52.329  21.289  32.757  1.00  0.00     0.002 A 
ATOM     92  C   UNL A   1      53.787  22.987  33.632  1.00  0.00     0.091 A 
ATOM     93  F   UNL A   1      53.174  25.247  33.531  1.00  0.00    -0.205 F 
ATOM     94  C   UNL A   1      53.538  21.647  33.334  1.00  0.00     0.022 A 
BRANCH  92  95
ATOM     95  S   UNL A   1      55.299  23.347  34.543  1.00  0.00     0.127 S 
ATOM     96  O   UNL A   1      55.581  22.052  35.165  1.00  0.00    -0.237 OA
ATOM     97  O   UNL A   1      56.216  23.717  33.465  1.00  0.00    -0.237 OA
ATOM     98  O   UNL A   1      54.974  24.414  35.477  1.00  0.00    -0.744 OA
ENDBRANCH  92  95
ENDBRANCH  65  88
ENDBRANCH  39  40
ENDBRANCH  31  34
ENDBRANCH  29  30
ENDBRANCH  28  29
ENDBRANCH   1  28
TORSDOF 19
ENDMDL
MODEL 3
REMARK VINA RESULT:     -11.5      4.856      8.441
REMARK SMILES CCOc1c(Br)cc(CNc2cccc(C(=O)NCCCNC(=O)c3ccc(-c4c5nc(c(-c6cccc(S(=O)(=O)[O-])c6F)c6ccc([nH]6)c(-c6cccc(S(=O)(=O)[O-])c6F)c6nc(c(-c7cccc(S(=O)(=O)[O-])c7F)c7ccc4[nH]7)C=C6)C=C5)cc3)c2C)cc1OC
REMARK SMILES IDX 19 1 18 2 16 3 17 4 15 6 11 7 12 8 88 9 13 10 89 11 14 12
REMARK SMILES IDX 10 13 9 15 8 16 4 17 5 18 91 19 6 20 7 21 90 22 3 23 2 24
REMARK SMILES IDX 1 25 92 26 93 27 20 28 21 29 22 30 23 31 24 33 25 34 26 35
REMARK SMILES IDX 87 36 27 37 86 38 28 39 29 40 30 41 80 42 31 43 85 44 79 45
REMARK SMILES IDX 81 46 32 47 84 48 78 49 77 50 33 52 65 53 45 54 64 55 46 56
REMARK SMILES IDX 49 57 63 58 82 59 47 60 48 61 62 63 83 64 50 65 34 66 35 67
REMARK SMILES IDX 43 68 36 69 38 70 44 71 37 72 39 73 40 74 41 75 42 76 66 77
REMARK SMILES IDX 67 78 75 79 68 80 70 81 76 82 69 83 71 84 72 85 73 86 74 87
REMARK SMILES IDX 51 88 52 89 60 90 53 91 55 92 61 93 54 94 56 95 57 96 58 97
REMARK SMILES IDX 59 98
REMARK H PARENT 18 5 10 14 22 32 81 51 49 62
REMARK Flexibility Score: inf
ROOT
ATOM      1  C   UNL A   1      42.122  27.079  29.536  1.00  0.00     0.118 C 
ENDROOT
BRANCH   1   2
ATOM      2  N   UNL A   1      42.723  26.895  28.226  1.00  0.00    -0.352 N 
ATOM      3  C   UNL A   1      42.832  25.833  27.357  1.00  0.00     0.251 C 
ATOM      4  O   UNL A   1      43.580  26.035  26.399  1.00  0.00    -0.269 OA
ATOM      5  H   UNL A   1      43.147  27.714  27.883  1.00  0.00     0.163 HD
BRANCH   3   6
ATOM      6  C   UNL A   1      42.141  24.495  27.516  1.00  0.00     0.044 A 
ATOM      7  C   UNL A   1      40.225  22.972  27.190  1.00  0.00     0.038 A 
ATOM      8  C   UNL A   1      40.972  21.925  27.742  1.00  0.00     0.026 A 
ATOM      9  C   UNL A   1      40.806  24.273  27.066  1.00  0.00    -0.015 A 
ATOM     10  C   UNL A   1      42.263  22.132  28.178  1.00  0.00     0.003 A 
ATOM     11  C   UNL A   1      39.926  25.352  26.470  1.00  0.00     0.047 C 
ATOM     12  C   UNL A   1      42.824  23.399  28.066  1.00  0.00     0.014 A 
BRANCH   7  13
ATOM     13  N   UNL A   1      38.900  22.738  26.834  1.00  0.00    -0.381 N 
ATOM     14  H   UNL A   1      38.179  23.200  27.318  1.00  0.00     0.160 HD
BRANCH  13  15
ATOM     15  C   UNL A   1      38.565  21.824  25.760  1.00  0.00     0.149 C 
BRANCH  15  16
ATOM     16  C   UNL A   1      37.088  21.925  25.473  1.00  0.00    -0.024 A 
ATOM     17  C   UNL A   1      34.343  22.120  24.849  1.00  0.00     0.175 A 
ATOM     18  C   UNL A   1      35.083  23.262  25.205  1.00  0.00     0.064 A 
ATOM     19  C   UNL A   1      34.966  20.862  24.883  1.00  0.00     0.162 A 
ATOM     20  Br  UNL A   1      34.290  24.981  25.376  1.00  0.00    -0.047 Br
ATOM     21  C   UNL A   1      36.447  23.168  25.488  1.00  0.00     0.025 A 
ATOM     22  C   UNL A   1      36.336  20.785  25.178  1.00  0.00     0.056 A 
BRANCH  17  23
ATOM     23  O   UNL A   1      33.015  22.273  24.539  1.00  0.00    -0.489 OA
BRANCH  23  24
ATOM     24  C   UNL A   1      32.153  21.856  25.610  1.00  0.00     0.226 C 
ATOM     25  C   UNL A   1      31.096  22.904  25.908  1.00  0.00     0.049 C 
ENDBRANCH  23  24
ENDBRANCH  17  23
BRANCH  19  26
ATOM     26  O   UNL A   1      34.430  19.625  24.649  1.00  0.00    -0.493 OA
ATOM     27  C   UNL A   1      35.288  18.496  24.626  1.00  0.00     0.278 C 
ENDBRANCH  19  26
ENDBRANCH  15  16
ENDBRANCH  13  15
ENDBRANCH   7  13
ENDBRANCH   3   6
ENDBRANCH   1   2
BRANCH   1  28
ATOM     28  C   UNL A   1      40.700  27.629  29.412  1.00  0.00     0.042 C 
BRANCH  28  29
ATOM     29  C   UNL A   1      40.637  29.028  28.834  1.00  0.00     0.118 C 
BRANCH  29  30
ATOM     30  N   UNL A   1      39.459  29.245  28.014  1.00  0.00    -0.352 N 
ATOM     31  C   UNL A   1      38.284  29.899  28.318  1.00  0.00     0.251 C 
ATOM     32  H   UNL A   1      39.507  28.869  27.104  1.00  0.00     0.163 HD
ATOM     33  O   UNL A   1      37.334  29.776  27.546  1.00  0.00    -0.269 OA
BRANCH  31  34
ATOM     34  C   UNL A   1      38.232  30.852  29.454  1.00  0.00     0.039 A 
ATOM     35  C   UNL A   1      38.159  32.216  29.138  1.00  0.00     0.014 A 
ATOM     36  C   UNL A   1      38.516  30.459  30.758  1.00  0.00     0.014 A 
ATOM     37  C   UNL A   1      38.655  33.158  30.033  1.00  0.00     0.010 A 
ATOM     38  C   UNL A   1      39.087  31.372  31.613  1.00  0.00     0.010 A 
ATOM     39  C   UNL A   1      39.239  32.701  31.206  1.00  0.00    -0.014 A 
BRANCH  39  40
ATOM     40  C   UNL A   1      40.103  33.485  32.067  1.00  0.00     0.031 A 
ATOM     41  C   UNL A   1      39.540  34.222  33.205  1.00  0.00     0.074 A 
ATOM     42  C   UNL A   1      41.432  33.254  31.983  1.00  0.00     0.049 A 
ATOM     43  N   UNL A   1      40.232  34.989  33.972  1.00  0.00    -0.248 NA
ATOM     44  C   UNL A   1      38.124  34.177  33.543  1.00  0.00     0.031 C 
ATOM     45  C   UNL A   1      42.438  33.453  33.017  1.00  0.00     0.029 A 
ATOM     46  N   UNL A   1      42.177  32.967  30.834  1.00  0.00    -0.354 N 
ATOM     47  C   UNL A   1      39.458  35.256  35.076  1.00  0.00     0.074 A 
ATOM     48  C   UNL A   1      38.125  34.872  34.685  1.00  0.00     0.031 C 
ATOM     49  C   UNL A   1      43.641  33.561  32.431  1.00  0.00     0.029 A 
ATOM     50  C   UNL A   1      43.403  33.640  31.001  1.00  0.00     0.049 A 
ATOM     51  H   UNL A   1      41.902  32.412  30.069  1.00  0.00     0.167 HD
ATOM     52  C   UNL A   1      40.092  35.613  36.230  1.00  0.00     0.034 A 
ATOM     53  C   UNL A   1      43.804  34.666  30.192  1.00  0.00     0.034 A 
ATOM     54  C   UNL A   1      41.514  35.926  35.974  1.00  0.00     0.049 A 
ATOM     55  C   UNL A   1      44.025  35.980  30.936  1.00  0.00     0.074 A 
ATOM     56  C   UNL A   1      42.727  35.313  36.239  1.00  0.00     0.029 A 
ATOM     57  N   UNL A   1      41.802  36.950  35.085  1.00  0.00    -0.354 N 
ATOM     58  N   UNL A   1      43.947  36.141  32.230  1.00  0.00    -0.248 NA
ATOM     59  C   UNL A   1      44.245  37.247  30.238  1.00  0.00     0.031 C 
ATOM     60  C   UNL A   1      43.737  35.964  35.459  1.00  0.00     0.029 A 
ATOM     61  C   UNL A   1      43.144  36.993  34.748  1.00  0.00     0.049 A 
ATOM     62  H   UNL A   1      41.129  37.576  34.734  1.00  0.00     0.167 HD
ATOM     63  C   UNL A   1      43.894  37.484  32.519  1.00  0.00     0.074 A 
ATOM     64  C   UNL A   1      44.134  38.133  31.240  1.00  0.00     0.031 C 
ATOM     65  C   UNL A   1      43.572  37.978  33.758  1.00  0.00     0.034 A 
BRANCH  52  66
ATOM     66  C   UNL A   1      39.515  35.500  37.639  1.00  0.00     0.023 A 
ATOM     67  C   UNL A   1      39.651  36.627  38.481  1.00  0.00     0.012 A 
ATOM     68  C   UNL A   1      38.939  34.356  38.247  1.00  0.00     0.148 A 
ATOM     69  C   UNL A   1      39.301  36.608  39.838  1.00  0.00     0.002 A 
ATOM     70  C   UNL A   1      38.585  34.331  39.600  1.00  0.00     0.091 A 
ATOM     71  F   UNL A   1      38.725  33.250  37.542  1.00  0.00    -0.205 F 
ATOM     72  C   UNL A   1      38.777  35.456  40.403  1.00  0.00     0.022 A 
BRANCH  70  73
ATOM     73  S   UNL A   1      37.913  32.861  40.402  1.00  0.00     0.127 S 
ATOM     74  O   UNL A   1      39.061  31.953  40.385  1.00  0.00    -0.237 OA
ATOM     75  O   UNL A   1      37.556  33.364  41.727  1.00  0.00    -0.237 OA
ATOM     76  O   UNL A   1      36.784  32.419  39.591  1.00  0.00    -0.744 OA
ENDBRANCH  70  73
ENDBRANCH  52  66
BRANCH  53  77
ATOM     77  C   UNL A   1      43.264  34.556  28.801  1.00  0.00     0.023 A 
ATOM     78  C   UNL A   1      42.186  35.405  28.456  1.00  0.00     0.012 A 
ATOM     79  C   UNL A   1      44.028  33.976  27.773  1.00  0.00     0.148 A 
ATOM     80  C   UNL A   1      41.967  35.775  27.127  1.00  0.00     0.002 A 
ATOM     81  C   UNL A   1      43.799  34.347  26.450  1.00  0.00     0.091 A 
ATOM     82  F   UNL A   1      45.023  33.143  28.100  1.00  0.00    -0.205 F 
ATOM     83  C   UNL A   1      42.796  35.276  26.130  1.00  0.00     0.022 A 
BRANCH  81  84
ATOM     84  S   UNL A   1      44.866  33.767  25.125  1.00  0.00     0.127 S 
ATOM     85  O   UNL A   1      44.871  32.328  25.365  1.00  0.00    -0.237 OA
ATOM     86  O   UNL A   1      44.139  34.192  23.928  1.00  0.00    -0.237 OA
ATOM     87  O   UNL A   1      46.127  34.463  25.331  1.00  0.00    -0.744 OA
ENDBRANCH  81  84
ENDBRANCH  53  77
BRANCH  65  88
ATOM     88  C   UNL A   1      43.577  39.463  34.103  1.00  0.00     0.023 A 
ATOM     89  C   UNL A   1      42.763  40.370  33.392  1.00  0.00     0.012 A 
ATOM     90  C   UNL A   1      44.469  40.032  35.051  1.00  0.00     0.148 A 
ATOM     91  C   UNL A   1      42.749  41.740  33.679  1.00  0.00     0.002 A 
ATOM     92  C   UNL A   1      44.510  41.405  35.281  1.00  0.00     0.091 A 
ATOM     93  F   UNL A   1      45.287  39.246  35.756  1.00  0.00    -0.205 F 
ATOM     94  C   UNL A   1      43.624  42.259  34.621  1.00  0.00     0.022 A 
BRANCH  92  95
ATOM     95  S   UNL A   1      45.733  42.178  36.353  1.00  0.00     0.127 S 
ATOM     96  O   UNL A   1      46.972  41.916  35.620  1.00  0.00    -0.237 OA
ATOM     97  O   UNL A   1      45.302  43.576  36.339  1.00  0.00    -0.237 OA
ATOM     98  O   UNL A   1      45.634  41.509  37.641  1.00  0.00    -0.744 OA
ENDBRANCH  92  95
ENDBRANCH  65  88
ENDBRANCH  39  40
ENDBRANCH  31  34
ENDBRANCH  29  30
ENDBRANCH  28  29
ENDBRANCH   1  28
TORSDOF 19
ENDMDL
