MODEL 1
REMARK VINA RESULT:     -12.4      0.000      0.000
REMARK SMILES O=C(CN1C(=O)c2ccccc2C1=O)Nc1c(Br)cc(Br)cc1C(=O)NCCCNC(=O)c1ccc(-c2c3nc(c(-c4cccc(S(=O)(=O)[O-])c4F)c4ccc([nH]4)c(-c4cccc(S(=O)(=O)[O-])c4F)c4nc(c(-c5cccc(S(=O)(=O)[O-])c5F)c5ccc2[nH]5)C=C4)C=C3)cc1
REMARK SMILES IDX 28 1 27 2 26 3 24 4 25 5 23 7 16 8 17 9 18 10 19 11 22 12
REMARK SMILES IDX 20 13 21 14 15 15 1 16 2 17 3 19 4 20 5 21 13 22 6 23 7 24
REMARK SMILES IDX 12 25 14 26 8 27 11 28 9 29 10 30 29 31 30 32 31 33 32 35
REMARK SMILES IDX 33 36 34 37 95 38 35 39 94 40 36 41 37 42 38 43 88 44 39 45
REMARK SMILES IDX 93 46 87 47 89 48 40 49 92 50 86 51 85 52 41 54 73 55 53 56
REMARK SMILES IDX 72 57 54 58 57 59 71 60 90 61 55 62 56 63 70 65 91 66 58 67
REMARK SMILES IDX 42 68 43 69 51 70 44 71 46 72 52 73 45 74 47 75 48 76 49 77
REMARK SMILES IDX 50 78 74 79 75 80 83 81 76 82 78 83 84 84 77 85 79 86 80 87
REMARK SMILES IDX 81 88 82 89 59 90 60 91 68 92 61 93 63 94 69 95 62 96 64 97
REMARK SMILES IDX 65 98 66 99 67 100
REMARK H PARENT 26 6 15 18 30 34 89 53 57 64
REMARK Flexibility Score: inf
ROOT
ATOM      1  C   UNL A   1      34.150  27.786  25.775  1.00  0.00     0.042 C 
ENDROOT
BRANCH   1   2
ATOM      2  C   UNL A   1      34.045  26.268  25.536  1.00  0.00     0.118 C 
BRANCH   2   3
ATOM      3  N   UNL A   1      34.157  25.847  24.152  1.00  0.00    -0.352 N 
ATOM      4  C   UNL A   1      34.405  24.654  23.511  1.00  0.00     0.253 C 
ATOM      5  O   UNL A   1      34.266  24.646  22.284  1.00  0.00    -0.269 OA
ATOM      6  H   UNL A   1      34.021  26.592  23.521  1.00  0.00     0.163 HD
BRANCH   4   7
ATOM      7  C   UNL A   1      34.679  23.355  24.190  1.00  0.00     0.065 A 
ATOM      8  C   UNL A   1      33.745  22.382  24.594  1.00  0.00     0.068 A 
ATOM      9  C   UNL A   1      34.209  21.140  25.073  1.00  0.00     0.043 A 
ATOM     10  Br  UNL A   1      33.006  19.729  25.501  1.00  0.00    -0.048 Br
ATOM     11  C   UNL A   1      35.566  20.927  25.321  1.00  0.00     0.033 A 
ATOM     12  C   UNL A   1      36.045  23.132  24.468  1.00  0.00     0.031 A 
ATOM     13  C   UNL A   1      36.472  21.945  25.059  1.00  0.00     0.020 A 
ATOM     14  Br  UNL A   1      38.294  21.723  25.510  1.00  0.00    -0.051 Br
BRANCH   8  15
ATOM     15  N   UNL A   1      32.368  22.665  24.751  1.00  0.00    -0.323 N 
ATOM     16  O   UNL A   1      32.677  23.501  26.888  1.00  0.00    -0.273 OA
ATOM     17  C   UNL A   1      31.936  23.279  25.932  1.00  0.00     0.244 C 
ATOM     18  H   UNL A   1      31.725  22.435  24.042  1.00  0.00     0.170 HD
BRANCH  17  19
ATOM     19  C   UNL A   1      30.461  23.701  25.919  1.00  0.00     0.229 C 
BRANCH  19  20
ATOM     20  N   UNL A   1      30.311  24.956  25.201  1.00  0.00    -0.265 N 
ATOM     21  C   UNL A   1      30.471  26.171  25.790  1.00  0.00     0.262 C 
ATOM     22  C   UNL A   1      30.408  25.079  23.843  1.00  0.00     0.262 C 
ATOM     23  O   UNL A   1      30.699  26.452  26.947  1.00  0.00    -0.269 OA
ATOM     24  C   UNL A   1      30.501  27.175  24.757  1.00  0.00     0.053 A 
ATOM     25  C   UNL A   1      30.426  26.519  23.548  1.00  0.00     0.053 A 
ATOM     26  O   UNL A   1      30.624  24.204  23.029  1.00  0.00    -0.269 OA
ATOM     27  C   UNL A   1      30.711  28.535  24.886  1.00  0.00     0.015 A 
ATOM     28  C   UNL A   1      30.511  27.225  22.368  1.00  0.00     0.015 A 
ATOM     29  C   UNL A   1      30.822  29.262  23.708  1.00  0.00     0.001 A 
ATOM     30  C   UNL A   1      30.706  28.615  22.459  1.00  0.00     0.001 A 
ENDBRANCH  19  20
ENDBRANCH  17  19
ENDBRANCH   8  15
ENDBRANCH   4   7
ENDBRANCH   2   3
ENDBRANCH   1   2
BRANCH   1  31
ATOM     31  C   UNL A   1      33.447  28.374  27.013  1.00  0.00     0.118 C 
BRANCH  31  32
ATOM     32  N   UNL A   1      33.547  29.828  27.046  1.00  0.00    -0.352 N 
ATOM     33  C   UNL A   1      34.436  30.674  27.672  1.00  0.00     0.251 C 
ATOM     34  H   UNL A   1      32.851  30.291  26.525  1.00  0.00     0.163 HD
ATOM     35  O   UNL A   1      34.129  31.864  27.755  1.00  0.00    -0.269 OA
BRANCH  33  36
ATOM     36  C   UNL A   1      35.745  30.236  28.235  1.00  0.00     0.039 A 
ATOM     37  C   UNL A   1      36.860  30.190  27.384  1.00  0.00     0.014 A 
ATOM     38  C   UNL A   1      35.875  29.708  29.519  1.00  0.00     0.014 A 
ATOM     39  C   UNL A   1      38.091  29.666  27.823  1.00  0.00     0.010 A 
ATOM     40  C   UNL A   1      37.118  29.200  29.953  1.00  0.00     0.010 A 
ATOM     41  C   UNL A   1      38.257  29.183  29.131  1.00  0.00    -0.014 A 
BRANCH  41  42
ATOM     42  C   UNL A   1      39.598  28.705  29.626  1.00  0.00     0.031 A 
ATOM     43  C   UNL A   1      40.352  29.395  30.748  1.00  0.00     0.074 A 
ATOM     44  C   UNL A   1      40.212  27.659  29.023  1.00  0.00     0.049 A 
ATOM     45  N   UNL A   1      41.506  29.075  31.289  1.00  0.00    -0.248 NA
ATOM     46  C   UNL A   1      39.758  30.613  31.314  1.00  0.00     0.031 C 
ATOM     47  C   UNL A   1      39.707  26.952  27.847  1.00  0.00     0.029 A 
ATOM     48  N   UNL A   1      41.402  27.020  29.302  1.00  0.00    -0.354 N 
ATOM     49  C   UNL A   1      41.793  30.066  32.223  1.00  0.00     0.074 A 
ATOM     50  C   UNL A   1      40.706  31.022  32.148  1.00  0.00     0.031 C 
ATOM     51  C   UNL A   1      40.558  25.965  27.523  1.00  0.00     0.029 A 
ATOM     52  C   UNL A   1      41.689  25.978  28.446  1.00  0.00     0.049 A 
ATOM     53  H   UNL A   1      41.992  27.284  30.044  1.00  0.00     0.167 HD
ATOM     54  C   UNL A   1      42.834  30.169  33.090  1.00  0.00     0.034 A 
ATOM     55  C   UNL A   1      42.733  25.122  28.397  1.00  0.00     0.034 A 
ATOM     56  C   UNL A   1      43.889  29.197  33.235  1.00  0.00     0.049 A 
ATOM     57  C   UNL A   1      43.831  25.201  29.423  1.00  0.00     0.074 A 
ATOM     58  C   UNL A   1      44.901  29.164  34.183  1.00  0.00     0.029 A 
ATOM     59  N   UNL A   1      44.082  28.096  32.418  1.00  0.00    -0.354 N 
ATOM     60  N   UNL A   1      43.964  26.031  30.428  1.00  0.00    -0.248 NA
ATOM     61  C   UNL A   1      44.906  24.198  29.332  1.00  0.00     0.031 C 
ATOM     62  C   UNL A   1      45.717  28.057  33.926  1.00  0.00     0.029 A 
ATOM     63  C   UNL A   1      45.201  27.385  32.831  1.00  0.00     0.049 A 
ATOM     64  H   UNL A   1      43.509  27.853  31.655  1.00  0.00     0.167 HD
ATOM     65  C   UNL A   1      45.115  25.630  31.104  1.00  0.00     0.074 A 
ATOM     66  C   UNL A   1      45.628  24.470  30.412  1.00  0.00     0.031 C 
ATOM     67  C   UNL A   1      45.696  26.195  32.191  1.00  0.00     0.034 A 
BRANCH  54  68
ATOM     68  C   UNL A   1      42.858  31.353  34.028  1.00  0.00     0.023 A 
ATOM     69  C   UNL A   1      43.466  32.554  33.608  1.00  0.00     0.012 A 
ATOM     70  C   UNL A   1      42.203  31.313  35.276  1.00  0.00     0.148 A 
ATOM     71  C   UNL A   1      43.458  33.682  34.429  1.00  0.00     0.002 A 
ATOM     72  C   UNL A   1      42.159  32.455  36.069  1.00  0.00     0.091 A 
ATOM     73  F   UNL A   1      41.637  30.162  35.666  1.00  0.00    -0.205 F 
ATOM     74  C   UNL A   1      42.797  33.635  35.653  1.00  0.00     0.022 A 
BRANCH  72  75
ATOM     75  S   UNL A   1      41.259  32.521  37.623  1.00  0.00     0.127 S 
ATOM     76  O   UNL A   1      42.069  31.644  38.468  1.00  0.00    -0.237 OA
ATOM     77  O   UNL A   1      41.339  33.942  37.969  1.00  0.00    -0.237 OA
ATOM     78  O   UNL A   1      39.916  32.045  37.327  1.00  0.00    -0.744 OA
ENDBRANCH  72  75
ENDBRANCH  54  68
BRANCH  55  79
ATOM     79  C   UNL A   1      42.751  24.037  27.369  1.00  0.00     0.023 A 
ATOM     80  C   UNL A   1      43.365  24.280  26.125  1.00  0.00     0.012 A 
ATOM     81  C   UNL A   1      42.185  22.772  27.622  1.00  0.00     0.148 A 
ATOM     82  C   UNL A   1      43.390  23.294  25.138  1.00  0.00     0.002 A 
ATOM     83  C   UNL A   1      42.264  21.776  26.655  1.00  0.00     0.091 A 
ATOM     84  F   UNL A   1      41.589  22.569  28.804  1.00  0.00    -0.205 F 
ATOM     85  C   UNL A   1      42.850  22.040  25.407  1.00  0.00     0.022 A 
BRANCH  83  86
ATOM     86  S   UNL A   1      41.713  20.092  26.951  1.00  0.00     0.127 S 
ATOM     87  O   UNL A   1      41.528  19.595  25.591  1.00  0.00    -0.237 OA
ATOM     88  O   UNL A   1      42.858  19.524  27.664  1.00  0.00    -0.237 OA
ATOM     89  O   UNL A   1      40.502  20.207  27.751  1.00  0.00    -0.744 OA
ENDBRANCH  83  86
ENDBRANCH  55  79
BRANCH  67  90
ATOM     90  C   UNL A   1      46.947  25.555  32.742  1.00  0.00     0.023 A 
ATOM     91  C   UNL A   1      46.856  24.642  33.813  1.00  0.00     0.012 A 
ATOM     92  C   UNL A   1      48.205  25.800  32.155  1.00  0.00     0.148 A 
ATOM     93  C   UNL A   1      47.998  24.012  34.311  1.00  0.00     0.002 A 
ATOM     94  C   UNL A   1      49.332  25.134  32.627  1.00  0.00     0.091 A 
ATOM     95  F   UNL A   1      48.281  26.685  31.150  1.00  0.00    -0.205 F 
ATOM     96  C   UNL A   1      49.232  24.248  33.711  1.00  0.00     0.022 A 
BRANCH  94  97
ATOM     97  S   UNL A   1      50.949  25.306  31.861  1.00  0.00     0.127 S 
ATOM     98  O   UNL A   1      51.769  24.424  32.690  1.00  0.00    -0.237 OA
ATOM     99  O   UNL A   1      50.707  24.815  30.504  1.00  0.00    -0.237 OA
ATOM    100  O   UNL A   1      51.281  26.723  31.939  1.00  0.00    -0.744 OA
ENDBRANCH  94  97
ENDBRANCH  67  90
ENDBRANCH  41  42
ENDBRANCH  33  36
ENDBRANCH  31  32
ENDBRANCH   1  31
TORSDOF 16
ENDMDL
MODEL 2
REMARK VINA RESULT:     -12.2      2.213      4.178
REMARK SMILES O=C(CN1C(=O)c2ccccc2C1=O)Nc1c(Br)cc(Br)cc1C(=O)NCCCNC(=O)c1ccc(-c2c3nc(c(-c4cccc(S(=O)(=O)[O-])c4F)c4ccc([nH]4)c(-c4cccc(S(=O)(=O)[O-])c4F)c4nc(c(-c5cccc(S(=O)(=O)[O-])c5F)c5ccc2[nH]5)C=C4)C=C3)cc1
REMARK SMILES IDX 28 1 27 2 26 3 24 4 25 5 23 7 16 8 17 9 18 10 19 11 22 12
REMARK SMILES IDX 20 13 21 14 15 15 1 16 2 17 3 19 4 20 5 21 13 22 6 23 7 24
REMARK SMILES IDX 12 25 14 26 8 27 11 28 9 29 10 30 29 31 30 32 31 33 32 35
REMARK SMILES IDX 33 36 34 37 95 38 35 39 94 40 36 41 37 42 38 43 88 44 39 45
REMARK SMILES IDX 93 46 87 47 89 48 40 49 92 50 86 51 85 52 41 54 73 55 53 56
REMARK SMILES IDX 72 57 54 58 57 59 71 60 90 61 55 62 56 63 70 65 91 66 58 67
REMARK SMILES IDX 42 68 43 69 51 70 44 71 46 72 52 73 45 74 47 75 48 76 49 77
REMARK SMILES IDX 50 78 74 79 75 80 83 81 76 82 78 83 84 84 77 85 79 86 80 87
REMARK SMILES IDX 81 88 82 89 59 90 60 91 68 92 61 93 63 94 69 95 62 96 64 97
REMARK SMILES IDX 65 98 66 99 67 100
REMARK H PARENT 26 6 15 18 30 34 89 53 57 64
REMARK Flexibility Score: inf
ROOT
ATOM      1  C   UNL A   1      33.384  27.824  26.796  1.00  0.00     0.042 C 
ENDROOT
BRANCH   1   2
ATOM      2  C   UNL A   1      32.023  28.120  27.454  1.00  0.00     0.118 C 
BRANCH   2   3
ATOM      3  N   UNL A   1      31.001  27.110  27.249  1.00  0.00    -0.352 N 
ATOM      4  C   UNL A   1      30.417  26.521  26.151  1.00  0.00     0.253 C 
ATOM      5  O   UNL A   1      29.673  25.559  26.369  1.00  0.00    -0.269 OA
ATOM      6  H   UNL A   1      30.643  26.762  28.098  1.00  0.00     0.163 HD
BRANCH   4   7
ATOM      7  C   UNL A   1      30.726  26.855  24.731  1.00  0.00     0.065 A 
ATOM      8  C   UNL A   1      31.592  26.172  23.856  1.00  0.00     0.068 A 
ATOM      9  C   UNL A   1      31.629  26.542  22.496  1.00  0.00     0.043 A 
ATOM     10  Br  UNL A   1      32.667  25.571  21.230  1.00  0.00    -0.048 Br
ATOM     11  C   UNL A   1      30.961  27.681  22.043  1.00  0.00     0.033 A 
ATOM     12  C   UNL A   1      30.076  28.016  24.262  1.00  0.00     0.031 A 
ATOM     13  C   UNL A   1      30.224  28.438  22.943  1.00  0.00     0.020 A 
ATOM     14  Br  UNL A   1      29.421  30.054  22.377  1.00  0.00    -0.051 Br
BRANCH   8  15
ATOM     15  N   UNL A   1      32.590  25.279  24.312  1.00  0.00    -0.323 N 
ATOM     16  O   UNL A   1      31.104  23.504  24.401  1.00  0.00    -0.273 OA
ATOM     17  C   UNL A   1      32.250  23.935  24.510  1.00  0.00     0.244 C 
ATOM     18  H   UNL A   1      33.505  25.595  24.487  1.00  0.00     0.170 HD
BRANCH  17  19
ATOM     19  C   UNL A   1      33.444  23.025  24.828  1.00  0.00     0.229 C 
BRANCH  19  20
ATOM     20  N   UNL A   1      33.038  21.631  24.756  1.00  0.00    -0.265 N 
ATOM     21  C   UNL A   1      32.816  20.982  23.582  1.00  0.00     0.262 C 
ATOM     22  C   UNL A   1      33.229  20.724  25.762  1.00  0.00     0.262 C 
ATOM     23  O   UNL A   1      32.850  21.399  22.444  1.00  0.00    -0.269 OA
ATOM     24  C   UNL A   1      32.678  19.576  23.860  1.00  0.00     0.053 A 
ATOM     25  C   UNL A   1      32.895  19.403  25.210  1.00  0.00     0.053 A 
ATOM     26  O   UNL A   1      33.744  20.909  26.846  1.00  0.00    -0.269 OA
ATOM     27  C   UNL A   1      32.510  18.536  22.966  1.00  0.00     0.015 A 
ATOM     28  C   UNL A   1      32.903  18.139  25.756  1.00  0.00     0.015 A 
ATOM     29  C   UNL A   1      32.538  17.250  23.493  1.00  0.00     0.001 A 
ATOM     30  C   UNL A   1      32.716  17.055  24.879  1.00  0.00     0.001 A 
ENDBRANCH  19  20
ENDBRANCH  17  19
ENDBRANCH   8  15
ENDBRANCH   4   7
ENDBRANCH   2   3
ENDBRANCH   1   2
BRANCH   1  31
ATOM     31  C   UNL A   1      33.984  28.891  25.861  1.00  0.00     0.118 C 
BRANCH  31  32
ATOM     32  N   UNL A   1      33.842  30.232  26.416  1.00  0.00    -0.352 N 
ATOM     33  C   UNL A   1      34.502  30.878  27.438  1.00  0.00     0.251 C 
ATOM     34  H   UNL A   1      33.147  30.776  25.980  1.00  0.00     0.163 HD
ATOM     35  O   UNL A   1      33.998  31.912  27.878  1.00  0.00    -0.269 OA
BRANCH  33  36
ATOM     36  C   UNL A   1      35.789  30.407  28.026  1.00  0.00     0.039 A 
ATOM     37  C   UNL A   1      36.955  30.504  27.251  1.00  0.00     0.014 A 
ATOM     38  C   UNL A   1      35.858  29.719  29.237  1.00  0.00     0.014 A 
ATOM     39  C   UNL A   1      38.175  29.963  27.700  1.00  0.00     0.010 A 
ATOM     40  C   UNL A   1      37.090  29.195  29.684  1.00  0.00     0.010 A 
ATOM     41  C   UNL A   1      38.277  29.317  28.943  1.00  0.00    -0.014 A 
BRANCH  41  42
ATOM     42  C   UNL A   1      39.602  28.816  29.460  1.00  0.00     0.031 A 
ATOM     43  C   UNL A   1      40.335  29.477  30.613  1.00  0.00     0.074 A 
ATOM     44  C   UNL A   1      40.220  27.777  28.851  1.00  0.00     0.049 A 
ATOM     45  N   UNL A   1      41.473  29.136  31.175  1.00  0.00    -0.248 NA
ATOM     46  C   UNL A   1      39.739  30.690  31.189  1.00  0.00     0.031 C 
ATOM     47  C   UNL A   1      39.737  27.098  27.650  1.00  0.00     0.029 A 
ATOM     48  N   UNL A   1      41.397  27.121  29.145  1.00  0.00    -0.354 N 
ATOM     49  C   UNL A   1      41.747  30.106  32.134  1.00  0.00     0.074 A 
ATOM     50  C   UNL A   1      40.671  31.073  32.053  1.00  0.00     0.031 C 
ATOM     51  C   UNL A   1      40.586  26.109  27.327  1.00  0.00     0.029 A 
ATOM     52  C   UNL A   1      41.695  26.093  28.277  1.00  0.00     0.049 A 
ATOM     53  H   UNL A   1      41.972  27.364  29.907  1.00  0.00     0.167 HD
ATOM     54  C   UNL A   1      42.768  30.182  33.027  1.00  0.00     0.034 A 
ATOM     55  C   UNL A   1      42.731  25.228  28.235  1.00  0.00     0.034 A 
ATOM     56  C   UNL A   1      43.810  29.197  33.178  1.00  0.00     0.049 A 
ATOM     57  C   UNL A   1      43.805  25.276  29.288  1.00  0.00     0.074 A 
ATOM     58  C   UNL A   1      44.799  29.136  34.149  1.00  0.00     0.029 A 
ATOM     59  N   UNL A   1      44.012  28.110  32.345  1.00  0.00    -0.354 N 
ATOM     60  N   UNL A   1      43.922  26.085  30.312  1.00  0.00    -0.248 NA
ATOM     61  C   UNL A   1      44.873  24.265  29.203  1.00  0.00     0.031 C 
ATOM     62  C   UNL A   1      45.611  28.026  33.889  1.00  0.00     0.029 A 
ATOM     63  C   UNL A   1      45.114  27.381  32.770  1.00  0.00     0.049 A 
ATOM     64  H   UNL A   1      43.455  27.887  31.564  1.00  0.00     0.167 HD
ATOM     65  C   UNL A   1      45.053  25.661  31.007  1.00  0.00     0.074 A 
ATOM     66  C   UNL A   1      45.571  24.508  30.305  1.00  0.00     0.031 C 
ATOM     67  C   UNL A   1      45.613  26.198  32.119  1.00  0.00     0.034 A 
BRANCH  54  68
ATOM     68  C   UNL A   1      42.780  31.347  33.989  1.00  0.00     0.023 A 
ATOM     69  C   UNL A   1      43.408  32.551  33.607  1.00  0.00     0.012 A 
ATOM     70  C   UNL A   1      42.096  31.289  35.220  1.00  0.00     0.148 A 
ATOM     71  C   UNL A   1      43.392  33.662  34.449  1.00  0.00     0.002 A 
ATOM     72  C   UNL A   1      42.044  32.416  36.034  1.00  0.00     0.091 A 
ATOM     73  F   UNL A   1      41.511  30.136  35.574  1.00  0.00    -0.205 F 
ATOM     74  C   UNL A   1      42.701  33.597  35.656  1.00  0.00     0.022 A 
BRANCH  72  75
ATOM     75  S   UNL A   1      41.108  32.461  37.568  1.00  0.00     0.127 S 
ATOM     76  O   UNL A   1      41.903  31.578  38.422  1.00  0.00    -0.237 OA
ATOM     77  O   UNL A   1      41.173  33.877  37.930  1.00  0.00    -0.237 OA
ATOM     78  O   UNL A   1      39.775  31.980  37.236  1.00  0.00    -0.744 OA
ENDBRANCH  72  75
ENDBRANCH  54  68
BRANCH  55  79
ATOM     79  C   UNL A   1      42.763  24.163  27.187  1.00  0.00     0.023 A 
ATOM     80  C   UNL A   1      43.516  24.376  26.015  1.00  0.00     0.012 A 
ATOM     81  C   UNL A   1      42.075  22.945  27.351  1.00  0.00     0.148 A 
ATOM     82  C   UNL A   1      43.560  23.408  25.011  1.00  0.00     0.002 A 
ATOM     83  C   UNL A   1      42.169  21.962  26.373  1.00  0.00     0.091 A 
ATOM     84  F   UNL A   1      41.351  22.771  28.465  1.00  0.00    -0.205 F 
ATOM     85  C   UNL A   1      42.896  22.199  25.194  1.00  0.00     0.022 A 
BRANCH  83  86
ATOM     86  S   UNL A   1      41.458  20.326  26.570  1.00  0.00     0.127 S 
ATOM     87  O   UNL A   1      40.027  20.617  26.545  1.00  0.00    -0.237 OA
ATOM     88  O   UNL A   1      41.966  19.633  25.385  1.00  0.00    -0.237 OA
ATOM     89  O   UNL A   1      41.976  19.818  27.833  1.00  0.00    -0.744 OA
ENDBRANCH  83  86
ENDBRANCH  55  79
BRANCH  67  90
ATOM     90  C   UNL A   1      46.845  25.535  32.687  1.00  0.00     0.023 A 
ATOM     91  C   UNL A   1      48.124  25.952  32.265  1.00  0.00     0.012 A 
ATOM     92  C   UNL A   1      46.741  24.551  33.691  1.00  0.00     0.148 A 
ATOM     93  C   UNL A   1      49.275  25.378  32.806  1.00  0.00     0.002 A 
ATOM     94  C   UNL A   1      47.893  24.016  34.259  1.00  0.00     0.091 A 
ATOM     95  F   UNL A   1      45.518  24.150  34.070  1.00  0.00    -0.205 F 
ATOM     96  C   UNL A   1      49.161  24.421  33.810  1.00  0.00     0.022 A 
BRANCH  94  97
ATOM     97  S   UNL A   1      47.845  22.843  35.620  1.00  0.00     0.127 S 
ATOM     98  O   UNL A   1      47.412  21.620  34.945  1.00  0.00    -0.237 OA
ATOM     99  O   UNL A   1      49.237  22.829  36.072  1.00  0.00    -0.237 OA
ATOM    100  O   UNL A   1      46.903  23.390  36.587  1.00  0.00    -0.744 OA
ENDBRANCH  94  97
ENDBRANCH  67  90
ENDBRANCH  41  42
ENDBRANCH  33  36
ENDBRANCH  31  32
ENDBRANCH   1  31
TORSDOF 16
ENDMDL
MODEL 3
REMARK VINA RESULT:     -12.2      4.519      9.536
REMARK SMILES O=C(CN1C(=O)c2ccccc2C1=O)Nc1c(Br)cc(Br)cc1C(=O)NCCCNC(=O)c1ccc(-c2c3nc(c(-c4cccc(S(=O)(=O)[O-])c4F)c4ccc([nH]4)c(-c4cccc(S(=O)(=O)[O-])c4F)c4nc(c(-c5cccc(S(=O)(=O)[O-])c5F)c5ccc2[nH]5)C=C4)C=C3)cc1
REMARK SMILES IDX 28 1 27 2 26 3 24 4 25 5 23 7 16 8 17 9 18 10 19 11 22 12
REMARK SMILES IDX 20 13 21 14 15 15 1 16 2 17 3 19 4 20 5 21 13 22 6 23 7 24
REMARK SMILES IDX 12 25 14 26 8 27 11 28 9 29 10 30 29 31 30 32 31 33 32 35
REMARK SMILES IDX 33 36 34 37 95 38 35 39 94 40 36 41 37 42 38 43 88 44 39 45
REMARK SMILES IDX 93 46 87 47 89 48 40 49 92 50 86 51 85 52 41 54 73 55 53 56
REMARK SMILES IDX 72 57 54 58 57 59 71 60 90 61 55 62 56 63 70 65 91 66 58 67
REMARK SMILES IDX 42 68 43 69 51 70 44 71 46 72 52 73 45 74 47 75 48 76 49 77
REMARK SMILES IDX 50 78 74 79 75 80 83 81 76 82 78 83 84 84 77 85 79 86 80 87
REMARK SMILES IDX 81 88 82 89 59 90 60 91 68 92 61 93 63 94 69 95 62 96 64 97
REMARK SMILES IDX 65 98 66 99 67 100
REMARK H PARENT 26 6 15 18 30 34 89 53 57 64
REMARK Flexibility Score: inf
ROOT
ATOM      1  C   UNL A   1      35.495  23.836  26.141  1.00  0.00     0.042 C 
ENDROOT
BRANCH   1   2
ATOM      2  C   UNL A   1      34.507  24.957  25.769  1.00  0.00     0.118 C 
BRANCH   2   3
ATOM      3  N   UNL A   1      33.192  24.852  26.374  1.00  0.00    -0.352 N 
ATOM      4  C   UNL A   1      32.073  25.652  26.421  1.00  0.00     0.253 C 
ATOM      5  O   UNL A   1      31.056  25.151  26.912  1.00  0.00    -0.269 OA
ATOM      6  H   UNL A   1      33.071  24.006  26.864  1.00  0.00     0.163 HD
BRANCH   4   7
ATOM      7  C   UNL A   1      31.956  27.002  25.800  1.00  0.00     0.065 A 
ATOM      8  C   UNL A   1      31.498  27.317  24.507  1.00  0.00     0.068 A 
ATOM      9  C   UNL A   1      31.302  28.669  24.156  1.00  0.00     0.043 A 
ATOM     10  Br  UNL A   1      30.550  29.160  22.478  1.00  0.00    -0.048 Br
ATOM     11  C   UNL A   1      31.721  29.698  25.000  1.00  0.00     0.033 A 
ATOM     12  C   UNL A   1      32.396  28.055  26.632  1.00  0.00     0.031 A 
ATOM     13  C   UNL A   1      32.310  29.381  26.217  1.00  0.00     0.020 A 
ATOM     14  Br  UNL A   1      33.002  30.756  27.314  1.00  0.00    -0.051 Br
BRANCH   8  15
ATOM     15  N   UNL A   1      31.431  26.361  23.467  1.00  0.00    -0.323 N 
ATOM     16  O   UNL A   1      33.665  26.644  22.925  1.00  0.00    -0.273 OA
ATOM     17  C   UNL A   1      32.599  26.055  22.758  1.00  0.00     0.244 C 
ATOM     18  H   UNL A   1      30.581  25.918  23.246  1.00  0.00     0.170 HD
BRANCH  17  19
ATOM     19  C   UNL A   1      32.453  24.881  21.781  1.00  0.00     0.229 C 
BRANCH  19  20
ATOM     20  N   UNL A   1      32.604  23.622  22.492  1.00  0.00    -0.265 N 
ATOM     21  C   UNL A   1      33.811  23.046  22.733  1.00  0.00     0.262 C 
ATOM     22  C   UNL A   1      31.660  23.099  23.333  1.00  0.00     0.262 C 
ATOM     23  O   UNL A   1      34.922  23.394  22.393  1.00  0.00    -0.269 OA
ATOM     24  C   UNL A   1      33.619  21.961  23.661  1.00  0.00     0.053 A 
ATOM     25  C   UNL A   1      32.287  21.957  24.014  1.00  0.00     0.053 A 
ATOM     26  O   UNL A   1      30.577  23.566  23.622  1.00  0.00    -0.269 OA
ATOM     27  C   UNL A   1      34.573  21.144  24.236  1.00  0.00     0.015 A 
ATOM     28  C   UNL A   1      31.821  21.068  24.957  1.00  0.00     0.015 A 
ATOM     29  C   UNL A   1      34.128  20.254  25.206  1.00  0.00     0.001 A 
ATOM     30  C   UNL A   1      32.760  20.205  25.551  1.00  0.00     0.001 A 
ENDBRANCH  19  20
ENDBRANCH  17  19
ENDBRANCH   8  15
ENDBRANCH   4   7
ENDBRANCH   2   3
ENDBRANCH   1   2
BRANCH   1  31
ATOM     31  C   UNL A   1      36.787  23.705  25.312  1.00  0.00     0.118 C 
BRANCH  31  32
ATOM     32  N   UNL A   1      37.702  22.729  25.893  1.00  0.00    -0.352 N 
ATOM     33  C   UNL A   1      38.939  22.867  26.483  1.00  0.00     0.251 C 
ATOM     34  H   UNL A   1      37.375  21.801  25.857  1.00  0.00     0.163 HD
ATOM     35  O   UNL A   1      39.611  21.847  26.643  1.00  0.00    -0.269 OA
BRANCH  33  36
ATOM     36  C   UNL A   1      39.498  24.168  26.949  1.00  0.00     0.039 A 
ATOM     37  C   UNL A   1      39.251  24.568  28.272  1.00  0.00     0.014 A 
ATOM     38  C   UNL A   1      40.104  25.081  26.088  1.00  0.00     0.014 A 
ATOM     39  C   UNL A   1      39.643  25.840  28.734  1.00  0.00     0.010 A 
ATOM     40  C   UNL A   1      40.507  26.346  26.565  1.00  0.00     0.010 A 
ATOM     41  C   UNL A   1      40.307  26.750  27.896  1.00  0.00    -0.014 A 
BRANCH  41  42
ATOM     42  C   UNL A   1      40.804  28.075  28.416  1.00  0.00     0.031 A 
ATOM     43  C   UNL A   1      42.279  28.386  28.592  1.00  0.00     0.074 A 
ATOM     44  C   UNL A   1      39.923  29.024  28.812  1.00  0.00     0.049 A 
ATOM     45  N   UNL A   1      42.848  29.495  29.009  1.00  0.00    -0.248 NA
ATOM     46  C   UNL A   1      43.238  27.313  28.296  1.00  0.00     0.031 C 
ATOM     47  C   UNL A   1      38.470  28.862  28.842  1.00  0.00     0.029 A 
ATOM     48  N   UNL A   1      40.118  30.305  29.283  1.00  0.00    -0.354 N 
ATOM     49  C   UNL A   1      44.215  29.242  29.064  1.00  0.00     0.074 A 
ATOM     50  C   UNL A   1      44.388  27.858  28.672  1.00  0.00     0.031 C 
ATOM     51  C   UNL A   1      37.905  30.000  29.276  1.00  0.00     0.029 A 
ATOM     52  C   UNL A   1      38.950  30.972  29.585  1.00  0.00     0.049 A 
ATOM     53  H   UNL A   1      41.010  30.707  29.394  1.00  0.00     0.167 HD
ATOM     54  C   UNL A   1      45.242  30.077  29.373  1.00  0.00     0.034 A 
ATOM     55  C   UNL A   1      38.726  32.220  30.053  1.00  0.00     0.034 A 
ATOM     56  C   UNL A   1      45.104  31.475  29.696  1.00  0.00     0.049 A 
ATOM     57  C   UNL A   1      39.878  33.156  30.304  1.00  0.00     0.074 A 
ATOM     58  C   UNL A   1      46.106  32.415  29.886  1.00  0.00     0.029 A 
ATOM     59  N   UNL A   1      43.904  32.139  29.884  1.00  0.00    -0.354 N 
ATOM     60  N   UNL A   1      41.161  32.947  30.145  1.00  0.00    -0.248 NA
ATOM     61  C   UNL A   1      39.547  34.516  30.764  1.00  0.00     0.031 C 
ATOM     62  C   UNL A   1      45.512  33.640  30.211  1.00  0.00     0.029 A 
ATOM     63  C   UNL A   1      44.139  33.470  30.200  1.00  0.00     0.049 A 
ATOM     64  H   UNL A   1      43.013  31.727  29.805  1.00  0.00     0.167 HD
ATOM     65  C   UNL A   1      41.785  34.154  30.453  1.00  0.00     0.074 A 
ATOM     66  C   UNL A   1      40.740  35.097  30.782  1.00  0.00     0.031 C 
ATOM     67  C   UNL A   1      43.110  34.439  30.475  1.00  0.00     0.034 A 
BRANCH  54  68
ATOM     68  C   UNL A   1      46.646  29.523  29.306  1.00  0.00     0.023 A 
ATOM     69  C   UNL A   1      47.187  28.873  30.434  1.00  0.00     0.012 A 
ATOM     70  C   UNL A   1      47.392  29.559  28.110  1.00  0.00     0.148 A 
ATOM     71  C   UNL A   1      48.460  28.305  30.388  1.00  0.00     0.002 A 
ATOM     72  C   UNL A   1      48.641  28.950  28.058  1.00  0.00     0.091 A 
ATOM     73  F   UNL A   1      46.869  30.189  27.048  1.00  0.00    -0.205 F 
ATOM     74  C   UNL A   1      49.181  28.334  29.198  1.00  0.00     0.022 A 
BRANCH  72  75
ATOM     75  S   UNL A   1      49.613  28.859  26.548  1.00  0.00     0.127 S 
ATOM     76  O   UNL A   1      50.034  30.251  26.387  1.00  0.00    -0.237 OA
ATOM     77  O   UNL A   1      50.686  27.938  26.924  1.00  0.00    -0.237 OA
ATOM     78  O   UNL A   1      48.711  28.353  25.524  1.00  0.00    -0.744 OA
ENDBRANCH  72  75
ENDBRANCH  54  68
BRANCH  55  79
ATOM     79  C   UNL A   1      37.323  32.699  30.238  1.00  0.00     0.023 A 
ATOM     80  C   UNL A   1      36.503  32.875  29.106  1.00  0.00     0.012 A 
ATOM     81  C   UNL A   1      36.796  32.961  31.518  1.00  0.00     0.148 A 
ATOM     82  C   UNL A   1      35.191  33.332  29.242  1.00  0.00     0.002 A 
ATOM     83  C   UNL A   1      35.471  33.361  31.649  1.00  0.00     0.091 A 
ATOM     84  F   UNL A   1      37.599  32.805  32.578  1.00  0.00    -0.205 F 
ATOM     85  C   UNL A   1      34.673  33.564  30.511  1.00  0.00     0.022 A 
BRANCH  83  86
ATOM     86  S   UNL A   1      34.673  33.562  33.245  1.00  0.00     0.127 S 
ATOM     87  O   UNL A   1      34.729  35.010  33.427  1.00  0.00    -0.237 OA
ATOM     88  O   UNL A   1      33.337  33.027  32.981  1.00  0.00    -0.237 OA
ATOM     89  O   UNL A   1      35.462  32.777  34.185  1.00  0.00    -0.744 OA
ENDBRANCH  83  86
ENDBRANCH  55  79
BRANCH  67  90
ATOM     90  C   UNL A   1      43.531  35.844  30.836  1.00  0.00     0.023 A 
ATOM     91  C   UNL A   1      43.869  36.154  32.169  1.00  0.00     0.012 A 
ATOM     92  C   UNL A   1      43.662  36.838  29.846  1.00  0.00     0.148 A 
ATOM     93  C   UNL A   1      44.297  37.437  32.516  1.00  0.00     0.002 A 
ATOM     94  C   UNL A   1      44.133  38.102  30.191  1.00  0.00     0.091 A 
ATOM     95  F   UNL A   1      43.319  36.536  28.585  1.00  0.00    -0.205 F 
ATOM     96  C   UNL A   1      44.440  38.406  31.527  1.00  0.00     0.022 A 
BRANCH  94  97
ATOM     97  S   UNL A   1      44.434  39.388  28.971  1.00  0.00     0.127 S 
ATOM     98  O   UNL A   1      43.110  39.547  28.371  1.00  0.00    -0.237 OA
ATOM     99  O   UNL A   1      44.866  40.512  29.801  1.00  0.00    -0.237 OA
ATOM    100  O   UNL A   1      45.463  38.863  28.083  1.00  0.00    -0.744 OA
ENDBRANCH  94  97
ENDBRANCH  67  90
ENDBRANCH  41  42
ENDBRANCH  33  36
ENDBRANCH  31  32
ENDBRANCH   1  31
TORSDOF 16
ENDMDL
