MODEL 1
REMARK VINA RESULT:     -12.1      0.000      0.000
REMARK SMILES O=C(Cc1csc(Sc2ncnc3c2CCCC3)n1)NCCCNC(=O)c1ccc(-c2c3nc(c(-c4cccc(S(=O)(=O)[O-])c4F)c4ccc([nH]4)c(-c4cccc(S(=O)(=O)[O-])c4F)c4nc(c(-c5cccc(S(=O)(=O)[O-])c5F)c5ccc2[nH]5)C=C4)C=C3)cc1
REMARK SMILES IDX 22 1 21 2 20 3 1 4 2 5 3 7 4 8 5 9 19 10 6 11 7 12 8 13 9 14
REMARK SMILES IDX 10 15 14 16 11 17 13 18 15 19 12 20 18 21 16 22 17 23 23 24
REMARK SMILES IDX 24 25 25 26 26 28 27 29 28 30 89 31 29 32 88 33 30 34 31 35
REMARK SMILES IDX 32 36 82 37 33 38 87 39 81 40 83 41 34 42 86 43 80 44 79 45
REMARK SMILES IDX 35 47 67 48 47 49 66 50 48 51 51 52 65 53 84 54 49 55 50 56
REMARK SMILES IDX 64 58 85 59 52 60 36 61 37 62 45 63 38 64 40 65 46 66 39 67
REMARK SMILES IDX 41 68 42 69 43 70 44 71 68 72 69 73 77 74 70 75 72 76 78 77
REMARK SMILES IDX 71 78 73 79 74 80 75 81 76 82 53 83 54 84 62 85 55 86 57 87
REMARK SMILES IDX 63 88 56 89 58 90 59 91 60 92 61 93
REMARK H PARENT 20 6 24 27 83 46 51 57
REMARK Flexibility Score: inf
ROOT
ATOM      1  C   UNL A   1      34.956  22.089  26.981  1.00  0.00     0.042 C 
ENDROOT
BRANCH   1   2
ATOM      2  C   UNL A   1      33.657  21.444  26.518  1.00  0.00     0.117 C 
BRANCH   2   3
ATOM      3  N   UNL A   1      33.326  21.774  25.143  1.00  0.00    -0.356 N 
ATOM      4  O   UNL A   1      32.051  19.907  24.732  1.00  0.00    -0.275 OA
ATOM      5  C   UNL A   1      32.510  20.983  24.360  1.00  0.00     0.226 C 
ATOM      6  H   UNL A   1      33.701  22.597  24.753  1.00  0.00     0.163 HD
BRANCH   5   7
ATOM      7  C   UNL A   1      32.178  21.582  23.003  1.00  0.00     0.157 C 
BRANCH   7   8
ATOM      8  C   UNL A   1      31.883  23.051  23.079  1.00  0.00     0.062 A 
ATOM      9  C   UNL A   1      30.705  23.650  23.490  1.00  0.00     0.092 A 
ATOM     10  N   UNL A   1      32.876  23.952  22.691  1.00  0.00    -0.234 NA
ATOM     11  S   UNL A   1      30.828  25.348  23.376  1.00  0.00    -0.116 S 
ATOM     12  C   UNL A   1      32.424  25.186  22.749  1.00  0.00     0.156 A 
BRANCH  12  13
ATOM     13  S   UNL A   1      33.302  26.621  22.274  1.00  0.00    -0.039 SA
BRANCH  13  14
ATOM     14  C   UNL A   1      32.393  27.923  23.086  1.00  0.00     0.110 A 
ATOM     15  N   UNL A   1      31.345  28.421  22.397  1.00  0.00    -0.229 NA
ATOM     16  C   UNL A   1      32.639  28.239  24.423  1.00  0.00     0.006 A 
ATOM     17  C   UNL A   1      30.558  29.275  23.055  1.00  0.00     0.223 A 
ATOM     18  C   UNL A   1      31.712  29.088  25.019  1.00  0.00     0.048 A 
ATOM     19  C   UNL A   1      33.763  27.627  25.217  1.00  0.00     0.040 C 
ATOM     20  N   UNL A   1      30.678  29.627  24.341  1.00  0.00    -0.241 NA
ATOM     21  C   UNL A   1      31.811  29.477  26.473  1.00  0.00     0.056 C 
ATOM     22  C   UNL A   1      34.009  28.305  26.565  1.00  0.00     0.005 C 
ATOM     23  C   UNL A   1      32.692  28.537  27.290  1.00  0.00     0.007 C 
ENDBRANCH  13  14
ENDBRANCH  12  13
ENDBRANCH   7   8
ENDBRANCH   5   7
ENDBRANCH   2   3
ENDBRANCH   1   2
BRANCH   1  24
ATOM     24  C   UNL A   1      35.966  22.363  25.872  1.00  0.00     0.118 C 
BRANCH  24  25
ATOM     25  N   UNL A   1      36.914  21.274  25.674  1.00  0.00    -0.352 N 
ATOM     26  C   UNL A   1      38.284  21.274  25.767  1.00  0.00     0.251 C 
ATOM     27  H   UNL A   1      36.511  20.408  25.439  1.00  0.00     0.163 HD
ATOM     28  O   UNL A   1      38.908  20.268  25.424  1.00  0.00    -0.269 OA
BRANCH  26  29
ATOM     29  C   UNL A   1      39.016  22.465  26.252  1.00  0.00     0.039 A 
ATOM     30  C   UNL A   1      40.021  22.294  27.210  1.00  0.00     0.014 A 
ATOM     31  C   UNL A   1      38.698  23.748  25.800  1.00  0.00     0.014 A 
ATOM     32  C   UNL A   1      40.743  23.399  27.672  1.00  0.00     0.010 A 
ATOM     33  C   UNL A   1      39.463  24.839  26.209  1.00  0.00     0.010 A 
ATOM     34  C   UNL A   1      40.485  24.679  27.157  1.00  0.00    -0.014 A 
BRANCH  34  35
ATOM     35  C   UNL A   1      41.252  25.869  27.605  1.00  0.00     0.031 A 
ATOM     36  C   UNL A   1      40.571  26.935  28.421  1.00  0.00     0.074 A 
ATOM     37  C   UNL A   1      42.529  26.036  27.211  1.00  0.00     0.049 A 
ATOM     38  N   UNL A   1      41.026  28.098  28.807  1.00  0.00    -0.248 NA
ATOM     39  C   UNL A   1      39.186  26.663  28.842  1.00  0.00     0.031 C 
ATOM     40  C   UNL A   1      43.290  25.094  26.390  1.00  0.00     0.029 A 
ATOM     41  N   UNL A   1      43.404  27.072  27.428  1.00  0.00    -0.354 N 
ATOM     42  C   UNL A   1      39.980  28.710  29.488  1.00  0.00     0.074 A 
ATOM     43  C   UNL A   1      38.854  27.802  29.433  1.00  0.00     0.031 C 
ATOM     44  C   UNL A   1      44.518  25.594  26.172  1.00  0.00     0.029 A 
ATOM     45  C   UNL A   1      44.618  26.908  26.803  1.00  0.00     0.049 A 
ATOM     46  H   UNL A   1      43.184  27.858  27.980  1.00  0.00     0.167 HD
ATOM     47  C   UNL A   1      39.966  29.904  30.126  1.00  0.00     0.034 A 
ATOM     48  C   UNL A   1      45.686  27.727  26.732  1.00  0.00     0.034 A 
ATOM     49  C   UNL A   1      41.097  30.788  30.209  1.00  0.00     0.049 A 
ATOM     50  C   UNL A   1      45.642  29.052  27.446  1.00  0.00     0.074 A 
ATOM     51  C   UNL A   1      41.195  31.997  30.875  1.00  0.00     0.029 A 
ATOM     52  N   UNL A   1      42.327  30.563  29.608  1.00  0.00    -0.354 N 
ATOM     53  N   UNL A   1      44.683  29.566  28.177  1.00  0.00    -0.248 NA
ATOM     54  C   UNL A   1      46.841  29.896  27.353  1.00  0.00     0.031 C 
ATOM     55  C   UNL A   1      42.477  32.515  30.657  1.00  0.00     0.029 A 
ATOM     56  C   UNL A   1      43.188  31.614  29.881  1.00  0.00     0.049 A 
ATOM     57  H   UNL A   1      42.555  29.774  29.066  1.00  0.00     0.167 HD
ATOM     58  C   UNL A   1      45.170  30.779  28.651  1.00  0.00     0.074 A 
ATOM     59  C   UNL A   1      46.524  30.906  28.152  1.00  0.00     0.031 C 
ATOM     60  C   UNL A   1      44.547  31.714  29.413  1.00  0.00     0.034 A 
BRANCH  47  61
ATOM     61  C   UNL A   1      38.700  30.303  30.840  1.00  0.00     0.023 A 
ATOM     62  C   UNL A   1      38.559  30.017  32.214  1.00  0.00     0.012 A 
ATOM     63  C   UNL A   1      37.688  31.029  30.181  1.00  0.00     0.148 A 
ATOM     64  C   UNL A   1      37.423  30.420  32.913  1.00  0.00     0.002 A 
ATOM     65  C   UNL A   1      36.580  31.471  30.895  1.00  0.00     0.091 A 
ATOM     66  F   UNL A   1      37.829  31.275  28.870  1.00  0.00    -0.205 F 
ATOM     67  C   UNL A   1      36.441  31.157  32.257  1.00  0.00     0.022 A 
BRANCH  65  68
ATOM     68  S   UNL A   1      35.299  32.499  30.168  1.00  0.00     0.127 S 
ATOM     69  O   UNL A   1      34.853  31.667  29.050  1.00  0.00    -0.237 OA
ATOM     70  O   UNL A   1      34.338  32.611  31.266  1.00  0.00    -0.237 OA
ATOM     71  O   UNL A   1      35.947  33.747  29.794  1.00  0.00    -0.744 OA
ENDBRANCH  65  68
ENDBRANCH  47  61
BRANCH  48  72
ATOM     72  C   UNL A   1      46.915  27.286  26.010  1.00  0.00     0.023 A 
ATOM     73  C   UNL A   1      47.807  26.403  26.648  1.00  0.00     0.012 A 
ATOM     74  C   UNL A   1      47.184  27.695  24.689  1.00  0.00     0.148 A 
ATOM     75  C   UNL A   1      48.956  25.955  25.996  1.00  0.00     0.002 A 
ATOM     76  C   UNL A   1      48.298  27.198  24.023  1.00  0.00     0.091 A 
ATOM     77  F   UNL A   1      46.330  28.547  24.102  1.00  0.00    -0.205 F 
ATOM     78  C   UNL A   1      49.195  26.341  24.681  1.00  0.00     0.022 A 
BRANCH  76  79
ATOM     79  S   UNL A   1      48.614  27.526  22.285  1.00  0.00     0.127 S 
ATOM     80  O   UNL A   1      47.443  28.318  21.913  1.00  0.00    -0.237 OA
ATOM     81  O   UNL A   1      49.869  28.277  22.348  1.00  0.00    -0.237 OA
ATOM     82  O   UNL A   1      48.722  26.224  21.649  1.00  0.00    -0.744 OA
ENDBRANCH  76  79
ENDBRANCH  48  72
BRANCH  60  83
ATOM     83  C   UNL A   1      45.323  32.958  29.768  1.00  0.00     0.023 A 
ATOM     84  C   UNL A   1      46.113  32.978  30.935  1.00  0.00     0.012 A 
ATOM     85  C   UNL A   1      45.328  34.080  28.915  1.00  0.00     0.148 A 
ATOM     86  C   UNL A   1      46.862  34.106  31.267  1.00  0.00     0.002 A 
ATOM     87  C   UNL A   1      46.120  35.181  29.224  1.00  0.00     0.091 A 
ATOM     88  F   UNL A   1      44.558  34.053  27.816  1.00  0.00    -0.205 F 
ATOM     89  C   UNL A   1      46.875  35.202  30.407  1.00  0.00     0.022 A 
BRANCH  87  90
ATOM     90  S   UNL A   1      46.283  36.590  28.122  1.00  0.00     0.127 S 
ATOM     91  O   UNL A   1      47.230  37.432  28.853  1.00  0.00    -0.237 OA
ATOM     92  O   UNL A   1      46.824  35.977  26.909  1.00  0.00    -0.237 OA
ATOM     93  O   UNL A   1      44.941  37.139  27.974  1.00  0.00    -0.744 OA
ENDBRANCH  87  90
ENDBRANCH  60  83
ENDBRANCH  34  35
ENDBRANCH  26  29
ENDBRANCH  24  25
ENDBRANCH   1  24
TORSDOF 16
ENDMDL
MODEL 2
REMARK VINA RESULT:     -12.0      5.707     11.037
REMARK SMILES O=C(Cc1csc(Sc2ncnc3c2CCCC3)n1)NCCCNC(=O)c1ccc(-c2c3nc(c(-c4cccc(S(=O)(=O)[O-])c4F)c4ccc([nH]4)c(-c4cccc(S(=O)(=O)[O-])c4F)c4nc(c(-c5cccc(S(=O)(=O)[O-])c5F)c5ccc2[nH]5)C=C4)C=C3)cc1
REMARK SMILES IDX 22 1 21 2 20 3 1 4 2 5 3 7 4 8 5 9 19 10 6 11 7 12 8 13 9 14
REMARK SMILES IDX 10 15 14 16 11 17 13 18 15 19 12 20 18 21 16 22 17 23 23 24
REMARK SMILES IDX 24 25 25 26 26 28 27 29 28 30 89 31 29 32 88 33 30 34 31 35
REMARK SMILES IDX 32 36 82 37 33 38 87 39 81 40 83 41 34 42 86 43 80 44 79 45
REMARK SMILES IDX 35 47 67 48 47 49 66 50 48 51 51 52 65 53 84 54 49 55 50 56
REMARK SMILES IDX 64 58 85 59 52 60 36 61 37 62 45 63 38 64 40 65 46 66 39 67
REMARK SMILES IDX 41 68 42 69 43 70 44 71 68 72 69 73 77 74 70 75 72 76 78 77
REMARK SMILES IDX 71 78 73 79 74 80 75 81 76 82 53 83 54 84 62 85 55 86 57 87
REMARK SMILES IDX 63 88 56 89 58 90 59 91 60 92 61 93
REMARK H PARENT 20 6 24 27 83 46 51 57
REMARK Flexibility Score: inf
ROOT
ATOM      1  C   UNL A   1      31.632  31.928  26.689  1.00  0.00     0.042 C 
ENDROOT
BRANCH   1   2
ATOM      2  C   UNL A   1      31.781  30.419  26.550  1.00  0.00     0.117 C 
BRANCH   2   3
ATOM      3  N   UNL A   1      31.856  29.988  25.166  1.00  0.00    -0.356 N 
ATOM      4  O   UNL A   1      33.933  29.016  25.312  1.00  0.00    -0.275 OA
ATOM      5  C   UNL A   1      32.928  29.281  24.659  1.00  0.00     0.226 C 
ATOM      6  H   UNL A   1      31.110  30.211  24.563  1.00  0.00     0.163 HD
BRANCH   5   7
ATOM      7  C   UNL A   1      32.741  28.806  23.227  1.00  0.00     0.157 C 
BRANCH   7   8
ATOM      8  C   UNL A   1      32.797  27.312  23.105  1.00  0.00     0.062 A 
ATOM      9  C   UNL A   1      33.300  26.576  22.046  1.00  0.00     0.092 A 
ATOM     10  N   UNL A   1      32.286  26.537  24.147  1.00  0.00    -0.234 NA
ATOM     11  S   UNL A   1      33.120  24.905  22.343  1.00  0.00    -0.116 S 
ATOM     12  C   UNL A   1      32.347  25.259  23.841  1.00  0.00     0.156 A 
BRANCH  12  13
ATOM     13  S   UNL A   1      31.743  23.943  24.820  1.00  0.00    -0.039 SA
BRANCH  13  14
ATOM     14  C   UNL A   1      33.198  22.941  25.068  1.00  0.00     0.110 A 
ATOM     15  N   UNL A   1      34.153  23.483  25.853  1.00  0.00    -0.229 NA
ATOM     16  C   UNL A   1      33.230  21.612  24.644  1.00  0.00     0.006 A 
ATOM     17  C   UNL A   1      35.170  22.683  26.182  1.00  0.00     0.223 A 
ATOM     18  C   UNL A   1      34.307  20.861  25.107  1.00  0.00     0.048 A 
ATOM     19  C   UNL A   1      32.130  20.983  23.831  1.00  0.00     0.040 C 
ATOM     20  N   UNL A   1      35.292  21.389  25.861  1.00  0.00    -0.241 NA
ATOM     21  C   UNL A   1      34.451  19.395  24.779  1.00  0.00     0.056 C 
ATOM     22  C   UNL A   1      32.489  19.612  23.257  1.00  0.00     0.005 C 
ATOM     23  C   UNL A   1      33.148  18.749  24.322  1.00  0.00     0.007 C 
ENDBRANCH  13  14
ENDBRANCH  12  13
ENDBRANCH   7   8
ENDBRANCH   5   7
ENDBRANCH   2   3
ENDBRANCH   1   2
BRANCH   1  24
ATOM     24  C   UNL A   1      32.857  32.643  27.251  1.00  0.00     0.118 C 
BRANCH  24  25
ATOM     25  N   UNL A   1      32.566  33.986  27.738  1.00  0.00    -0.352 N 
ATOM     26  C   UNL A   1      33.140  34.689  28.768  1.00  0.00     0.251 C 
ATOM     27  H   UNL A   1      31.850  34.459  27.256  1.00  0.00     0.163 HD
ATOM     28  O   UNL A   1      32.649  35.768  29.104  1.00  0.00    -0.269 OA
BRANCH  26  29
ATOM     29  C   UNL A   1      34.322  34.163  29.486  1.00  0.00     0.039 A 
ATOM     30  C   UNL A   1      34.123  33.364  30.618  1.00  0.00     0.014 A 
ATOM     31  C   UNL A   1      35.620  34.477  29.077  1.00  0.00     0.014 A 
ATOM     32  C   UNL A   1      35.221  32.837  31.303  1.00  0.00     0.010 A 
ATOM     33  C   UNL A   1      36.712  33.896  29.720  1.00  0.00     0.010 A 
ATOM     34  C   UNL A   1      36.525  33.079  30.846  1.00  0.00    -0.014 A 
BRANCH  34  35
ATOM     35  C   UNL A   1      37.713  32.512  31.534  1.00  0.00     0.031 A 
ATOM     36  C   UNL A   1      38.452  31.353  30.921  1.00  0.00     0.074 A 
ATOM     37  C   UNL A   1      38.077  32.979  32.745  1.00  0.00     0.049 A 
ATOM     38  N   UNL A   1      39.432  30.643  31.415  1.00  0.00    -0.248 NA
ATOM     39  C   UNL A   1      38.018  30.925  29.580  1.00  0.00     0.031 C 
ATOM     40  C   UNL A   1      37.420  34.072  33.461  1.00  0.00     0.029 A 
ATOM     41  N   UNL A   1      39.072  32.572  33.598  1.00  0.00    -0.354 N 
ATOM     42  C   UNL A   1      39.712  29.668  30.465  1.00  0.00     0.074 A 
ATOM     43  C   UNL A   1      38.775  29.856  29.379  1.00  0.00     0.031 C 
ATOM     44  C   UNL A   1      38.030  34.250  34.645  1.00  0.00     0.029 A 
ATOM     45  C   UNL A   1      39.093  33.259  34.789  1.00  0.00     0.049 A 
ATOM     46  H   UNL A   1      39.712  31.856  33.378  1.00  0.00     0.167 HD
ATOM     47  C   UNL A   1      40.679  28.720  30.482  1.00  0.00     0.034 A 
ATOM     48  C   UNL A   1      39.869  33.101  35.879  1.00  0.00     0.034 A 
ATOM     49  C   UNL A   1      41.632  28.558  31.547  1.00  0.00     0.049 A 
ATOM     50  C   UNL A   1      40.934  32.036  35.873  1.00  0.00     0.074 A 
ATOM     51  C   UNL A   1      42.680  27.658  31.632  1.00  0.00     0.029 A 
ATOM     52  N   UNL A   1      41.655  29.308  32.714  1.00  0.00    -0.354 N 
ATOM     53  N   UNL A   1      41.255  31.194  34.922  1.00  0.00    -0.248 NA
ATOM     54  C   UNL A   1      41.764  31.921  37.081  1.00  0.00     0.031 C 
ATOM     55  C   UNL A   1      43.324  27.849  32.860  1.00  0.00     0.029 A 
ATOM     56  C   UNL A   1      42.695  28.887  33.527  1.00  0.00     0.049 A 
ATOM     57  H   UNL A   1      41.026  30.032  32.932  1.00  0.00     0.167 HD
ATOM     58  C   UNL A   1      42.340  30.468  35.402  1.00  0.00     0.074 A 
ATOM     59  C   UNL A   1      42.641  30.994  36.718  1.00  0.00     0.031 C 
ATOM     60  C   UNL A   1      43.012  29.444  34.819  1.00  0.00     0.034 A 
BRANCH  47  61
ATOM     61  C   UNL A   1      40.797  27.816  29.281  1.00  0.00     0.023 A 
ATOM     62  C   UNL A   1      39.993  26.660  29.202  1.00  0.00     0.012 A 
ATOM     63  C   UNL A   1      41.636  28.147  28.199  1.00  0.00     0.148 A 
ATOM     64  C   UNL A   1      40.041  25.834  28.081  1.00  0.00     0.002 A 
ATOM     65  C   UNL A   1      41.643  27.345  27.063  1.00  0.00     0.091 A 
ATOM     66  F   UNL A   1      42.409  29.239  28.299  1.00  0.00    -0.205 F 
ATOM     67  C   UNL A   1      40.856  26.183  27.008  1.00  0.00     0.022 A 
BRANCH  65  68
ATOM     68  S   UNL A   1      42.591  27.749  25.591  1.00  0.00     0.127 S 
ATOM     69  O   UNL A   1      43.947  27.848  26.133  1.00  0.00    -0.237 OA
ATOM     70  O   UNL A   1      42.356  26.578  24.746  1.00  0.00    -0.237 OA
ATOM     71  O   UNL A   1      42.034  28.992  25.081  1.00  0.00    -0.744 OA
ENDBRANCH  65  68
ENDBRANCH  47  61
BRANCH  48  72
ATOM     72  C   UNL A   1      39.711  34.020  37.043  1.00  0.00     0.023 A 
ATOM     73  C   UNL A   1      40.101  35.367  36.913  1.00  0.00     0.012 A 
ATOM     74  C   UNL A   1      39.141  33.586  38.257  1.00  0.00     0.148 A 
ATOM     75  C   UNL A   1      39.950  36.259  37.975  1.00  0.00     0.002 A 
ATOM     76  C   UNL A   1      38.938  34.494  39.290  1.00  0.00     0.091 A 
ATOM     77  F   UNL A   1      38.788  32.298  38.367  1.00  0.00    -0.205 F 
ATOM     78  C   UNL A   1      39.357  35.827  39.157  1.00  0.00     0.022 A 
BRANCH  76  79
ATOM     79  S   UNL A   1      38.056  34.065  40.795  1.00  0.00     0.127 S 
ATOM     80  O   UNL A   1      37.791  35.381  41.373  1.00  0.00    -0.237 OA
ATOM     81  O   UNL A   1      36.878  33.377  40.264  1.00  0.00    -0.237 OA
ATOM     82  O   UNL A   1      38.958  33.214  41.554  1.00  0.00    -0.744 OA
ENDBRANCH  76  79
ENDBRANCH  48  72
BRANCH  60  83
ATOM     83  C   UNL A   1      44.152  28.824  35.589  1.00  0.00     0.023 A 
ATOM     84  C   UNL A   1      45.456  29.339  35.438  1.00  0.00     0.012 A 
ATOM     85  C   UNL A   1      43.926  27.785  36.513  1.00  0.00     0.148 A 
ATOM     86  C   UNL A   1      46.520  28.802  36.162  1.00  0.00     0.002 A 
ATOM     87  C   UNL A   1      44.982  27.292  37.273  1.00  0.00     0.091 A 
ATOM     88  F   UNL A   1      42.682  27.295  36.634  1.00  0.00    -0.205 F 
ATOM     89  C   UNL A   1      46.281  27.788  37.087  1.00  0.00     0.022 A 
BRANCH  87  90
ATOM     90  S   UNL A   1      44.749  26.063  38.562  1.00  0.00     0.127 S 
ATOM     91  O   UNL A   1      44.126  24.968  37.821  1.00  0.00    -0.237 OA
ATOM     92  O   UNL A   1      46.123  25.802  38.994  1.00  0.00    -0.237 OA
ATOM     93  O   UNL A   1      43.910  26.695  39.571  1.00  0.00    -0.744 OA
ENDBRANCH  87  90
ENDBRANCH  60  83
ENDBRANCH  34  35
ENDBRANCH  26  29
ENDBRANCH  24  25
ENDBRANCH   1  24
TORSDOF 16
ENDMDL
MODEL 3
REMARK VINA RESULT:     -12.0      4.792     10.885
REMARK SMILES O=C(Cc1csc(Sc2ncnc3c2CCCC3)n1)NCCCNC(=O)c1ccc(-c2c3nc(c(-c4cccc(S(=O)(=O)[O-])c4F)c4ccc([nH]4)c(-c4cccc(S(=O)(=O)[O-])c4F)c4nc(c(-c5cccc(S(=O)(=O)[O-])c5F)c5ccc2[nH]5)C=C4)C=C3)cc1
REMARK SMILES IDX 22 1 21 2 20 3 1 4 2 5 3 7 4 8 5 9 19 10 6 11 7 12 8 13 9 14
REMARK SMILES IDX 10 15 14 16 11 17 13 18 15 19 12 20 18 21 16 22 17 23 23 24
REMARK SMILES IDX 24 25 25 26 26 28 27 29 28 30 89 31 29 32 88 33 30 34 31 35
REMARK SMILES IDX 32 36 82 37 33 38 87 39 81 40 83 41 34 42 86 43 80 44 79 45
REMARK SMILES IDX 35 47 67 48 47 49 66 50 48 51 51 52 65 53 84 54 49 55 50 56
REMARK SMILES IDX 64 58 85 59 52 60 36 61 37 62 45 63 38 64 40 65 46 66 39 67
REMARK SMILES IDX 41 68 42 69 43 70 44 71 68 72 69 73 77 74 70 75 72 76 78 77
REMARK SMILES IDX 71 78 73 79 74 80 75 81 76 82 53 83 54 84 62 85 55 86 57 87
REMARK SMILES IDX 63 88 56 89 58 90 59 91 60 92 61 93
REMARK H PARENT 20 6 24 27 83 46 51 57
REMARK Flexibility Score: inf
ROOT
ATOM      1  C   UNL A   1      41.681  20.189  27.484  1.00  0.00     0.042 C 
ENDROOT
BRANCH   1   2
ATOM      2  C   UNL A   1      42.531  19.335  26.552  1.00  0.00     0.117 C 
BRANCH   2   3
ATOM      3  N   UNL A   1      43.618  20.080  25.945  1.00  0.00    -0.356 N 
ATOM      4  O   UNL A   1      44.577  18.293  24.863  1.00  0.00    -0.275 OA
ATOM      5  C   UNL A   1      44.549  19.496  25.109  1.00  0.00     0.226 C 
ATOM      6  H   UNL A   1      43.696  21.042  26.138  1.00  0.00     0.163 HD
BRANCH   5   7
ATOM      7  C   UNL A   1      45.516  20.479  24.469  1.00  0.00     0.157 C 
BRANCH   7   8
ATOM      8  C   UNL A   1      45.208  21.903  24.825  1.00  0.00     0.062 A 
ATOM      9  C   UNL A   1      44.155  22.674  24.365  1.00  0.00     0.092 A 
ATOM     10  N   UNL A   1      46.058  22.569  25.709  1.00  0.00    -0.234 NA
ATOM     11  S   UNL A   1      44.234  24.247  25.023  1.00  0.00    -0.116 S 
ATOM     12  C   UNL A   1      45.684  23.822  25.850  1.00  0.00     0.156 A 
BRANCH  12  13
ATOM     13  S   UNL A   1      46.511  25.037  26.797  1.00  0.00    -0.039 SA
BRANCH  13  14
ATOM     14  C   UNL A   1      47.431  25.937  25.561  1.00  0.00     0.110 A 
ATOM     15  N   UNL A   1      46.692  26.671  24.703  1.00  0.00    -0.229 NA
ATOM     16  C   UNL A   1      48.822  26.025  25.632  1.00  0.00     0.006 A 
ATOM     17  C   UNL A   1      47.370  27.476  23.882  1.00  0.00     0.223 A 
ATOM     18  C   UNL A   1      49.408  26.947  24.771  1.00  0.00     0.048 A 
ATOM     19  C   UNL A   1      49.643  25.264  26.639  1.00  0.00     0.040 C 
ATOM     20  N   UNL A   1      48.695  27.665  23.879  1.00  0.00    -0.241 NA
ATOM     21  C   UNL A   1      50.896  27.197  24.768  1.00  0.00     0.056 C 
ATOM     22  C   UNL A   1      51.147  25.303  26.370  1.00  0.00     0.005 C 
ATOM     23  C   UNL A   1      51.589  26.721  26.040  1.00  0.00     0.007 C 
ENDBRANCH  13  14
ENDBRANCH  12  13
ENDBRANCH   7   8
ENDBRANCH   5   7
ENDBRANCH   2   3
ENDBRANCH   1   2
BRANCH   1  24
ATOM     24  C   UNL A   1      41.307  21.560  26.932  1.00  0.00     0.118 C 
BRANCH  24  25
ATOM     25  N   UNL A   1      39.961  21.609  26.374  1.00  0.00    -0.352 N 
ATOM     26  C   UNL A   1      39.062  22.646  26.338  1.00  0.00     0.251 C 
ATOM     27  H   UNL A   1      39.649  20.771  25.962  1.00  0.00     0.163 HD
ATOM     28  O   UNL A   1      37.917  22.433  25.936  1.00  0.00    -0.269 OA
BRANCH  26  29
ATOM     29  C   UNL A   1      39.444  24.003  26.788  1.00  0.00     0.039 A 
ATOM     30  C   UNL A   1      39.196  24.368  28.115  1.00  0.00     0.014 A 
ATOM     31  C   UNL A   1      40.012  24.928  25.908  1.00  0.00     0.014 A 
ATOM     32  C   UNL A   1      39.565  25.636  28.573  1.00  0.00     0.010 A 
ATOM     33  C   UNL A   1      40.442  26.166  26.381  1.00  0.00     0.010 A 
ATOM     34  C   UNL A   1      40.213  26.538  27.715  1.00  0.00    -0.014 A 
BRANCH  34  35
ATOM     35  C   UNL A   1      40.644  27.883  28.176  1.00  0.00     0.031 A 
ATOM     36  C   UNL A   1      42.109  28.225  28.224  1.00  0.00     0.074 A 
ATOM     37  C   UNL A   1      39.731  28.764  28.629  1.00  0.00     0.049 A 
ATOM     38  N   UNL A   1      42.693  29.292  28.703  1.00  0.00    -0.248 NA
ATOM     39  C   UNL A   1      43.041  27.224  27.677  1.00  0.00     0.031 C 
ATOM     40  C   UNL A   1      38.286  28.539  28.669  1.00  0.00     0.029 A 
ATOM     41  N   UNL A   1      39.888  30.016  29.170  1.00  0.00    -0.354 N 
ATOM     42  C   UNL A   1      44.058  29.082  28.545  1.00  0.00     0.074 A 
ATOM     43  C   UNL A   1      44.217  27.769  27.956  1.00  0.00     0.031 C 
ATOM     44  C   UNL A   1      37.688  29.616  29.204  1.00  0.00     0.029 A 
ATOM     45  C   UNL A   1      38.709  30.591  29.582  1.00  0.00     0.049 A 
ATOM     46  H   UNL A   1      40.763  30.462  29.253  1.00  0.00     0.167 HD
ATOM     47  C   UNL A   1      45.085  29.915  28.836  1.00  0.00     0.034 A 
ATOM     48  C   UNL A   1      38.475  31.762  30.206  1.00  0.00     0.034 A 
ATOM     49  C   UNL A   1      44.922  31.234  29.388  1.00  0.00     0.049 A 
ATOM     50  C   UNL A   1      39.635  32.668  30.523  1.00  0.00     0.074 A 
ATOM     51  C   UNL A   1      45.898  32.172  29.671  1.00  0.00     0.029 A 
ATOM     52  N   UNL A   1      43.707  31.802  29.743  1.00  0.00    -0.354 N 
ATOM     53  N   UNL A   1      40.909  32.500  30.267  1.00  0.00    -0.248 NA
ATOM     54  C   UNL A   1      39.320  33.942  31.187  1.00  0.00     0.031 C 
ATOM     55  C   UNL A   1      45.277  33.300  30.219  1.00  0.00     0.029 A 
ATOM     56  C   UNL A   1      43.910  33.076  30.249  1.00  0.00     0.049 A 
ATOM     57  H   UNL A   1      42.831  31.365  29.650  1.00  0.00     0.167 HD
ATOM     58  C   UNL A   1      41.546  33.653  30.713  1.00  0.00     0.074 A 
ATOM     59  C   UNL A   1      40.509  34.527  31.224  1.00  0.00     0.031 C 
ATOM     60  C   UNL A   1      42.869  33.955  30.719  1.00  0.00     0.034 A 
BRANCH  47  61
ATOM     61  C   UNL A   1      46.481  29.451  28.507  1.00  0.00     0.023 A 
ATOM     62  C   UNL A   1      47.102  29.907  27.325  1.00  0.00     0.012 A 
ATOM     63  C   UNL A   1      47.207  28.636  29.397  1.00  0.00     0.148 A 
ATOM     64  C   UNL A   1      48.411  29.538  27.021  1.00  0.00     0.002 A 
ATOM     65  C   UNL A   1      48.529  28.312  29.112  1.00  0.00     0.091 A 
ATOM     66  F   UNL A   1      46.594  28.197  30.506  1.00  0.00    -0.205 F 
ATOM     67  C   UNL A   1      49.127  28.751  27.919  1.00  0.00     0.022 A 
BRANCH  65  68
ATOM     68  S   UNL A   1      49.568  27.377  30.239  1.00  0.00     0.127 S 
ATOM     69  O   UNL A   1      50.850  27.386  29.535  1.00  0.00    -0.237 OA
ATOM     70  O   UNL A   1      49.529  28.203  31.447  1.00  0.00    -0.237 OA
ATOM     71  O   UNL A   1      48.943  26.069  30.373  1.00  0.00    -0.744 OA
ENDBRANCH  65  68
ENDBRANCH  47  61
BRANCH  48  72
ATOM     72  C   UNL A   1      37.074  32.174  30.513  1.00  0.00     0.023 A 
ATOM     73  C   UNL A   1      36.575  31.994  31.816  1.00  0.00     0.012 A 
ATOM     74  C   UNL A   1      36.251  32.779  29.541  1.00  0.00     0.148 A 
ATOM     75  C   UNL A   1      35.276  32.385  32.143  1.00  0.00     0.002 A 
ATOM     76  C   UNL A   1      34.980  33.221  29.889  1.00  0.00     0.091 A 
ATOM     77  F   UNL A   1      36.739  32.931  28.301  1.00  0.00    -0.205 F 
ATOM     78  C   UNL A   1      34.484  33.009  31.185  1.00  0.00     0.022 A 
BRANCH  76  79
ATOM     79  S   UNL A   1      33.941  34.161  28.764  1.00  0.00     0.127 S 
ATOM     80  O   UNL A   1      34.861  35.200  28.305  1.00  0.00    -0.237 OA
ATOM     81  O   UNL A   1      33.602  33.151  27.759  1.00  0.00    -0.237 OA
ATOM     82  O   UNL A   1      32.814  34.623  29.558  1.00  0.00    -0.744 OA
ENDBRANCH  76  79
ENDBRANCH  48  72
BRANCH  60  83
ATOM     83  C   UNL A   1      43.281  35.291  31.287  1.00  0.00     0.023 A 
ATOM     84  C   UNL A   1      43.566  36.361  30.414  1.00  0.00     0.012 A 
ATOM     85  C   UNL A   1      43.318  35.510  32.678  1.00  0.00     0.148 A 
ATOM     86  C   UNL A   1      43.919  37.613  30.915  1.00  0.00     0.002 A 
ATOM     87  C   UNL A   1      43.617  36.776  33.171  1.00  0.00     0.091 A 
ATOM     88  F   UNL A   1      43.060  34.478  33.496  1.00  0.00    -0.205 F 
ATOM     89  C   UNL A   1      43.933  37.823  32.292  1.00  0.00     0.022 A 
BRANCH  87  90
ATOM     90  S   UNL A   1      43.553  37.167  34.923  1.00  0.00     0.127 S 
ATOM     91  O   UNL A   1      42.120  37.075  35.197  1.00  0.00    -0.237 OA
ATOM     92  O   UNL A   1      44.355  36.093  35.511  1.00  0.00    -0.237 OA
ATOM     93  O   UNL A   1      44.134  38.496  35.059  1.00  0.00    -0.744 OA
ENDBRANCH  87  90
ENDBRANCH  60  83
ENDBRANCH  34  35
ENDBRANCH  26  29
ENDBRANCH  24  25
ENDBRANCH   1  24
TORSDOF 16
ENDMDL
