MODEL 1
REMARK VINA RESULT:     -12.6      0.000      0.000
REMARK SMILES CC(C)N1C[C@@H](C(=O)N2CCC(C(=O)NCCCNC(=O)c3ccc(-c4c5nc(c(-c6cccc(S(=O)(=O)[O-])c6F)c6ccc([nH]6)c(-c6cccc(S(=O)(=O)[O-])c6F)c6nc(c(-c7cccc(S(=O)(=O)[O-])c7F)c7ccc4[nH]7)C=C6)C=C5)cc3)CC2)CC1=O
REMARK SMILES IDX 17 1 16 2 15 3 13 4 14 5 12 7 7 8 8 9 9 10 10 11 86 12 11 13
REMARK SMILES IDX 85 14 6 15 4 16 5 17 88 18 87 19 89 20 2 21 1 22 3 23 18 24
REMARK SMILES IDX 19 25 20 26 21 28 22 29 23 30 84 31 24 32 83 33 25 34 26 35
REMARK SMILES IDX 27 36 77 37 28 38 82 39 76 40 78 41 29 42 81 43 75 44 74 45
REMARK SMILES IDX 30 47 62 48 42 49 61 50 43 51 46 52 60 53 79 54 44 55 45 56
REMARK SMILES IDX 59 58 80 59 47 60 31 61 32 62 40 63 33 64 35 65 41 66 34 67
REMARK SMILES IDX 36 68 37 69 38 70 39 71 63 72 64 73 72 74 65 75 67 76 73 77
REMARK SMILES IDX 66 78 68 79 69 80 70 81 71 82 48 83 49 84 57 85 50 86 52 87
REMARK SMILES IDX 58 88 51 89 53 90 54 91 55 92 56 93
REMARK H PARENT 15 6 19 27 78 46 46 57
REMARK Flexibility Score: inf
ROOT
ATOM      1  C   UNL A   1      31.797  31.689  26.571  1.00  0.00     0.042 C 
ENDROOT
BRANCH   1   2
ATOM      2  C   UNL A   1      32.079  30.212  26.350  1.00  0.00     0.117 C 
BRANCH   2   3
ATOM      3  N   UNL A   1      31.402  29.689  25.170  1.00  0.00    -0.356 N 
ATOM      4  C   UNL A   1      31.529  28.502  24.518  1.00  0.00     0.223 C 
ATOM      5  O   UNL A   1      30.819  28.306  23.529  1.00  0.00    -0.275 OA
ATOM      6  H   UNL A   1      30.739  30.302  24.776  1.00  0.00     0.163 HD
BRANCH   4   7
ATOM      7  C   UNL A   1      32.477  27.419  25.008  1.00  0.00     0.082 C 
ATOM      8  C   UNL A   1      32.544  23.482  24.484  1.00  0.00     0.227 C 
ATOM      9  O   UNL A   1      31.320  23.345  24.529  1.00  0.00    -0.274 OA
ATOM     10  N   UNL A   1      33.150  24.620  24.987  1.00  0.00    -0.342 N 
ATOM     11  C   UNL A   1      32.623  25.198  26.215  1.00  0.00     0.120 C 
ATOM     12  C   UNL A   1      33.983  25.514  24.201  1.00  0.00     0.120 C 
ATOM     13  C   UNL A   1      31.779  26.430  25.949  1.00  0.00     0.035 C 
ATOM     14  C   UNL A   1      33.234  26.790  23.830  1.00  0.00     0.035 C 
BRANCH   8  15
ATOM     15  C   UNL A   1      33.418  22.299  24.082  1.00  0.00     0.107 C 
ATOM     16  N   UNL A   1      33.688  20.005  24.506  1.00  0.00    -0.339 N 
ATOM     17  C   UNL A   1      32.665  20.989  24.262  1.00  0.00     0.133 C 
ATOM     18  C   UNL A   1      34.921  20.577  24.763  1.00  0.00     0.223 C 
ATOM     19  C   UNL A   1      34.766  22.076  24.750  1.00  0.00     0.115 C 
ATOM     20  O   UNL A   1      35.965  19.992  25.015  1.00  0.00    -0.275 OA
BRANCH  16  21
ATOM     21  C   UNL A   1      33.387  18.574  24.490  1.00  0.00     0.078 C 
ATOM     22  C   UNL A   1      32.629  18.154  25.745  1.00  0.00     0.031 C 
ATOM     23  C   UNL A   1      32.642  18.160  23.222  1.00  0.00     0.031 C 
ENDBRANCH  16  21
ENDBRANCH   8  15
ENDBRANCH   4   7
ENDBRANCH   2   3
ENDBRANCH   1   2
BRANCH   1  24
ATOM     24  C   UNL A   1      32.871  32.398  27.378  1.00  0.00     0.118 C 
BRANCH  24  25
ATOM     25  N   UNL A   1      32.562  33.805  27.611  1.00  0.00    -0.352 N 
ATOM     26  C   UNL A   1      33.079  34.665  28.550  1.00  0.00     0.251 C 
ATOM     27  H   UNL A   1      31.886  34.193  27.009  1.00  0.00     0.163 HD
ATOM     28  O   UNL A   1      32.565  35.765  28.727  1.00  0.00    -0.269 OA
BRANCH  26  29
ATOM     29  C   UNL A   1      34.244  34.246  29.355  1.00  0.00     0.039 A 
ATOM     30  C   UNL A   1      34.041  33.561  30.555  1.00  0.00     0.014 A 
ATOM     31  C   UNL A   1      35.539  34.506  28.900  1.00  0.00     0.014 A 
ATOM     32  C   UNL A   1      35.141  33.067  31.260  1.00  0.00     0.010 A 
ATOM     33  C   UNL A   1      36.622  33.929  29.548  1.00  0.00     0.010 A 
ATOM     34  C   UNL A   1      36.438  33.212  30.740  1.00  0.00    -0.014 A 
BRANCH  34  35
ATOM     35  C   UNL A   1      37.631  32.639  31.414  1.00  0.00     0.031 A 
ATOM     36  C   UNL A   1      38.364  31.492  30.772  1.00  0.00     0.074 A 
ATOM     37  C   UNL A   1      37.977  33.062  32.647  1.00  0.00     0.049 A 
ATOM     38  N   UNL A   1      39.324  30.749  31.258  1.00  0.00    -0.248 NA
ATOM     39  C   UNL A   1      37.937  31.105  29.416  1.00  0.00     0.031 C 
ATOM     40  C   UNL A   1      37.306  34.122  33.401  1.00  0.00     0.029 A 
ATOM     41  N   UNL A   1      38.959  32.620  33.499  1.00  0.00    -0.354 N 
ATOM     42  C   UNL A   1      39.576  29.780  30.295  1.00  0.00     0.074 A 
ATOM     43  C   UNL A   1      38.648  30.008  29.209  1.00  0.00     0.031 C 
ATOM     44  C   UNL A   1      37.890  34.245  34.604  1.00  0.00     0.029 A 
ATOM     45  C   UNL A   1      38.946  33.246  34.725  1.00  0.00     0.049 A 
ATOM     46  H   UNL A   1      39.609  31.921  33.258  1.00  0.00     0.167 HD
ATOM     47  C   UNL A   1      40.513  28.803  30.301  1.00  0.00     0.034 A 
ATOM     48  C   UNL A   1      39.686  33.023  35.830  1.00  0.00     0.034 A 
ATOM     49  C   UNL A   1      41.461  28.608  31.363  1.00  0.00     0.049 A 
ATOM     50  C   UNL A   1      40.738  31.948  35.800  1.00  0.00     0.074 A 
ATOM     51  C   UNL A   1      42.504  27.702  31.429  1.00  0.00     0.029 A 
ATOM     52  N   UNL A   1      41.477  29.325  32.548  1.00  0.00    -0.354 N 
ATOM     53  N   UNL A   1      41.052  31.126  34.828  1.00  0.00    -0.248 NA
ATOM     54  C   UNL A   1      41.563  31.788  37.007  1.00  0.00     0.031 C 
ATOM     55  C   UNL A   1      43.128  27.847  32.670  1.00  0.00     0.029 A 
ATOM     56  C   UNL A   1      42.506  28.876  33.357  1.00  0.00     0.049 A 
ATOM     57  H   UNL A   1      40.849  30.047  32.782  1.00  0.00     0.167 HD
ATOM     58  C   UNL A   1      42.138  30.390  35.284  1.00  0.00     0.074 A 
ATOM     59  C   UNL A   1      42.434  30.867  36.620  1.00  0.00     0.031 C 
ATOM     60  C   UNL A   1      42.826  29.405  34.659  1.00  0.00     0.034 A 
BRANCH  47  61
ATOM     61  C   UNL A   1      40.584  27.891  29.103  1.00  0.00     0.023 A 
ATOM     62  C   UNL A   1      39.685  26.810  28.990  1.00  0.00     0.012 A 
ATOM     63  C   UNL A   1      41.503  28.136  28.064  1.00  0.00     0.148 A 
ATOM     64  C   UNL A   1      39.727  25.963  27.883  1.00  0.00     0.002 A 
ATOM     65  C   UNL A   1      41.504  27.319  26.939  1.00  0.00     0.091 A 
ATOM     66  F   UNL A   1      42.364  29.156  28.197  1.00  0.00    -0.205 F 
ATOM     67  C   UNL A   1      40.628  26.225  26.854  1.00  0.00     0.022 A 
BRANCH  65  68
ATOM     68  S   UNL A   1      42.565  27.623  25.522  1.00  0.00     0.127 S 
ATOM     69  O   UNL A   1      42.275  26.461  24.683  1.00  0.00    -0.237 OA
ATOM     70  O   UNL A   1      42.038  28.888  25.012  1.00  0.00    -0.237 OA
ATOM     71  O   UNL A   1      43.922  27.694  26.042  1.00  0.00    -0.744 OA
ENDBRANCH  65  68
ENDBRANCH  47  61
BRANCH  48  72
ATOM     72  C   UNL A   1      39.492  33.868  37.042  1.00  0.00     0.023 A 
ATOM     73  C   UNL A   1      39.962  35.197  37.041  1.00  0.00     0.012 A 
ATOM     74  C   UNL A   1      38.835  33.374  38.186  1.00  0.00     0.148 A 
ATOM     75  C   UNL A   1      39.816  36.005  38.170  1.00  0.00     0.002 A 
ATOM     76  C   UNL A   1      38.644  34.201  39.287  1.00  0.00     0.091 A 
ATOM     77  F   UNL A   1      38.401  32.107  38.170  1.00  0.00    -0.205 F 
ATOM     78  C   UNL A   1      39.151  35.510  39.288  1.00  0.00     0.022 A 
BRANCH  76  79
ATOM     79  S   UNL A   1      37.693  33.695  40.723  1.00  0.00     0.127 S 
ATOM     80  O   UNL A   1      37.522  34.962  41.431  1.00  0.00    -0.237 OA
ATOM     81  O   UNL A   1      36.477  33.164  40.108  1.00  0.00    -0.237 OA
ATOM     82  O   UNL A   1      38.506  32.698  41.406  1.00  0.00    -0.744 OA
ENDBRANCH  76  79
ENDBRANCH  48  72
BRANCH  60  83
ATOM     83  C   UNL A   1      44.018  28.814  35.365  1.00  0.00     0.023 A 
ATOM     84  C   UNL A   1      45.298  29.374  35.193  1.00  0.00     0.012 A 
ATOM     85  C   UNL A   1      43.841  27.757  36.281  1.00  0.00     0.148 A 
ATOM     86  C   UNL A   1      46.389  28.872  35.901  1.00  0.00     0.002 A 
ATOM     87  C   UNL A   1      44.923  27.300  37.022  1.00  0.00     0.091 A 
ATOM     88  F   UNL A   1      42.617  27.227  36.417  1.00  0.00    -0.205 F 
ATOM     89  C   UNL A   1      46.200  27.847  36.825  1.00  0.00     0.022 A 
BRANCH  87  90
ATOM     90  S   UNL A   1      44.753  26.057  38.308  1.00  0.00     0.127 S 
ATOM     91  O   UNL A   1      46.132  25.919  38.773  1.00  0.00    -0.237 OA
ATOM     92  O   UNL A   1      43.851  26.713  39.254  1.00  0.00    -0.237 OA
ATOM     93  O   UNL A   1      44.196  24.877  37.659  1.00  0.00    -0.744 OA
ENDBRANCH  87  90
ENDBRANCH  60  83
ENDBRANCH  34  35
ENDBRANCH  26  29
ENDBRANCH  24  25
ENDBRANCH   1  24
TORSDOF 15
ENDMDL
MODEL 2
REMARK VINA RESULT:     -12.3      5.768     12.048
REMARK SMILES CC(C)N1C[C@@H](C(=O)N2CCC(C(=O)NCCCNC(=O)c3ccc(-c4c5nc(c(-c6cccc(S(=O)(=O)[O-])c6F)c6ccc([nH]6)c(-c6cccc(S(=O)(=O)[O-])c6F)c6nc(c(-c7cccc(S(=O)(=O)[O-])c7F)c7ccc4[nH]7)C=C6)C=C5)cc3)CC2)CC1=O
REMARK SMILES IDX 17 1 16 2 15 3 13 4 14 5 12 7 7 8 8 9 9 10 10 11 86 12 11 13
REMARK SMILES IDX 85 14 6 15 4 16 5 17 88 18 87 19 89 20 2 21 1 22 3 23 18 24
REMARK SMILES IDX 19 25 20 26 21 28 22 29 23 30 84 31 24 32 83 33 25 34 26 35
REMARK SMILES IDX 27 36 77 37 28 38 82 39 76 40 78 41 29 42 81 43 75 44 74 45
REMARK SMILES IDX 30 47 62 48 42 49 61 50 43 51 46 52 60 53 79 54 44 55 45 56
REMARK SMILES IDX 59 58 80 59 47 60 31 61 32 62 40 63 33 64 35 65 41 66 34 67
REMARK SMILES IDX 36 68 37 69 38 70 39 71 63 72 64 73 72 74 65 75 67 76 73 77
REMARK SMILES IDX 66 78 68 79 69 80 70 81 71 82 48 83 49 84 57 85 50 86 52 87
REMARK SMILES IDX 58 88 51 89 53 90 54 91 55 92 56 93
REMARK H PARENT 15 6 19 27 78 46 46 57
REMARK Flexibility Score: inf
ROOT
ATOM      1  C   UNL A   1      37.805  20.476  25.077  1.00  0.00     0.042 C 
ENDROOT
BRANCH   1   2
ATOM      2  C   UNL A   1      36.832  21.643  25.027  1.00  0.00     0.117 C 
BRANCH   2   3
ATOM      3  N   UNL A   1      35.474  21.249  25.380  1.00  0.00    -0.356 N 
ATOM      4  C   UNL A   1      34.274  21.822  25.098  1.00  0.00     0.223 C 
ATOM      5  O   UNL A   1      33.255  21.271  25.521  1.00  0.00    -0.275 OA
ATOM      6  H   UNL A   1      35.417  20.425  25.917  1.00  0.00     0.163 HD
BRANCH   4   7
ATOM      7  C   UNL A   1      34.169  23.077  24.245  1.00  0.00     0.082 C 
ATOM      8  C   UNL A   1      31.174  25.589  23.535  1.00  0.00     0.227 C 
ATOM      9  O   UNL A   1      30.302  24.717  23.521  1.00  0.00    -0.274 OA
ATOM     10  N   UNL A   1      32.508  25.261  23.371  1.00  0.00    -0.342 N 
ATOM     11  C   UNL A   1      32.850  24.220  22.410  1.00  0.00     0.120 C 
ATOM     12  C   UNL A   1      33.545  25.557  24.344  1.00  0.00     0.120 C 
ATOM     13  C   UNL A   1      33.177  22.903  23.088  1.00  0.00     0.035 C 
ATOM     14  C   UNL A   1      33.945  24.312  25.130  1.00  0.00     0.035 C 
BRANCH   8  15
ATOM     15  C   UNL A   1      30.768  27.057  23.505  1.00  0.00     0.107 C 
ATOM     16  N   UNL A   1      28.992  28.445  22.845  1.00  0.00    -0.339 N 
ATOM     17  C   UNL A   1      29.252  27.196  23.515  1.00  0.00     0.133 C 
ATOM     18  C   UNL A   1      30.110  28.943  22.201  1.00  0.00     0.223 C 
ATOM     19  C   UNL A   1      31.241  27.964  22.379  1.00  0.00     0.115 C 
ATOM     20  O   UNL A   1      30.183  29.973  21.545  1.00  0.00    -0.275 OA
BRANCH  16  21
ATOM     21  C   UNL A   1      27.663  29.055  22.864  1.00  0.00     0.078 C 
ATOM     22  C   UNL A   1      26.656  28.168  23.591  1.00  0.00     0.031 C 
ATOM     23  C   UNL A   1      27.689  30.466  23.451  1.00  0.00     0.031 C 
ENDBRANCH  16  21
ENDBRANCH   8  15
ENDBRANCH   4   7
ENDBRANCH   2   3
ENDBRANCH   1   2
BRANCH   1  24
ATOM     24  C   UNL A   1      39.062  20.769  25.877  1.00  0.00     0.118 C 
BRANCH  24  25
ATOM     25  N   UNL A   1      39.964  19.623  25.945  1.00  0.00    -0.352 N 
ATOM     26  C   UNL A   1      41.331  19.599  26.078  1.00  0.00     0.251 C 
ATOM     27  H   UNL A   1      39.529  18.741  25.888  1.00  0.00     0.163 HD
ATOM     28  O   UNL A   1      41.947  18.548  25.926  1.00  0.00    -0.269 OA
BRANCH  26  29
ATOM     29  C   UNL A   1      42.053  20.851  26.386  1.00  0.00     0.039 A 
ATOM     30  C   UNL A   1      42.452  21.689  25.342  1.00  0.00     0.014 A 
ATOM     31  C   UNL A   1      42.303  21.206  27.713  1.00  0.00     0.014 A 
ATOM     32  C   UNL A   1      43.035  22.924  25.635  1.00  0.00     0.010 A 
ATOM     33  C   UNL A   1      42.788  22.474  28.003  1.00  0.00     0.010 A 
ATOM     34  C   UNL A   1      43.169  23.343  26.969  1.00  0.00    -0.014 A 
BRANCH  34  35
ATOM     35  C   UNL A   1      43.712  24.678  27.330  1.00  0.00     0.031 A 
ATOM     36  C   UNL A   1      42.781  25.741  27.846  1.00  0.00     0.074 A 
ATOM     37  C   UNL A   1      45.004  24.971  27.079  1.00  0.00     0.049 A 
ATOM     38  N   UNL A   1      43.015  27.007  28.070  1.00  0.00    -0.248 NA
ATOM     39  C   UNL A   1      41.390  25.334  28.113  1.00  0.00     0.031 C 
ATOM     40  C   UNL A   1      45.991  24.046  26.519  1.00  0.00     0.029 A 
ATOM     41  N   UNL A   1      45.698  26.146  27.225  1.00  0.00    -0.354 N 
ATOM     42  C   UNL A   1      41.796  27.556  28.450  1.00  0.00     0.074 A 
ATOM     43  C   UNL A   1      40.817  26.493  28.397  1.00  0.00     0.031 C 
ATOM     44  C   UNL A   1      47.161  24.688  26.365  1.00  0.00     0.029 A 
ATOM     45  C   UNL A   1      46.996  26.080  26.771  1.00  0.00     0.049 A 
ATOM     46  H   UNL A   1      45.305  26.960  27.617  1.00  0.00     0.167 HD
ATOM     47  C   UNL A   1      41.520  28.824  28.834  1.00  0.00     0.034 A 
ATOM     48  C   UNL A   1      47.939  27.038  26.670  1.00  0.00     0.034 A 
ATOM     49  C   UNL A   1      42.506  29.866  28.926  1.00  0.00     0.049 A 
ATOM     50  C   UNL A   1      47.614  28.434  27.129  1.00  0.00     0.074 A 
ATOM     51  C   UNL A   1      42.348  31.161  29.384  1.00  0.00     0.029 A 
ATOM     52  N   UNL A   1      43.832  29.734  28.547  1.00  0.00    -0.354 N 
ATOM     53  N   UNL A   1      46.488  28.904  27.612  1.00  0.00    -0.248 NA
ATOM     54  C   UNL A   1      48.696  29.428  27.061  1.00  0.00     0.031 C 
ATOM     55  C   UNL A   1      43.570  31.823  29.248  1.00  0.00     0.029 A 
ATOM     56  C   UNL A   1      44.502  30.927  28.751  1.00  0.00     0.049 A 
ATOM     57  H   UNL A   1      44.238  28.913  28.185  1.00  0.00     0.167 HD
ATOM     58  C   UNL A   1      46.741  30.228  27.951  1.00  0.00     0.074 A 
ATOM     59  C   UNL A   1      48.128  30.485  27.624  1.00  0.00     0.031 C 
ATOM     60  C   UNL A   1      45.899  31.149  28.479  1.00  0.00     0.034 A 
BRANCH  47  61
ATOM     61  C   UNL A   1      40.100  29.148  29.220  1.00  0.00     0.023 A 
ATOM     62  C   UNL A   1      39.153  29.450  28.220  1.00  0.00     0.012 A 
ATOM     63  C   UNL A   1      39.690  29.100  30.567  1.00  0.00     0.148 A 
ATOM     64  C   UNL A   1      37.831  29.740  28.557  1.00  0.00     0.002 A 
ATOM     65  C   UNL A   1      38.360  29.338  30.891  1.00  0.00     0.091 A 
ATOM     66  F   UNL A   1      40.609  28.831  31.507  1.00  0.00    -0.205 F 
ATOM     67  C   UNL A   1      37.433  29.672  29.890  1.00  0.00     0.022 A 
BRANCH  65  68
ATOM     68  S   UNL A   1      37.728  29.191  32.566  1.00  0.00     0.127 S 
ATOM     69  O   UNL A   1      38.620  30.092  33.296  1.00  0.00    -0.237 OA
ATOM     70  O   UNL A   1      36.357  29.679  32.419  1.00  0.00    -0.237 OA
ATOM     71  O   UNL A   1      37.840  27.784  32.917  1.00  0.00    -0.744 OA
ENDBRANCH  65  68
ENDBRANCH  47  61
BRANCH  48  72
ATOM     72  C   UNL A   1      49.297  26.700  26.159  1.00  0.00     0.023 A 
ATOM     73  C   UNL A   1      50.165  25.929  26.959  1.00  0.00     0.012 A 
ATOM     74  C   UNL A   1      49.730  27.120  24.886  1.00  0.00     0.148 A 
ATOM     75  C   UNL A   1      51.451  25.617  26.517  1.00  0.00     0.002 A 
ATOM     76  C   UNL A   1      50.992  26.758  24.429  1.00  0.00     0.091 A 
ATOM     77  F   UNL A   1      48.893  27.856  24.143  1.00  0.00    -0.205 F 
ATOM     78  C   UNL A   1      51.861  26.024  25.250  1.00  0.00     0.022 A 
BRANCH  76  79
ATOM     79  S   UNL A   1      51.561  27.129  22.766  1.00  0.00     0.127 S 
ATOM     80  O   UNL A   1      51.784  28.571  22.842  1.00  0.00    -0.237 OA
ATOM     81  O   UNL A   1      52.777  26.321  22.676  1.00  0.00    -0.237 OA
ATOM     82  O   UNL A   1      50.488  26.705  21.877  1.00  0.00    -0.744 OA
ENDBRANCH  76  79
ENDBRANCH  48  72
BRANCH  60  83
ATOM     83  C   UNL A   1      46.458  32.507  28.815  1.00  0.00     0.023 A 
ATOM     84  C   UNL A   1      46.987  32.763  30.094  1.00  0.00     0.012 A 
ATOM     85  C   UNL A   1      46.542  33.500  27.818  1.00  0.00     0.148 A 
ATOM     86  C   UNL A   1      47.568  33.997  30.384  1.00  0.00     0.002 A 
ATOM     87  C   UNL A   1      47.170  34.706  28.099  1.00  0.00     0.091 A 
ATOM     88  F   UNL A   1      46.015  33.241  26.612  1.00  0.00    -0.205 F 
ATOM     89  C   UNL A   1      47.672  34.962  29.384  1.00  0.00     0.022 A 
BRANCH  87  90
ATOM     90  S   UNL A   1      47.443  35.964  26.846  1.00  0.00     0.127 S 
ATOM     91  O   UNL A   1      48.010  37.054  27.638  1.00  0.00    -0.237 OA
ATOM     92  O   UNL A   1      48.391  35.304  25.948  1.00  0.00    -0.237 OA
ATOM     93  O   UNL A   1      46.139  36.238  26.256  1.00  0.00    -0.744 OA
ENDBRANCH  87  90
ENDBRANCH  60  83
ENDBRANCH  34  35
ENDBRANCH  26  29
ENDBRANCH  24  25
ENDBRANCH   1  24
TORSDOF 15
ENDMDL
MODEL 3
REMARK VINA RESULT:     -12.3      6.196     11.696
REMARK SMILES CC(C)N1C[C@@H](C(=O)N2CCC(C(=O)NCCCNC(=O)c3ccc(-c4c5nc(c(-c6cccc(S(=O)(=O)[O-])c6F)c6ccc([nH]6)c(-c6cccc(S(=O)(=O)[O-])c6F)c6nc(c(-c7cccc(S(=O)(=O)[O-])c7F)c7ccc4[nH]7)C=C6)C=C5)cc3)CC2)CC1=O
REMARK SMILES IDX 17 1 16 2 15 3 13 4 14 5 12 7 7 8 8 9 9 10 10 11 86 12 11 13
REMARK SMILES IDX 85 14 6 15 4 16 5 17 88 18 87 19 89 20 2 21 1 22 3 23 18 24
REMARK SMILES IDX 19 25 20 26 21 28 22 29 23 30 84 31 24 32 83 33 25 34 26 35
REMARK SMILES IDX 27 36 77 37 28 38 82 39 76 40 78 41 29 42 81 43 75 44 74 45
REMARK SMILES IDX 30 47 62 48 42 49 61 50 43 51 46 52 60 53 79 54 44 55 45 56
REMARK SMILES IDX 59 58 80 59 47 60 31 61 32 62 40 63 33 64 35 65 41 66 34 67
REMARK SMILES IDX 36 68 37 69 38 70 39 71 63 72 64 73 72 74 65 75 67 76 73 77
REMARK SMILES IDX 66 78 68 79 69 80 70 81 71 82 48 83 49 84 57 85 50 86 52 87
REMARK SMILES IDX 58 88 51 89 53 90 54 91 55 92 56 93
REMARK H PARENT 15 6 19 27 78 46 46 57
REMARK Flexibility Score: inf
ROOT
ATOM      1  C   UNL A   1      37.732  19.852  24.736  1.00  0.00     0.042 C 
ENDROOT
BRANCH   1   2
ATOM      2  C   UNL A   1      36.509  20.751  24.664  1.00  0.00     0.117 C 
BRANCH   2   3
ATOM      3  N   UNL A   1      35.367  20.192  25.377  1.00  0.00    -0.356 N 
ATOM      4  C   UNL A   1      34.087  20.632  25.502  1.00  0.00     0.223 C 
ATOM      5  O   UNL A   1      33.303  19.954  26.171  1.00  0.00    -0.275 OA
ATOM      6  H   UNL A   1      35.557  19.349  25.852  1.00  0.00     0.163 HD
BRANCH   4   7
ATOM      7  C   UNL A   1      33.605  21.895  24.804  1.00  0.00     0.082 C 
ATOM      8  C   UNL A   1      30.974  24.686  25.835  1.00  0.00     0.227 C 
ATOM      9  O   UNL A   1      30.191  23.903  26.377  1.00  0.00    -0.274 OA
ATOM     10  N   UNL A   1      31.929  24.232  24.943  1.00  0.00    -0.342 N 
ATOM     11  C   UNL A   1      31.560  23.166  24.020  1.00  0.00     0.120 C 
ATOM     12  C   UNL A   1      33.359  24.423  25.113  1.00  0.00     0.120 C 
ATOM     13  C   UNL A   1      32.115  21.822  24.451  1.00  0.00     0.035 C 
ATOM     14  C   UNL A   1      34.040  23.142  25.585  1.00  0.00     0.035 C 
BRANCH   8  15
ATOM     15  C   UNL A   1      30.747  26.188  25.968  1.00  0.00     0.107 C 
ATOM     16  N   UNL A   1      31.162  28.202  24.835  1.00  0.00    -0.339 N 
ATOM     17  C   UNL A   1      30.721  26.851  24.599  1.00  0.00     0.133 C 
ATOM     18  C   UNL A   1      31.702  28.369  26.097  1.00  0.00     0.223 C 
ATOM     19  C   UNL A   1      31.693  27.038  26.802  1.00  0.00     0.115 C 
ATOM     20  O   UNL A   1      32.166  29.399  26.568  1.00  0.00    -0.275 OA
BRANCH  16  21
ATOM     21  C   UNL A   1      31.043  29.232  23.804  1.00  0.00     0.078 C 
ATOM     22  C   UNL A   1      32.016  28.982  22.656  1.00  0.00     0.031 C 
ATOM     23  C   UNL A   1      29.608  29.374  23.298  1.00  0.00     0.031 C 
ENDBRANCH  16  21
ENDBRANCH   8  15
ENDBRANCH   4   7
ENDBRANCH   2   3
ENDBRANCH   1   2
BRANCH   1  24
ATOM     24  C   UNL A   1      38.682  20.210  25.867  1.00  0.00     0.118 C 
BRANCH  24  25
ATOM     25  N   UNL A   1      39.864  19.353  25.900  1.00  0.00    -0.352 N 
ATOM     26  C   UNL A   1      41.179  19.695  26.103  1.00  0.00     0.251 C 
ATOM     27  H   UNL A   1      39.693  18.394  25.757  1.00  0.00     0.163 HD
ATOM     28  O   UNL A   1      42.066  18.869  25.909  1.00  0.00    -0.269 OA
BRANCH  26  29
ATOM     29  C   UNL A   1      41.515  21.066  26.537  1.00  0.00     0.039 A 
ATOM     30  C   UNL A   1      41.998  21.278  27.831  1.00  0.00     0.014 A 
ATOM     31  C   UNL A   1      41.382  22.135  25.649  1.00  0.00     0.014 A 
ATOM     32  C   UNL A   1      42.421  22.555  28.207  1.00  0.00     0.010 A 
ATOM     33  C   UNL A   1      41.896  23.378  25.990  1.00  0.00     0.010 A 
ATOM     34  C   UNL A   1      42.411  23.606  27.275  1.00  0.00    -0.014 A 
BRANCH  34  35
ATOM     35  C   UNL A   1      42.921  24.962  27.603  1.00  0.00     0.031 A 
ATOM     36  C   UNL A   1      41.997  25.967  28.236  1.00  0.00     0.074 A 
ATOM     37  C   UNL A   1      44.162  25.326  27.224  1.00  0.00     0.049 A 
ATOM     38  N   UNL A   1      42.188  27.241  28.459  1.00  0.00    -0.248 NA
ATOM     39  C   UNL A   1      40.665  25.484  28.640  1.00  0.00     0.031 C 
ATOM     40  C   UNL A   1      45.130  24.462  26.546  1.00  0.00     0.029 A 
ATOM     41  N   UNL A   1      44.807  26.534  27.320  1.00  0.00    -0.354 N 
ATOM     42  C   UNL A   1      40.991  27.719  28.976  1.00  0.00     0.074 A 
ATOM     43  C   UNL A   1      40.066  26.607  29.005  1.00  0.00     0.031 C 
ATOM     44  C   UNL A   1      46.243  25.168  26.282  1.00  0.00     0.029 A 
ATOM     45  C   UNL A   1      46.051  26.542  26.730  1.00  0.00     0.049 A 
ATOM     46  H   UNL A   1      44.417  27.320  27.767  1.00  0.00     0.167 HD
ATOM     47  C   UNL A   1      40.693  28.965  29.412  1.00  0.00     0.034 A 
ATOM     48  C   UNL A   1      46.929  27.551  26.551  1.00  0.00     0.034 A 
ATOM     49  C   UNL A   1      41.628  30.056  29.421  1.00  0.00     0.049 A 
ATOM     50  C   UNL A   1      46.583  28.921  27.069  1.00  0.00     0.074 A 
ATOM     51  C   UNL A   1      41.454  31.334  29.918  1.00  0.00     0.029 A 
ATOM     52  N   UNL A   1      42.912  29.999  28.901  1.00  0.00    -0.354 N 
ATOM     53  N   UNL A   1      45.493  29.324  27.676  1.00  0.00    -0.248 NA
ATOM     54  C   UNL A   1      47.600  29.971  26.907  1.00  0.00     0.031 C 
ATOM     55  C   UNL A   1      42.620  32.062  29.667  1.00  0.00     0.029 A 
ATOM     56  C   UNL A   1      43.538  31.223  29.058  1.00  0.00     0.049 A 
ATOM     57  H   UNL A   1      43.319  29.206  28.483  1.00  0.00     0.167 HD
ATOM     58  C   UNL A   1      45.712  30.654  28.013  1.00  0.00     0.074 A 
ATOM     59  C   UNL A   1      47.042  30.989  27.547  1.00  0.00     0.031 C 
ATOM     60  C   UNL A   1      44.886  31.522  28.645  1.00  0.00     0.034 A 
BRANCH  47  61
ATOM     61  C   UNL A   1      39.307  29.208  29.951  1.00  0.00     0.023 A 
ATOM     62  C   UNL A   1      38.999  28.855  31.281  1.00  0.00     0.012 A 
ATOM     63  C   UNL A   1      38.325  29.835  29.159  1.00  0.00     0.148 A 
ATOM     64  C   UNL A   1      37.726  29.083  31.801  1.00  0.00     0.002 A 
ATOM     65  C   UNL A   1      37.074  30.107  29.701  1.00  0.00     0.091 A 
ATOM     66  F   UNL A   1      38.628  30.145  27.890  1.00  0.00    -0.205 F 
ATOM     67  C   UNL A   1      36.769  29.719  31.015  1.00  0.00     0.022 A 
BRANCH  65  68
ATOM     68  S   UNL A   1      35.801  30.998  28.800  1.00  0.00     0.127 S 
ATOM     69  O   UNL A   1      35.149  29.916  28.063  1.00  0.00    -0.237 OA
ATOM     70  O   UNL A   1      35.000  31.565  29.885  1.00  0.00    -0.237 OA
ATOM     71  O   UNL A   1      36.497  31.979  27.981  1.00  0.00    -0.744 OA
ENDBRANCH  65  68
ENDBRANCH  47  61
BRANCH  48  72
ATOM     72  C   UNL A   1      48.241  27.291  25.893  1.00  0.00     0.023 A 
ATOM     73  C   UNL A   1      49.326  26.837  26.669  1.00  0.00     0.012 A 
ATOM     74  C   UNL A   1      48.418  27.475  24.508  1.00  0.00     0.148 A 
ATOM     75  C   UNL A   1      50.572  26.609  26.086  1.00  0.00     0.002 A 
ATOM     76  C   UNL A   1      49.647  27.193  23.923  1.00  0.00     0.091 A 
ATOM     77  F   UNL A   1      47.376  27.913  23.788  1.00  0.00    -0.205 F 
ATOM     78  C   UNL A   1      50.731  26.779  24.713  1.00  0.00     0.022 A 
BRANCH  76  79
ATOM     79  S   UNL A   1      49.912  27.263  22.148  1.00  0.00     0.127 S 
ATOM     80  O   UNL A   1      48.895  26.335  21.658  1.00  0.00    -0.237 OA
ATOM     81  O   UNL A   1      49.651  28.672  21.859  1.00  0.00    -0.237 OA
ATOM     82  O   UNL A   1      51.293  26.850  21.938  1.00  0.00    -0.744 OA
ENDBRANCH  76  79
ENDBRANCH  48  72
BRANCH  60  83
ATOM     83  C   UNL A   1      45.407  32.902  28.948  1.00  0.00     0.023 A 
ATOM     84  C   UNL A   1      46.161  33.140  30.112  1.00  0.00     0.012 A 
ATOM     85  C   UNL A   1      45.225  33.944  28.015  1.00  0.00     0.148 A 
ATOM     86  C   UNL A   1      46.703  34.401  30.358  1.00  0.00     0.002 A 
ATOM     87  C   UNL A   1      45.813  35.181  28.240  1.00  0.00     0.091 A 
ATOM     88  F   UNL A   1      44.488  33.700  26.921  1.00  0.00    -0.205 F 
ATOM     89  C   UNL A   1      46.542  35.416  29.416  1.00  0.00     0.022 A 
BRANCH  87  90
ATOM     90  S   UNL A   1      45.747  36.513  27.037  1.00  0.00     0.127 S 
ATOM     91  O   UNL A   1      46.361  35.887  25.867  1.00  0.00    -0.237 OA
ATOM     92  O   UNL A   1      44.309  36.750  26.918  1.00  0.00    -0.237 OA
ATOM     93  O   UNL A   1      46.498  37.619  27.616  1.00  0.00    -0.744 OA
ENDBRANCH  87  90
ENDBRANCH  60  83
ENDBRANCH  34  35
ENDBRANCH  26  29
ENDBRANCH  24  25
ENDBRANCH   1  24
TORSDOF 15
ENDMDL
