MODEL 1
REMARK VINA RESULT:     -12.2      0.000      0.000
REMARK SMILES Cc1ccc([C@@](C)(O)[C@H](F)C(=O)NCCCNC(=O)c2ccc(-c3c4nc(c(-c5cccc(S(=O)(=O)[O-])c5F)c5ccc([nH]5)c(-c5cccc(S(=O)(=O)[O-])c5F)c5nc(c(-c6cccc(S(=O)(=O)[O-])c6F)c6ccc3[nH]6)C=C5)C=C4)cc2)cc1F
REMARK SMILES IDX 15 1 14 2 13 3 11 4 12 5 9 7 10 8 6 9 7 10 5 11 1 12 2 13
REMARK SMILES IDX 3 14 84 15 4 16 83 17 85 18 8 19 16 21 17 22 18 23 19 25
REMARK SMILES IDX 20 26 21 27 82 28 22 29 81 30 23 31 24 32 25 33 75 34 26 35
REMARK SMILES IDX 80 36 74 37 76 38 27 39 79 40 73 41 72 42 28 44 60 45 40 46
REMARK SMILES IDX 59 47 41 48 44 49 58 50 77 51 42 52 43 53 57 55 78 56 45 57
REMARK SMILES IDX 29 58 30 59 38 60 31 61 33 62 39 63 32 64 34 65 35 66 36 67
REMARK SMILES IDX 37 68 61 69 62 70 70 71 63 72 65 73 71 74 64 75 66 76 67 77
REMARK SMILES IDX 68 78 69 79 46 80 47 81 55 82 48 83 50 84 56 85 49 86 51 87
REMARK SMILES IDX 52 88 53 89 54 90
REMARK H PARENT 13 6 8 20 17 24 76 43 44 54
REMARK Flexibility Score: inf
ROOT
ATOM      1  C   UNL A   1      33.305  28.522  26.558  1.00  0.00     0.042 C 
ENDROOT
BRANCH   1   2
ATOM      2  C   UNL A   1      33.486  27.052  26.240  1.00  0.00     0.117 C 
BRANCH   2   3
ATOM      3  N   UNL A   1      32.285  26.241  26.382  1.00  0.00    -0.353 N 
ATOM      4  C   UNL A   1      32.253  24.881  26.580  1.00  0.00     0.257 C 
ATOM      5  O   UNL A   1      31.198  24.313  26.864  1.00  0.00    -0.272 OA
ATOM      6  H   UNL A   1      31.420  26.708  26.332  1.00  0.00     0.163 HD
BRANCH   4   7
ATOM      7  C   UNL A   1      33.552  24.107  26.396  1.00  0.00     0.291 C 
ATOM      8  F   UNL A   1      33.618  23.125  27.355  1.00  0.00    -0.233 F 
BRANCH   7   9
ATOM      9  C   UNL A   1      33.742  23.508  24.954  1.00  0.00     0.127 C 
ATOM     10  C   UNL A   1      35.035  24.063  24.348  1.00  0.00     0.051 C 
BRANCH   9  11
ATOM     11  C   UNL A   1      33.734  21.968  24.909  1.00  0.00    -0.010 A 
ATOM     12  C   UNL A   1      33.875  17.666  24.366  1.00  0.00     0.047 C 
ATOM     13  C   UNL A   1      33.814  19.146  24.575  1.00  0.00    -0.015 A 
ATOM     14  C   UNL A   1      32.598  19.831  24.544  1.00  0.00     0.007 A 
ATOM     15  C   UNL A   1      34.978  19.874  24.813  1.00  0.00     0.126 A 
ATOM     16  C   UNL A   1      32.560  21.217  24.728  1.00  0.00     0.007 A 
ATOM     17  C   UNL A   1      34.947  21.255  24.986  1.00  0.00     0.046 A 
ATOM     18  F   UNL A   1      36.159  19.241  24.859  1.00  0.00    -0.207 F 
ENDBRANCH   9  11
BRANCH   9  19
ATOM     19  O   UNL A   1      32.723  23.967  24.041  1.00  0.00    -0.382 OA
ATOM     20  H   UNL A   1      31.989  23.334  24.030  1.00  0.00     0.212 HD
ENDBRANCH   9  19
ENDBRANCH   7   9
ENDBRANCH   4   7
ENDBRANCH   2   3
ENDBRANCH   1   2
BRANCH   1  21
ATOM     21  C   UNL A   1      34.501  29.034  27.314  1.00  0.00     0.118 C 
BRANCH  21  22
ATOM     22  N   UNL A   1      34.283  30.361  27.903  1.00  0.00    -0.352 N 
ATOM     23  C   UNL A   1      35.092  31.017  28.826  1.00  0.00     0.251 C 
ATOM     24  H   UNL A   1      33.474  30.840  27.614  1.00  0.00     0.163 HD
ATOM     25  O   UNL A   1      34.717  31.973  29.452  1.00  0.00    -0.269 OA
BRANCH  23  26
ATOM     26  C   UNL A   1      36.435  30.439  29.010  1.00  0.00     0.039 A 
ATOM     27  C   UNL A   1      36.737  29.562  30.053  1.00  0.00     0.014 A 
ATOM     28  C   UNL A   1      37.350  30.717  28.006  1.00  0.00     0.014 A 
ATOM     29  C   UNL A   1      37.968  28.909  30.031  1.00  0.00     0.010 A 
ATOM     30  C   UNL A   1      38.396  29.870  27.832  1.00  0.00     0.010 A 
ATOM     31  C   UNL A   1      38.777  29.057  28.898  1.00  0.00    -0.014 A 
BRANCH  31  32
ATOM     32  C   UNL A   1      40.125  28.540  28.746  1.00  0.00     0.031 A 
ATOM     33  C   UNL A   1      40.371  27.130  28.459  1.00  0.00     0.074 A 
ATOM     34  C   UNL A   1      41.110  29.466  28.812  1.00  0.00     0.049 A 
ATOM     35  N   UNL A   1      41.415  26.496  28.856  1.00  0.00    -0.248 NA
ATOM     36  C   UNL A   1      39.434  26.292  27.718  1.00  0.00     0.031 C 
ATOM     37  C   UNL A   1      42.524  29.377  28.508  1.00  0.00     0.029 A 
ATOM     38  N   UNL A   1      40.968  30.742  29.358  1.00  0.00    -0.354 N 
ATOM     39  C   UNL A   1      41.472  25.328  28.134  1.00  0.00     0.074 A 
ATOM     40  C   UNL A   1      40.152  25.170  27.567  1.00  0.00     0.031 C 
ATOM     41  C   UNL A   1      43.152  30.408  29.113  1.00  0.00     0.029 A 
ATOM     42  C   UNL A   1      42.176  31.108  29.943  1.00  0.00     0.049 A 
ATOM     43  H   UNL A   1      40.151  31.291  29.331  1.00  0.00     0.167 HD
ATOM     44  C   UNL A   1      42.684  24.730  27.947  1.00  0.00     0.034 A 
ATOM     45  C   UNL A   1      42.176  31.225  31.307  1.00  0.00     0.034 A 
ATOM     46  C   UNL A   1      43.747  25.527  28.563  1.00  0.00     0.049 A 
ATOM     47  C   UNL A   1      42.928  30.084  31.956  1.00  0.00     0.074 A 
ATOM     48  C   UNL A   1      44.671  26.429  28.059  1.00  0.00     0.029 A 
ATOM     49  N   UNL A   1      43.722  25.739  29.930  1.00  0.00    -0.354 N 
ATOM     50  N   UNL A   1      43.371  29.043  31.304  1.00  0.00    -0.248 NA
ATOM     51  C   UNL A   1      43.189  29.990  33.388  1.00  0.00     0.031 C 
ATOM     52  C   UNL A   1      45.184  27.196  29.146  1.00  0.00     0.029 A 
ATOM     53  C   UNL A   1      44.586  26.747  30.308  1.00  0.00     0.049 A 
ATOM     54  H   UNL A   1      43.155  25.234  30.557  1.00  0.00     0.167 HD
ATOM     55  C   UNL A   1      44.024  28.204  32.155  1.00  0.00     0.074 A 
ATOM     56  C   UNL A   1      43.830  28.811  33.462  1.00  0.00     0.031 C 
ATOM     57  C   UNL A   1      44.673  27.085  31.719  1.00  0.00     0.034 A 
BRANCH  44  58
ATOM     58  C   UNL A   1      42.937  23.580  26.997  1.00  0.00     0.023 A 
ATOM     59  C   UNL A   1      43.803  23.689  25.886  1.00  0.00     0.012 A 
ATOM     60  C   UNL A   1      42.300  22.330  27.163  1.00  0.00     0.148 A 
ATOM     61  C   UNL A   1      44.112  22.596  25.062  1.00  0.00     0.002 A 
ATOM     62  C   UNL A   1      42.576  21.253  26.317  1.00  0.00     0.091 A 
ATOM     63  F   UNL A   1      41.405  22.153  28.143  1.00  0.00    -0.205 F 
ATOM     64  C   UNL A   1      43.502  21.371  25.280  1.00  0.00     0.022 A 
BRANCH  62  65
ATOM     65  S   UNL A   1      41.702  19.704  26.564  1.00  0.00     0.127 S 
ATOM     66  O   UNL A   1      42.224  18.860  25.494  1.00  0.00    -0.237 OA
ATOM     67  O   UNL A   1      42.061  19.339  27.930  1.00  0.00    -0.237 OA
ATOM     68  O   UNL A   1      40.297  20.083  26.397  1.00  0.00    -0.744 OA
ENDBRANCH  62  65
ENDBRANCH  44  58
BRANCH  45  69
ATOM     69  C   UNL A   1      40.893  31.844  31.811  1.00  0.00     0.023 A 
ATOM     70  C   UNL A   1      40.785  33.236  31.993  1.00  0.00     0.012 A 
ATOM     71  C   UNL A   1      40.026  31.005  32.555  1.00  0.00     0.148 A 
ATOM     72  C   UNL A   1      39.923  33.760  32.969  1.00  0.00     0.002 A 
ATOM     73  C   UNL A   1      39.247  31.527  33.587  1.00  0.00     0.091 A 
ATOM     74  F   UNL A   1      40.075  29.680  32.336  1.00  0.00    -0.205 F 
ATOM     75  C   UNL A   1      39.194  32.907  33.799  1.00  0.00     0.022 A 
BRANCH  73  76
ATOM     76  S   UNL A   1      38.573  30.421  34.843  1.00  0.00     0.127 S 
ATOM     77  O   UNL A   1      37.765  31.321  35.658  1.00  0.00    -0.237 OA
ATOM     78  O   UNL A   1      37.851  29.411  34.076  1.00  0.00    -0.237 OA
ATOM     79  O   UNL A   1      39.768  29.892  35.504  1.00  0.00    -0.744 OA
ENDBRANCH  73  76
ENDBRANCH  45  69
BRANCH  57  80
ATOM     80  C   UNL A   1      45.408  26.155  32.637  1.00  0.00     0.023 A 
ATOM     81  C   UNL A   1      46.822  26.121  32.615  1.00  0.00     0.012 A 
ATOM     82  C   UNL A   1      44.762  25.332  33.563  1.00  0.00     0.148 A 
ATOM     83  C   UNL A   1      47.553  25.231  33.401  1.00  0.00     0.002 A 
ATOM     84  C   UNL A   1      45.484  24.385  34.280  1.00  0.00     0.091 A 
ATOM     85  F   UNL A   1      43.445  25.472  33.776  1.00  0.00    -0.205 F 
ATOM     86  C   UNL A   1      46.878  24.330  34.208  1.00  0.00     0.022 A 
BRANCH  84  87
ATOM     87  S   UNL A   1      44.571  23.126  35.162  1.00  0.00     0.127 S 
ATOM     88  O   UNL A   1      43.527  22.742  34.220  1.00  0.00    -0.237 OA
ATOM     89  O   UNL A   1      45.602  22.126  35.436  1.00  0.00    -0.237 OA
ATOM     90  O   UNL A   1      44.089  23.830  36.351  1.00  0.00    -0.744 OA
ENDBRANCH  84  87
ENDBRANCH  57  80
ENDBRANCH  31  32
ENDBRANCH  23  26
ENDBRANCH  21  22
ENDBRANCH   1  21
TORSDOF 16
ENDMDL
MODEL 2
REMARK VINA RESULT:     -12.2      2.031      2.597
REMARK SMILES Cc1ccc([C@@](C)(O)[C@H](F)C(=O)NCCCNC(=O)c2ccc(-c3c4nc(c(-c5cccc(S(=O)(=O)[O-])c5F)c5ccc([nH]5)c(-c5cccc(S(=O)(=O)[O-])c5F)c5nc(c(-c6cccc(S(=O)(=O)[O-])c6F)c6ccc3[nH]6)C=C5)C=C4)cc2)cc1F
REMARK SMILES IDX 15 1 14 2 13 3 11 4 12 5 9 7 10 8 6 9 7 10 5 11 1 12 2 13
REMARK SMILES IDX 3 14 84 15 4 16 83 17 85 18 8 19 16 21 17 22 18 23 19 25
REMARK SMILES IDX 20 26 21 27 82 28 22 29 81 30 23 31 24 32 25 33 75 34 26 35
REMARK SMILES IDX 80 36 74 37 76 38 27 39 79 40 73 41 72 42 28 44 60 45 40 46
REMARK SMILES IDX 59 47 41 48 44 49 58 50 77 51 42 52 43 53 57 55 78 56 45 57
REMARK SMILES IDX 29 58 30 59 38 60 31 61 33 62 39 63 32 64 34 65 35 66 36 67
REMARK SMILES IDX 37 68 61 69 62 70 70 71 63 72 65 73 71 74 64 75 66 76 67 77
REMARK SMILES IDX 68 78 69 79 46 80 47 81 55 82 48 83 50 84 56 85 49 86 51 87
REMARK SMILES IDX 52 88 53 89 54 90
REMARK H PARENT 13 6 8 20 17 24 76 43 44 54
REMARK Flexibility Score: inf
ROOT
ATOM      1  C   UNL A   1      33.387  28.842  26.609  1.00  0.00     0.042 C 
ENDROOT
BRANCH   1   2
ATOM      2  C   UNL A   1      33.398  28.322  25.187  1.00  0.00     0.117 C 
BRANCH   2   3
ATOM      3  N   UNL A   1      32.212  27.572  24.799  1.00  0.00    -0.353 N 
ATOM      4  C   UNL A   1      32.013  26.225  24.994  1.00  0.00     0.257 C 
ATOM      5  O   UNL A   1      30.910  25.718  24.792  1.00  0.00    -0.272 OA
ATOM      6  H   UNL A   1      31.489  28.072  24.357  1.00  0.00     0.163 HD
BRANCH   4   7
ATOM      7  C   UNL A   1      33.210  25.388  25.426  1.00  0.00     0.291 C 
ATOM      8  F   UNL A   1      32.914  24.785  26.625  1.00  0.00    -0.233 F 
BRANCH   7   9
ATOM      9  C   UNL A   1      33.673  24.331  24.357  1.00  0.00     0.127 C 
ATOM     10  C   UNL A   1      33.660  24.984  22.970  1.00  0.00     0.051 C 
BRANCH   9  11
ATOM     11  C   UNL A   1      35.048  23.703  24.651  1.00  0.00    -0.010 A 
ATOM     12  C   UNL A   1      38.708  21.654  25.757  1.00  0.00     0.047 C 
ATOM     13  C   UNL A   1      37.460  22.378  25.363  1.00  0.00    -0.015 A 
ATOM     14  C   UNL A   1      37.179  23.654  25.854  1.00  0.00     0.007 A 
ATOM     15  C   UNL A   1      36.550  21.790  24.488  1.00  0.00     0.126 A 
ATOM     16  C   UNL A   1      36.000  24.311  25.486  1.00  0.00     0.007 A 
ATOM     17  C   UNL A   1      35.370  22.436  24.127  1.00  0.00     0.046 A 
ATOM     18  F   UNL A   1      36.798  20.569  23.992  1.00  0.00    -0.207 F 
ENDBRANCH   9  11
BRANCH   9  19
ATOM     19  O   UNL A   1      32.727  23.250  24.223  1.00  0.00    -0.382 OA
ATOM     20  H   UNL A   1      33.138  22.423  24.519  1.00  0.00     0.212 HD
ENDBRANCH   9  19
ENDBRANCH   7   9
ENDBRANCH   4   7
ENDBRANCH   2   3
ENDBRANCH   1   2
BRANCH   1  21
ATOM     21  C   UNL A   1      34.797  28.998  27.109  1.00  0.00     0.118 C 
BRANCH  21  22
ATOM     22  N   UNL A   1      34.965  30.148  28.006  1.00  0.00    -0.352 N 
ATOM     23  C   UNL A   1      36.050  30.422  28.833  1.00  0.00     0.251 C 
ATOM     24  H   UNL A   1      34.227  30.799  28.026  1.00  0.00     0.163 HD
ATOM     25  O   UNL A   1      36.000  31.231  29.722  1.00  0.00    -0.269 OA
BRANCH  23  26
ATOM     26  C   UNL A   1      37.262  29.625  28.567  1.00  0.00     0.039 A 
ATOM     27  C   UNL A   1      38.059  29.828  27.440  1.00  0.00     0.014 A 
ATOM     28  C   UNL A   1      37.634  28.748  29.574  1.00  0.00     0.014 A 
ATOM     29  C   UNL A   1      39.288  29.173  27.374  1.00  0.00     0.010 A 
ATOM     30  C   UNL A   1      38.932  28.360  29.645  1.00  0.00     0.010 A 
ATOM     31  C   UNL A   1      39.720  28.461  28.499  1.00  0.00    -0.014 A 
BRANCH  31  32
ATOM     32  C   UNL A   1      40.914  27.637  28.574  1.00  0.00     0.031 A 
ATOM     33  C   UNL A   1      40.856  26.194  28.364  1.00  0.00     0.074 A 
ATOM     34  C   UNL A   1      42.070  28.313  28.772  1.00  0.00     0.049 A 
ATOM     35  N   UNL A   1      41.649  25.361  28.936  1.00  0.00    -0.248 NA
ATOM     36  C   UNL A   1      39.867  25.551  27.505  1.00  0.00     0.031 C 
ATOM     37  C   UNL A   1      43.451  27.881  28.698  1.00  0.00     0.029 A 
ATOM     38  N   UNL A   1      42.157  29.618  29.257  1.00  0.00    -0.354 N 
ATOM     39  C   UNL A   1      41.533  24.169  28.261  1.00  0.00     0.074 A 
ATOM     40  C   UNL A   1      40.311  24.287  27.496  1.00  0.00     0.031 C 
ATOM     41  C   UNL A   1      44.210  28.773  29.369  1.00  0.00     0.029 A 
ATOM     42  C   UNL A   1      43.317  29.730  30.017  1.00  0.00     0.049 A 
ATOM     43  H   UNL A   1      41.507  30.338  29.089  1.00  0.00     0.167 HD
ATOM     44  C   UNL A   1      42.582  23.297  28.283  1.00  0.00     0.034 A 
ATOM     45  C   UNL A   1      43.143  29.926  31.361  1.00  0.00     0.034 A 
ATOM     46  C   UNL A   1      43.701  23.862  29.039  1.00  0.00     0.049 A 
ATOM     47  C   UNL A   1      43.498  28.684  32.147  1.00  0.00     0.074 A 
ATOM     48  C   UNL A   1      44.877  24.494  28.665  1.00  0.00     0.029 A 
ATOM     49  N   UNL A   1      43.525  24.158  30.379  1.00  0.00    -0.354 N 
ATOM     50  N   UNL A   1      43.772  27.531  31.599  1.00  0.00    -0.248 NA
ATOM     51  C   UNL A   1      43.514  28.620  33.605  1.00  0.00     0.031 C 
ATOM     52  C   UNL A   1      45.391  25.187  29.801  1.00  0.00     0.029 A 
ATOM     53  C   UNL A   1      44.538  24.960  30.864  1.00  0.00     0.049 A 
ATOM     54  H   UNL A   1      42.768  23.838  30.921  1.00  0.00     0.167 HD
ATOM     55  C   UNL A   1      44.072  26.618  32.563  1.00  0.00     0.074 A 
ATOM     56  C   UNL A   1      43.838  27.332  33.808  1.00  0.00     0.031 C 
ATOM     57  C   UNL A   1      44.494  25.354  32.263  1.00  0.00     0.034 A 
BRANCH  44  58
ATOM     58  C   UNL A   1      42.691  22.064  27.413  1.00  0.00     0.023 A 
ATOM     59  C   UNL A   1      41.903  20.911  27.628  1.00  0.00     0.012 A 
ATOM     60  C   UNL A   1      43.607  21.995  26.339  1.00  0.00     0.148 A 
ATOM     61  C   UNL A   1      41.934  19.806  26.763  1.00  0.00     0.002 A 
ATOM     62  C   UNL A   1      43.667  20.878  25.503  1.00  0.00     0.091 A 
ATOM     63  F   UNL A   1      44.447  23.011  26.103  1.00  0.00    -0.205 F 
ATOM     64  C   UNL A   1      42.815  19.790  25.693  1.00  0.00     0.022 A 
BRANCH  62  65
ATOM     65  S   UNL A   1      44.881  20.844  24.180  1.00  0.00     0.127 S 
ATOM     66  O   UNL A   1      44.546  22.029  23.399  1.00  0.00    -0.237 OA
ATOM     67  O   UNL A   1      46.150  20.860  24.898  1.00  0.00    -0.237 OA
ATOM     68  O   UNL A   1      44.596  19.578  23.499  1.00  0.00    -0.744 OA
ENDBRANCH  62  65
ENDBRANCH  44  58
BRANCH  45  69
ATOM     69  C   UNL A   1      41.984  30.855  31.641  1.00  0.00     0.023 A 
ATOM     70  C   UNL A   1      42.170  32.250  31.684  1.00  0.00     0.012 A 
ATOM     71  C   UNL A   1      40.879  30.307  32.338  1.00  0.00     0.148 A 
ATOM     72  C   UNL A   1      41.349  33.051  32.491  1.00  0.00     0.002 A 
ATOM     73  C   UNL A   1      40.131  31.096  33.213  1.00  0.00     0.091 A 
ATOM     74  F   UNL A   1      40.654  28.985  32.245  1.00  0.00    -0.205 F 
ATOM     75  C   UNL A   1      40.364  32.471  33.294  1.00  0.00     0.022 A 
BRANCH  73  76
ATOM     76  S   UNL A   1      39.099  30.307  34.464  1.00  0.00     0.127 S 
ATOM     77  O   UNL A   1      38.544  31.448  35.183  1.00  0.00    -0.237 OA
ATOM     78  O   UNL A   1      38.157  29.502  33.693  1.00  0.00    -0.237 OA
ATOM     79  O   UNL A   1      40.053  29.498  35.227  1.00  0.00    -0.744 OA
ENDBRANCH  73  76
ENDBRANCH  45  69
BRANCH  57  80
ATOM     80  C   UNL A   1      44.842  24.338  33.308  1.00  0.00     0.023 A 
ATOM     81  C   UNL A   1      43.845  23.458  33.791  1.00  0.00     0.012 A 
ATOM     82  C   UNL A   1      46.135  24.178  33.813  1.00  0.00     0.148 A 
ATOM     83  C   UNL A   1      44.098  22.537  34.806  1.00  0.00     0.002 A 
ATOM     84  C   UNL A   1      46.366  23.324  34.885  1.00  0.00     0.091 A 
ATOM     85  F   UNL A   1      47.159  24.834  33.248  1.00  0.00    -0.205 F 
ATOM     86  C   UNL A   1      45.356  22.497  35.384  1.00  0.00     0.022 A 
BRANCH  84  87
ATOM     87  S   UNL A   1      47.943  23.434  35.721  1.00  0.00     0.127 S 
ATOM     88  O   UNL A   1      48.157  24.871  35.851  1.00  0.00    -0.237 OA
ATOM     89  O   UNL A   1      47.694  22.698  36.959  1.00  0.00    -0.237 OA
ATOM     90  O   UNL A   1      48.861  22.763  34.800  1.00  0.00    -0.744 OA
ENDBRANCH  84  87
ENDBRANCH  57  80
ENDBRANCH  31  32
ENDBRANCH  23  26
ENDBRANCH  21  22
ENDBRANCH   1  21
TORSDOF 16
ENDMDL
MODEL 3
REMARK VINA RESULT:     -12.0      2.694      4.129
REMARK SMILES Cc1ccc([C@@](C)(O)[C@H](F)C(=O)NCCCNC(=O)c2ccc(-c3c4nc(c(-c5cccc(S(=O)(=O)[O-])c5F)c5ccc([nH]5)c(-c5cccc(S(=O)(=O)[O-])c5F)c5nc(c(-c6cccc(S(=O)(=O)[O-])c6F)c6ccc3[nH]6)C=C5)C=C4)cc2)cc1F
REMARK SMILES IDX 15 1 14 2 13 3 11 4 12 5 9 7 10 8 6 9 7 10 5 11 1 12 2 13
REMARK SMILES IDX 3 14 84 15 4 16 83 17 85 18 8 19 16 21 17 22 18 23 19 25
REMARK SMILES IDX 20 26 21 27 82 28 22 29 81 30 23 31 24 32 25 33 75 34 26 35
REMARK SMILES IDX 80 36 74 37 76 38 27 39 79 40 73 41 72 42 28 44 60 45 40 46
REMARK SMILES IDX 59 47 41 48 44 49 58 50 77 51 42 52 43 53 57 55 78 56 45 57
REMARK SMILES IDX 29 58 30 59 38 60 31 61 33 62 39 63 32 64 34 65 35 66 36 67
REMARK SMILES IDX 37 68 61 69 62 70 70 71 63 72 65 73 71 74 64 75 66 76 67 77
REMARK SMILES IDX 68 78 69 79 46 80 47 81 55 82 48 83 50 84 56 85 49 86 51 87
REMARK SMILES IDX 52 88 53 89 54 90
REMARK H PARENT 13 6 8 20 17 24 76 43 44 54
REMARK Flexibility Score: inf
ROOT
ATOM      1  C   UNL A   1      33.474  29.003  26.587  1.00  0.00     0.042 C 
ENDROOT
BRANCH   1   2
ATOM      2  C   UNL A   1      33.422  27.911  25.540  1.00  0.00     0.117 C 
BRANCH   2   3
ATOM      3  N   UNL A   1      33.318  26.558  26.069  1.00  0.00    -0.353 N 
ATOM      4  C   UNL A   1      32.830  25.466  25.391  1.00  0.00     0.257 C 
ATOM      5  O   UNL A   1      32.946  24.333  25.861  1.00  0.00    -0.272 OA
ATOM      6  H   UNL A   1      33.623  26.413  26.993  1.00  0.00     0.163 HD
BRANCH   4   7
ATOM      7  C   UNL A   1      32.113  25.713  24.071  1.00  0.00     0.291 C 
ATOM      8  F   UNL A   1      32.501  24.748  23.173  1.00  0.00    -0.233 F 
BRANCH   7   9
ATOM      9  C   UNL A   1      30.546  25.778  24.195  1.00  0.00     0.127 C 
ATOM     10  C   UNL A   1      30.151  25.567  25.661  1.00  0.00     0.051 C 
BRANCH   9  11
ATOM     11  C   UNL A   1      29.927  27.076  23.644  1.00  0.00    -0.010 A 
ATOM     12  C   UNL A   1      28.027  30.488  21.754  1.00  0.00     0.047 C 
ATOM     13  C   UNL A   1      28.694  29.327  22.423  1.00  0.00    -0.015 A 
ATOM     14  C   UNL A   1      30.078  29.161  22.370  1.00  0.00     0.007 A 
ATOM     15  C   UNL A   1      27.940  28.386  23.120  1.00  0.00     0.126 A 
ATOM     16  C   UNL A   1      30.684  28.063  22.989  1.00  0.00     0.007 A 
ATOM     17  C   UNL A   1      28.537  27.285  23.729  1.00  0.00     0.046 A 
ATOM     18  F   UNL A   1      26.608  28.525  23.196  1.00  0.00    -0.207 F 
ENDBRANCH   9  11
BRANCH   9  19
ATOM     19  O   UNL A   1      29.906  24.677  23.517  1.00  0.00    -0.382 OA
ATOM     20  H   UNL A   1      30.282  23.841  23.831  1.00  0.00     0.212 HD
ENDBRANCH   9  19
ENDBRANCH   7   9
ENDBRANCH   4   7
ENDBRANCH   2   3
ENDBRANCH   1   2
BRANCH   1  21
ATOM     21  C   UNL A   1      34.798  28.967  27.301  1.00  0.00     0.118 C 
BRANCH  21  22
ATOM     22  N   UNL A   1      35.012  30.128  28.175  1.00  0.00    -0.352 N 
ATOM     23  C   UNL A   1      36.126  30.394  28.965  1.00  0.00     0.251 C 
ATOM     24  H   UNL A   1      34.287  30.791  28.204  1.00  0.00     0.163 HD
ATOM     25  O   UNL A   1      36.116  31.218  29.842  1.00  0.00    -0.269 OA
BRANCH  23  26
ATOM     26  C   UNL A   1      37.314  29.571  28.677  1.00  0.00     0.039 A 
ATOM     27  C   UNL A   1      38.069  29.725  27.513  1.00  0.00     0.014 A 
ATOM     28  C   UNL A   1      37.715  28.721  29.697  1.00  0.00     0.014 A 
ATOM     29  C   UNL A   1      39.284  29.050  27.420  1.00  0.00     0.010 A 
ATOM     30  C   UNL A   1      39.009  28.316  29.728  1.00  0.00     0.010 A 
ATOM     31  C   UNL A   1      39.751  28.368  28.549  1.00  0.00    -0.014 A 
BRANCH  31  32
ATOM     32  C   UNL A   1      40.936  27.529  28.603  1.00  0.00     0.031 A 
ATOM     33  C   UNL A   1      40.856  26.085  28.401  1.00  0.00     0.074 A 
ATOM     34  C   UNL A   1      42.104  28.190  28.776  1.00  0.00     0.049 A 
ATOM     35  N   UNL A   1      41.648  25.245  28.961  1.00  0.00    -0.248 NA
ATOM     36  C   UNL A   1      39.841  25.453  27.564  1.00  0.00     0.031 C 
ATOM     37  C   UNL A   1      43.478  27.740  28.676  1.00  0.00     0.029 A 
ATOM     38  N   UNL A   1      42.218  29.496  29.254  1.00  0.00    -0.354 N 
ATOM     39  C   UNL A   1      41.504  24.052  28.292  1.00  0.00     0.074 A 
ATOM     40  C   UNL A   1      40.269  24.183  27.551  1.00  0.00     0.031 C 
ATOM     41  C   UNL A   1      44.262  28.625  29.329  1.00  0.00     0.029 A 
ATOM     42  C   UNL A   1      43.394  29.595  29.990  1.00  0.00     0.049 A 
ATOM     43  H   UNL A   1      41.574  30.224  29.096  1.00  0.00     0.167 HD
ATOM     44  C   UNL A   1      42.541  23.167  28.297  1.00  0.00     0.034 A 
ATOM     45  C   UNL A   1      43.250  29.798  31.337  1.00  0.00     0.034 A 
ATOM     46  C   UNL A   1      43.682  23.720  29.028  1.00  0.00     0.049 A 
ATOM     47  C   UNL A   1      43.604  28.555  32.121  1.00  0.00     0.074 A 
ATOM     48  C   UNL A   1      44.859  24.334  28.628  1.00  0.00     0.029 A 
ATOM     49  N   UNL A   1      43.537  24.023  30.370  1.00  0.00    -0.354 N 
ATOM     50  N   UNL A   1      43.852  27.397  31.572  1.00  0.00    -0.248 NA
ATOM     51  C   UNL A   1      43.648  28.496  33.578  1.00  0.00     0.031 C 
ATOM     52  C   UNL A   1      45.405  25.025  29.751  1.00  0.00     0.029 A 
ATOM     53  C   UNL A   1      44.570  24.813  30.832  1.00  0.00     0.049 A 
ATOM     54  H   UNL A   1      42.787  23.714  30.928  1.00  0.00     0.167 HD
ATOM     55  C   UNL A   1      44.160  26.483  32.534  1.00  0.00     0.074 A 
ATOM     56  C   UNL A   1      43.960  27.204  33.780  1.00  0.00     0.031 C 
ATOM     57  C   UNL A   1      44.559  25.213  32.230  1.00  0.00     0.034 A 
BRANCH  44  58
ATOM     58  C   UNL A   1      42.617  21.929  27.429  1.00  0.00     0.023 A 
ATOM     59  C   UNL A   1      41.775  20.811  27.626  1.00  0.00     0.012 A 
ATOM     60  C   UNL A   1      43.554  21.819  26.377  1.00  0.00     0.148 A 
ATOM     61  C   UNL A   1      41.779  19.705  26.763  1.00  0.00     0.002 A 
ATOM     62  C   UNL A   1      43.584  20.699  25.543  1.00  0.00     0.091 A 
ATOM     63  F   UNL A   1      44.442  22.797  26.160  1.00  0.00    -0.205 F 
ATOM     64  C   UNL A   1      42.682  19.650  25.713  1.00  0.00     0.022 A 
BRANCH  62  65
ATOM     65  S   UNL A   1      44.826  20.612  24.247  1.00  0.00     0.127 S 
ATOM     66  O   UNL A   1      44.581  21.827  23.478  1.00  0.00    -0.237 OA
ATOM     67  O   UNL A   1      46.076  20.541  24.995  1.00  0.00    -0.237 OA
ATOM     68  O   UNL A   1      44.482  19.375  23.540  1.00  0.00    -0.744 OA
ENDBRANCH  62  65
ENDBRANCH  44  58
BRANCH  45  69
ATOM     69  C   UNL A   1      42.108  30.743  31.636  1.00  0.00     0.023 A 
ATOM     70  C   UNL A   1      42.321  32.133  31.707  1.00  0.00     0.012 A 
ATOM     71  C   UNL A   1      40.993  30.203  32.324  1.00  0.00     0.148 A 
ATOM     72  C   UNL A   1      41.516  32.934  32.531  1.00  0.00     0.002 A 
ATOM     73  C   UNL A   1      40.262  30.988  33.214  1.00  0.00     0.091 A 
ATOM     74  F   UNL A   1      40.744  28.888  32.204  1.00  0.00    -0.205 F 
ATOM     75  C   UNL A   1      40.521  32.357  33.323  1.00  0.00     0.022 A 
BRANCH  73  76
ATOM     76  S   UNL A   1      39.216  30.194  34.451  1.00  0.00     0.127 S 
ATOM     77  O   UNL A   1      40.154  29.316  35.143  1.00  0.00    -0.237 OA
ATOM     78  O   UNL A   1      38.672  31.306  35.225  1.00  0.00    -0.237 OA
ATOM     79  O   UNL A   1      38.203  29.507  33.646  1.00  0.00    -0.744 OA
ENDBRANCH  73  76
ENDBRANCH  45  69
BRANCH  57  80
ATOM     80  C   UNL A   1      44.915  24.195  33.271  1.00  0.00     0.023 A 
ATOM     81  C   UNL A   1      43.917  23.328  33.775  1.00  0.00     0.012 A 
ATOM     82  C   UNL A   1      46.215  24.023  33.754  1.00  0.00     0.148 A 
ATOM     83  C   UNL A   1      44.178  22.408  34.788  1.00  0.00     0.002 A 
ATOM     84  C   UNL A   1      46.456  23.169  34.824  1.00  0.00     0.091 A 
ATOM     85  F   UNL A   1      47.236  24.666  33.168  1.00  0.00    -0.205 F 
ATOM     86  C   UNL A   1      45.446  22.356  35.344  1.00  0.00     0.022 A 
BRANCH  84  87
ATOM     87  S   UNL A   1      48.049  23.265  35.631  1.00  0.00     0.127 S 
ATOM     88  O   UNL A   1      48.176  24.680  35.962  1.00  0.00    -0.237 OA
ATOM     89  O   UNL A   1      47.886  22.345  36.756  1.00  0.00    -0.237 OA
ATOM     90  O   UNL A   1      48.977  22.795  34.602  1.00  0.00    -0.744 OA
ENDBRANCH  84  87
ENDBRANCH  57  80
ENDBRANCH  31  32
ENDBRANCH  23  26
ENDBRANCH  21  22
ENDBRANCH   1  21
TORSDOF 16
ENDMDL
