MODEL 1
REMARK VINA RESULT:     -13.8      0.000      0.000
REMARK SMILES O=C(Cn1c(-c2nc(-c3ccc(C(F)(F)F)cc3)no2)cc2ccccc21)NCCCNC(=O)c1ccc(-c2c3nc(c(-c4cccc(S(=O)(=O)[O-])c4F)c4ccc([nH]4)c(-c4cccc(S(=O)(=O)[O-])c4F)c4nc(c(-c5cccc(S(=O)(=O)[O-])c5F)c5ccc2[nH]5)C=C4)C=C3)cc1
REMARK SMILES IDX 29 1 28 2 1 3 2 4 3 6 4 7 5 8 27 9 21 10 22 11 26 12 23 13
REMARK SMILES IDX 25 14 24 15 6 16 7 17 20 18 8 19 19 20 9 21 10 22 18 23
REMARK SMILES IDX 11 24 17 25 12 26 13 27 14 28 15 29 16 30 30 31 31 32 32 33
REMARK SMILES IDX 33 34 34 36 35 37 36 38 97 39 37 40 96 41 38 42 39 43 40 44
REMARK SMILES IDX 90 45 41 46 95 47 89 48 91 49 42 50 94 51 88 52 87 53 43 55
REMARK SMILES IDX 75 56 55 57 74 58 56 59 59 60 73 61 92 62 57 63 58 64 72 66
REMARK SMILES IDX 93 67 60 68 44 69 45 70 53 71 46 72 48 73 54 74 47 75 49 76
REMARK SMILES IDX 50 77 51 78 52 79 76 80 77 81 85 82 78 83 80 84 86 85 79 86
REMARK SMILES IDX 81 87 82 88 83 89 84 90 61 91 62 92 70 93 63 94 65 95 71 96
REMARK SMILES IDX 64 97 66 98 67 99 68 100 69 101
REMARK H PARENT 28 5 32 35 91 54 59 65
REMARK Flexibility Score: inf
ROOT
ATOM      1  C   UNL A   1      32.765  30.367  26.745  1.00  0.00     0.117 C 
ENDROOT
BRANCH   1   2
ATOM      2  N   UNL A   1      32.688  29.614  25.504  1.00  0.00    -0.354 N 
ATOM      3  O   UNL A   1      32.315  27.536  26.415  1.00  0.00    -0.273 OA
ATOM      4  C   UNL A   1      32.389  28.269  25.433  1.00  0.00     0.239 C 
ATOM      5  H   UNL A   1      32.860  30.094  24.661  1.00  0.00     0.163 HD
BRANCH   4   6
ATOM      6  C   UNL A   1      32.142  27.767  24.015  1.00  0.00     0.222 C 
BRANCH   6   7
ATOM      7  N   UNL A   1      30.727  27.488  23.774  1.00  0.00    -0.327 N 
ATOM      8  C   UNL A   1      30.072  26.291  24.009  1.00  0.00     0.109 A 
ATOM      9  C   UNL A   1      29.826  28.431  23.288  1.00  0.00     0.049 A 
ATOM     10  C   UNL A   1      28.730  26.506  23.763  1.00  0.00     0.042 A 
ATOM     11  C   UNL A   1      28.553  27.865  23.394  1.00  0.00     0.000 A 
ATOM     12  C   UNL A   1      30.000  29.742  22.809  1.00  0.00     0.027 A 
ATOM     13  C   UNL A   1      27.424  28.669  23.133  1.00  0.00     0.010 A 
ATOM     14  C   UNL A   1      28.868  30.525  22.570  1.00  0.00     0.002 A 
ATOM     15  C   UNL A   1      27.595  30.004  22.754  1.00  0.00     0.001 A 
BRANCH   8  16
ATOM     16  C   UNL A   1      30.680  25.102  24.533  1.00  0.00     0.274 A 
ATOM     17  N   UNL A   1      31.358  24.211  23.831  1.00  0.00    -0.185 NA
ATOM     18  O   UNL A   1      30.556  24.742  25.848  1.00  0.00    -0.332 OA
ATOM     19  C   UNL A   1      31.640  23.241  24.768  1.00  0.00     0.202 A 
ATOM     20  N   UNL A   1      31.179  23.515  25.996  1.00  0.00    -0.057 NA
BRANCH  19  21
ATOM     21  C   UNL A   1      32.390  22.018  24.520  1.00  0.00     0.023 A 
ATOM     22  C   UNL A   1      32.036  21.206  23.433  1.00  0.00     0.013 A 
ATOM     23  C   UNL A   1      33.322  21.541  25.449  1.00  0.00     0.013 A 
ATOM     24  C   UNL A   1      32.535  19.906  23.319  1.00  0.00     0.014 A 
ATOM     25  C   UNL A   1      33.816  20.231  25.342  1.00  0.00     0.014 A 
ATOM     26  C   UNL A   1      33.397  19.389  24.297  1.00  0.00     0.056 A 
BRANCH  26  27
ATOM     27  C   UNL A   1      33.793  17.931  24.247  1.00  0.00     0.416 C 
ATOM     28  F   UNL A   1      35.132  17.754  24.444  1.00  0.00    -0.166 F 
ATOM     29  F   UNL A   1      33.177  17.183  25.204  1.00  0.00    -0.166 F 
ATOM     30  F   UNL A   1      33.512  17.324  23.060  1.00  0.00    -0.166 F 
ENDBRANCH  26  27
ENDBRANCH  19  21
ENDBRANCH   8  16
ENDBRANCH   6   7
ENDBRANCH   4   6
ENDBRANCH   1   2
BRANCH   1  31
ATOM     31  C   UNL A   1      34.200  30.465  27.272  1.00  0.00     0.042 C 
BRANCH  31  32
ATOM     32  C   UNL A   1      34.590  31.837  27.833  1.00  0.00     0.118 C 
BRANCH  32  33
ATOM     33  N   UNL A   1      34.346  32.010  29.248  1.00  0.00    -0.352 N 
ATOM     34  C   UNL A   1      35.161  32.003  30.351  1.00  0.00     0.251 C 
ATOM     35  H   UNL A   1      33.398  32.165  29.464  1.00  0.00     0.163 HD
ATOM     36  O   UNL A   1      34.709  32.558  31.356  1.00  0.00    -0.269 OA
BRANCH  34  37
ATOM     37  C   UNL A   1      36.465  31.289  30.435  1.00  0.00     0.039 A 
ATOM     38  C   UNL A   1      37.717  31.896  30.411  1.00  0.00     0.014 A 
ATOM     39  C   UNL A   1      36.398  29.880  30.424  1.00  0.00     0.014 A 
ATOM     40  C   UNL A   1      38.862  31.129  30.245  1.00  0.00     0.010 A 
ATOM     41  C   UNL A   1      37.543  29.105  30.275  1.00  0.00     0.010 A 
ATOM     42  C   UNL A   1      38.769  29.738  30.125  1.00  0.00    -0.014 A 
BRANCH  42  43
ATOM     43  C   UNL A   1      40.019  28.997  29.974  1.00  0.00     0.031 A 
ATOM     44  C   UNL A   1      40.710  28.759  31.270  1.00  0.00     0.074 A 
ATOM     45  C   UNL A   1      40.493  28.537  28.797  1.00  0.00     0.049 A 
ATOM     46  N   UNL A   1      41.802  29.310  31.688  1.00  0.00    -0.248 NA
ATOM     47  C   UNL A   1      40.012  27.961  32.292  1.00  0.00     0.031 C 
ATOM     48  C   UNL A   1      39.785  28.486  27.514  1.00  0.00     0.029 A 
ATOM     49  N   UNL A   1      41.674  27.907  28.515  1.00  0.00    -0.354 N 
ATOM     50  C   UNL A   1      42.062  28.717  32.921  1.00  0.00     0.074 A 
ATOM     51  C   UNL A   1      40.851  28.053  33.325  1.00  0.00     0.031 C 
ATOM     52  C   UNL A   1      40.430  27.638  26.681  1.00  0.00     0.029 A 
ATOM     53  C   UNL A   1      41.669  27.212  27.305  1.00  0.00     0.049 A 
ATOM     54  H   UNL A   1      42.457  27.941  29.112  1.00  0.00     0.167 HD
ATOM     55  C   UNL A   1      43.337  28.558  33.366  1.00  0.00     0.034 A 
ATOM     56  C   UNL A   1      42.592  26.308  26.892  1.00  0.00     0.034 A 
ATOM     57  C   UNL A   1      44.270  29.330  32.597  1.00  0.00     0.049 A 
ATOM     58  C   UNL A   1      43.846  26.618  27.607  1.00  0.00     0.074 A 
ATOM     59  C   UNL A   1      44.669  30.644  32.514  1.00  0.00     0.029 A 
ATOM     60  N   UNL A   1      44.663  28.701  31.448  1.00  0.00    -0.354 N 
ATOM     61  N   UNL A   1      44.524  27.716  27.425  1.00  0.00    -0.248 NA
ATOM     62  C   UNL A   1      44.228  25.824  28.770  1.00  0.00     0.031 C 
ATOM     63  C   UNL A   1      45.179  30.819  31.193  1.00  0.00     0.029 A 
ATOM     64  C   UNL A   1      45.114  29.599  30.525  1.00  0.00     0.049 A 
ATOM     65  H   UNL A   1      44.626  27.727  31.307  1.00  0.00     0.167 HD
ATOM     66  C   UNL A   1      45.076  27.965  28.664  1.00  0.00     0.074 A 
ATOM     67  C   UNL A   1      45.032  26.698  29.378  1.00  0.00     0.031 C 
ATOM     68  C   UNL A   1      45.195  29.237  29.129  1.00  0.00     0.034 A 
BRANCH  55  69
ATOM     69  C   UNL A   1      43.807  27.349  34.138  1.00  0.00     0.023 A 
ATOM     70  C   UNL A   1      43.839  26.101  33.481  1.00  0.00     0.012 A 
ATOM     71  C   UNL A   1      43.933  27.340  35.546  1.00  0.00     0.148 A 
ATOM     72  C   UNL A   1      44.009  24.907  34.193  1.00  0.00     0.002 A 
ATOM     73  C   UNL A   1      44.177  26.161  36.240  1.00  0.00     0.091 A 
ATOM     74  F   UNL A   1      43.673  28.455  36.237  1.00  0.00    -0.205 F 
ATOM     75  C   UNL A   1      44.198  24.937  35.571  1.00  0.00     0.022 A 
BRANCH  73  76
ATOM     76  S   UNL A   1      44.447  26.150  38.016  1.00  0.00     0.127 S 
ATOM     77  O   UNL A   1      43.122  26.485  38.518  1.00  0.00    -0.237 OA
ATOM     78  O   UNL A   1      44.873  24.770  38.241  1.00  0.00    -0.237 OA
ATOM     79  O   UNL A   1      45.496  27.143  38.252  1.00  0.00    -0.744 OA
ENDBRANCH  73  76
ENDBRANCH  55  69
BRANCH  56  80
ATOM     80  C   UNL A   1      42.448  25.031  26.139  1.00  0.00     0.023 A 
ATOM     81  C   UNL A   1      43.479  24.653  25.246  1.00  0.00     0.012 A 
ATOM     82  C   UNL A   1      41.528  24.041  26.538  1.00  0.00     0.148 A 
ATOM     83  C   UNL A   1      43.655  23.319  24.859  1.00  0.00     0.002 A 
ATOM     84  C   UNL A   1      41.702  22.715  26.143  1.00  0.00     0.091 A 
ATOM     85  F   UNL A   1      40.542  24.371  27.380  1.00  0.00    -0.205 F 
ATOM     86  C   UNL A   1      42.780  22.347  25.327  1.00  0.00     0.022 A 
BRANCH  84  87
ATOM     87  S   UNL A   1      40.614  21.404  26.717  1.00  0.00     0.127 S 
ATOM     88  O   UNL A   1      41.202  20.220  26.085  1.00  0.00    -0.237 OA
ATOM     89  O   UNL A   1      40.793  21.476  28.165  1.00  0.00    -0.237 OA
ATOM     90  O   UNL A   1      39.289  21.748  26.220  1.00  0.00    -0.744 OA
ENDBRANCH  84  87
ENDBRANCH  56  80
BRANCH  68  91
ATOM     91  C   UNL A   1      45.252  30.345  28.127  1.00  0.00     0.023 A 
ATOM     92  C   UNL A   1      44.107  30.932  27.556  1.00  0.00     0.012 A 
ATOM     93  C   UNL A   1      46.517  30.890  27.865  1.00  0.00     0.148 A 
ATOM     94  C   UNL A   1      44.232  32.060  26.740  1.00  0.00     0.002 A 
ATOM     95  C   UNL A   1      46.634  32.030  27.088  1.00  0.00     0.091 A 
ATOM     96  F   UNL A   1      47.585  30.298  28.422  1.00  0.00    -0.205 F 
ATOM     97  C   UNL A   1      45.493  32.619  26.520  1.00  0.00     0.022 A 
BRANCH  95  98
ATOM     98  S   UNL A   1      48.210  32.849  26.855  1.00  0.00     0.127 S 
ATOM     99  O   UNL A   1      49.071  31.743  26.437  1.00  0.00    -0.237 OA
ATOM    100  O   UNL A   1      47.900  33.817  25.803  1.00  0.00    -0.237 OA
ATOM    101  O   UNL A   1      48.553  33.448  28.139  1.00  0.00    -0.744 OA
ENDBRANCH  95  98
ENDBRANCH  68  91
ENDBRANCH  42  43
ENDBRANCH  34  37
ENDBRANCH  32  33
ENDBRANCH  31  32
ENDBRANCH   1  31
TORSDOF 17
ENDMDL
MODEL 2
REMARK VINA RESULT:     -13.6      3.271      5.181
REMARK SMILES O=C(Cn1c(-c2nc(-c3ccc(C(F)(F)F)cc3)no2)cc2ccccc21)NCCCNC(=O)c1ccc(-c2c3nc(c(-c4cccc(S(=O)(=O)[O-])c4F)c4ccc([nH]4)c(-c4cccc(S(=O)(=O)[O-])c4F)c4nc(c(-c5cccc(S(=O)(=O)[O-])c5F)c5ccc2[nH]5)C=C4)C=C3)cc1
REMARK SMILES IDX 29 1 28 2 1 3 2 4 3 6 4 7 5 8 27 9 21 10 22 11 26 12 23 13
REMARK SMILES IDX 25 14 24 15 6 16 7 17 20 18 8 19 19 20 9 21 10 22 18 23
REMARK SMILES IDX 11 24 17 25 12 26 13 27 14 28 15 29 16 30 30 31 31 32 32 33
REMARK SMILES IDX 33 34 34 36 35 37 36 38 97 39 37 40 96 41 38 42 39 43 40 44
REMARK SMILES IDX 90 45 41 46 95 47 89 48 91 49 42 50 94 51 88 52 87 53 43 55
REMARK SMILES IDX 75 56 55 57 74 58 56 59 59 60 73 61 92 62 57 63 58 64 72 66
REMARK SMILES IDX 93 67 60 68 44 69 45 70 53 71 46 72 48 73 54 74 47 75 49 76
REMARK SMILES IDX 50 77 51 78 52 79 76 80 77 81 85 82 78 83 80 84 86 85 79 86
REMARK SMILES IDX 81 87 82 88 83 89 84 90 61 91 62 92 70 93 63 94 65 95 71 96
REMARK SMILES IDX 64 97 66 98 67 99 68 100 69 101
REMARK H PARENT 28 5 32 35 91 54 59 65
REMARK Flexibility Score: inf
ROOT
ATOM      1  C   UNL A   1      33.534  28.184  25.952  1.00  0.00     0.117 C 
ENDROOT
BRANCH   1   2
ATOM      2  N   UNL A   1      33.627  26.747  26.145  1.00  0.00    -0.354 N 
ATOM      3  O   UNL A   1      31.472  26.381  26.857  1.00  0.00    -0.273 OA
ATOM      4  C   UNL A   1      32.564  25.944  26.507  1.00  0.00     0.239 C 
ATOM      5  H   UNL A   1      34.504  26.318  26.010  1.00  0.00     0.163 HD
BRANCH   4   6
ATOM      6  C   UNL A   1      32.861  24.452  26.420  1.00  0.00     0.222 C 
BRANCH   6   7
ATOM      7  N   UNL A   1      33.470  24.091  25.141  1.00  0.00    -0.327 N 
ATOM      8  C   UNL A   1      32.975  24.384  23.881  1.00  0.00     0.109 A 
ATOM      9  C   UNL A   1      34.677  23.409  25.026  1.00  0.00     0.049 A 
ATOM     10  C   UNL A   1      33.923  23.971  22.965  1.00  0.00     0.042 A 
ATOM     11  C   UNL A   1      35.031  23.437  23.674  1.00  0.00     0.000 A 
ATOM     12  C   UNL A   1      35.516  22.809  25.983  1.00  0.00     0.027 A 
ATOM     13  C   UNL A   1      36.304  22.968  23.290  1.00  0.00     0.010 A 
ATOM     14  C   UNL A   1      36.779  22.363  25.583  1.00  0.00     0.002 A 
ATOM     15  C   UNL A   1      37.180  22.464  24.258  1.00  0.00     0.001 A 
BRANCH   8  16
ATOM     16  C   UNL A   1      31.761  25.099  23.613  1.00  0.00     0.274 A 
ATOM     17  N   UNL A   1      31.681  26.363  23.234  1.00  0.00    -0.185 NA
ATOM     18  O   UNL A   1      30.529  24.530  23.790  1.00  0.00    -0.332 OA
ATOM     19  C   UNL A   1      30.320  26.582  23.204  1.00  0.00     0.202 A 
ATOM     20  N   UNL A   1      29.586  25.509  23.530  1.00  0.00    -0.057 NA
BRANCH  19  21
ATOM     21  C   UNL A   1      29.673  27.832  22.833  1.00  0.00     0.023 A 
ATOM     22  C   UNL A   1      30.460  28.905  22.391  1.00  0.00     0.013 A 
ATOM     23  C   UNL A   1      28.314  28.047  23.092  1.00  0.00     0.013 A 
ATOM     24  C   UNL A   1      29.923  30.191  22.291  1.00  0.00     0.014 A 
ATOM     25  C   UNL A   1      27.777  29.341  23.003  1.00  0.00     0.014 A 
ATOM     26  C   UNL A   1      28.586  30.431  22.638  1.00  0.00     0.056 A 
BRANCH  26  27
ATOM     27  C   UNL A   1      28.070  31.851  22.684  1.00  0.00     0.416 C 
ATOM     28  F   UNL A   1      27.146  32.032  23.672  1.00  0.00    -0.166 F 
ATOM     29  F   UNL A   1      29.053  32.763  22.927  1.00  0.00    -0.166 F 
ATOM     30  F   UNL A   1      27.462  32.254  21.534  1.00  0.00    -0.166 F 
ENDBRANCH  26  27
ENDBRANCH  19  21
ENDBRANCH   8  16
ENDBRANCH   6   7
ENDBRANCH   4   6
ENDBRANCH   1   2
BRANCH   1  31
ATOM     31  C   UNL A   1      33.707  28.955  27.265  1.00  0.00     0.042 C 
BRANCH  31  32
ATOM     32  C   UNL A   1      34.137  30.417  27.105  1.00  0.00     0.118 C 
BRANCH  32  33
ATOM     33  N   UNL A   1      34.048  31.215  28.308  1.00  0.00    -0.352 N 
ATOM     34  C   UNL A   1      34.986  31.726  29.168  1.00  0.00     0.251 C 
ATOM     35  H   UNL A   1      33.123  31.437  28.562  1.00  0.00     0.163 HD
ATOM     36  O   UNL A   1      34.613  32.673  29.867  1.00  0.00    -0.269 OA
BRANCH  34  37
ATOM     37  C   UNL A   1      36.342  31.150  29.383  1.00  0.00     0.039 A 
ATOM     38  C   UNL A   1      37.537  31.859  29.306  1.00  0.00     0.014 A 
ATOM     39  C   UNL A   1      36.396  29.753  29.564  1.00  0.00     0.014 A 
ATOM     40  C   UNL A   1      38.749  31.182  29.275  1.00  0.00     0.010 A 
ATOM     41  C   UNL A   1      37.608  29.071  29.552  1.00  0.00     0.010 A 
ATOM     42  C   UNL A   1      38.780  29.785  29.346  1.00  0.00    -0.014 A 
BRANCH  42  43
ATOM     43  C   UNL A   1      40.094  29.146  29.329  1.00  0.00     0.031 A 
ATOM     44  C   UNL A   1      40.677  28.990  30.689  1.00  0.00     0.074 A 
ATOM     45  C   UNL A   1      40.711  28.704  28.213  1.00  0.00     0.049 A 
ATOM     46  N   UNL A   1      41.679  29.637  31.190  1.00  0.00    -0.248 NA
ATOM     47  C   UNL A   1      39.953  28.159  31.664  1.00  0.00     0.031 C 
ATOM     48  C   UNL A   1      40.130  28.569  26.874  1.00  0.00     0.029 A 
ATOM     49  N   UNL A   1      41.959  28.167  28.058  1.00  0.00    -0.354 N 
ATOM     50  C   UNL A   1      41.869  29.092  32.457  1.00  0.00     0.074 A 
ATOM     51  C   UNL A   1      40.682  28.339  32.767  1.00  0.00     0.031 C 
ATOM     52  C   UNL A   1      40.916  27.762  26.126  1.00  0.00     0.029 A 
ATOM     53  C   UNL A   1      42.121  27.450  26.872  1.00  0.00     0.049 A 
ATOM     54  H   UNL A   1      42.678  28.276  28.722  1.00  0.00     0.167 HD
ATOM     55  C   UNL A   1      43.106  29.046  33.020  1.00  0.00     0.034 A 
ATOM     56  C   UNL A   1      43.148  26.616  26.569  1.00  0.00     0.034 A 
ATOM     57  C   UNL A   1      44.042  29.877  32.320  1.00  0.00     0.049 A 
ATOM     58  C   UNL A   1      44.302  27.042  27.387  1.00  0.00     0.074 A 
ATOM     59  C   UNL A   1      44.341  31.217  32.238  1.00  0.00     0.029 A 
ATOM     60  N   UNL A   1      44.589  29.259  31.229  1.00  0.00    -0.354 N 
ATOM     61  N   UNL A   1      44.904  28.188  27.238  1.00  0.00    -0.248 NA
ATOM     62  C   UNL A   1      44.636  26.305  28.601  1.00  0.00     0.031 C 
ATOM     63  C   UNL A   1      44.957  31.407  30.964  1.00  0.00     0.029 A 
ATOM     64  C   UNL A   1      45.051  30.173  30.326  1.00  0.00     0.049 A 
ATOM     65  H   UNL A   1      44.643  28.284  31.111  1.00  0.00     0.167 HD
ATOM     66  C   UNL A   1      45.317  28.506  28.514  1.00  0.00     0.074 A 
ATOM     67  C   UNL A   1      45.307  27.254  29.256  1.00  0.00     0.031 C 
ATOM     68  C   UNL A   1      45.290  29.792  28.953  1.00  0.00     0.034 A 
BRANCH  55  69
ATOM     69  C   UNL A   1      43.597  27.895  33.865  1.00  0.00     0.023 A 
ATOM     70  C   UNL A   1      44.130  28.175  35.140  1.00  0.00     0.012 A 
ATOM     71  C   UNL A   1      43.822  26.600  33.341  1.00  0.00     0.148 A 
ATOM     72  C   UNL A   1      44.835  27.205  35.864  1.00  0.00     0.002 A 
ATOM     73  C   UNL A   1      44.456  25.620  34.093  1.00  0.00     0.091 A 
ATOM     74  F   UNL A   1      43.551  26.356  32.054  1.00  0.00    -0.205 F 
ATOM     75  C   UNL A   1      44.982  25.921  35.350  1.00  0.00     0.022 A 
BRANCH  73  76
ATOM     76  S   UNL A   1      44.653  23.942  33.482  1.00  0.00     0.127 S 
ATOM     77  O   UNL A   1      44.955  24.173  32.077  1.00  0.00    -0.237 OA
ATOM     78  O   UNL A   1      45.770  23.462  34.293  1.00  0.00    -0.237 OA
ATOM     79  O   UNL A   1      43.381  23.277  33.768  1.00  0.00    -0.744 OA
ENDBRANCH  73  76
ENDBRANCH  55  69
BRANCH  56  80
ATOM     80  C   UNL A   1      43.177  25.318  25.841  1.00  0.00     0.023 A 
ATOM     81  C   UNL A   1      44.279  25.040  24.997  1.00  0.00     0.012 A 
ATOM     82  C   UNL A   1      42.355  24.239  26.226  1.00  0.00     0.148 A 
ATOM     83  C   UNL A   1      44.616  23.727  24.648  1.00  0.00     0.002 A 
ATOM     84  C   UNL A   1      42.692  22.934  25.869  1.00  0.00     0.091 A 
ATOM     85  F   UNL A   1      41.306  24.473  27.022  1.00  0.00    -0.205 F 
ATOM     86  C   UNL A   1      43.836  22.673  25.104  1.00  0.00     0.022 A 
BRANCH  84  87
ATOM     87  S   UNL A   1      41.732  21.521  26.430  1.00  0.00     0.127 S 
ATOM     88  O   UNL A   1      40.381  21.871  25.983  1.00  0.00    -0.237 OA
ATOM     89  O   UNL A   1      42.353  20.422  25.694  1.00  0.00    -0.237 OA
ATOM     90  O   UNL A   1      41.889  21.489  27.877  1.00  0.00    -0.744 OA
ENDBRANCH  84  87
ENDBRANCH  56  80
BRANCH  68  91
ATOM     91  C   UNL A   1      45.352  30.881  27.931  1.00  0.00     0.023 A 
ATOM     92  C   UNL A   1      44.210  31.448  27.334  1.00  0.00     0.012 A 
ATOM     93  C   UNL A   1      46.616  31.431  27.675  1.00  0.00     0.148 A 
ATOM     94  C   UNL A   1      44.337  32.562  26.499  1.00  0.00     0.002 A 
ATOM     95  C   UNL A   1      46.734  32.556  26.878  1.00  0.00     0.091 A 
ATOM     96  F   UNL A   1      47.681  30.857  28.258  1.00  0.00    -0.205 F 
ATOM     97  C   UNL A   1      45.596  33.125  26.284  1.00  0.00     0.022 A 
BRANCH  95  98
ATOM     98  S   UNL A   1      48.308  33.383  26.650  1.00  0.00     0.127 S 
ATOM     99  O   UNL A   1      48.508  34.024  27.949  1.00  0.00    -0.237 OA
ATOM    100  O   UNL A   1      49.205  32.261  26.373  1.00  0.00    -0.237 OA
ATOM    101  O   UNL A   1      48.129  34.298  25.529  1.00  0.00    -0.744 OA
ENDBRANCH  95  98
ENDBRANCH  68  91
ENDBRANCH  42  43
ENDBRANCH  34  37
ENDBRANCH  32  33
ENDBRANCH  31  32
ENDBRANCH   1  31
TORSDOF 17
ENDMDL
MODEL 3
REMARK VINA RESULT:     -13.6      2.548      7.985
REMARK SMILES O=C(Cn1c(-c2nc(-c3ccc(C(F)(F)F)cc3)no2)cc2ccccc21)NCCCNC(=O)c1ccc(-c2c3nc(c(-c4cccc(S(=O)(=O)[O-])c4F)c4ccc([nH]4)c(-c4cccc(S(=O)(=O)[O-])c4F)c4nc(c(-c5cccc(S(=O)(=O)[O-])c5F)c5ccc2[nH]5)C=C4)C=C3)cc1
REMARK SMILES IDX 29 1 28 2 1 3 2 4 3 6 4 7 5 8 27 9 21 10 22 11 26 12 23 13
REMARK SMILES IDX 25 14 24 15 6 16 7 17 20 18 8 19 19 20 9 21 10 22 18 23
REMARK SMILES IDX 11 24 17 25 12 26 13 27 14 28 15 29 16 30 30 31 31 32 32 33
REMARK SMILES IDX 33 34 34 36 35 37 36 38 97 39 37 40 96 41 38 42 39 43 40 44
REMARK SMILES IDX 90 45 41 46 95 47 89 48 91 49 42 50 94 51 88 52 87 53 43 55
REMARK SMILES IDX 75 56 55 57 74 58 56 59 59 60 73 61 92 62 57 63 58 64 72 66
REMARK SMILES IDX 93 67 60 68 44 69 45 70 53 71 46 72 48 73 54 74 47 75 49 76
REMARK SMILES IDX 50 77 51 78 52 79 76 80 77 81 85 82 78 83 80 84 86 85 79 86
REMARK SMILES IDX 81 87 82 88 83 89 84 90 61 91 62 92 70 93 63 94 65 95 71 96
REMARK SMILES IDX 64 97 66 98 67 99 68 100 69 101
REMARK H PARENT 28 5 32 35 91 54 59 65
REMARK Flexibility Score: inf
ROOT
ATOM      1  C   UNL A   1      35.237  23.219  23.243  1.00  0.00     0.117 C 
ENDROOT
BRANCH   1   2
ATOM      2  N   UNL A   1      34.650  24.423  23.807  1.00  0.00    -0.354 N 
ATOM      3  O   UNL A   1      33.965  25.395  21.839  1.00  0.00    -0.273 OA
ATOM      4  C   UNL A   1      33.988  25.381  23.066  1.00  0.00     0.239 C 
ATOM      5  H   UNL A   1      34.729  24.565  24.778  1.00  0.00     0.163 HD
BRANCH   4   6
ATOM      6  C   UNL A   1      33.266  26.424  23.911  1.00  0.00     0.222 C 
BRANCH   6   7
ATOM      7  N   UNL A   1      31.816  26.353  23.744  1.00  0.00    -0.327 N 
ATOM      8  C   UNL A   1      31.004  25.272  24.046  1.00  0.00     0.109 A 
ATOM      9  C   UNL A   1      31.040  27.407  23.271  1.00  0.00     0.049 A 
ATOM     10  C   UNL A   1      29.698  25.678  23.855  1.00  0.00     0.042 A 
ATOM     11  C   UNL A   1      29.704  27.039  23.453  1.00  0.00     0.000 A 
ATOM     12  C   UNL A   1      31.381  28.666  22.744  1.00  0.00     0.027 A 
ATOM     13  C   UNL A   1      28.694  27.995  23.219  1.00  0.00     0.010 A 
ATOM     14  C   UNL A   1      30.366  29.603  22.533  1.00  0.00     0.002 A 
ATOM     15  C   UNL A   1      29.041  29.281  22.791  1.00  0.00     0.001 A 
BRANCH   8  16
ATOM     16  C   UNL A   1      31.456  24.019  24.578  1.00  0.00     0.274 A 
ATOM     17  N   UNL A   1      31.591  22.896  23.893  1.00  0.00    -0.185 NA
ATOM     18  O   UNL A   1      31.741  23.855  25.907  1.00  0.00    -0.332 OA
ATOM     19  C   UNL A   1      31.955  21.992  24.868  1.00  0.00     0.202 A 
ATOM     20  N   UNL A   1      32.059  22.521  26.095  1.00  0.00    -0.057 NA
BRANCH  19  21
ATOM     21  C   UNL A   1      32.243  20.582  24.647  1.00  0.00     0.023 A 
ATOM     22  C   UNL A   1      32.766  19.818  25.701  1.00  0.00     0.013 A 
ATOM     23  C   UNL A   1      32.193  20.026  23.363  1.00  0.00     0.013 A 
ATOM     24  C   UNL A   1      33.310  18.553  25.464  1.00  0.00     0.014 A 
ATOM     25  C   UNL A   1      32.750  18.760  23.123  1.00  0.00     0.014 A 
ATOM     26  C   UNL A   1      33.348  18.028  24.164  1.00  0.00     0.056 A 
BRANCH  26  27
ATOM     27  C   UNL A   1      34.088  16.737  23.902  1.00  0.00     0.416 C 
ATOM     28  F   UNL A   1      33.347  15.641  24.238  1.00  0.00    -0.166 F 
ATOM     29  F   UNL A   1      34.415  16.572  22.590  1.00  0.00    -0.166 F 
ATOM     30  F   UNL A   1      35.254  16.619  24.595  1.00  0.00    -0.166 F 
ENDBRANCH  26  27
ENDBRANCH  19  21
ENDBRANCH   8  16
ENDBRANCH   6   7
ENDBRANCH   4   6
ENDBRANCH   1   2
BRANCH   1  31
ATOM     31  C   UNL A   1      35.652  22.218  24.326  1.00  0.00     0.042 C 
BRANCH  31  32
ATOM     32  C   UNL A   1      36.657  22.753  25.352  1.00  0.00     0.118 C 
BRANCH  32  33
ATOM     33  N   UNL A   1      37.939  22.084  25.358  1.00  0.00    -0.352 N 
ATOM     34  C   UNL A   1      39.050  22.188  26.155  1.00  0.00     0.251 C 
ATOM     35  H   UNL A   1      38.034  21.415  24.642  1.00  0.00     0.163 HD
ATOM     36  O   UNL A   1      39.816  21.220  26.138  1.00  0.00    -0.269 OA
BRANCH  34  37
ATOM     37  C   UNL A   1      39.431  23.406  26.922  1.00  0.00     0.039 A 
ATOM     38  C   UNL A   1      38.768  24.630  26.867  1.00  0.00     0.014 A 
ATOM     39  C   UNL A   1      40.625  23.319  27.666  1.00  0.00     0.014 A 
ATOM     40  C   UNL A   1      39.348  25.762  27.423  1.00  0.00     0.010 A 
ATOM     41  C   UNL A   1      41.201  24.446  28.241  1.00  0.00     0.010 A 
ATOM     42  C   UNL A   1      40.588  25.679  28.064  1.00  0.00    -0.014 A 
BRANCH  42  43
ATOM     43  C   UNL A   1      41.124  26.909  28.643  1.00  0.00     0.031 A 
ATOM     44  C   UNL A   1      42.488  27.234  28.148  1.00  0.00     0.074 A 
ATOM     45  C   UNL A   1      40.452  27.698  29.508  1.00  0.00     0.049 A 
ATOM     46  N   UNL A   1      43.598  27.166  28.808  1.00  0.00    -0.248 NA
ATOM     47  C   UNL A   1      42.663  27.482  26.707  1.00  0.00     0.031 C 
ATOM     48  C   UNL A   1      39.031  27.619  29.860  1.00  0.00     0.029 A 
ATOM     49  N   UNL A   1      40.867  28.818  30.174  1.00  0.00    -0.354 N 
ATOM     50  C   UNL A   1      44.575  27.625  27.929  1.00  0.00     0.074 A 
ATOM     51  C   UNL A   1      43.987  27.620  26.615  1.00  0.00     0.031 C 
ATOM     52  C   UNL A   1      38.651  28.776  30.448  1.00  0.00     0.029 A 
ATOM     53  C   UNL A   1      39.822  29.609  30.655  1.00  0.00     0.049 A 
ATOM     54  H   UNL A   1      41.816  29.046  30.303  1.00  0.00     0.167 HD
ATOM     55  C   UNL A   1      45.685  28.264  28.387  1.00  0.00     0.034 A 
ATOM     56  C   UNL A   1      39.923  30.877  31.125  1.00  0.00     0.034 A 
ATOM     57  C   UNL A   1      45.845  28.104  29.804  1.00  0.00     0.049 A 
ATOM     58  C   UNL A   1      41.312  31.051  31.595  1.00  0.00     0.074 A 
ATOM     59  C   UNL A   1      46.285  27.129  30.669  1.00  0.00     0.029 A 
ATOM     60  N   UNL A   1      45.110  29.003  30.527  1.00  0.00    -0.354 N 
ATOM     61  N   UNL A   1      41.813  30.404  32.610  1.00  0.00    -0.248 NA
ATOM     62  C   UNL A   1      42.276  31.751  30.754  1.00  0.00     0.031 C 
ATOM     63  C   UNL A   1      45.648  27.393  31.919  1.00  0.00     0.029 A 
ATOM     64  C   UNL A   1      44.873  28.543  31.790  1.00  0.00     0.049 A 
ATOM     65  H   UNL A   1      44.795  29.869  30.181  1.00  0.00     0.167 HD
ATOM     66  C   UNL A   1      43.140  30.246  32.270  1.00  0.00     0.074 A 
ATOM     67  C   UNL A   1      43.407  31.243  31.245  1.00  0.00     0.031 C 
ATOM     68  C   UNL A   1      43.807  29.104  32.586  1.00  0.00     0.034 A 
BRANCH  55  69
ATOM     69  C   UNL A   1      46.332  29.428  27.677  1.00  0.00     0.023 A 
ATOM     70  C   UNL A   1      47.740  29.511  27.666  1.00  0.00     0.012 A 
ATOM     71  C   UNL A   1      45.614  30.580  27.281  1.00  0.00     0.148 A 
ATOM     72  C   UNL A   1      48.398  30.680  27.260  1.00  0.00     0.002 A 
ATOM     73  C   UNL A   1      46.269  31.710  26.809  1.00  0.00     0.091 A 
ATOM     74  F   UNL A   1      44.295  30.640  27.497  1.00  0.00    -0.205 F 
ATOM     75  C   UNL A   1      47.663  31.773  26.813  1.00  0.00     0.022 A 
BRANCH  73  76
ATOM     76  S   UNL A   1      45.367  33.140  26.202  1.00  0.00     0.127 S 
ATOM     77  O   UNL A   1      44.693  33.596  27.408  1.00  0.00    -0.237 OA
ATOM     78  O   UNL A   1      46.454  33.995  25.729  1.00  0.00    -0.237 OA
ATOM     79  O   UNL A   1      44.506  32.627  25.136  1.00  0.00    -0.744 OA
ENDBRANCH  73  76
ENDBRANCH  55  69
BRANCH  56  80
ATOM     80  C   UNL A   1      39.024  32.054  30.977  1.00  0.00     0.023 A 
ATOM     81  C   UNL A   1      38.570  32.400  29.681  1.00  0.00     0.012 A 
ATOM     82  C   UNL A   1      38.339  32.602  32.080  1.00  0.00     0.148 A 
ATOM     83  C   UNL A   1      37.412  33.164  29.494  1.00  0.00     0.002 A 
ATOM     84  C   UNL A   1      37.191  33.369  31.888  1.00  0.00     0.091 A 
ATOM     85  F   UNL A   1      38.747  32.293  33.316  1.00  0.00    -0.205 F 
ATOM     86  C   UNL A   1      36.710  33.628  30.598  1.00  0.00     0.022 A 
BRANCH  84  87
ATOM     87  S   UNL A   1      36.227  33.995  33.271  1.00  0.00     0.127 S 
ATOM     88  O   UNL A   1      35.954  32.773  34.033  1.00  0.00    -0.237 OA
ATOM     89  O   UNL A   1      37.172  34.911  33.907  1.00  0.00    -0.237 OA
ATOM     90  O   UNL A   1      35.045  34.606  32.682  1.00  0.00    -0.744 OA
ENDBRANCH  84  87
ENDBRANCH  56  80
BRANCH  68  91
ATOM     91  C   UNL A   1      43.301  28.295  33.737  1.00  0.00     0.023 A 
ATOM     92  C   UNL A   1      42.319  27.295  33.609  1.00  0.00     0.012 A 
ATOM     93  C   UNL A   1      43.952  28.477  34.966  1.00  0.00     0.148 A 
ATOM     94  C   UNL A   1      42.003  26.480  34.700  1.00  0.00     0.002 A 
ATOM     95  C   UNL A   1      43.664  27.643  36.033  1.00  0.00     0.091 A 
ATOM     96  F   UNL A   1      44.877  29.445  35.050  1.00  0.00    -0.205 F 
ATOM     97  C   UNL A   1      42.687  26.643  35.906  1.00  0.00     0.022 A 
BRANCH  95  98
ATOM     98  S   UNL A   1      44.580  27.738  37.570  1.00  0.00     0.127 S 
ATOM     99  O   UNL A   1      45.944  27.443  37.134  1.00  0.00    -0.237 OA
ATOM    100  O   UNL A   1      44.351  29.124  37.978  1.00  0.00    -0.237 OA
ATOM    101  O   UNL A   1      43.987  26.747  38.460  1.00  0.00    -0.744 OA
ENDBRANCH  95  98
ENDBRANCH  68  91
ENDBRANCH  42  43
ENDBRANCH  34  37
ENDBRANCH  32  33
ENDBRANCH  31  32
ENDBRANCH   1  31
TORSDOF 17
ENDMDL
