MODEL 1
REMARK VINA RESULT:     -13.5      0.000      0.000
REMARK SMILES COc1ccc(-c2ccc(/C=C3\SC(=S)N([C@H](Cc4ccccc4)C(=O)NCCCNC(=O)c4ccc(-c5c6nc(c(-c7cccc(S(=O)(=O)[O-])c7F)c7ccc([nH]7)c(-c7cccc(S(=O)(=O)[O-])c7F)c7nc(c(-c8cccc(S(=O)(=O)[O-])c8F)c8ccc5[nH]8)C=C7)C=C6)cc4)C3=O)o2)cc1
REMARK SMILES IDX 28 1 27 2 25 3 26 4 17 6 16 7 11 8 12 9 13 10 97 11 14 12
REMARK SMILES IDX 98 13 15 14 10 15 7 16 8 17 99 18 9 19 6 20 3 21 4 22 101 23
REMARK SMILES IDX 5 24 100 25 2 26 1 27 18 28 19 29 20 30 24 31 21 32 23 33
REMARK SMILES IDX 22 34 29 35 30 36 31 37 32 38 33 40 34 41 35 42 96 43 36 44
REMARK SMILES IDX 95 45 37 46 38 47 39 48 89 49 40 50 94 51 88 52 90 53 41 54
REMARK SMILES IDX 93 55 87 56 86 57 42 59 74 60 54 61 73 62 55 63 58 64 72 65
REMARK SMILES IDX 91 66 56 67 57 68 71 70 92 71 59 72 43 73 44 74 52 75 45 76
REMARK SMILES IDX 47 77 53 78 46 79 48 80 49 81 50 82 51 83 75 84 76 85 84 86
REMARK SMILES IDX 77 87 79 88 85 89 78 90 80 91 81 92 82 93 83 94 60 95 61 96
REMARK SMILES IDX 69 97 62 98 64 99 70 100 63 101 65 102 66 103 67 104 68 105
REMARK H PARENT 27 5 31 39 90 58 58 69
REMARK Flexibility Score: inf
ROOT
ATOM      1  C   UNL A   1      31.532  30.424  26.267  1.00  0.00     0.117 C 
ENDROOT
BRANCH   1   2
ATOM      2  N   UNL A   1      32.703  30.180  25.444  1.00  0.00    -0.354 N 
ATOM      3  C   UNL A   1      32.940  29.216  24.502  1.00  0.00     0.243 C 
ATOM      4  O   UNL A   1      34.023  29.251  23.908  1.00  0.00    -0.273 OA
ATOM      5  H   UNL A   1      33.446  30.810  25.587  1.00  0.00     0.163 HD
BRANCH   3   6
ATOM      6  C   UNL A   1      31.981  28.012  24.304  1.00  0.00     0.185 C 
BRANCH   6   7
ATOM      7  N   UNL A   1      32.642  26.666  24.213  1.00  0.00    -0.280 N 
ATOM      8  C   UNL A   1      34.343  23.977  25.965  1.00  0.00     0.068 C 
ATOM      9  C   UNL A   1      33.728  24.728  25.042  1.00  0.00     0.084 C 
ATOM     10  S   UNL A   1      33.599  24.417  23.367  1.00  0.00    -0.054 SA
ATOM     11  C   UNL A   1      33.010  25.986  25.372  1.00  0.00     0.267 C 
ATOM     12  C   UNL A   1      32.645  25.860  23.087  1.00  0.00     0.149 C 
ATOM     13  O   UNL A   1      32.776  26.301  26.528  1.00  0.00    -0.268 OA
ATOM     14  S   UNL A   1      31.880  26.010  21.620  1.00  0.00    -0.052 S 
BRANCH   8  15
ATOM     15  C   UNL A   1      35.002  22.769  25.615  1.00  0.00     0.128 A 
ATOM     16  C   UNL A   1      35.226  20.624  25.098  1.00  0.00     0.134 A 
ATOM     17  C   UNL A   1      36.454  21.199  24.869  1.00  0.00     0.051 A 
ATOM     18  O   UNL A   1      34.356  21.557  25.570  1.00  0.00    -0.457 OA
ATOM     19  C   UNL A   1      36.319  22.560  25.217  1.00  0.00     0.051 A 
BRANCH  16  20
ATOM     20  C   UNL A   1      34.707  19.279  24.934  1.00  0.00     0.017 A 
ATOM     21  C   UNL A   1      33.727  16.674  24.530  1.00  0.00     0.118 A 
ATOM     22  C   UNL A   1      32.846  17.731  24.774  1.00  0.00     0.047 A 
ATOM     23  C   UNL A   1      35.098  16.923  24.478  1.00  0.00     0.047 A 
ATOM     24  C   UNL A   1      33.332  19.024  24.988  1.00  0.00     0.016 A 
ATOM     25  C   UNL A   1      35.583  18.220  24.673  1.00  0.00     0.016 A 
BRANCH  21  26
ATOM     26  O   UNL A   1      33.133  15.459  24.328  1.00  0.00    -0.497 OA
ATOM     27  C   UNL A   1      32.557  14.852  25.479  1.00  0.00     0.278 C 
ENDBRANCH  21  26
ENDBRANCH  16  20
ENDBRANCH   8  15
ENDBRANCH   6   7
BRANCH   6  28
ATOM     28  C   UNL A   1      31.143  28.419  23.044  1.00  0.00     0.071 C 
BRANCH  28  29
ATOM     29  C   UNL A   1      29.726  28.937  23.171  1.00  0.00    -0.045 A 
ATOM     30  C   UNL A   1      28.584  28.129  23.193  1.00  0.00     0.004 A 
ATOM     31  C   UNL A   1      29.556  30.331  23.276  1.00  0.00     0.004 A 
ATOM     32  C   UNL A   1      27.309  28.704  23.191  1.00  0.00     0.000 A 
ATOM     33  C   UNL A   1      28.284  30.901  23.306  1.00  0.00     0.000 A 
ATOM     34  C   UNL A   1      27.159  30.087  23.236  1.00  0.00     0.000 A 
ENDBRANCH  28  29
ENDBRANCH   6  28
ENDBRANCH   3   6
ENDBRANCH   1   2
BRANCH   1  35
ATOM     35  C   UNL A   1      31.387  31.883  26.670  1.00  0.00     0.042 C 
BRANCH  35  36
ATOM     36  C   UNL A   1      32.682  32.538  27.134  1.00  0.00     0.118 C 
BRANCH  36  37
ATOM     37  N   UNL A   1      32.506  33.932  27.519  1.00  0.00    -0.352 N 
ATOM     38  C   UNL A   1      33.123  34.659  28.508  1.00  0.00     0.251 C 
ATOM     39  H   UNL A   1      31.841  34.429  26.991  1.00  0.00     0.163 HD
ATOM     40  O   UNL A   1      32.700  35.778  28.786  1.00  0.00    -0.269 OA
BRANCH  38  41
ATOM     41  C   UNL A   1      34.278  34.099  29.245  1.00  0.00     0.039 A 
ATOM     42  C   UNL A   1      34.045  33.298  30.367  1.00  0.00     0.014 A 
ATOM     43  C   UNL A   1      35.588  34.381  28.851  1.00  0.00     0.014 A 
ATOM     44  C   UNL A   1      35.123  32.737  31.057  1.00  0.00     0.010 A 
ATOM     45  C   UNL A   1      36.655  33.750  29.483  1.00  0.00     0.010 A 
ATOM     46  C   UNL A   1      36.437  32.937  30.605  1.00  0.00    -0.014 A 
BRANCH  46  47
ATOM     47  C   UNL A   1      37.603  32.338  31.304  1.00  0.00     0.031 A 
ATOM     48  C   UNL A   1      38.364  31.207  30.660  1.00  0.00     0.074 A 
ATOM     49  C   UNL A   1      37.920  32.741  32.551  1.00  0.00     0.049 A 
ATOM     50  N   UNL A   1      39.350  30.497  31.141  1.00  0.00    -0.248 NA
ATOM     51  C   UNL A   1      37.936  30.799  29.311  1.00  0.00     0.031 C 
ATOM     52  C   UNL A   1      37.210  33.768  33.315  1.00  0.00     0.029 A 
ATOM     53  N   UNL A   1      38.905  32.313  33.405  1.00  0.00    -0.354 N 
ATOM     54  C   UNL A   1      39.629  29.533  30.178  1.00  0.00     0.074 A 
ATOM     55  C   UNL A   1      38.683  29.724  29.102  1.00  0.00     0.031 C 
ATOM     56  C   UNL A   1      37.785  33.894  34.523  1.00  0.00     0.029 A 
ATOM     57  C   UNL A   1      38.885  32.941  34.630  1.00  0.00     0.049 A 
ATOM     58  H   UNL A   1      39.565  31.623  33.165  1.00  0.00     0.167 HD
ATOM     59  C   UNL A   1      40.605  28.595  30.171  1.00  0.00     0.034 A 
ATOM     60  C   UNL A   1      39.663  32.765  35.716  1.00  0.00     0.034 A 
ATOM     61  C   UNL A   1      41.585  28.451  31.213  1.00  0.00     0.049 A 
ATOM     62  C   UNL A   1      40.785  31.762  35.655  1.00  0.00     0.074 A 
ATOM     63  C   UNL A   1      42.672  27.595  31.259  1.00  0.00     0.029 A 
ATOM     64  N   UNL A   1      41.600  29.182  32.389  1.00  0.00    -0.354 N 
ATOM     65  N   UNL A   1      41.129  30.968  34.671  1.00  0.00    -0.248 NA
ATOM     66  C   UNL A   1      41.652  31.661  36.839  1.00  0.00     0.031 C 
ATOM     67  C   UNL A   1      43.338  27.803  32.471  1.00  0.00     0.029 A 
ATOM     68  C   UNL A   1      42.677  28.801  33.169  1.00  0.00     0.049 A 
ATOM     69  H   UNL A   1      40.941  29.872  32.634  1.00  0.00     0.167 HD
ATOM     70  C   UNL A   1      42.274  30.303  35.099  1.00  0.00     0.074 A 
ATOM     71  C   UNL A   1      42.574  30.803  36.425  1.00  0.00     0.031 C 
ATOM     72  C   UNL A   1      43.001  29.356  34.458  1.00  0.00     0.034 A 
BRANCH  59  73
ATOM     73  C   UNL A   1      40.702  27.694  28.968  1.00  0.00     0.023 A 
ATOM     74  C   UNL A   1      39.803  26.617  28.833  1.00  0.00     0.012 A 
ATOM     75  C   UNL A   1      41.643  27.940  27.948  1.00  0.00     0.148 A 
ATOM     76  C   UNL A   1      39.861  25.775  27.724  1.00  0.00     0.002 A 
ATOM     77  C   UNL A   1      41.664  27.124  26.822  1.00  0.00     0.091 A 
ATOM     78  F   UNL A   1      42.503  28.955  28.102  1.00  0.00    -0.205 F 
ATOM     79  C   UNL A   1      40.783  26.034  26.714  1.00  0.00     0.022 A 
BRANCH  77  80
ATOM     80  S   UNL A   1      42.758  27.422  25.429  1.00  0.00     0.127 S 
ATOM     81  O   UNL A   1      42.646  26.164  24.691  1.00  0.00    -0.237 OA
ATOM     82  O   UNL A   1      42.125  28.568  24.778  1.00  0.00    -0.237 OA
ATOM     83  O   UNL A   1      44.070  27.697  26.000  1.00  0.00    -0.744 OA
ENDBRANCH  77  80
ENDBRANCH  59  73
BRANCH  60  84
ATOM     84  C   UNL A   1      39.463  33.616  36.923  1.00  0.00     0.023 A 
ATOM     85  C   UNL A   1      39.880  34.962  36.894  1.00  0.00     0.012 A 
ATOM     86  C   UNL A   1      38.844  33.115  38.084  1.00  0.00     0.148 A 
ATOM     87  C   UNL A   1      39.716  35.783  38.010  1.00  0.00     0.002 A 
ATOM     88  C   UNL A   1      38.633  33.954  39.173  1.00  0.00     0.091 A 
ATOM     89  F   UNL A   1      38.463  31.830  38.097  1.00  0.00    -0.205 F 
ATOM     90  C   UNL A   1      39.084  35.283  39.145  1.00  0.00     0.022 A 
BRANCH  88  91
ATOM     91  S   UNL A   1      37.710  33.433  40.624  1.00  0.00     0.127 S 
ATOM     92  O   UNL A   1      37.820  34.606  41.487  1.00  0.00    -0.237 OA
ATOM     93  O   UNL A   1      36.377  33.197  40.069  1.00  0.00    -0.237 OA
ATOM     94  O   UNL A   1      38.379  32.228  41.099  1.00  0.00    -0.744 OA
ENDBRANCH  88  91
ENDBRANCH  60  84
BRANCH  72  95
ATOM     95  C   UNL A   1      44.224  28.822  35.155  1.00  0.00     0.023 A 
ATOM     96  C   UNL A   1      45.479  29.423  34.929  1.00  0.00     0.012 A 
ATOM     97  C   UNL A   1      44.114  27.780  36.097  1.00  0.00     0.148 A 
ATOM     98  C   UNL A   1      46.611  28.973  35.609  1.00  0.00     0.002 A 
ATOM     99  C   UNL A   1      45.237  27.370  36.806  1.00  0.00     0.091 A 
ATOM    100  F   UNL A   1      42.915  27.208  36.283  1.00  0.00    -0.205 F 
ATOM    101  C   UNL A   1      46.488  27.958  36.554  1.00  0.00     0.022 A 
BRANCH  99 102
ATOM    102  S   UNL A   1      45.152  26.138  38.110  1.00  0.00     0.127 S 
ATOM    103  O   UNL A   1      44.191  26.743  39.030  1.00  0.00    -0.237 OA
ATOM    104  O   UNL A   1      44.655  24.961  37.394  1.00  0.00    -0.237 OA
ATOM    105  O   UNL A   1      46.511  26.001  38.619  1.00  0.00    -0.744 OA
ENDBRANCH  99 102
ENDBRANCH  72  95
ENDBRANCH  46  47
ENDBRANCH  38  41
ENDBRANCH  36  37
ENDBRANCH  35  36
ENDBRANCH   1  35
TORSDOF 19
ENDMDL
MODEL 2
REMARK VINA RESULT:     -13.0      1.450      7.203
REMARK SMILES COc1ccc(-c2ccc(/C=C3\SC(=S)N([C@H](Cc4ccccc4)C(=O)NCCCNC(=O)c4ccc(-c5c6nc(c(-c7cccc(S(=O)(=O)[O-])c7F)c7ccc([nH]7)c(-c7cccc(S(=O)(=O)[O-])c7F)c7nc(c(-c8cccc(S(=O)(=O)[O-])c8F)c8ccc5[nH]8)C=C7)C=C6)cc4)C3=O)o2)cc1
REMARK SMILES IDX 28 1 27 2 25 3 26 4 17 6 16 7 11 8 12 9 13 10 97 11 14 12
REMARK SMILES IDX 98 13 15 14 10 15 7 16 8 17 99 18 9 19 6 20 3 21 4 22 101 23
REMARK SMILES IDX 5 24 100 25 2 26 1 27 18 28 19 29 20 30 24 31 21 32 23 33
REMARK SMILES IDX 22 34 29 35 30 36 31 37 32 38 33 40 34 41 35 42 96 43 36 44
REMARK SMILES IDX 95 45 37 46 38 47 39 48 89 49 40 50 94 51 88 52 90 53 41 54
REMARK SMILES IDX 93 55 87 56 86 57 42 59 74 60 54 61 73 62 55 63 58 64 72 65
REMARK SMILES IDX 91 66 56 67 57 68 71 70 92 71 59 72 43 73 44 74 52 75 45 76
REMARK SMILES IDX 47 77 53 78 46 79 48 80 49 81 50 82 51 83 75 84 76 85 84 86
REMARK SMILES IDX 77 87 79 88 85 89 78 90 80 91 81 92 82 93 83 94 60 95 61 96
REMARK SMILES IDX 69 97 62 98 64 99 70 100 63 101 65 102 66 103 67 104 68 105
REMARK H PARENT 27 5 31 39 90 58 58 69
REMARK Flexibility Score: inf
ROOT
ATOM      1  C   UNL A   1      31.767  30.335  26.327  1.00  0.00     0.117 C 
ENDROOT
BRANCH   1   2
ATOM      2  N   UNL A   1      32.755  30.172  25.275  1.00  0.00    -0.354 N 
ATOM      3  C   UNL A   1      32.811  29.277  24.242  1.00  0.00     0.243 C 
ATOM      4  O   UNL A   1      33.755  29.376  23.450  1.00  0.00    -0.273 OA
ATOM      5  H   UNL A   1      33.505  30.809  25.312  1.00  0.00     0.163 HD
BRANCH   3   6
ATOM      6  C   UNL A   1      31.843  28.067  24.154  1.00  0.00     0.185 C 
BRANCH   6   7
ATOM      7  N   UNL A   1      32.500  26.718  24.077  1.00  0.00    -0.280 N 
ATOM      8  C   UNL A   1      34.202  24.047  25.854  1.00  0.00     0.068 C 
ATOM      9  C   UNL A   1      33.585  24.788  24.925  1.00  0.00     0.084 C 
ATOM     10  S   UNL A   1      33.447  24.456  23.255  1.00  0.00    -0.054 SA
ATOM     11  C   UNL A   1      32.872  26.052  25.242  1.00  0.00     0.267 C 
ATOM     12  C   UNL A   1      32.496  25.898  22.961  1.00  0.00     0.149 C 
ATOM     13  O   UNL A   1      32.645  26.382  26.395  1.00  0.00    -0.268 OA
ATOM     14  S   UNL A   1      31.723  26.031  21.496  1.00  0.00    -0.052 S 
BRANCH   8  15
ATOM     15  C   UNL A   1      34.857  22.832  25.517  1.00  0.00     0.128 A 
ATOM     16  C   UNL A   1      35.072  20.679  25.032  1.00  0.00     0.134 A 
ATOM     17  C   UNL A   1      36.298  21.248  24.779  1.00  0.00     0.051 A 
ATOM     18  O   UNL A   1      34.209  21.621  25.501  1.00  0.00    -0.457 OA
ATOM     19  C   UNL A   1      36.168  22.615  25.106  1.00  0.00     0.051 A 
BRANCH  16  20
ATOM     20  C   UNL A   1      34.551  19.332  24.898  1.00  0.00     0.017 A 
ATOM     21  C   UNL A   1      33.557  16.723  24.549  1.00  0.00     0.118 A 
ATOM     22  C   UNL A   1      32.694  17.771  24.878  1.00  0.00     0.047 A 
ATOM     23  C   UNL A   1      34.917  16.983  24.383  1.00  0.00     0.047 A 
ATOM     24  C   UNL A   1      33.187  19.066  25.065  1.00  0.00     0.016 A 
ATOM     25  C   UNL A   1      35.409  18.282  24.551  1.00  0.00     0.016 A 
BRANCH  21  26
ATOM     26  O   UNL A   1      32.957  15.506  24.384  1.00  0.00    -0.497 OA
ATOM     27  C   UNL A   1      32.631  14.809  25.581  1.00  0.00     0.278 C 
ENDBRANCH  21  26
ENDBRANCH  16  20
ENDBRANCH   8  15
ENDBRANCH   6   7
BRANCH   6  28
ATOM     28  C   UNL A   1      30.927  28.422  22.934  1.00  0.00     0.071 C 
BRANCH  28  29
ATOM     29  C   UNL A   1      29.614  29.153  23.119  1.00  0.00    -0.045 A 
ATOM     30  C   UNL A   1      28.352  28.577  22.935  1.00  0.00     0.004 A 
ATOM     31  C   UNL A   1      29.677  30.505  23.504  1.00  0.00     0.004 A 
ATOM     32  C   UNL A   1      27.197  29.362  23.009  1.00  0.00     0.000 A 
ATOM     33  C   UNL A   1      28.522  31.279  23.610  1.00  0.00     0.000 A 
ATOM     34  C   UNL A   1      27.282  30.712  23.335  1.00  0.00     0.000 A 
ENDBRANCH  28  29
ENDBRANCH   6  28
ENDBRANCH   3   6
ENDBRANCH   1   2
BRANCH   1  35
ATOM     35  C   UNL A   1      31.580  31.785  26.743  1.00  0.00     0.042 C 
BRANCH  35  36
ATOM     36  C   UNL A   1      32.880  32.548  26.966  1.00  0.00     0.118 C 
BRANCH  36  37
ATOM     37  N   UNL A   1      32.679  33.831  27.626  1.00  0.00    -0.352 N 
ATOM     38  C   UNL A   1      33.316  34.371  28.718  1.00  0.00     0.251 C 
ATOM     39  H   UNL A   1      31.979  34.397  27.231  1.00  0.00     0.163 HD
ATOM     40  O   UNL A   1      32.873  35.396  29.227  1.00  0.00    -0.269 OA
BRANCH  38  41
ATOM     41  C   UNL A   1      34.517  33.720  29.287  1.00  0.00     0.039 A 
ATOM     42  C   UNL A   1      34.363  32.805  30.333  1.00  0.00     0.014 A 
ATOM     43  C   UNL A   1      35.795  34.027  28.814  1.00  0.00     0.014 A 
ATOM     44  C   UNL A   1      35.484  32.159  30.863  1.00  0.00     0.010 A 
ATOM     45  C   UNL A   1      36.897  33.318  29.279  1.00  0.00     0.010 A 
ATOM     46  C   UNL A   1      36.759  32.391  30.323  1.00  0.00    -0.014 A 
BRANCH  46  47
ATOM     47  C   UNL A   1      37.966  31.705  30.850  1.00  0.00     0.031 A 
ATOM     48  C   UNL A   1      38.582  32.160  32.148  1.00  0.00     0.074 A 
ATOM     49  C   UNL A   1      38.562  30.739  30.121  1.00  0.00     0.049 A 
ATOM     50  N   UNL A   1      39.678  31.749  32.730  1.00  0.00    -0.248 NA
ATOM     51  C   UNL A   1      37.893  33.244  32.869  1.00  0.00     0.031 C 
ATOM     52  C   UNL A   1      38.111  30.266  28.811  1.00  0.00     0.029 A 
ATOM     53  N   UNL A   1      39.694  30.003  30.369  1.00  0.00    -0.354 N 
ATOM     54  C   UNL A   1      39.834  32.552  33.854  1.00  0.00     0.074 A 
ATOM     55  C   UNL A   1      38.741  33.499  33.854  1.00  0.00     0.031 C 
ATOM     56  C   UNL A   1      38.955  29.317  28.372  1.00  0.00     0.029 A 
ATOM     57  C   UNL A   1      40.019  29.133  29.354  1.00  0.00     0.049 A 
ATOM     58  H   UNL A   1      40.223  30.089  31.194  1.00  0.00     0.167 HD
ATOM     59  C   UNL A   1      40.780  32.487  34.821  1.00  0.00     0.034 A 
ATOM     60  C   UNL A   1      41.059  28.285  29.228  1.00  0.00     0.034 A 
ATOM     61  C   UNL A   1      41.827  31.502  34.854  1.00  0.00     0.049 A 
ATOM     62  C   UNL A   1      42.059  28.185  30.350  1.00  0.00     0.074 A 
ATOM     63  C   UNL A   1      42.778  31.291  35.835  1.00  0.00     0.029 A 
ATOM     64  N   UNL A   1      42.057  30.563  33.862  1.00  0.00    -0.354 N 
ATOM     65  N   UNL A   1      42.098  28.845  31.481  1.00  0.00    -0.248 NA
ATOM     66  C   UNL A   1      43.132  27.191  30.198  1.00  0.00     0.031 C 
ATOM     67  C   UNL A   1      43.592  30.227  35.430  1.00  0.00     0.029 A 
ATOM     68  C   UNL A   1      43.134  29.766  34.207  1.00  0.00     0.049 A 
ATOM     69  H   UNL A   1      41.531  30.474  33.034  1.00  0.00     0.167 HD
ATOM     70  C   UNL A   1      43.173  28.322  32.192  1.00  0.00     0.074 A 
ATOM     71  C   UNL A   1      43.746  27.276  31.370  1.00  0.00     0.031 C 
ATOM     72  C   UNL A   1      43.651  28.684  33.408  1.00  0.00     0.034 A 
BRANCH  59  73
ATOM     73  C   UNL A   1      40.686  33.468  35.960  1.00  0.00     0.023 A 
ATOM     74  C   UNL A   1      41.230  34.761  35.810  1.00  0.00     0.012 A 
ATOM     75  C   UNL A   1      40.018  33.136  37.155  1.00  0.00     0.148 A 
ATOM     76  C   UNL A   1      41.146  35.693  36.842  1.00  0.00     0.002 A 
ATOM     77  C   UNL A   1      39.897  34.086  38.163  1.00  0.00     0.091 A 
ATOM     78  F   UNL A   1      39.525  31.897  37.289  1.00  0.00    -0.205 F 
ATOM     79  C   UNL A   1      40.471  35.360  38.013  1.00  0.00     0.022 A 
BRANCH  77  80
ATOM     80  S   UNL A   1      38.977  33.785  39.676  1.00  0.00     0.127 S 
ATOM     81  O   UNL A   1      37.654  33.441  39.153  1.00  0.00    -0.237 OA
ATOM     82  O   UNL A   1      39.709  32.665  40.265  1.00  0.00    -0.237 OA
ATOM     83  O   UNL A   1      39.044  35.023  40.440  1.00  0.00    -0.744 OA
ENDBRANCH  77  80
ENDBRANCH  59  73
BRANCH  60  84
ATOM     84  C   UNL A   1      41.162  27.402  28.032  1.00  0.00     0.023 A 
ATOM     85  C   UNL A   1      41.723  27.914  26.845  1.00  0.00     0.012 A 
ATOM     86  C   UNL A   1      40.735  26.060  28.065  1.00  0.00     0.148 A 
ATOM     87  C   UNL A   1      41.825  27.118  25.704  1.00  0.00     0.002 A 
ATOM     88  C   UNL A   1      40.891  25.256  26.942  1.00  0.00     0.091 A 
ATOM     89  F   UNL A   1      40.194  25.594  29.200  1.00  0.00    -0.205 F 
ATOM     90  C   UNL A   1      41.419  25.787  25.755  1.00  0.00     0.022 A 
BRANCH  88  91
ATOM     91  S   UNL A   1      40.519  23.498  26.959  1.00  0.00     0.127 S 
ATOM     92  O   UNL A   1      41.266  23.044  28.128  1.00  0.00    -0.237 OA
ATOM     93  O   UNL A   1      39.064  23.497  27.117  1.00  0.00    -0.237 OA
ATOM     94  O   UNL A   1      40.978  22.991  25.672  1.00  0.00    -0.744 OA
ENDBRANCH  88  91
ENDBRANCH  60  84
BRANCH  72  95
ATOM     95  C   UNL A   1      44.825  27.918  33.955  1.00  0.00     0.023 A 
ATOM     96  C   UNL A   1      46.137  28.319  33.632  1.00  0.00     0.012 A 
ATOM     97  C   UNL A   1      44.629  26.854  34.857  1.00  0.00     0.148 A 
ATOM     98  C   UNL A   1      47.235  27.651  34.175  1.00  0.00     0.002 A 
ATOM     99  C   UNL A   1      45.727  26.225  35.431  1.00  0.00     0.091 A 
ATOM    100  F   UNL A   1      43.373  26.474  35.136  1.00  0.00    -0.205 F 
ATOM    101  C   UNL A   1      47.030  26.614  35.081  1.00  0.00     0.022 A 
BRANCH  99 102
ATOM    102  S   UNL A   1      45.555  24.947  36.682  1.00  0.00     0.127 S 
ATOM    103  O   UNL A   1      44.788  25.641  37.715  1.00  0.00    -0.237 OA
ATOM    104  O   UNL A   1      44.813  23.908  35.965  1.00  0.00    -0.237 OA
ATOM    105  O   UNL A   1      46.912  24.568  37.054  1.00  0.00    -0.744 OA
ENDBRANCH  99 102
ENDBRANCH  72  95
ENDBRANCH  46  47
ENDBRANCH  38  41
ENDBRANCH  36  37
ENDBRANCH  35  36
ENDBRANCH   1  35
TORSDOF 19
ENDMDL
MODEL 3
REMARK VINA RESULT:     -12.2      2.364      7.807
REMARK SMILES COc1ccc(-c2ccc(/C=C3\SC(=S)N([C@H](Cc4ccccc4)C(=O)NCCCNC(=O)c4ccc(-c5c6nc(c(-c7cccc(S(=O)(=O)[O-])c7F)c7ccc([nH]7)c(-c7cccc(S(=O)(=O)[O-])c7F)c7nc(c(-c8cccc(S(=O)(=O)[O-])c8F)c8ccc5[nH]8)C=C7)C=C6)cc4)C3=O)o2)cc1
REMARK SMILES IDX 28 1 27 2 25 3 26 4 17 6 16 7 11 8 12 9 13 10 97 11 14 12
REMARK SMILES IDX 98 13 15 14 10 15 7 16 8 17 99 18 9 19 6 20 3 21 4 22 101 23
REMARK SMILES IDX 5 24 100 25 2 26 1 27 18 28 19 29 20 30 24 31 21 32 23 33
REMARK SMILES IDX 22 34 29 35 30 36 31 37 32 38 33 40 34 41 35 42 96 43 36 44
REMARK SMILES IDX 95 45 37 46 38 47 39 48 89 49 40 50 94 51 88 52 90 53 41 54
REMARK SMILES IDX 93 55 87 56 86 57 42 59 74 60 54 61 73 62 55 63 58 64 72 65
REMARK SMILES IDX 91 66 56 67 57 68 71 70 92 71 59 72 43 73 44 74 52 75 45 76
REMARK SMILES IDX 47 77 53 78 46 79 48 80 49 81 50 82 51 83 75 84 76 85 84 86
REMARK SMILES IDX 77 87 79 88 85 89 78 90 80 91 81 92 82 93 83 94 60 95 61 96
REMARK SMILES IDX 69 97 62 98 64 99 70 100 63 101 65 102 66 103 67 104 68 105
REMARK H PARENT 27 5 31 39 90 58 58 69
REMARK Flexibility Score: inf
ROOT
ATOM      1  C   UNL A   1      32.334  27.069  26.418  1.00  0.00     0.117 C 
ENDROOT
BRANCH   1   2
ATOM      2  N   UNL A   1      30.932  26.697  26.477  1.00  0.00    -0.354 N 
ATOM      3  C   UNL A   1      30.151  26.035  25.568  1.00  0.00     0.243 C 
ATOM      4  O   UNL A   1      28.978  25.807  25.881  1.00  0.00    -0.273 OA
ATOM      5  H   UNL A   1      30.468  26.964  27.303  1.00  0.00     0.163 HD
BRANCH   3   6
ATOM      6  C   UNL A   1      30.646  25.738  24.128  1.00  0.00     0.185 C 
BRANCH   6   7
ATOM      7  N   UNL A   1      31.722  24.696  24.015  1.00  0.00    -0.280 N 
ATOM      8  C   UNL A   1      33.100  21.584  25.285  1.00  0.00     0.068 C 
ATOM      9  C   UNL A   1      32.848  22.681  24.559  1.00  0.00     0.084 C 
ATOM     10  S   UNL A   1      33.789  23.322  23.286  1.00  0.00    -0.054 SA
ATOM     11  C   UNL A   1      31.636  23.517  24.753  1.00  0.00     0.267 C 
ATOM     12  C   UNL A   1      32.660  24.632  22.999  1.00  0.00     0.149 C 
ATOM     13  O   UNL A   1      30.708  23.141  25.452  1.00  0.00    -0.268 OA
ATOM     14  S   UNL A   1      32.834  25.512  21.600  1.00  0.00    -0.052 S 
BRANCH   8  15
ATOM     15  C   UNL A   1      34.260  20.797  25.058  1.00  0.00     0.128 A 
ATOM     16  C   UNL A   1      36.400  20.220  25.131  1.00  0.00     0.134 A 
ATOM     17  C   UNL A   1      35.728  19.123  24.645  1.00  0.00     0.051 A 
ATOM     18  O   UNL A   1      35.526  21.238  25.357  1.00  0.00    -0.457 OA
ATOM     19  C   UNL A   1      34.368  19.494  24.579  1.00  0.00     0.051 A 
BRANCH  16  20
ATOM     20  C   UNL A   1      37.793  20.483  25.437  1.00  0.00     0.017 A 
ATOM     21  C   UNL A   1      40.487  20.942  26.104  1.00  0.00     0.118 A 
ATOM     22  C   UNL A   1      39.558  21.983  26.158  1.00  0.00     0.047 A 
ATOM     23  C   UNL A   1      40.066  19.667  25.725  1.00  0.00     0.047 A 
ATOM     24  C   UNL A   1      38.221  21.760  25.814  1.00  0.00     0.016 A 
ATOM     25  C   UNL A   1      38.725  19.439  25.400  1.00  0.00     0.016 A 
BRANCH  21  26
ATOM     26  O   UNL A   1      41.760  21.280  26.470  1.00  0.00    -0.497 OA
ATOM     27  C   UNL A   1      42.760  20.299  26.217  1.00  0.00     0.278 C 
ENDBRANCH  21  26
ENDBRANCH  16  20
ENDBRANCH   8  15
ENDBRANCH   6   7
BRANCH   6  28
ATOM     28  C   UNL A   1      31.042  27.152  23.581  1.00  0.00     0.071 C 
BRANCH  28  29
ATOM     29  C   UNL A   1      30.025  28.268  23.465  1.00  0.00    -0.045 A 
ATOM     30  C   UNL A   1      30.277  29.608  23.779  1.00  0.00     0.004 A 
ATOM     31  C   UNL A   1      28.740  27.923  23.006  1.00  0.00     0.004 A 
ATOM     32  C   UNL A   1      29.242  30.548  23.756  1.00  0.00     0.000 A 
ATOM     33  C   UNL A   1      27.716  28.868  22.953  1.00  0.00     0.000 A 
ATOM     34  C   UNL A   1      27.961  30.176  23.355  1.00  0.00     0.000 A 
ENDBRANCH  28  29
ENDBRANCH   6  28
ENDBRANCH   3   6
ENDBRANCH   1   2
BRANCH   1  35
ATOM     35  C   UNL A   1      32.619  28.405  27.087  1.00  0.00     0.042 C 
BRANCH  35  36
ATOM     36  C   UNL A   1      33.618  29.281  26.341  1.00  0.00     0.118 C 
BRANCH  36  37
ATOM     37  N   UNL A   1      33.402  30.705  26.564  1.00  0.00    -0.352 N 
ATOM     38  C   UNL A   1      34.013  31.563  27.446  1.00  0.00     0.251 C 
ATOM     39  H   UNL A   1      32.710  31.114  25.997  1.00  0.00     0.163 HD
ATOM     40  O   UNL A   1      33.558  32.692  27.601  1.00  0.00    -0.269 OA
BRANCH  38  41
ATOM     41  C   UNL A   1      35.201  31.130  28.215  1.00  0.00     0.039 A 
ATOM     42  C   UNL A   1      36.340  31.941  28.220  1.00  0.00     0.014 A 
ATOM     43  C   UNL A   1      35.208  29.918  28.909  1.00  0.00     0.014 A 
ATOM     44  C   UNL A   1      37.461  31.562  28.964  1.00  0.00     0.010 A 
ATOM     45  C   UNL A   1      36.288  29.587  29.720  1.00  0.00     0.010 A 
ATOM     46  C   UNL A   1      37.435  30.394  29.742  1.00  0.00    -0.014 A 
BRANCH  46  47
ATOM     47  C   UNL A   1      38.602  29.975  30.560  1.00  0.00     0.031 A 
ATOM     48  C   UNL A   1      38.818  30.580  31.924  1.00  0.00     0.074 A 
ATOM     49  C   UNL A   1      39.514  29.127  30.045  1.00  0.00     0.049 A 
ATOM     50  N   UNL A   1      39.815  30.411  32.753  1.00  0.00    -0.248 NA
ATOM     51  C   UNL A   1      37.795  31.525  32.404  1.00  0.00     0.031 C 
ATOM     52  C   UNL A   1      39.463  28.537  28.706  1.00  0.00     0.029 A 
ATOM     53  N   UNL A   1      40.681  28.637  30.579  1.00  0.00    -0.354 N 
ATOM     54  C   UNL A   1      39.564  31.260  33.825  1.00  0.00     0.074 A 
ATOM     55  C   UNL A   1      38.341  31.971  33.526  1.00  0.00     0.031 C 
ATOM     56  C   UNL A   1      40.546  27.762  28.525  1.00  0.00     0.029 A 
ATOM     57  C   UNL A   1      41.380  27.820  29.720  1.00  0.00     0.049 A 
ATOM     58  H   UNL A   1      40.988  28.849  31.490  1.00  0.00     0.167 HD
ATOM     59  C   UNL A   1      40.266  31.411  34.973  1.00  0.00     0.034 A 
ATOM     60  C   UNL A   1      42.562  27.192  29.879  1.00  0.00     0.034 A 
ATOM     61  C   UNL A   1      41.445  30.655  35.296  1.00  0.00     0.049 A 
ATOM     62  C   UNL A   1      43.288  27.324  31.192  1.00  0.00     0.074 A 
ATOM     63  C   UNL A   1      42.177  30.664  36.470  1.00  0.00     0.029 A 
ATOM     64  N   UNL A   1      42.062  29.752  34.445  1.00  0.00    -0.354 N 
ATOM     65  N   UNL A   1      42.951  28.011  32.256  1.00  0.00    -0.248 NA
ATOM     66  C   UNL A   1      44.535  26.559  31.341  1.00  0.00     0.031 C 
ATOM     67  C   UNL A   1      43.245  29.771  36.323  1.00  0.00     0.029 A 
ATOM     68  C   UNL A   1      43.165  29.194  35.066  1.00  0.00     0.049 A 
ATOM     69  H   UNL A   1      41.759  29.538  33.533  1.00  0.00     0.167 HD
ATOM     70  C   UNL A   1      43.920  27.731  33.214  1.00  0.00     0.074 A 
ATOM     71  C   UNL A   1      44.846  26.797  32.609  1.00  0.00     0.031 C 
ATOM     72  C   UNL A   1      44.039  28.215  34.474  1.00  0.00     0.034 A 
BRANCH  59  73
ATOM     73  C   UNL A   1      39.740  32.386  35.993  1.00  0.00     0.023 A 
ATOM     74  C   UNL A   1      38.853  31.933  36.993  1.00  0.00     0.012 A 
ATOM     75  C   UNL A   1      40.157  33.731  35.999  1.00  0.00     0.148 A 
ATOM     76  C   UNL A   1      38.360  32.810  37.957  1.00  0.00     0.002 A 
ATOM     77  C   UNL A   1      39.698  34.589  36.992  1.00  0.00     0.091 A 
ATOM     78  F   UNL A   1      40.984  34.149  35.030  1.00  0.00    -0.205 F 
ATOM     79  C   UNL A   1      38.791  34.134  37.964  1.00  0.00     0.022 A 
BRANCH  77  80
ATOM     80  S   UNL A   1      40.255  36.291  37.138  1.00  0.00     0.127 S 
ATOM     81  O   UNL A   1      39.905  36.829  35.823  1.00  0.00    -0.237 OA
ATOM     82  O   UNL A   1      39.435  36.792  38.239  1.00  0.00    -0.237 OA
ATOM     83  O   UNL A   1      41.682  36.223  37.425  1.00  0.00    -0.744 OA
ENDBRANCH  77  80
ENDBRANCH  59  73
BRANCH  60  84
ATOM     84  C   UNL A   1      43.091  26.314  28.797  1.00  0.00     0.023 A 
ATOM     85  C   UNL A   1      42.604  24.997  28.678  1.00  0.00     0.012 A 
ATOM     86  C   UNL A   1      44.048  26.777  27.873  1.00  0.00     0.148 A 
ATOM     87  C   UNL A   1      43.086  24.146  27.683  1.00  0.00     0.002 A 
ATOM     88  C   UNL A   1      44.483  25.942  26.850  1.00  0.00     0.091 A 
ATOM     89  F   UNL A   1      44.508  28.029  28.008  1.00  0.00    -0.205 F 
ATOM     90  C   UNL A   1      44.017  24.621  26.764  1.00  0.00     0.022 A 
BRANCH  88  91
ATOM     91  S   UNL A   1      45.579  26.511  25.545  1.00  0.00     0.127 S 
ATOM     92  O   UNL A   1      46.773  26.883  26.296  1.00  0.00    -0.237 OA
ATOM     93  O   UNL A   1      45.718  25.310  24.720  1.00  0.00    -0.237 OA
ATOM     94  O   UNL A   1      44.870  27.604  24.890  1.00  0.00    -0.744 OA
ENDBRANCH  88  91
ENDBRANCH  60  84
BRANCH  72  95
ATOM     95  C   UNL A   1      45.185  27.713  35.311  1.00  0.00     0.023 A 
ATOM     96  C   UNL A   1      46.406  28.416  35.325  1.00  0.00     0.012 A 
ATOM     97  C   UNL A   1      45.022  26.591  36.149  1.00  0.00     0.148 A 
ATOM     98  C   UNL A   1      47.458  27.992  36.137  1.00  0.00     0.002 A 
ATOM     99  C   UNL A   1      46.058  26.203  36.991  1.00  0.00     0.091 A 
ATOM    100  F   UNL A   1      43.860  25.923  36.107  1.00  0.00    -0.205 F 
ATOM    101  C   UNL A   1      47.280  26.895  36.977  1.00  0.00     0.022 A 
BRANCH  99 102
ATOM    102  S   UNL A   1      45.881  24.864  38.175  1.00  0.00     0.127 S 
ATOM    103  O   UNL A   1      45.537  23.740  37.305  1.00  0.00    -0.237 OA
ATOM    104  O   UNL A   1      47.219  24.792  38.765  1.00  0.00    -0.237 OA
ATOM    105  O   UNL A   1      44.838  25.285  39.101  1.00  0.00    -0.744 OA
ENDBRANCH  99 102
ENDBRANCH  72  95
ENDBRANCH  46  47
ENDBRANCH  38  41
ENDBRANCH  36  37
ENDBRANCH  35  36
ENDBRANCH   1  35
TORSDOF 19
ENDMDL
