MODEL 1
REMARK VINA RESULT:     -11.0      0.000      0.000
REMARK SMILES CCC(CC)N(CC(C)C)C(=O)N[C@H](C)C(=O)NCCCNC(=O)c1ccc(-c2c3nc(c(-c4cccc(S(=O)(=O)[O-])c4F)c4ccc([nH]4)c(-c4cccc(S(=O)(=O)[O-])c4F)c4nc(c(-c5cccc(S(=O)(=O)[O-])c5F)c5ccc2[nH]5)C=C4)C=C3)cc1
REMARK SMILES IDX 19 1 18 2 16 3 17 4 14 6 15 7 13 8 11 9 12 10 6 12 3 13 2 14
REMARK SMILES IDX 1 15 4 16 5 17 7 18 8 19 9 20 10 21 20 22 21 23 22 24 23 25
REMARK SMILES IDX 24 27 25 28 26 29 87 30 27 31 86 32 28 33 29 34 30 35 80 36
REMARK SMILES IDX 31 37 85 38 79 39 81 40 32 41 84 42 78 43 77 44 33 46 65 47
REMARK SMILES IDX 45 48 64 49 46 50 49 51 63 52 82 53 47 54 48 55 62 57 83 58
REMARK SMILES IDX 50 59 34 60 35 61 43 62 36 63 38 64 44 65 37 66 39 67 40 68
REMARK SMILES IDX 41 69 42 70 66 71 67 72 75 73 68 74 70 75 76 76 69 77 71 78
REMARK SMILES IDX 72 79 73 80 74 81 51 82 52 83 60 84 53 85 55 86 61 87 54 88
REMARK SMILES IDX 56 89 57 90 58 91 59 92
REMARK H PARENT 18 5 13 11 22 26 81 45 49 56
REMARK Flexibility Score: inf
ROOT
ATOM      1  C   UNL A   1      35.028  21.814  26.065  1.00  0.00     0.117 C 
ENDROOT
BRANCH   1   2
ATOM      2  N   UNL A   1      33.763  21.124  25.796  1.00  0.00    -0.354 N 
ATOM      3  C   UNL A   1      32.537  21.327  25.282  1.00  0.00     0.242 C 
ATOM      4  O   UNL A   1      31.875  20.266  25.275  1.00  0.00    -0.273 OA
ATOM      5  H   UNL A   1      33.836  20.190  26.094  1.00  0.00     0.163 HD
BRANCH   3   6
ATOM      6  C   UNL A   1      31.775  22.615  24.781  1.00  0.00     0.170 C 
ATOM      7  C   UNL A   1      31.618  22.551  23.243  1.00  0.00     0.041 C 
BRANCH   6   8
ATOM      8  N   UNL A   1      30.791  23.588  25.293  1.00  0.00    -0.326 N 
ATOM      9  C   UNL A   1      30.668  24.855  25.717  1.00  0.00     0.318 C 
ATOM     10  O   UNL A   1      29.654  25.095  26.378  1.00  0.00    -0.249 OA
ATOM     11  H   UNL A   1      29.909  23.151  25.339  1.00  0.00     0.166 HD
BRANCH   9  12
ATOM     12  N   UNL A   1      31.492  25.842  25.274  1.00  0.00    -0.322 N 
BRANCH  12  13
ATOM     13  C   UNL A   1      31.599  26.051  23.792  1.00  0.00     0.086 C 
BRANCH  13  14
ATOM     14  C   UNL A   1      30.835  27.283  23.216  1.00  0.00     0.022 C 
ATOM     15  C   UNL A   1      29.332  27.251  23.474  1.00  0.00     0.006 C 
ENDBRANCH  13  14
BRANCH  13  16
ATOM     16  C   UNL A   1      33.035  25.913  23.260  1.00  0.00     0.022 C 
ATOM     17  C   UNL A   1      33.409  26.905  22.173  1.00  0.00     0.006 C 
ENDBRANCH  13  16
ENDBRANCH  12  13
BRANCH  12  18
ATOM     18  C   UNL A   1      32.527  26.431  26.103  1.00  0.00     0.124 C 
BRANCH  18  19
ATOM     19  C   UNL A   1      32.542  27.911  26.534  1.00  0.00     0.002 C 
ATOM     20  C   UNL A   1      31.619  28.316  27.669  1.00  0.00     0.009 C 
ATOM     21  C   UNL A   1      33.991  28.343  26.861  1.00  0.00     0.009 C 
ENDBRANCH  18  19
ENDBRANCH  12  18
ENDBRANCH   9  12
ENDBRANCH   6   8
ENDBRANCH   3   6
ENDBRANCH   1   2
BRANCH   1  22
ATOM     22  C   UNL A   1      35.459  22.629  24.837  1.00  0.00     0.042 C 
BRANCH  22  23
ATOM     23  C   UNL A   1      36.897  22.488  24.368  1.00  0.00     0.118 C 
BRANCH  23  24
ATOM     24  N   UNL A   1      37.594  21.247  24.677  1.00  0.00    -0.352 N 
ATOM     25  C   UNL A   1      38.634  21.042  25.574  1.00  0.00     0.251 C 
ATOM     26  H   UNL A   1      37.289  20.450  24.184  1.00  0.00     0.163 HD
ATOM     27  O   UNL A   1      39.089  19.907  25.718  1.00  0.00    -0.269 OA
BRANCH  25  28
ATOM     28  C   UNL A   1      39.238  22.186  26.316  1.00  0.00     0.039 A 
ATOM     29  C   UNL A   1      40.333  21.977  27.163  1.00  0.00     0.014 A 
ATOM     30  C   UNL A   1      38.774  23.484  26.123  1.00  0.00     0.014 A 
ATOM     31  C   UNL A   1      41.031  23.076  27.697  1.00  0.00     0.010 A 
ATOM     32  C   UNL A   1      39.552  24.564  26.521  1.00  0.00     0.010 A 
ATOM     33  C   UNL A   1      40.689  24.383  27.321  1.00  0.00    -0.014 A 
BRANCH  33  34
ATOM     34  C   UNL A   1      41.454  25.598  27.732  1.00  0.00     0.031 A 
ATOM     35  C   UNL A   1      40.754  26.681  28.523  1.00  0.00     0.074 A 
ATOM     36  C   UNL A   1      42.698  25.823  27.256  1.00  0.00     0.049 A 
ATOM     37  N   UNL A   1      41.121  27.916  28.748  1.00  0.00    -0.248 NA
ATOM     38  C   UNL A   1      39.423  26.350  29.065  1.00  0.00     0.031 C 
ATOM     39  C   UNL A   1      43.465  24.913  26.402  1.00  0.00     0.029 A 
ATOM     40  N   UNL A   1      43.526  26.912  27.396  1.00  0.00    -0.354 N 
ATOM     41  C   UNL A   1      40.031  28.529  29.358  1.00  0.00     0.074 A 
ATOM     42  C   UNL A   1      38.978  27.542  29.431  1.00  0.00     0.031 C 
ATOM     43  C   UNL A   1      44.652  25.469  26.112  1.00  0.00     0.029 A 
ATOM     44  C   UNL A   1      44.721  26.793  26.721  1.00  0.00     0.049 A 
ATOM     45  H   UNL A   1      43.286  27.705  27.927  1.00  0.00     0.167 HD
ATOM     46  C   UNL A   1      39.924  29.785  29.852  1.00  0.00     0.034 A 
ATOM     47  C   UNL A   1      45.753  27.654  26.603  1.00  0.00     0.034 A 
ATOM     48  C   UNL A   1      41.023  30.708  29.912  1.00  0.00     0.049 A 
ATOM     49  C   UNL A   1      45.667  28.993  27.289  1.00  0.00     0.074 A 
ATOM     50  C   UNL A   1      41.076  31.944  30.531  1.00  0.00     0.029 A 
ATOM     51  N   UNL A   1      42.272  30.481  29.357  1.00  0.00    -0.354 N 
ATOM     52  N   UNL A   1      44.679  29.500  27.986  1.00  0.00    -0.248 NA
ATOM     53  C   UNL A   1      46.848  29.866  27.202  1.00  0.00     0.031 C 
ATOM     54  C   UNL A   1      42.362  32.463  30.352  1.00  0.00     0.029 A 
ATOM     55  C   UNL A   1      43.109  31.546  29.630  1.00  0.00     0.049 A 
ATOM     56  H   UNL A   1      42.526  29.680  28.845  1.00  0.00     0.167 HD
ATOM     57  C   UNL A   1      45.135  30.726  28.458  1.00  0.00     0.074 A 
ATOM     58  C   UNL A   1      46.491  30.882  27.976  1.00  0.00     0.031 C 
ATOM     59  C   UNL A   1      44.483  31.645  29.211  1.00  0.00     0.034 A 
BRANCH  46  60
ATOM     60  C   UNL A   1      38.602  30.203  30.446  1.00  0.00     0.023 A 
ATOM     61  C   UNL A   1      38.311  29.894  31.790  1.00  0.00     0.012 A 
ATOM     62  C   UNL A   1      37.665  30.935  29.689  1.00  0.00     0.148 A 
ATOM     63  C   UNL A   1      37.088  30.253  32.355  1.00  0.00     0.002 A 
ATOM     64  C   UNL A   1      36.468  31.335  30.276  1.00  0.00     0.091 A 
ATOM     65  F   UNL A   1      37.948  31.208  28.407  1.00  0.00    -0.205 F 
ATOM     66  C   UNL A   1      36.173  30.981  31.603  1.00  0.00     0.022 A 
BRANCH  64  67
ATOM     67  S   UNL A   1      35.261  32.351  29.418  1.00  0.00     0.127 S 
ATOM     68  O   UNL A   1      34.663  31.386  28.498  1.00  0.00    -0.237 OA
ATOM     69  O   UNL A   1      34.384  32.777  30.509  1.00  0.00    -0.237 OA
ATOM     70  O   UNL A   1      36.017  33.428  28.794  1.00  0.00    -0.744 OA
ENDBRANCH  64  67
ENDBRANCH  46  60
BRANCH  47  71
ATOM     71  C   UNL A   1      47.002  27.237  25.900  1.00  0.00     0.023 A 
ATOM     72  C   UNL A   1      47.911  26.398  26.576  1.00  0.00     0.012 A 
ATOM     73  C   UNL A   1      47.286  27.627  24.578  1.00  0.00     0.148 A 
ATOM     74  C   UNL A   1      49.093  25.982  25.962  1.00  0.00     0.002 A 
ATOM     75  C   UNL A   1      48.442  27.167  23.954  1.00  0.00     0.091 A 
ATOM     76  F   UNL A   1      46.416  28.432  23.952  1.00  0.00    -0.205 F 
ATOM     77  C   UNL A   1      49.354  26.358  24.650  1.00  0.00     0.022 A 
BRANCH  75  78
ATOM     78  S   UNL A   1      48.803  27.497  22.225  1.00  0.00     0.127 S 
ATOM     79  O   UNL A   1      50.236  27.775  22.265  1.00  0.00    -0.237 OA
ATOM     80  O   UNL A   1      48.439  26.230  21.590  1.00  0.00    -0.237 OA
ATOM     81  O   UNL A   1      47.949  28.618  21.854  1.00  0.00    -0.744 OA
ENDBRANCH  75  78
ENDBRANCH  47  71
BRANCH  59  82
ATOM     82  C   UNL A   1      45.232  32.883  29.623  1.00  0.00     0.023 A 
ATOM     83  C   UNL A   1      45.956  32.894  30.830  1.00  0.00     0.012 A 
ATOM     84  C   UNL A   1      45.318  33.985  28.750  1.00  0.00     0.148 A 
ATOM     85  C   UNL A   1      46.745  33.992  31.169  1.00  0.00     0.002 A 
ATOM     86  C   UNL A   1      46.142  35.056  29.073  1.00  0.00     0.091 A 
ATOM     87  F   UNL A   1      44.604  33.959  27.615  1.00  0.00    -0.205 F 
ATOM     88  C   UNL A   1      46.850  35.065  30.285  1.00  0.00     0.022 A 
BRANCH  86  89
ATOM     89  S   UNL A   1      46.420  36.429  27.949  1.00  0.00     0.127 S 
ATOM     90  O   UNL A   1      47.356  37.253  28.712  1.00  0.00    -0.237 OA
ATOM     91  O   UNL A   1      47.001  35.764  26.782  1.00  0.00    -0.237 OA
ATOM     92  O   UNL A   1      45.112  37.027  27.714  1.00  0.00    -0.744 OA
ENDBRANCH  86  89
ENDBRANCH  59  82
ENDBRANCH  33  34
ENDBRANCH  25  28
ENDBRANCH  23  24
ENDBRANCH  22  23
ENDBRANCH   1  22
TORSDOF 20
ENDMDL
MODEL 2
REMARK VINA RESULT:     -10.9      1.827      7.869
REMARK SMILES CCC(CC)N(CC(C)C)C(=O)N[C@H](C)C(=O)NCCCNC(=O)c1ccc(-c2c3nc(c(-c4cccc(S(=O)(=O)[O-])c4F)c4ccc([nH]4)c(-c4cccc(S(=O)(=O)[O-])c4F)c4nc(c(-c5cccc(S(=O)(=O)[O-])c5F)c5ccc2[nH]5)C=C4)C=C3)cc1
REMARK SMILES IDX 19 1 18 2 16 3 17 4 14 6 15 7 13 8 11 9 12 10 6 12 3 13 2 14
REMARK SMILES IDX 1 15 4 16 5 17 7 18 8 19 9 20 10 21 20 22 21 23 22 24 23 25
REMARK SMILES IDX 24 27 25 28 26 29 87 30 27 31 86 32 28 33 29 34 30 35 80 36
REMARK SMILES IDX 31 37 85 38 79 39 81 40 32 41 84 42 78 43 77 44 33 46 65 47
REMARK SMILES IDX 45 48 64 49 46 50 49 51 63 52 82 53 47 54 48 55 62 57 83 58
REMARK SMILES IDX 50 59 34 60 35 61 43 62 36 63 38 64 44 65 37 66 39 67 40 68
REMARK SMILES IDX 41 69 42 70 66 71 67 72 75 73 68 74 70 75 76 76 69 77 71 78
REMARK SMILES IDX 72 79 73 80 74 81 51 82 52 83 60 84 53 85 55 86 61 87 54 88
REMARK SMILES IDX 56 89 57 90 58 91 59 92
REMARK H PARENT 18 5 13 11 22 26 81 45 49 56
REMARK Flexibility Score: inf
ROOT
ATOM      1  C   UNL A   1      34.810  21.992  26.515  1.00  0.00     0.117 C 
ENDROOT
BRANCH   1   2
ATOM      2  N   UNL A   1      33.436  22.068  26.011  1.00  0.00    -0.354 N 
ATOM      3  C   UNL A   1      32.731  22.330  24.896  1.00  0.00     0.242 C 
ATOM      4  O   UNL A   1      31.508  22.164  25.092  1.00  0.00    -0.273 OA
ATOM      5  H   UNL A   1      32.813  21.851  26.741  1.00  0.00     0.163 HD
BRANCH   3   6
ATOM      6  C   UNL A   1      33.133  22.867  23.467  1.00  0.00     0.170 C 
ATOM      7  C   UNL A   1      32.383  22.052  22.386  1.00  0.00     0.041 C 
BRANCH   6   8
ATOM      8  N   UNL A   1      33.590  24.124  22.845  1.00  0.00    -0.326 N 
ATOM      9  C   UNL A   1      33.337  25.441  22.796  1.00  0.00     0.318 C 
ATOM     10  O   UNL A   1      33.817  26.036  21.828  1.00  0.00    -0.249 OA
ATOM     11  H   UNL A   1      34.353  23.926  22.256  1.00  0.00     0.166 HD
BRANCH   9  12
ATOM     12  N   UNL A   1      32.774  26.102  23.843  1.00  0.00    -0.322 N 
BRANCH  12  13
ATOM     13  C   UNL A   1      31.319  26.456  23.746  1.00  0.00     0.086 C 
BRANCH  13  14
ATOM     14  C   UNL A   1      30.853  27.074  22.391  1.00  0.00     0.022 C 
ATOM     15  C   UNL A   1      29.969  28.307  22.547  1.00  0.00     0.006 C 
ENDBRANCH  13  14
BRANCH  13  16
ATOM     16  C   UNL A   1      30.386  25.353  24.274  1.00  0.00     0.022 C 
ATOM     17  C   UNL A   1      30.204  25.342  25.781  1.00  0.00     0.006 C 
ENDBRANCH  13  16
ENDBRANCH  12  13
BRANCH  12  18
ATOM     18  C   UNL A   1      33.559  26.795  24.848  1.00  0.00     0.124 C 
BRANCH  18  19
ATOM     19  C   UNL A   1      34.051  28.247  24.701  1.00  0.00     0.002 C 
ATOM     20  C   UNL A   1      33.494  29.059  23.544  1.00  0.00     0.009 C 
ATOM     21  C   UNL A   1      33.827  29.010  26.027  1.00  0.00     0.009 C 
ENDBRANCH  18  19
ENDBRANCH  12  18
ENDBRANCH   9  12
ENDBRANCH   6   8
ENDBRANCH   3   6
ENDBRANCH   1   2
BRANCH   1  22
ATOM     22  C   UNL A   1      35.660  21.097  25.603  1.00  0.00     0.042 C 
BRANCH  22  23
ATOM     23  C   UNL A   1      37.057  21.579  25.246  1.00  0.00     0.118 C 
BRANCH  23  24
ATOM     24  N   UNL A   1      38.163  20.648  25.423  1.00  0.00    -0.352 N 
ATOM     25  C   UNL A   1      39.371  20.858  26.074  1.00  0.00     0.251 C 
ATOM     26  H   UNL A   1      38.038  19.753  25.029  1.00  0.00     0.163 HD
ATOM     27  O   UNL A   1      40.187  19.939  26.141  1.00  0.00    -0.269 OA
BRANCH  25  28
ATOM     28  C   UNL A   1      39.711  22.197  26.637  1.00  0.00     0.039 A 
ATOM     29  C   UNL A   1      40.725  22.322  27.595  1.00  0.00     0.014 A 
ATOM     30  C   UNL A   1      39.083  23.347  26.169  1.00  0.00     0.014 A 
ATOM     31  C   UNL A   1      41.187  23.597  27.970  1.00  0.00     0.010 A 
ATOM     32  C   UNL A   1      39.641  24.594  26.421  1.00  0.00     0.010 A 
ATOM     33  C   UNL A   1      40.697  24.745  27.331  1.00  0.00    -0.014 A 
BRANCH  33  34
ATOM     34  C   UNL A   1      41.221  26.123  27.570  1.00  0.00     0.031 A 
ATOM     35  C   UNL A   1      42.625  26.467  27.125  1.00  0.00     0.074 A 
ATOM     36  C   UNL A   1      40.533  27.000  28.333  1.00  0.00     0.049 A 
ATOM     37  N   UNL A   1      43.379  27.482  27.460  1.00  0.00    -0.248 NA
ATOM     38  C   UNL A   1      43.299  25.494  26.245  1.00  0.00     0.031 C 
ATOM     39  C   UNL A   1      39.208  26.772  28.915  1.00  0.00     0.029 A 
ATOM     40  N   UNL A   1      40.874  28.254  28.783  1.00  0.00    -0.354 N 
ATOM     41  C   UNL A   1      44.634  27.214  26.923  1.00  0.00     0.074 A 
ATOM     42  C   UNL A   1      44.550  25.925  26.276  1.00  0.00     0.031 C 
ATOM     43  C   UNL A   1      38.841  27.852  29.623  1.00  0.00     0.029 A 
ATOM     44  C   UNL A   1      39.918  28.836  29.586  1.00  0.00     0.049 A 
ATOM     45  H   UNL A   1      41.724  28.694  28.554  1.00  0.00     0.167 HD
ATOM     46  C   UNL A   1      45.748  27.985  26.930  1.00  0.00     0.034 A 
ATOM     47  C   UNL A   1      39.911  30.025  30.222  1.00  0.00     0.034 A 
ATOM     48  C   UNL A   1      45.779  29.326  27.443  1.00  0.00     0.049 A 
ATOM     49  C   UNL A   1      41.110  30.930  30.091  1.00  0.00     0.074 A 
ATOM     50  C   UNL A   1      46.800  30.255  27.360  1.00  0.00     0.029 A 
ATOM     51  N   UNL A   1      44.729  29.939  28.107  1.00  0.00    -0.354 N 
ATOM     52  N   UNL A   1      42.237  30.717  29.456  1.00  0.00    -0.248 NA
ATOM     53  C   UNL A   1      41.025  32.250  30.734  1.00  0.00     0.031 C 
ATOM     54  C   UNL A   1      46.364  31.433  27.974  1.00  0.00     0.029 A 
ATOM     55  C   UNL A   1      45.070  31.238  28.429  1.00  0.00     0.049 A 
ATOM     56  H   UNL A   1      43.868  29.511  28.318  1.00  0.00     0.167 HD
ATOM     57  C   UNL A   1      42.973  31.889  29.581  1.00  0.00     0.074 A 
ATOM     58  C   UNL A   1      42.161  32.813  30.346  1.00  0.00     0.031 C 
ATOM     59  C   UNL A   1      44.216  32.170  29.118  1.00  0.00     0.034 A 
BRANCH  46  60
ATOM     60  C   UNL A   1      46.995  27.431  26.288  1.00  0.00     0.023 A 
ATOM     61  C   UNL A   1      47.262  27.703  24.930  1.00  0.00     0.012 A 
ATOM     62  C   UNL A   1      47.924  26.678  27.034  1.00  0.00     0.148 A 
ATOM     63  C   UNL A   1      48.399  27.188  24.310  1.00  0.00     0.002 A 
ATOM     64  C   UNL A   1      49.082  26.211  26.421  1.00  0.00     0.091 A 
ATOM     65  F   UNL A   1      47.650  26.414  28.320  1.00  0.00    -0.205 F 
ATOM     66  C   UNL A   1      49.313  26.452  25.057  1.00  0.00     0.022 A 
BRANCH  64  67
ATOM     67  S   UNL A   1      50.364  25.327  27.319  1.00  0.00     0.127 S 
ATOM     68  O   UNL A   1      51.331  25.054  26.258  1.00  0.00    -0.237 OA
ATOM     69  O   UNL A   1      50.798  26.323  28.298  1.00  0.00    -0.237 OA
ATOM     70  O   UNL A   1      49.714  24.157  27.893  1.00  0.00    -0.744 OA
ENDBRANCH  64  67
ENDBRANCH  46  60
BRANCH  47  71
ATOM     71  C   UNL A   1      38.690  30.481  30.950  1.00  0.00     0.023 A 
ATOM     72  C   UNL A   1      38.605  30.250  32.338  1.00  0.00     0.012 A 
ATOM     73  C   UNL A   1      37.638  31.156  30.304  1.00  0.00     0.148 A 
ATOM     74  C   UNL A   1      37.483  30.656  33.063  1.00  0.00     0.002 A 
ATOM     75  C   UNL A   1      36.545  31.602  31.041  1.00  0.00     0.091 A 
ATOM     76  F   UNL A   1      37.729  31.359  28.981  1.00  0.00    -0.205 F 
ATOM     77  C   UNL A   1      36.459  31.339  32.418  1.00  0.00     0.022 A 
BRANCH  75  78
ATOM     78  S   UNL A   1      35.234  32.599  30.321  1.00  0.00     0.127 S 
ATOM     79  O   UNL A   1      34.324  32.759  31.451  1.00  0.00    -0.237 OA
ATOM     80  O   UNL A   1      35.954  33.812  29.931  1.00  0.00    -0.237 OA
ATOM     81  O   UNL A   1      34.724  31.821  29.199  1.00  0.00    -0.744 OA
ENDBRANCH  75  78
ENDBRANCH  47  71
BRANCH  59  82
ATOM     82  C   UNL A   1      44.768  33.547  29.362  1.00  0.00     0.023 A 
ATOM     83  C   UNL A   1      45.491  33.814  30.540  1.00  0.00     0.012 A 
ATOM     84  C   UNL A   1      44.676  34.537  28.363  1.00  0.00     0.148 A 
ATOM     85  C   UNL A   1      46.103  35.051  30.727  1.00  0.00     0.002 A 
ATOM     86  C   UNL A   1      45.327  35.752  28.536  1.00  0.00     0.091 A 
ATOM     87  F   UNL A   1      43.966  34.266  27.258  1.00  0.00    -0.205 F 
ATOM     88  C   UNL A   1      46.035  36.014  29.721  1.00  0.00     0.022 A 
BRANCH  86  89
ATOM     89  S   UNL A   1      45.382  37.006  27.252  1.00  0.00     0.127 S 
ATOM     90  O   UNL A   1      46.157  38.062  27.901  1.00  0.00    -0.237 OA
ATOM     91  O   UNL A   1      46.079  36.313  26.169  1.00  0.00    -0.237 OA
ATOM     92  O   UNL A   1      43.994  37.342  26.960  1.00  0.00    -0.744 OA
ENDBRANCH  86  89
ENDBRANCH  59  82
ENDBRANCH  33  34
ENDBRANCH  25  28
ENDBRANCH  23  24
ENDBRANCH  22  23
ENDBRANCH   1  22
TORSDOF 20
ENDMDL
MODEL 3
REMARK VINA RESULT:     -10.7      1.171      7.777
REMARK SMILES CCC(CC)N(CC(C)C)C(=O)N[C@H](C)C(=O)NCCCNC(=O)c1ccc(-c2c3nc(c(-c4cccc(S(=O)(=O)[O-])c4F)c4ccc([nH]4)c(-c4cccc(S(=O)(=O)[O-])c4F)c4nc(c(-c5cccc(S(=O)(=O)[O-])c5F)c5ccc2[nH]5)C=C4)C=C3)cc1
REMARK SMILES IDX 19 1 18 2 16 3 17 4 14 6 15 7 13 8 11 9 12 10 6 12 3 13 2 14
REMARK SMILES IDX 1 15 4 16 5 17 7 18 8 19 9 20 10 21 20 22 21 23 22 24 23 25
REMARK SMILES IDX 24 27 25 28 26 29 87 30 27 31 86 32 28 33 29 34 30 35 80 36
REMARK SMILES IDX 31 37 85 38 79 39 81 40 32 41 84 42 78 43 77 44 33 46 65 47
REMARK SMILES IDX 45 48 64 49 46 50 49 51 63 52 82 53 47 54 48 55 62 57 83 58
REMARK SMILES IDX 50 59 34 60 35 61 43 62 36 63 38 64 44 65 37 66 39 67 40 68
REMARK SMILES IDX 41 69 42 70 66 71 67 72 75 73 68 74 70 75 76 76 69 77 71 78
REMARK SMILES IDX 72 79 73 80 74 81 51 82 52 83 60 84 53 85 55 86 61 87 54 88
REMARK SMILES IDX 56 89 57 90 58 91 59 92
REMARK H PARENT 18 5 13 11 22 26 81 45 49 56
REMARK Flexibility Score: inf
ROOT
ATOM      1  C   UNL A   1      34.924  21.886  25.923  1.00  0.00     0.117 C 
ENDROOT
BRANCH   1   2
ATOM      2  N   UNL A   1      33.607  21.326  25.610  1.00  0.00    -0.354 N 
ATOM      3  C   UNL A   1      32.304  21.656  25.551  1.00  0.00     0.242 C 
ATOM      4  O   UNL A   1      31.620  20.698  25.132  1.00  0.00    -0.273 OA
ATOM      5  H   UNL A   1      33.711  20.383  25.352  1.00  0.00     0.163 HD
BRANCH   3   6
ATOM      6  C   UNL A   1      31.497  22.945  25.974  1.00  0.00     0.170 C 
ATOM      7  C   UNL A   1      30.224  22.521  26.744  1.00  0.00     0.041 C 
BRANCH   6   8
ATOM      8  N   UNL A   1      31.760  24.363  26.287  1.00  0.00    -0.326 N 
ATOM      9  C   UNL A   1      32.277  25.489  25.771  1.00  0.00     0.318 C 
ATOM     10  O   UNL A   1      32.573  26.359  26.593  1.00  0.00    -0.249 OA
ATOM     11  H   UNL A   1      31.443  24.549  27.200  1.00  0.00     0.166 HD
BRANCH   9  12
ATOM     12  N   UNL A   1      32.276  25.729  24.433  1.00  0.00    -0.322 N 
BRANCH  12  13
ATOM     13  C   UNL A   1      33.589  26.048  23.779  1.00  0.00     0.086 C 
BRANCH  13  14
ATOM     14  C   UNL A   1      33.939  25.218  22.505  1.00  0.00     0.022 C 
ATOM     15  C   UNL A   1      33.638  23.729  22.638  1.00  0.00     0.006 C 
ENDBRANCH  13  14
BRANCH  13  16
ATOM     16  C   UNL A   1      33.841  27.557  23.620  1.00  0.00     0.022 C 
ATOM     17  C   UNL A   1      33.747  28.071  22.195  1.00  0.00     0.006 C 
ENDBRANCH  13  16
ENDBRANCH  12  13
BRANCH  12  18
ATOM     18  C   UNL A   1      31.071  26.060  23.695  1.00  0.00     0.124 C 
BRANCH  18  19
ATOM     19  C   UNL A   1      30.028  27.090  24.172  1.00  0.00     0.002 C 
ATOM     20  C   UNL A   1      30.231  28.534  23.749  1.00  0.00     0.009 C 
ATOM     21  C   UNL A   1      28.611  26.622  23.767  1.00  0.00     0.009 C 
ENDBRANCH  18  19
ENDBRANCH  12  18
ENDBRANCH   9  12
ENDBRANCH   6   8
ENDBRANCH   3   6
ENDBRANCH   1   2
BRANCH   1  22
ATOM     22  C   UNL A   1      36.032  20.962  25.397  1.00  0.00     0.042 C 
BRANCH  22  23
ATOM     23  C   UNL A   1      37.440  21.527  25.313  1.00  0.00     0.118 C 
BRANCH  23  24
ATOM     24  N   UNL A   1      38.551  20.625  25.587  1.00  0.00    -0.352 N 
ATOM     25  C   UNL A   1      39.713  20.881  26.302  1.00  0.00     0.251 C 
ATOM     26  H   UNL A   1      38.467  19.716  25.215  1.00  0.00     0.163 HD
ATOM     27  O   UNL A   1      40.540  19.981  26.449  1.00  0.00    -0.269 OA
BRANCH  25  28
ATOM     28  C   UNL A   1      39.992  22.243  26.841  1.00  0.00     0.039 A 
ATOM     29  C   UNL A   1      40.963  22.424  27.835  1.00  0.00     0.014 A 
ATOM     30  C   UNL A   1      39.351  23.362  26.317  1.00  0.00     0.014 A 
ATOM     31  C   UNL A   1      41.373  23.720  28.193  1.00  0.00     0.010 A 
ATOM     32  C   UNL A   1      39.863  24.630  26.557  1.00  0.00     0.010 A 
ATOM     33  C   UNL A   1      40.877  24.836  27.503  1.00  0.00    -0.014 A 
BRANCH  33  34
ATOM     34  C   UNL A   1      41.353  26.235  27.725  1.00  0.00     0.031 A 
ATOM     35  C   UNL A   1      42.758  26.612  27.312  1.00  0.00     0.074 A 
ATOM     36  C   UNL A   1      40.616  27.107  28.447  1.00  0.00     0.049 A 
ATOM     37  N   UNL A   1      43.471  27.656  27.645  1.00  0.00    -0.248 NA
ATOM     38  C   UNL A   1      43.486  25.640  26.475  1.00  0.00     0.031 C 
ATOM     39  C   UNL A   1      39.282  26.852  28.995  1.00  0.00     0.029 A 
ATOM     40  N   UNL A   1      40.906  28.381  28.876  1.00  0.00    -0.354 N 
ATOM     41  C   UNL A   1      44.749  27.415  27.151  1.00  0.00     0.074 A 
ATOM     42  C   UNL A   1      44.723  26.110  26.532  1.00  0.00     0.031 C 
ATOM     43  C   UNL A   1      38.862  27.937  29.667  1.00  0.00     0.029 A 
ATOM     44  C   UNL A   1      39.909  28.952  29.638  1.00  0.00     0.049 A 
ATOM     45  H   UNL A   1      41.748  28.842  28.661  1.00  0.00     0.167 HD
ATOM     46  C   UNL A   1      45.838  28.220  27.171  1.00  0.00     0.034 A 
ATOM     47  C   UNL A   1      39.848  30.155  30.245  1.00  0.00     0.034 A 
ATOM     48  C   UNL A   1      45.814  29.573  27.653  1.00  0.00     0.049 A 
ATOM     49  C   UNL A   1      41.022  31.092  30.127  1.00  0.00     0.074 A 
ATOM     50  C   UNL A   1      46.808  30.531  27.578  1.00  0.00     0.029 A 
ATOM     51  N   UNL A   1      44.727  30.168  28.272  1.00  0.00    -0.354 N 
ATOM     52  N   UNL A   1      42.173  30.899  29.529  1.00  0.00    -0.248 NA
ATOM     53  C   UNL A   1      40.879  32.423  30.736  1.00  0.00     0.031 C 
ATOM     54  C   UNL A   1      46.320  31.709  28.151  1.00  0.00     0.029 A 
ATOM     55  C   UNL A   1      45.019  31.484  28.573  1.00  0.00     0.049 A 
ATOM     56  H   UNL A   1      43.873  29.719  28.469  1.00  0.00     0.167 HD
ATOM     57  C   UNL A   1      42.870  32.097  29.649  1.00  0.00     0.074 A 
ATOM     58  C   UNL A   1      42.009  33.012  30.368  1.00  0.00     0.031 C 
ATOM     59  C   UNL A   1      44.117  32.404  29.215  1.00  0.00     0.034 A 
BRANCH  46  60
ATOM     60  C   UNL A   1      47.120  27.691  26.579  1.00  0.00     0.023 A 
ATOM     61  C   UNL A   1      48.068  27.062  27.412  1.00  0.00     0.012 A 
ATOM     62  C   UNL A   1      47.372  27.778  25.195  1.00  0.00     0.148 A 
ATOM     63  C   UNL A   1      49.268  26.581  26.891  1.00  0.00     0.002 A 
ATOM     64  C   UNL A   1      48.549  27.250  24.674  1.00  0.00     0.091 A 
ATOM     65  F   UNL A   1      46.469  28.393  24.416  1.00  0.00    -0.205 F 
ATOM     66  C   UNL A   1      49.503  26.666  25.523  1.00  0.00     0.022 A 
BRANCH  64  67
ATOM     67  S   UNL A   1      48.906  27.231  22.913  1.00  0.00     0.127 S 
ATOM     68  O   UNL A   1      48.333  25.949  22.509  1.00  0.00    -0.237 OA
ATOM     69  O   UNL A   1      48.173  28.404  22.437  1.00  0.00    -0.237 OA
ATOM     70  O   UNL A   1      50.354  27.335  22.799  1.00  0.00    -0.744 OA
ENDBRANCH  64  67
ENDBRANCH  46  60
BRANCH  47  71
ATOM     71  C   UNL A   1      38.593  30.588  30.926  1.00  0.00     0.023 A 
ATOM     72  C   UNL A   1      38.433  30.300  32.296  1.00  0.00     0.012 A 
ATOM     73  C   UNL A   1      37.580  31.300  30.255  1.00  0.00     0.148 A 
ATOM     74  C   UNL A   1      37.277  30.683  32.978  1.00  0.00     0.002 A 
ATOM     75  C   UNL A   1      36.453  31.723  30.952  1.00  0.00     0.091 A 
ATOM     76  F   UNL A   1      37.743  31.558  28.949  1.00  0.00    -0.205 F 
ATOM     77  C   UNL A   1      36.292  31.402  32.310  1.00  0.00     0.022 A 
BRANCH  75  78
ATOM     78  S   UNL A   1      35.189  32.761  30.207  1.00  0.00     0.127 S 
ATOM     79  O   UNL A   1      34.683  31.899  29.142  1.00  0.00    -0.237 OA
ATOM     80  O   UNL A   1      34.265  32.965  31.324  1.00  0.00    -0.237 OA
ATOM     81  O   UNL A   1      35.880  33.968  29.774  1.00  0.00    -0.744 OA
ENDBRANCH  75  78
ENDBRANCH  47  71
BRANCH  59  82
ATOM     82  C   UNL A   1      44.620  33.804  29.442  1.00  0.00     0.023 A 
ATOM     83  C   UNL A   1      45.244  34.134  30.659  1.00  0.00     0.012 A 
ATOM     84  C   UNL A   1      44.585  34.750  28.398  1.00  0.00     0.148 A 
ATOM     85  C   UNL A   1      45.814  35.393  30.841  1.00  0.00     0.002 A 
ATOM     86  C   UNL A   1      45.196  35.986  28.569  1.00  0.00     0.091 A 
ATOM     87  F   UNL A   1      43.968  34.417  27.254  1.00  0.00    -0.205 F 
ATOM     88  C   UNL A   1      45.804  36.312  29.792  1.00  0.00     0.022 A 
BRANCH  86  89
ATOM     89  S   UNL A   1      45.323  37.188  27.241  1.00  0.00     0.127 S 
ATOM     90  O   UNL A   1      45.982  36.408  26.195  1.00  0.00    -0.237 OA
ATOM     91  O   UNL A   1      43.920  37.507  26.974  1.00  0.00    -0.237 OA
ATOM     92  O   UNL A   1      46.103  38.297  27.777  1.00  0.00    -0.744 OA
ENDBRANCH  86  89
ENDBRANCH  59  82
ENDBRANCH  33  34
ENDBRANCH  25  28
ENDBRANCH  23  24
ENDBRANCH  22  23
ENDBRANCH   1  22
TORSDOF 20
ENDMDL
