MODEL 1
REMARK VINA RESULT:     -13.4      0.000      0.000
REMARK SMILES Cc1ccc(Oc2cc(C(=O)NCCCNC(=O)c3ccc(-c4c5nc(c(-c6cccc(S(=O)(=O)[O-])c6F)c6ccc([nH]6)c(-c6cccc(S(=O)(=O)[O-])c6F)c6nc(c(-c7cccc(S(=O)(=O)[O-])c7F)c7ccc4[nH]7)C=C6)C=C5)cc3)nc3ccccc23)cc1
REMARK SMILES IDX 14 1 13 2 12 3 10 4 11 5 9 7 7 8 8 9 88 10 83 11 87 12 82 13
REMARK SMILES IDX 84 14 86 15 85 16 6 17 5 18 1 19 2 20 3 21 90 22 4 23 89 24
REMARK SMILES IDX 15 25 16 26 17 27 18 29 19 30 20 31 81 32 21 33 80 34 22 35
REMARK SMILES IDX 23 36 24 37 74 38 25 39 79 40 73 41 75 42 26 43 78 44 72 45
REMARK SMILES IDX 71 46 27 48 59 49 39 50 58 51 40 52 43 53 57 54 76 55 41 56
REMARK SMILES IDX 42 57 56 59 77 60 44 61 28 62 29 63 37 64 30 65 32 66 38 67
REMARK SMILES IDX 31 68 33 69 34 70 35 71 36 72 60 73 61 74 69 75 62 76 64 77
REMARK SMILES IDX 70 78 63 79 65 80 66 81 67 82 68 83 45 84 46 85 54 86 47 87
REMARK SMILES IDX 49 88 55 89 48 90 50 91 51 92 52 93 53 94
REMARK H PARENT 12 6 16 28 75 47 43 58
REMARK Flexibility Score: inf
ROOT
ATOM      1  C   UNL A   1      37.664  21.297  25.015  1.00  0.00     0.042 C 
ENDROOT
BRANCH   1   2
ATOM      2  C   UNL A   1      36.144  21.344  24.874  1.00  0.00     0.118 C 
BRANCH   2   3
ATOM      3  N   UNL A   1      35.459  21.255  26.157  1.00  0.00    -0.351 N 
ATOM      4  C   UNL A   1      34.354  21.949  26.610  1.00  0.00     0.270 C 
ATOM      5  O   UNL A   1      33.862  21.636  27.696  1.00  0.00    -0.268 OA
ATOM      6  H   UNL A   1      35.839  20.608  26.794  1.00  0.00     0.163 HD
BRANCH   4   7
ATOM      7  C   UNL A   1      33.723  23.057  25.816  1.00  0.00     0.132 A 
ATOM      8  C   UNL A   1      32.517  25.096  25.718  1.00  0.00     0.139 A 
ATOM      9  C   UNL A   1      33.118  24.103  26.485  1.00  0.00     0.082 A 
ATOM     10  C   UNL A   1      32.599  25.083  24.306  1.00  0.00     0.043 A 
ATOM     11  C   UNL A   1      33.238  23.972  23.733  1.00  0.00     0.075 A 
ATOM     12  C   UNL A   1      32.068  26.078  23.448  1.00  0.00     0.014 A 
ATOM     13  N   UNL A   1      33.771  22.988  24.465  1.00  0.00    -0.242 NA
ATOM     14  C   UNL A   1      33.308  23.867  22.351  1.00  0.00     0.029 A 
ATOM     15  C   UNL A   1      32.132  25.944  22.062  1.00  0.00     0.001 A 
ATOM     16  C   UNL A   1      32.753  24.832  21.511  1.00  0.00     0.002 A 
BRANCH   8  17
ATOM     17  O   UNL A   1      31.863  26.087  26.417  1.00  0.00    -0.457 OA
BRANCH  17  18
ATOM     18  C   UNL A   1      32.506  27.298  26.582  1.00  0.00     0.127 A 
ATOM     19  C   UNL A   1      34.215  31.139  27.516  1.00  0.00     0.044 C 
ATOM     20  C   UNL A   1      33.622  29.810  27.161  1.00  0.00    -0.051 A 
ATOM     21  C   UNL A   1      32.240  29.604  27.268  1.00  0.00     0.007 A 
ATOM     22  C   UNL A   1      34.431  28.763  26.706  1.00  0.00     0.007 A 
ATOM     23  C   UNL A   1      31.687  28.354  26.983  1.00  0.00     0.047 A 
ATOM     24  C   UNL A   1      33.875  27.518  26.404  1.00  0.00     0.047 A 
ENDBRANCH  17  18
ENDBRANCH   8  17
ENDBRANCH   4   7
ENDBRANCH   2   3
ENDBRANCH   1   2
BRANCH   1  25
ATOM     25  C   UNL A   1      38.192  22.319  26.005  1.00  0.00     0.118 C 
BRANCH  25  26
ATOM     26  N   UNL A   1      39.630  22.235  26.222  1.00  0.00    -0.352 N 
ATOM     27  C   UNL A   1      40.536  23.240  26.501  1.00  0.00     0.251 C 
ATOM     28  H   UNL A   1      40.012  21.330  26.159  1.00  0.00     0.163 HD
ATOM     29  O   UNL A   1      41.736  22.969  26.496  1.00  0.00    -0.269 OA
BRANCH  27  30
ATOM     30  C   UNL A   1      40.055  24.580  26.915  1.00  0.00     0.039 A 
ATOM     31  C   UNL A   1      40.522  25.699  26.211  1.00  0.00     0.014 A 
ATOM     32  C   UNL A   1      39.325  24.752  28.088  1.00  0.00     0.014 A 
ATOM     33  C   UNL A   1      40.479  26.958  26.807  1.00  0.00     0.010 A 
ATOM     34  C   UNL A   1      39.358  25.975  28.718  1.00  0.00     0.010 A 
ATOM     35  C   UNL A   1      40.000  27.058  28.108  1.00  0.00    -0.014 A 
BRANCH  35  36
ATOM     36  C   UNL A   1      40.182  28.208  28.977  1.00  0.00     0.031 A 
ATOM     37  C   UNL A   1      39.300  29.381  28.861  1.00  0.00     0.074 A 
ATOM     38  C   UNL A   1      40.996  28.055  30.045  1.00  0.00     0.049 A 
ATOM     39  N   UNL A   1      39.482  30.494  29.483  1.00  0.00    -0.248 NA
ATOM     40  C   UNL A   1      38.153  29.395  27.964  1.00  0.00     0.031 C 
ATOM     41  C   UNL A   1      40.990  28.816  31.287  1.00  0.00     0.029 A 
ATOM     42  N   UNL A   1      42.168  27.294  30.113  1.00  0.00    -0.354 N 
ATOM     43  C   UNL A   1      38.337  31.244  29.323  1.00  0.00     0.074 A 
ATOM     44  C   UNL A   1      37.616  30.581  28.265  1.00  0.00     0.031 C 
ATOM     45  C   UNL A   1      42.200  28.713  31.856  1.00  0.00     0.029 A 
ATOM     46  C   UNL A   1      43.061  28.047  30.894  1.00  0.00     0.049 A 
ATOM     47  H   UNL A   1      42.332  26.416  29.700  1.00  0.00     0.167 HD
ATOM     48  C   UNL A   1      38.076  32.237  30.221  1.00  0.00     0.034 A 
ATOM     49  C   UNL A   1      44.244  28.540  30.419  1.00  0.00     0.034 A 
ATOM     50  C   UNL A   1      39.256  32.491  31.067  1.00  0.00     0.049 A 
ATOM     51  C   UNL A   1      44.357  30.049  30.547  1.00  0.00     0.074 A 
ATOM     52  C   UNL A   1      39.595  32.130  32.360  1.00  0.00     0.029 A 
ATOM     53  N   UNL A   1      40.417  32.987  30.482  1.00  0.00    -0.354 N 
ATOM     54  N   UNL A   1      43.369  30.831  30.889  1.00  0.00    -0.248 NA
ATOM     55  C   UNL A   1      45.580  30.800  30.277  1.00  0.00     0.031 C 
ATOM     56  C   UNL A   1      41.000  32.300  32.508  1.00  0.00     0.029 A 
ATOM     57  C   UNL A   1      41.506  32.803  31.319  1.00  0.00     0.049 A 
ATOM     58  H   UNL A   1      40.460  33.411  29.595  1.00  0.00     0.167 HD
ATOM     59  C   UNL A   1      43.746  32.141  30.768  1.00  0.00     0.074 A 
ATOM     60  C   UNL A   1      45.164  32.067  30.458  1.00  0.00     0.031 C 
ATOM     61  C   UNL A   1      42.846  33.168  30.869  1.00  0.00     0.034 A 
BRANCH  48  62
ATOM     62  C   UNL A   1      36.698  32.810  30.549  1.00  0.00     0.023 A 
ATOM     63  C   UNL A   1      36.074  32.347  31.732  1.00  0.00     0.012 A 
ATOM     64  C   UNL A   1      35.909  33.677  29.751  1.00  0.00     0.148 A 
ATOM     65  C   UNL A   1      34.747  32.656  32.062  1.00  0.00     0.002 A 
ATOM     66  C   UNL A   1      34.582  33.979  30.070  1.00  0.00     0.091 A 
ATOM     67  F   UNL A   1      36.424  34.248  28.668  1.00  0.00    -0.205 F 
ATOM     68  C   UNL A   1      33.992  33.460  31.223  1.00  0.00     0.022 A 
BRANCH  66  69
ATOM     69  S   UNL A   1      33.540  35.008  29.013  1.00  0.00     0.127 S 
ATOM     70  O   UNL A   1      32.922  34.016  28.134  1.00  0.00    -0.237 OA
ATOM     71  O   UNL A   1      32.628  35.621  29.977  1.00  0.00    -0.237 OA
ATOM     72  O   UNL A   1      34.430  35.942  28.333  1.00  0.00    -0.744 OA
ENDBRANCH  66  69
ENDBRANCH  48  62
BRANCH  49  73
ATOM     73  C   UNL A   1      44.841  27.712  29.328  1.00  0.00     0.023 A 
ATOM     74  C   UNL A   1      45.307  26.425  29.692  1.00  0.00     0.012 A 
ATOM     75  C   UNL A   1      44.588  27.981  27.970  1.00  0.00     0.148 A 
ATOM     76  C   UNL A   1      45.384  25.395  28.753  1.00  0.00     0.002 A 
ATOM     77  C   UNL A   1      44.675  26.947  27.036  1.00  0.00     0.091 A 
ATOM     78  F   UNL A   1      44.189  29.212  27.623  1.00  0.00    -0.205 F 
ATOM     79  C   UNL A   1      45.034  25.648  27.432  1.00  0.00     0.022 A 
BRANCH  77  80
ATOM     80  S   UNL A   1      44.201  27.186  25.317  1.00  0.00     0.127 S 
ATOM     81  O   UNL A   1      45.460  27.628  24.725  1.00  0.00    -0.237 OA
ATOM     82  O   UNL A   1      43.770  25.845  24.920  1.00  0.00    -0.237 OA
ATOM     83  O   UNL A   1      43.126  28.166  25.361  1.00  0.00    -0.744 OA
ENDBRANCH  77  80
ENDBRANCH  49  73
BRANCH  61  84
ATOM     84  C   UNL A   1      43.135  34.613  30.520  1.00  0.00     0.023 A 
ATOM     85  C   UNL A   1      43.485  35.565  31.497  1.00  0.00     0.012 A 
ATOM     86  C   UNL A   1      43.226  35.025  29.165  1.00  0.00     0.148 A 
ATOM     87  C   UNL A   1      43.849  36.873  31.158  1.00  0.00     0.002 A 
ATOM     88  C   UNL A   1      43.688  36.296  28.829  1.00  0.00     0.091 A 
ATOM     89  F   UNL A   1      42.848  34.187  28.187  1.00  0.00    -0.205 F 
ATOM     90  C   UNL A   1      43.973  37.233  29.823  1.00  0.00     0.022 A 
BRANCH  88  91
ATOM     91  S   UNL A   1      44.077  36.713  27.122  1.00  0.00     0.127 S 
ATOM     92  O   UNL A   1      42.802  36.476  26.450  1.00  0.00    -0.237 OA
ATOM     93  O   UNL A   1      44.462  38.122  27.216  1.00  0.00    -0.237 OA
ATOM     94  O   UNL A   1      45.172  35.822  26.761  1.00  0.00    -0.744 OA
ENDBRANCH  88  91
ENDBRANCH  61  84
ENDBRANCH  35  36
ENDBRANCH  27  30
ENDBRANCH  25  26
ENDBRANCH   1  25
TORSDOF 15
ENDMDL
MODEL 2
REMARK VINA RESULT:     -13.1      1.481      2.489
REMARK SMILES Cc1ccc(Oc2cc(C(=O)NCCCNC(=O)c3ccc(-c4c5nc(c(-c6cccc(S(=O)(=O)[O-])c6F)c6ccc([nH]6)c(-c6cccc(S(=O)(=O)[O-])c6F)c6nc(c(-c7cccc(S(=O)(=O)[O-])c7F)c7ccc4[nH]7)C=C6)C=C5)cc3)nc3ccccc23)cc1
REMARK SMILES IDX 14 1 13 2 12 3 10 4 11 5 9 7 7 8 8 9 88 10 83 11 87 12 82 13
REMARK SMILES IDX 84 14 86 15 85 16 6 17 5 18 1 19 2 20 3 21 90 22 4 23 89 24
REMARK SMILES IDX 15 25 16 26 17 27 18 29 19 30 20 31 81 32 21 33 80 34 22 35
REMARK SMILES IDX 23 36 24 37 74 38 25 39 79 40 73 41 75 42 26 43 78 44 72 45
REMARK SMILES IDX 71 46 27 48 59 49 39 50 58 51 40 52 43 53 57 54 76 55 41 56
REMARK SMILES IDX 42 57 56 59 77 60 44 61 28 62 29 63 37 64 30 65 32 66 38 67
REMARK SMILES IDX 31 68 33 69 34 70 35 71 36 72 60 73 61 74 69 75 62 76 64 77
REMARK SMILES IDX 70 78 63 79 65 80 66 81 67 82 68 83 45 84 46 85 54 86 47 87
REMARK SMILES IDX 49 88 55 89 48 90 50 91 51 92 52 93 53 94
REMARK H PARENT 12 6 16 28 75 47 43 58
REMARK Flexibility Score: inf
ROOT
ATOM      1  C   UNL A   1      36.999  22.094  25.991  1.00  0.00     0.042 C 
ENDROOT
BRANCH   1   2
ATOM      2  C   UNL A   1      35.992  23.234  26.130  1.00  0.00     0.118 C 
BRANCH   2   3
ATOM      3  N   UNL A   1      35.014  22.994  27.183  1.00  0.00    -0.351 N 
ATOM      4  C   UNL A   1      33.863  22.231  27.153  1.00  0.00     0.270 C 
ATOM      5  O   UNL A   1      33.231  22.069  28.198  1.00  0.00    -0.268 OA
ATOM      6  H   UNL A   1      35.200  23.440  28.041  1.00  0.00     0.163 HD
BRANCH   4   7
ATOM      7  C   UNL A   1      33.366  21.581  25.893  1.00  0.00     0.132 A 
ATOM      8  C   UNL A   1      32.191  21.697  23.837  1.00  0.00     0.139 A 
ATOM      9  C   UNL A   1      32.662  22.338  24.978  1.00  0.00     0.082 A 
ATOM     10  C   UNL A   1      32.497  20.340  23.578  1.00  0.00     0.043 A 
ATOM     11  C   UNL A   1      33.220  19.668  24.578  1.00  0.00     0.075 A 
ATOM     12  C   UNL A   1      32.109  19.621  22.421  1.00  0.00     0.014 A 
ATOM     13  N   UNL A   1      33.630  20.267  25.700  1.00  0.00    -0.242 NA
ATOM     14  C   UNL A   1      33.509  18.320  24.415  1.00  0.00     0.029 A 
ATOM     15  C   UNL A   1      32.394  18.263  22.286  1.00  0.00     0.001 A 
ATOM     16  C   UNL A   1      33.095  17.610  23.289  1.00  0.00     0.002 A 
BRANCH   8  17
ATOM     17  O   UNL A   1      31.434  22.465  22.980  1.00  0.00    -0.457 OA
BRANCH  17  18
ATOM     18  C   UNL A   1      31.787  23.789  22.810  1.00  0.00     0.127 A 
ATOM     19  C   UNL A   1      32.682  28.002  22.746  1.00  0.00     0.044 C 
ATOM     20  C   UNL A   1      32.364  26.537  22.738  1.00  0.00    -0.051 A 
ATOM     21  C   UNL A   1      31.124  26.083  23.206  1.00  0.00     0.007 A 
ATOM     22  C   UNL A   1      33.289  25.606  22.253  1.00  0.00     0.007 A 
ATOM     23  C   UNL A   1      30.840  24.717  23.245  1.00  0.00     0.047 A 
ATOM     24  C   UNL A   1      32.997  24.241  22.275  1.00  0.00     0.047 A 
ENDBRANCH  17  18
ENDBRANCH   8  17
ENDBRANCH   4   7
ENDBRANCH   2   3
ENDBRANCH   1   2
BRANCH   1  25
ATOM     25  C   UNL A   1      38.311  22.545  25.375  1.00  0.00     0.118 C 
BRANCH  25  26
ATOM     26  N   UNL A   1      39.484  22.156  26.147  1.00  0.00    -0.352 N 
ATOM     27  C   UNL A   1      40.394  22.948  26.819  1.00  0.00     0.251 C 
ATOM     28  H   UNL A   1      39.652  21.187  26.196  1.00  0.00     0.163 HD
ATOM     29  O   UNL A   1      41.405  22.420  27.283  1.00  0.00    -0.269 OA
BRANCH  27  30
ATOM     30  C   UNL A   1      40.091  24.377  27.074  1.00  0.00     0.039 A 
ATOM     31  C   UNL A   1      40.901  25.346  26.463  1.00  0.00     0.014 A 
ATOM     32  C   UNL A   1      39.167  24.754  28.043  1.00  0.00     0.014 A 
ATOM     33  C   UNL A   1      40.962  26.631  26.998  1.00  0.00     0.010 A 
ATOM     34  C   UNL A   1      39.286  25.994  28.630  1.00  0.00     0.010 A 
ATOM     35  C   UNL A   1      40.236  26.903  28.152  1.00  0.00    -0.014 A 
BRANCH  35  36
ATOM     36  C   UNL A   1      40.432  28.062  29.006  1.00  0.00     0.031 A 
ATOM     37  C   UNL A   1      39.555  29.237  28.887  1.00  0.00     0.074 A 
ATOM     38  C   UNL A   1      41.257  27.917  30.067  1.00  0.00     0.049 A 
ATOM     39  N   UNL A   1      39.748  30.356  29.496  1.00  0.00    -0.248 NA
ATOM     40  C   UNL A   1      38.397  29.247  28.003  1.00  0.00     0.031 C 
ATOM     41  C   UNL A   1      41.268  28.690  31.301  1.00  0.00     0.029 A 
ATOM     42  N   UNL A   1      42.427  27.151  30.130  1.00  0.00    -0.354 N 
ATOM     43  C   UNL A   1      38.604  31.110  29.339  1.00  0.00     0.074 A 
ATOM     44  C   UNL A   1      37.869  30.438  28.297  1.00  0.00     0.031 C 
ATOM     45  C   UNL A   1      42.485  28.588  31.857  1.00  0.00     0.029 A 
ATOM     46  C   UNL A   1      43.332  27.908  30.893  1.00  0.00     0.049 A 
ATOM     47  H   UNL A   1      42.582  26.267  29.725  1.00  0.00     0.167 HD
ATOM     48  C   UNL A   1      38.358  32.113  30.230  1.00  0.00     0.034 A 
ATOM     49  C   UNL A   1      44.511  28.390  30.399  1.00  0.00     0.034 A 
ATOM     50  C   UNL A   1      39.548  32.371  31.060  1.00  0.00     0.049 A 
ATOM     51  C   UNL A   1      44.632  29.901  30.510  1.00  0.00     0.074 A 
ATOM     52  C   UNL A   1      39.900  32.022  32.353  1.00  0.00     0.029 A 
ATOM     53  N   UNL A   1      40.705  32.855  30.458  1.00  0.00    -0.354 N 
ATOM     54  N   UNL A   1      43.652  30.690  30.855  1.00  0.00    -0.248 NA
ATOM     55  C   UNL A   1      45.856  30.643  30.218  1.00  0.00     0.031 C 
ATOM     56  C   UNL A   1      41.307  32.188  32.483  1.00  0.00     0.029 A 
ATOM     57  C   UNL A   1      41.802  32.675  31.285  1.00  0.00     0.049 A 
ATOM     58  H   UNL A   1      40.740  33.270  29.566  1.00  0.00     0.167 HD
ATOM     59  C   UNL A   1      44.033  31.997  30.716  1.00  0.00     0.074 A 
ATOM     60  C   UNL A   1      45.447  31.914  30.391  1.00  0.00     0.031 C 
ATOM     61  C   UNL A   1      43.139  33.029  30.816  1.00  0.00     0.034 A 
BRANCH  48  62
ATOM     62  C   UNL A   1      36.986  32.696  30.567  1.00  0.00     0.023 A 
ATOM     63  C   UNL A   1      36.454  32.392  31.843  1.00  0.00     0.012 A 
ATOM     64  C   UNL A   1      36.121  33.423  29.711  1.00  0.00     0.148 A 
ATOM     65  C   UNL A   1      35.141  32.715  32.215  1.00  0.00     0.002 A 
ATOM     66  C   UNL A   1      34.808  33.738  30.074  1.00  0.00     0.091 A 
ATOM     67  F   UNL A   1      36.547  33.845  28.526  1.00  0.00    -0.205 F 
ATOM     68  C   UNL A   1      34.309  33.374  31.324  1.00  0.00     0.022 A 
BRANCH  66  69
ATOM     69  S   UNL A   1      33.668  34.582  28.956  1.00  0.00     0.127 S 
ATOM     70  O   UNL A   1      33.336  33.525  28.000  1.00  0.00    -0.237 OA
ATOM     71  O   UNL A   1      32.577  34.959  29.851  1.00  0.00    -0.237 OA
ATOM     72  O   UNL A   1      34.403  35.703  28.379  1.00  0.00    -0.744 OA
ENDBRANCH  66  69
ENDBRANCH  48  62
BRANCH  49  73
ATOM     73  C   UNL A   1      45.092  27.549  29.311  1.00  0.00     0.023 A 
ATOM     74  C   UNL A   1      45.449  26.222  29.658  1.00  0.00     0.012 A 
ATOM     75  C   UNL A   1      44.918  27.869  27.952  1.00  0.00     0.148 A 
ATOM     76  C   UNL A   1      45.490  25.213  28.695  1.00  0.00     0.002 A 
ATOM     77  C   UNL A   1      44.969  26.855  26.994  1.00  0.00     0.091 A 
ATOM     78  F   UNL A   1      44.623  29.134  27.624  1.00  0.00    -0.205 F 
ATOM     79  C   UNL A   1      45.216  25.523  27.368  1.00  0.00     0.022 A 
BRANCH  77  80
ATOM     80  S   UNL A   1      44.586  27.170  25.264  1.00  0.00     0.127 S 
ATOM     81  O   UNL A   1      44.439  25.814  24.746  1.00  0.00    -0.237 OA
ATOM     82  O   UNL A   1      43.341  27.935  25.352  1.00  0.00    -0.237 OA
ATOM     83  O   UNL A   1      45.719  27.936  24.767  1.00  0.00    -0.744 OA
ENDBRANCH  77  80
ENDBRANCH  49  73
BRANCH  61  84
ATOM     84  C   UNL A   1      43.430  34.470  30.448  1.00  0.00     0.023 A 
ATOM     85  C   UNL A   1      43.897  35.405  31.392  1.00  0.00     0.012 A 
ATOM     86  C   UNL A   1      43.401  34.890  29.092  1.00  0.00     0.148 A 
ATOM     87  C   UNL A   1      44.261  36.706  31.026  1.00  0.00     0.002 A 
ATOM     88  C   UNL A   1      43.861  36.151  28.720  1.00  0.00     0.091 A 
ATOM     89  F   UNL A   1      42.909  34.069  28.151  1.00  0.00    -0.205 F 
ATOM     90  C   UNL A   1      44.265  37.072  29.687  1.00  0.00     0.022 A 
BRANCH  88  91
ATOM     91  S   UNL A   1      44.095  36.571  26.986  1.00  0.00     0.127 S 
ATOM     92  O   UNL A   1      44.959  35.487  26.523  1.00  0.00    -0.237 OA
ATOM     93  O   UNL A   1      42.730  36.526  26.459  1.00  0.00    -0.237 OA
ATOM     94  O   UNL A   1      44.683  37.904  27.000  1.00  0.00    -0.744 OA
ENDBRANCH  88  91
ENDBRANCH  61  84
ENDBRANCH  35  36
ENDBRANCH  27  30
ENDBRANCH  25  26
ENDBRANCH   1  25
TORSDOF 15
ENDMDL
MODEL 3
REMARK VINA RESULT:     -13.0      1.508      2.389
REMARK SMILES Cc1ccc(Oc2cc(C(=O)NCCCNC(=O)c3ccc(-c4c5nc(c(-c6cccc(S(=O)(=O)[O-])c6F)c6ccc([nH]6)c(-c6cccc(S(=O)(=O)[O-])c6F)c6nc(c(-c7cccc(S(=O)(=O)[O-])c7F)c7ccc4[nH]7)C=C6)C=C5)cc3)nc3ccccc23)cc1
REMARK SMILES IDX 14 1 13 2 12 3 10 4 11 5 9 7 7 8 8 9 88 10 83 11 87 12 82 13
REMARK SMILES IDX 84 14 86 15 85 16 6 17 5 18 1 19 2 20 3 21 90 22 4 23 89 24
REMARK SMILES IDX 15 25 16 26 17 27 18 29 19 30 20 31 81 32 21 33 80 34 22 35
REMARK SMILES IDX 23 36 24 37 74 38 25 39 79 40 73 41 75 42 26 43 78 44 72 45
REMARK SMILES IDX 71 46 27 48 59 49 39 50 58 51 40 52 43 53 57 54 76 55 41 56
REMARK SMILES IDX 42 57 56 59 77 60 44 61 28 62 29 63 37 64 30 65 32 66 38 67
REMARK SMILES IDX 31 68 33 69 34 70 35 71 36 72 60 73 61 74 69 75 62 76 64 77
REMARK SMILES IDX 70 78 63 79 65 80 66 81 67 82 68 83 45 84 46 85 54 86 47 87
REMARK SMILES IDX 49 88 55 89 48 90 50 91 51 92 52 93 53 94
REMARK H PARENT 12 6 16 28 75 47 43 58
REMARK Flexibility Score: inf
ROOT
ATOM      1  C   UNL A   1      36.534  22.007  25.704  1.00  0.00     0.042 C 
ENDROOT
BRANCH   1   2
ATOM      2  C   UNL A   1      35.207  22.712  25.432  1.00  0.00     0.118 C 
BRANCH   2   3
ATOM      3  N   UNL A   1      34.918  22.835  24.009  1.00  0.00    -0.351 N 
ATOM      4  C   UNL A   1      34.170  23.788  23.346  1.00  0.00     0.270 C 
ATOM      5  O   UNL A   1      34.145  23.770  22.114  1.00  0.00    -0.268 OA
ATOM      6  H   UNL A   1      35.312  22.137  23.437  1.00  0.00     0.163 HD
BRANCH   4   7
ATOM      7  C   UNL A   1      33.401  24.852  24.075  1.00  0.00     0.132 A 
ATOM      8  C   UNL A   1      31.365  25.977  24.536  1.00  0.00     0.139 A 
ATOM      9  C   UNL A   1      32.040  24.960  23.868  1.00  0.00     0.082 A 
ATOM     10  C   UNL A   1      32.030  26.814  25.462  1.00  0.00     0.043 A 
ATOM     11  C   UNL A   1      33.414  26.614  25.594  1.00  0.00     0.075 A 
ATOM     12  C   UNL A   1      31.415  27.835  26.228  1.00  0.00     0.014 A 
ATOM     13  N   UNL A   1      34.076  25.673  24.914  1.00  0.00    -0.242 NA
ATOM     14  C   UNL A   1      34.140  27.435  26.445  1.00  0.00     0.029 A 
ATOM     15  C   UNL A   1      32.166  28.661  27.063  1.00  0.00     0.001 A 
ATOM     16  C   UNL A   1      33.535  28.461  27.171  1.00  0.00     0.002 A 
BRANCH   8  17
ATOM     17  O   UNL A   1      30.022  26.099  24.252  1.00  0.00    -0.457 OA
BRANCH  17  18
ATOM     18  C   UNL A   1      29.613  27.184  23.504  1.00  0.00     0.127 A 
ATOM     19  C   UNL A   1      28.034  30.695  21.571  1.00  0.00     0.044 C 
ATOM     20  C   UNL A   1      28.583  29.458  22.217  1.00  0.00    -0.051 A 
ATOM     21  C   UNL A   1      27.738  28.608  22.941  1.00  0.00     0.007 A 
ATOM     22  C   UNL A   1      29.936  29.128  22.095  1.00  0.00     0.007 A 
ATOM     23  C   UNL A   1      28.251  27.480  23.584  1.00  0.00     0.047 A 
ATOM     24  C   UNL A   1      30.447  27.989  22.722  1.00  0.00     0.047 A 
ENDBRANCH  17  18
ENDBRANCH   8  17
ENDBRANCH   4   7
ENDBRANCH   2   3
ENDBRANCH   1   2
BRANCH   1  25
ATOM     25  C   UNL A   1      37.733  22.913  25.485  1.00  0.00     0.118 C 
BRANCH  25  26
ATOM     26  N   UNL A   1      38.915  22.509  26.233  1.00  0.00    -0.352 N 
ATOM     27  C   UNL A   1      39.844  23.288  26.895  1.00  0.00     0.251 C 
ATOM     28  H   UNL A   1      39.077  21.538  26.271  1.00  0.00     0.163 HD
ATOM     29  O   UNL A   1      40.858  22.748  27.338  1.00  0.00    -0.269 OA
BRANCH  27  30
ATOM     30  C   UNL A   1      39.557  24.717  27.167  1.00  0.00     0.039 A 
ATOM     31  C   UNL A   1      40.348  25.685  26.531  1.00  0.00     0.014 A 
ATOM     32  C   UNL A   1      38.670  25.094  28.171  1.00  0.00     0.014 A 
ATOM     33  C   UNL A   1      40.434  26.968  27.068  1.00  0.00     0.010 A 
ATOM     34  C   UNL A   1      38.816  26.331  28.758  1.00  0.00     0.010 A 
ATOM     35  C   UNL A   1      39.752  27.238  28.249  1.00  0.00    -0.014 A 
BRANCH  35  36
ATOM     36  C   UNL A   1      39.985  28.392  29.100  1.00  0.00     0.031 A 
ATOM     37  C   UNL A   1      39.133  29.587  28.991  1.00  0.00     0.074 A 
ATOM     38  C   UNL A   1      40.819  28.229  30.151  1.00  0.00     0.049 A 
ATOM     39  N   UNL A   1      39.358  30.702  29.596  1.00  0.00    -0.248 NA
ATOM     40  C   UNL A   1      37.965  29.623  28.120  1.00  0.00     0.031 C 
ATOM     41  C   UNL A   1      40.862  29.003  31.384  1.00  0.00     0.029 A 
ATOM     42  N   UNL A   1      41.971  27.437  30.201  1.00  0.00    -0.354 N 
ATOM     43  C   UNL A   1      38.230  31.481  29.453  1.00  0.00     0.074 A 
ATOM     44  C   UNL A   1      37.467  30.826  28.420  1.00  0.00     0.031 C 
ATOM     45  C   UNL A   1      42.082  28.873  31.927  1.00  0.00     0.029 A 
ATOM     46  C   UNL A   1      42.902  28.173  30.952  1.00  0.00     0.049 A 
ATOM     47  H   UNL A   1      42.102  26.550  29.794  1.00  0.00     0.167 HD
ATOM     48  C   UNL A   1      38.017  32.490  30.345  1.00  0.00     0.034 A 
ATOM     49  C   UNL A   1      44.086  28.629  30.445  1.00  0.00     0.034 A 
ATOM     50  C   UNL A   1      39.223  32.721  31.161  1.00  0.00     0.049 A 
ATOM     51  C   UNL A   1      44.242  30.136  30.553  1.00  0.00     0.074 A 
ATOM     52  C   UNL A   1      39.582  32.365  32.451  1.00  0.00     0.029 A 
ATOM     53  N   UNL A   1      40.383  33.179  30.545  1.00  0.00    -0.354 N 
ATOM     54  N   UNL A   1      43.285  30.948  30.909  1.00  0.00    -0.248 NA
ATOM     55  C   UNL A   1      45.479  30.851  30.246  1.00  0.00     0.031 C 
ATOM     56  C   UNL A   1      40.994  32.499  32.564  1.00  0.00     0.029 A 
ATOM     57  C   UNL A   1      41.486  32.975  31.359  1.00  0.00     0.049 A 
ATOM     58  H   UNL A   1      40.417  33.592  29.652  1.00  0.00     0.167 HD
ATOM     59  C   UNL A   1      43.694  32.246  30.764  1.00  0.00     0.074 A 
ATOM     60  C   UNL A   1      45.102  32.130  30.422  1.00  0.00     0.031 C 
ATOM     61  C   UNL A   1      42.824  33.298  30.874  1.00  0.00     0.034 A 
BRANCH  48  62
ATOM     62  C   UNL A   1      36.663  33.104  30.698  1.00  0.00     0.023 A 
ATOM     63  C   UNL A   1      36.122  32.783  31.966  1.00  0.00     0.012 A 
ATOM     64  C   UNL A   1      35.820  33.878  29.862  1.00  0.00     0.148 A 
ATOM     65  C   UNL A   1      34.819  33.134  32.348  1.00  0.00     0.002 A 
ATOM     66  C   UNL A   1      34.516  34.221  30.233  1.00  0.00     0.091 A 
ATOM     67  F   UNL A   1      36.258  34.318  28.688  1.00  0.00    -0.205 F 
ATOM     68  C   UNL A   1      34.007  33.840  31.475  1.00  0.00     0.022 A 
BRANCH  66  69
ATOM     69  S   UNL A   1      33.402  35.128  29.138  1.00  0.00     0.127 S 
ATOM     70  O   UNL A   1      32.814  34.052  28.340  1.00  0.00    -0.237 OA
ATOM     71  O   UNL A   1      32.483  35.759  30.083  1.00  0.00    -0.237 OA
ATOM     72  O   UNL A   1      34.230  36.056  28.376  1.00  0.00    -0.744 OA
ENDBRANCH  66  69
ENDBRANCH  48  62
BRANCH  49  73
ATOM     73  C   UNL A   1      44.635  27.774  29.350  1.00  0.00     0.023 A 
ATOM     74  C   UNL A   1      45.017  26.457  29.706  1.00  0.00     0.012 A 
ATOM     75  C   UNL A   1      44.408  28.069  27.993  1.00  0.00     0.148 A 
ATOM     76  C   UNL A   1      45.032  25.432  28.759  1.00  0.00     0.002 A 
ATOM     77  C   UNL A   1      44.434  27.039  27.052  1.00  0.00     0.091 A 
ATOM     78  F   UNL A   1      44.090  29.325  27.655  1.00  0.00    -0.205 F 
ATOM     79  C   UNL A   1      44.707  25.717  27.439  1.00  0.00     0.022 A 
BRANCH  77  80
ATOM     80  S   UNL A   1      43.985  27.321  25.332  1.00  0.00     0.127 S 
ATOM     81  O   UNL A   1      45.280  27.646  24.741  1.00  0.00    -0.237 OA
ATOM     82  O   UNL A   1      43.433  26.026  24.934  1.00  0.00    -0.237 OA
ATOM     83  O   UNL A   1      43.005  28.396  25.376  1.00  0.00    -0.744 OA
ENDBRANCH  77  80
ENDBRANCH  49  73
BRANCH  61  84
ATOM     84  C   UNL A   1      43.144  34.731  30.502  1.00  0.00     0.023 A 
ATOM     85  C   UNL A   1      43.568  35.677  31.455  1.00  0.00     0.012 A 
ATOM     86  C   UNL A   1      43.188  35.132  29.141  1.00  0.00     0.148 A 
ATOM     87  C   UNL A   1      43.959  36.970  31.091  1.00  0.00     0.002 A 
ATOM     88  C   UNL A   1      43.675  36.385  28.776  1.00  0.00     0.091 A 
ATOM     89  F   UNL A   1      42.740  34.301  28.187  1.00  0.00    -0.205 F 
ATOM     90  C   UNL A   1      44.034  37.318  29.749  1.00  0.00     0.022 A 
BRANCH  88  91
ATOM     91  S   UNL A   1      44.002  36.778  27.050  1.00  0.00     0.127 S 
ATOM     92  O   UNL A   1      42.652  36.925  26.509  1.00  0.00    -0.237 OA
ATOM     93  O   UNL A   1      44.757  38.029  27.144  1.00  0.00    -0.237 OA
ATOM     94  O   UNL A   1      44.779  35.652  26.551  1.00  0.00    -0.744 OA
ENDBRANCH  88  91
ENDBRANCH  61  84
ENDBRANCH  35  36
ENDBRANCH  27  30
ENDBRANCH  25  26
ENDBRANCH   1  25
TORSDOF 15
ENDMDL
