MODEL 1
REMARK VINA RESULT:     -12.6      0.000      0.000
REMARK SMILES CSc1cccc(N2C[C@@H](C(=O)NCCCNC(=O)c3ccc(-c4c5nc(c(-c6cccc(S(=O)(=O)[O-])c6F)c6ccc([nH]6)c(-c6cccc(S(=O)(=O)[O-])c6F)c6nc(c(-c7cccc(S(=O)(=O)[O-])c7F)c7ccc4[nH]7)C=C6)C=C5)cc3)CC2=O)c1
REMARK SMILES IDX 15 1 14 2 13 3 11 4 12 5 10 7 8 8 9 9 84 10 83 11 85 12 7 13
REMARK SMILES IDX 3 14 4 15 86 16 5 17 6 18 2 19 1 20 16 21 17 22 18 23 19 25
REMARK SMILES IDX 20 26 21 27 82 28 22 29 81 30 23 31 24 32 25 33 75 34 26 35
REMARK SMILES IDX 80 36 74 37 76 38 27 39 79 40 73 41 72 42 28 44 60 45 40 46
REMARK SMILES IDX 59 47 41 48 44 49 58 50 77 51 42 52 43 53 57 55 78 56 45 57
REMARK SMILES IDX 29 58 30 59 38 60 31 61 33 62 39 63 32 64 34 65 35 66 36 67
REMARK SMILES IDX 37 68 61 69 62 70 70 71 63 72 65 73 71 74 64 75 66 76 67 77
REMARK SMILES IDX 68 78 69 79 46 80 47 81 55 82 48 83 50 84 56 85 49 86 51 87
REMARK SMILES IDX 52 88 53 89 54 90
REMARK H PARENT 13 6 17 24 76 43 44 54
REMARK Flexibility Score: inf
ROOT
ATOM      1  C   UNL A   1      36.129  21.083  25.410  1.00  0.00     0.042 C 
ENDROOT
BRANCH   1   2
ATOM      2  C   UNL A   1      35.352  22.365  25.691  1.00  0.00     0.117 C 
BRANCH   2   3
ATOM      3  N   UNL A   1      34.580  22.299  26.923  1.00  0.00    -0.356 N 
ATOM      4  C   UNL A   1      33.317  22.694  27.226  1.00  0.00     0.225 C 
ATOM      5  O   UNL A   1      32.904  22.439  28.362  1.00  0.00    -0.275 OA
ATOM      6  H   UNL A   1      35.064  21.893  27.677  1.00  0.00     0.163 HD
BRANCH   4   7
ATOM      7  C   UNL A   1      32.404  23.389  26.239  1.00  0.00     0.107 C 
ATOM      8  N   UNL A   1      31.556  25.579  26.029  1.00  0.00    -0.312 N 
ATOM      9  C   UNL A   1      32.790  24.835  25.986  1.00  0.00     0.139 C 
ATOM     10  C   UNL A   1      30.468  24.795  26.409  1.00  0.00     0.227 C 
ATOM     11  C   UNL A   1      30.932  23.381  26.617  1.00  0.00     0.116 C 
ATOM     12  O   UNL A   1      29.301  25.137  26.523  1.00  0.00    -0.274 OA
BRANCH   8  13
ATOM     13  C   UNL A   1      31.491  26.968  25.772  1.00  0.00     0.045 A 
ATOM     14  C   UNL A   1      30.978  28.822  24.255  1.00  0.00     0.009 A 
ATOM     15  C   UNL A   1      31.414  29.722  25.229  1.00  0.00     0.015 A 
ATOM     16  C   UNL A   1      31.051  27.447  24.530  1.00  0.00     0.041 A 
ATOM     17  C   UNL A   1      31.863  29.260  26.468  1.00  0.00     0.003 A 
ATOM     18  C   UNL A   1      31.874  27.892  26.749  1.00  0.00     0.026 A 
BRANCH  14  19
ATOM     19  S   UNL A   1      30.336  29.294  22.652  1.00  0.00    -0.130 SA
ATOM     20  C   UNL A   1      28.577  29.577  22.969  1.00  0.00     0.091 C 
ENDBRANCH  14  19
ENDBRANCH   8  13
ENDBRANCH   4   7
ENDBRANCH   2   3
ENDBRANCH   1   2
BRANCH   1  21
ATOM     21  C   UNL A   1      37.560  21.295  24.928  1.00  0.00     0.118 C 
BRANCH  21  22
ATOM     22  N   UNL A   1      38.491  20.301  25.446  1.00  0.00    -0.352 N 
ATOM     23  C   UNL A   1      39.669  20.458  26.139  1.00  0.00     0.251 C 
ATOM     24  H   UNL A   1      38.237  19.366  25.271  1.00  0.00     0.163 HD
ATOM     25  O   UNL A   1      40.388  19.481  26.331  1.00  0.00    -0.269 OA
BRANCH  23  26
ATOM     26  C   UNL A   1      40.086  21.790  26.631  1.00  0.00     0.039 A 
ATOM     27  C   UNL A   1      41.066  21.864  27.625  1.00  0.00     0.014 A 
ATOM     28  C   UNL A   1      39.514  22.961  26.129  1.00  0.00     0.014 A 
ATOM     29  C   UNL A   1      41.536  23.112  28.046  1.00  0.00     0.010 A 
ATOM     30  C   UNL A   1      40.038  24.201  26.491  1.00  0.00     0.010 A 
ATOM     31  C   UNL A   1      41.063  24.290  27.445  1.00  0.00    -0.014 A 
BRANCH  31  32
ATOM     32  C   UNL A   1      41.668  25.612  27.755  1.00  0.00     0.031 A 
ATOM     33  C   UNL A   1      40.879  26.675  28.467  1.00  0.00     0.074 A 
ATOM     34  C   UNL A   1      42.908  25.890  27.299  1.00  0.00     0.049 A 
ATOM     35  N   UNL A   1      41.222  27.904  28.754  1.00  0.00    -0.248 NA
ATOM     36  C   UNL A   1      39.516  26.320  28.896  1.00  0.00     0.031 C 
ATOM     37  C   UNL A   1      43.749  24.972  26.527  1.00  0.00     0.029 A 
ATOM     38  N   UNL A   1      43.663  27.033  27.390  1.00  0.00    -0.354 N 
ATOM     39  C   UNL A   1      40.114  28.480  29.363  1.00  0.00     0.074 A 
ATOM     40  C   UNL A   1      39.075  27.473  29.380  1.00  0.00     0.031 C 
ATOM     41  C   UNL A   1      44.902  25.585  26.218  1.00  0.00     0.029 A 
ATOM     42  C   UNL A   1      44.868  26.951  26.731  1.00  0.00     0.049 A 
ATOM     43  H   UNL A   1      43.370  27.835  27.879  1.00  0.00     0.167 HD
ATOM     44  C   UNL A   1      39.980  29.725  29.882  1.00  0.00     0.034 A 
ATOM     45  C   UNL A   1      45.832  27.874  26.541  1.00  0.00     0.034 A 
ATOM     46  C   UNL A   1      41.025  30.714  29.888  1.00  0.00     0.049 A 
ATOM     47  C   UNL A   1      45.661  29.244  27.136  1.00  0.00     0.074 A 
ATOM     48  C   UNL A   1      41.015  31.970  30.470  1.00  0.00     0.029 A 
ATOM     49  N   UNL A   1      42.257  30.572  29.269  1.00  0.00    -0.354 N 
ATOM     50  N   UNL A   1      44.669  29.715  27.853  1.00  0.00    -0.248 NA
ATOM     51  C   UNL A   1      46.754  30.203  26.922  1.00  0.00     0.031 C 
ATOM     52  C   UNL A   1      42.227  32.601  30.171  1.00  0.00     0.029 A 
ATOM     53  C   UNL A   1      43.007  31.725  29.435  1.00  0.00     0.049 A 
ATOM     54  H   UNL A   1      42.555  29.770  28.783  1.00  0.00     0.167 HD
ATOM     55  C   UNL A   1      45.031  31.012  28.199  1.00  0.00     0.074 A 
ATOM     56  C   UNL A   1      46.345  31.243  27.636  1.00  0.00     0.031 C 
ATOM     57  C   UNL A   1      44.331  31.933  28.907  1.00  0.00     0.034 A 
BRANCH  44  58
ATOM     58  C   UNL A   1      38.666  30.079  30.530  1.00  0.00     0.023 A 
ATOM     59  C   UNL A   1      38.398  29.645  31.845  1.00  0.00     0.012 A 
ATOM     60  C   UNL A   1      37.727  30.893  29.868  1.00  0.00     0.148 A 
ATOM     61  C   UNL A   1      37.203  29.987  32.477  1.00  0.00     0.002 A 
ATOM     62  C   UNL A   1      36.559  31.269  30.522  1.00  0.00     0.091 A 
ATOM     63  F   UNL A   1      37.990  31.282  28.612  1.00  0.00    -0.205 F 
ATOM     64  C   UNL A   1      36.290  30.807  31.820  1.00  0.00     0.022 A 
BRANCH  62  65
ATOM     65  S   UNL A   1      35.355  32.387  29.794  1.00  0.00     0.127 S 
ATOM     66  O   UNL A   1      36.204  33.498  29.369  1.00  0.00    -0.237 OA
ATOM     67  O   UNL A   1      34.812  31.581  28.700  1.00  0.00    -0.237 OA
ATOM     68  O   UNL A   1      34.404  32.698  30.850  1.00  0.00    -0.744 OA
ENDBRANCH  62  65
ENDBRANCH  44  58
BRANCH  45  69
ATOM     69  C   UNL A   1      47.065  27.519  25.785  1.00  0.00     0.023 A 
ATOM     70  C   UNL A   1      48.134  26.893  26.455  1.00  0.00     0.012 A 
ATOM     71  C   UNL A   1      47.178  27.778  24.405  1.00  0.00     0.148 A 
ATOM     72  C   UNL A   1      49.305  26.561  25.773  1.00  0.00     0.002 A 
ATOM     73  C   UNL A   1      48.322  27.392  23.720  1.00  0.00     0.091 A 
ATOM     74  F   UNL A   1      46.153  28.385  23.788  1.00  0.00    -0.205 F 
ATOM     75  C   UNL A   1      49.395  26.800  24.404  1.00  0.00     0.022 A 
BRANCH  73  76
ATOM     76  S   UNL A   1      48.476  27.544  21.937  1.00  0.00     0.127 S 
ATOM     77  O   UNL A   1      47.215  28.191  21.583  1.00  0.00    -0.237 OA
ATOM     78  O   UNL A   1      49.661  28.392  21.809  1.00  0.00    -0.237 OA
ATOM     79  O   UNL A   1      48.651  26.186  21.442  1.00  0.00    -0.744 OA
ENDBRANCH  73  76
ENDBRANCH  45  69
BRANCH  57  80
ATOM     80  C   UNL A   1      44.978  33.273  29.141  1.00  0.00     0.023 A 
ATOM     81  C   UNL A   1      45.853  33.449  30.232  1.00  0.00     0.012 A 
ATOM     82  C   UNL A   1      44.775  34.336  28.239  1.00  0.00     0.148 A 
ATOM     83  C   UNL A   1      46.489  34.672  30.440  1.00  0.00     0.002 A 
ATOM     84  C   UNL A   1      45.453  35.535  28.424  1.00  0.00     0.091 A 
ATOM     85  F   UNL A   1      43.928  34.154  27.216  1.00  0.00    -0.205 F 
ATOM     86  C   UNL A   1      46.300  35.710  29.531  1.00  0.00     0.022 A 
BRANCH  84  87
ATOM     87  S   UNL A   1      45.349  36.895  27.255  1.00  0.00     0.127 S 
ATOM     88  O   UNL A   1      46.269  36.458  26.206  1.00  0.00    -0.237 OA
ATOM     89  O   UNL A   1      43.936  36.870  26.876  1.00  0.00    -0.237 OA
ATOM     90  O   UNL A   1      45.760  38.088  27.984  1.00  0.00    -0.744 OA
ENDBRANCH  84  87
ENDBRANCH  57  80
ENDBRANCH  31  32
ENDBRANCH  23  26
ENDBRANCH  21  22
ENDBRANCH   1  21
TORSDOF 15
ENDMDL
MODEL 2
REMARK VINA RESULT:     -12.5      1.486      1.767
REMARK SMILES CSc1cccc(N2C[C@@H](C(=O)NCCCNC(=O)c3ccc(-c4c5nc(c(-c6cccc(S(=O)(=O)[O-])c6F)c6ccc([nH]6)c(-c6cccc(S(=O)(=O)[O-])c6F)c6nc(c(-c7cccc(S(=O)(=O)[O-])c7F)c7ccc4[nH]7)C=C6)C=C5)cc3)CC2=O)c1
REMARK SMILES IDX 15 1 14 2 13 3 11 4 12 5 10 7 8 8 9 9 84 10 83 11 85 12 7 13
REMARK SMILES IDX 3 14 4 15 86 16 5 17 6 18 2 19 1 20 16 21 17 22 18 23 19 25
REMARK SMILES IDX 20 26 21 27 82 28 22 29 81 30 23 31 24 32 25 33 75 34 26 35
REMARK SMILES IDX 80 36 74 37 76 38 27 39 79 40 73 41 72 42 28 44 60 45 40 46
REMARK SMILES IDX 59 47 41 48 44 49 58 50 77 51 42 52 43 53 57 55 78 56 45 57
REMARK SMILES IDX 29 58 30 59 38 60 31 61 33 62 39 63 32 64 34 65 35 66 36 67
REMARK SMILES IDX 37 68 61 69 62 70 70 71 63 72 65 73 71 74 64 75 66 76 67 77
REMARK SMILES IDX 68 78 69 79 46 80 47 81 55 82 48 83 50 84 56 85 49 86 51 87
REMARK SMILES IDX 52 88 53 89 54 90
REMARK H PARENT 13 6 17 24 76 43 44 54
REMARK Flexibility Score: inf
ROOT
ATOM      1  C   UNL A   1      35.292  21.498  24.553  1.00  0.00     0.042 C 
ENDROOT
BRANCH   1   2
ATOM      2  C   UNL A   1      34.273  20.634  25.287  1.00  0.00     0.117 C 
BRANCH   2   3
ATOM      3  N   UNL A   1      33.983  21.118  26.628  1.00  0.00    -0.356 N 
ATOM      4  C   UNL A   1      33.117  22.057  27.088  1.00  0.00     0.225 C 
ATOM      5  O   UNL A   1      33.043  22.204  28.312  1.00  0.00    -0.275 OA
ATOM      6  H   UNL A   1      34.514  20.685  27.334  1.00  0.00     0.163 HD
BRANCH   4   7
ATOM      7  C   UNL A   1      32.233  22.888  26.182  1.00  0.00     0.107 C 
ATOM      8  N   UNL A   1      31.600  25.157  26.118  1.00  0.00    -0.312 N 
ATOM      9  C   UNL A   1      32.750  24.300  25.978  1.00  0.00     0.139 C 
ATOM     10  C   UNL A   1      30.457  24.465  26.515  1.00  0.00     0.227 C 
ATOM     11  C   UNL A   1      30.787  23.003  26.632  1.00  0.00     0.116 C 
ATOM     12  O   UNL A   1      29.336  24.912  26.704  1.00  0.00    -0.274 OA
BRANCH   8  13
ATOM     13  C   UNL A   1      31.661  26.558  25.931  1.00  0.00     0.045 A 
ATOM     14  C   UNL A   1      31.249  28.531  24.538  1.00  0.00     0.009 A 
ATOM     15  C   UNL A   1      31.834  29.331  25.521  1.00  0.00     0.015 A 
ATOM     16  C   UNL A   1      31.198  27.142  24.743  1.00  0.00     0.041 A 
ATOM     17  C   UNL A   1      32.309  28.762  26.705  1.00  0.00     0.003 A 
ATOM     18  C   UNL A   1      32.196  27.387  26.921  1.00  0.00     0.026 A 
BRANCH  14  19
ATOM     19  S   UNL A   1      30.563  29.148  23.004  1.00  0.00    -0.130 SA
ATOM     20  C   UNL A   1      28.880  28.481  22.997  1.00  0.00     0.091 C 
ENDBRANCH  14  19
ENDBRANCH   8  13
ENDBRANCH   4   7
ENDBRANCH   2   3
ENDBRANCH   1   2
BRANCH   1  21
ATOM     21  C   UNL A   1      36.485  21.937  25.398  1.00  0.00     0.118 C 
BRANCH  21  22
ATOM     22  N   UNL A   1      37.511  20.910  25.515  1.00  0.00    -0.352 N 
ATOM     23  C   UNL A   1      38.827  21.005  25.905  1.00  0.00     0.251 C 
ATOM     24  H   UNL A   1      37.216  20.001  25.277  1.00  0.00     0.163 HD
ATOM     25  O   UNL A   1      39.566  20.034  25.766  1.00  0.00    -0.269 OA
BRANCH  23  26
ATOM     26  C   UNL A   1      39.362  22.267  26.462  1.00  0.00     0.039 A 
ATOM     27  C   UNL A   1      40.413  22.205  27.381  1.00  0.00     0.014 A 
ATOM     28  C   UNL A   1      38.832  23.506  26.094  1.00  0.00     0.014 A 
ATOM     29  C   UNL A   1      40.991  23.387  27.858  1.00  0.00     0.010 A 
ATOM     30  C   UNL A   1      39.459  24.680  26.507  1.00  0.00     0.010 A 
ATOM     31  C   UNL A   1      40.553  24.634  27.385  1.00  0.00    -0.014 A 
BRANCH  31  32
ATOM     32  C   UNL A   1      41.262  25.890  27.746  1.00  0.00     0.031 A 
ATOM     33  C   UNL A   1      40.547  27.000  28.466  1.00  0.00     0.074 A 
ATOM     34  C   UNL A   1      42.533  26.069  27.330  1.00  0.00     0.049 A 
ATOM     35  N   UNL A   1      40.988  28.187  28.795  1.00  0.00    -0.248 NA
ATOM     36  C   UNL A   1      39.147  26.756  28.849  1.00  0.00     0.031 C 
ATOM     37  C   UNL A   1      43.313  25.100  26.556  1.00  0.00     0.029 A 
ATOM     38  N   UNL A   1      43.381  27.139  27.472  1.00  0.00    -0.354 N 
ATOM     39  C   UNL A   1      39.917  28.843  29.390  1.00  0.00     0.074 A 
ATOM     40  C   UNL A   1      38.794  27.930  29.352  1.00  0.00     0.031 C 
ATOM     41  C   UNL A   1      44.523  25.618  26.294  1.00  0.00     0.029 A 
ATOM     42  C   UNL A   1      44.593  26.968  26.843  1.00  0.00     0.049 A 
ATOM     43  H   UNL A   1      43.146  27.951  27.975  1.00  0.00     0.167 HD
ATOM     44  C   UNL A   1      39.877  30.081  29.939  1.00  0.00     0.034 A 
ATOM     45  C   UNL A   1      45.638  27.807  26.703  1.00  0.00     0.034 A 
ATOM     46  C   UNL A   1      41.003  30.974  29.999  1.00  0.00     0.049 A 
ATOM     47  C   UNL A   1      45.570  29.172  27.331  1.00  0.00     0.074 A 
ATOM     48  C   UNL A   1      41.086  32.211  30.615  1.00  0.00     0.029 A 
ATOM     49  N   UNL A   1      42.236  30.740  29.409  1.00  0.00    -0.354 N 
ATOM     50  N   UNL A   1      44.603  29.710  28.034  1.00  0.00    -0.248 NA
ATOM     51  C   UNL A   1      46.748  30.037  27.171  1.00  0.00     0.031 C 
ATOM     52  C   UNL A   1      42.356  32.741  30.365  1.00  0.00     0.029 A 
ATOM     53  C   UNL A   1      43.079  31.818  29.626  1.00  0.00     0.049 A 
ATOM     54  H   UNL A   1      42.477  29.927  28.909  1.00  0.00     0.167 HD
ATOM     55  C   UNL A   1      45.067  30.961  28.424  1.00  0.00     0.074 A 
ATOM     56  C   UNL A   1      46.412  31.090  27.902  1.00  0.00     0.031 C 
ATOM     57  C   UNL A   1      44.430  31.922  29.139  1.00  0.00     0.034 A 
BRANCH  44  58
ATOM     58  C   UNL A   1      38.581  30.532  30.562  1.00  0.00     0.023 A 
ATOM     59  C   UNL A   1      38.308  30.218  31.910  1.00  0.00     0.012 A 
ATOM     60  C   UNL A   1      37.666  31.322  29.839  1.00  0.00     0.148 A 
ATOM     61  C   UNL A   1      37.131  30.652  32.517  1.00  0.00     0.002 A 
ATOM     62  C   UNL A   1      36.516  31.791  30.466  1.00  0.00     0.091 A 
ATOM     63  F   UNL A   1      37.932  31.597  28.555  1.00  0.00    -0.205 F 
ATOM     64  C   UNL A   1      36.241  31.447  31.799  1.00  0.00     0.022 A 
BRANCH  62  65
ATOM     65  S   UNL A   1      35.346  32.886  29.654  1.00  0.00     0.127 S 
ATOM     66  O   UNL A   1      34.837  32.032  28.582  1.00  0.00    -0.237 OA
ATOM     67  O   UNL A   1      34.387  33.156  30.725  1.00  0.00    -0.237 OA
ATOM     68  O   UNL A   1      36.113  34.044  29.218  1.00  0.00    -0.744 OA
ENDBRANCH  62  65
ENDBRANCH  44  58
BRANCH  45  69
ATOM     69  C   UNL A   1      46.858  27.365  25.970  1.00  0.00     0.023 A 
ATOM     70  C   UNL A   1      46.965  27.612  24.588  1.00  0.00     0.012 A 
ATOM     71  C   UNL A   1      47.919  26.721  26.637  1.00  0.00     0.148 A 
ATOM     72  C   UNL A   1      48.091  27.198  23.876  1.00  0.00     0.002 A 
ATOM     73  C   UNL A   1      49.061  26.363  25.934  1.00  0.00     0.091 A 
ATOM     74  F   UNL A   1      47.791  26.485  27.951  1.00  0.00    -0.205 F 
ATOM     75  C   UNL A   1      49.144  26.584  24.551  1.00  0.00     0.022 A 
BRANCH  73  76
ATOM     76  S   UNL A   1      50.515  25.684  26.740  1.00  0.00     0.127 S 
ATOM     77  O   UNL A   1      49.963  24.513  27.417  1.00  0.00    -0.237 OA
ATOM     78  O   UNL A   1      51.379  25.386  25.598  1.00  0.00    -0.237 OA
ATOM     79  O   UNL A   1      51.011  26.742  27.610  1.00  0.00    -0.744 OA
ENDBRANCH  73  76
ENDBRANCH  45  69
BRANCH  57  80
ATOM     80  C   UNL A   1      45.184  33.195  29.426  1.00  0.00     0.023 A 
ATOM     81  C   UNL A   1      46.005  33.281  30.568  1.00  0.00     0.012 A 
ATOM     82  C   UNL A   1      45.135  34.277  28.526  1.00  0.00     0.148 A 
ATOM     83  C   UNL A   1      46.738  34.438  30.828  1.00  0.00     0.002 A 
ATOM     84  C   UNL A   1      45.910  35.407  28.764  1.00  0.00     0.091 A 
ATOM     85  F   UNL A   1      44.338  34.182  27.453  1.00  0.00    -0.205 F 
ATOM     86  C   UNL A   1      46.702  35.494  29.921  1.00  0.00     0.022 A 
BRANCH  84  87
ATOM     87  S   UNL A   1      46.003  36.777  27.607  1.00  0.00     0.127 S 
ATOM     88  O   UNL A   1      46.891  37.701  28.310  1.00  0.00    -0.237 OA
ATOM     89  O   UNL A   1      46.592  36.146  26.426  1.00  0.00    -0.237 OA
ATOM     90  O   UNL A   1      44.636  37.247  27.425  1.00  0.00    -0.744 OA
ENDBRANCH  84  87
ENDBRANCH  57  80
ENDBRANCH  31  32
ENDBRANCH  23  26
ENDBRANCH  21  22
ENDBRANCH   1  21
TORSDOF 15
ENDMDL
MODEL 3
REMARK VINA RESULT:     -12.4      5.489      8.247
REMARK SMILES CSc1cccc(N2C[C@@H](C(=O)NCCCNC(=O)c3ccc(-c4c5nc(c(-c6cccc(S(=O)(=O)[O-])c6F)c6ccc([nH]6)c(-c6cccc(S(=O)(=O)[O-])c6F)c6nc(c(-c7cccc(S(=O)(=O)[O-])c7F)c7ccc4[nH]7)C=C6)C=C5)cc3)CC2=O)c1
REMARK SMILES IDX 15 1 14 2 13 3 11 4 12 5 10 7 8 8 9 9 84 10 83 11 85 12 7 13
REMARK SMILES IDX 3 14 4 15 86 16 5 17 6 18 2 19 1 20 16 21 17 22 18 23 19 25
REMARK SMILES IDX 20 26 21 27 82 28 22 29 81 30 23 31 24 32 25 33 75 34 26 35
REMARK SMILES IDX 80 36 74 37 76 38 27 39 79 40 73 41 72 42 28 44 60 45 40 46
REMARK SMILES IDX 59 47 41 48 44 49 58 50 77 51 42 52 43 53 57 55 78 56 45 57
REMARK SMILES IDX 29 58 30 59 38 60 31 61 33 62 39 63 32 64 34 65 35 66 36 67
REMARK SMILES IDX 37 68 61 69 62 70 70 71 63 72 65 73 71 74 64 75 66 76 67 77
REMARK SMILES IDX 68 78 69 79 46 80 47 81 55 82 48 83 50 84 56 85 49 86 51 87
REMARK SMILES IDX 52 88 53 89 54 90
REMARK H PARENT 13 6 17 24 76 43 44 54
REMARK Flexibility Score: inf
ROOT
ATOM      1  C   UNL A   1      31.495  29.015  25.198  1.00  0.00     0.042 C 
ENDROOT
BRANCH   1   2
ATOM      2  C   UNL A   1      31.307  29.313  23.715  1.00  0.00     0.117 C 
BRANCH   2   3
ATOM      3  N   UNL A   1      32.529  29.137  22.944  1.00  0.00    -0.356 N 
ATOM      4  C   UNL A   1      33.148  28.029  22.461  1.00  0.00     0.225 C 
ATOM      5  O   UNL A   1      34.156  28.203  21.770  1.00  0.00    -0.275 OA
ATOM      6  H   UNL A   1      32.995  29.978  22.734  1.00  0.00     0.163 HD
BRANCH   4   7
ATOM      7  C   UNL A   1      32.642  26.622  22.703  1.00  0.00     0.107 C 
ATOM      8  N   UNL A   1      33.663  24.568  23.241  1.00  0.00    -0.312 N 
ATOM      9  C   UNL A   1      33.423  25.885  23.775  1.00  0.00     0.139 C 
ATOM     10  C   UNL A   1      33.245  24.438  21.918  1.00  0.00     0.227 C 
ATOM     11  C   UNL A   1      32.623  25.732  21.472  1.00  0.00     0.116 C 
ATOM     12  O   UNL A   1      33.305  23.447  21.205  1.00  0.00    -0.274 OA
BRANCH   8  13
ATOM     13  C   UNL A   1      34.315  23.551  23.976  1.00  0.00     0.045 A 
ATOM     14  C   UNL A   1      34.258  21.362  25.076  1.00  0.00     0.009 A 
ATOM     15  C   UNL A   1      35.577  21.551  25.491  1.00  0.00     0.015 A 
ATOM     16  C   UNL A   1      33.630  22.384  24.346  1.00  0.00     0.041 A 
ATOM     17  C   UNL A   1      36.270  22.711  25.138  1.00  0.00     0.003 A 
ATOM     18  C   UNL A   1      35.651  23.693  24.361  1.00  0.00     0.026 A 
BRANCH  14  19
ATOM     19  S   UNL A   1      33.285  19.900  25.423  1.00  0.00    -0.130 SA
ATOM     20  C   UNL A   1      32.531  19.506  23.824  1.00  0.00     0.091 C 
ENDBRANCH  14  19
ENDBRANCH   8  13
ENDBRANCH   4   7
ENDBRANCH   2   3
ENDBRANCH   1   2
BRANCH   1  21
ATOM     21  C   UNL A   1      32.764  29.598  25.812  1.00  0.00     0.118 C 
BRANCH  21  22
ATOM     22  N   UNL A   1      32.587  30.955  26.311  1.00  0.00    -0.352 N 
ATOM     23  C   UNL A   1      33.319  31.669  27.231  1.00  0.00     0.251 C 
ATOM     24  H   UNL A   1      31.820  31.439  25.928  1.00  0.00     0.163 HD
ATOM     25  O   UNL A   1      32.890  32.747  27.634  1.00  0.00    -0.269 OA
BRANCH  23  26
ATOM     26  C   UNL A   1      34.599  31.142  27.754  1.00  0.00     0.039 A 
ATOM     27  C   UNL A   1      35.644  32.036  28.002  1.00  0.00     0.014 A 
ATOM     28  C   UNL A   1      34.779  29.777  27.992  1.00  0.00     0.014 A 
ATOM     29  C   UNL A   1      36.834  31.573  28.574  1.00  0.00     0.010 A 
ATOM     30  C   UNL A   1      35.933  29.331  28.634  1.00  0.00     0.010 A 
ATOM     31  C   UNL A   1      36.969  30.225  28.943  1.00  0.00    -0.014 A 
BRANCH  31  32
ATOM     32  C   UNL A   1      38.152  29.747  29.705  1.00  0.00     0.031 A 
ATOM     33  C   UNL A   1      38.465  30.294  31.071  1.00  0.00     0.074 A 
ATOM     34  C   UNL A   1      39.008  28.886  29.116  1.00  0.00     0.049 A 
ATOM     35  N   UNL A   1      39.490  30.045  31.844  1.00  0.00    -0.248 NA
ATOM     36  C   UNL A   1      37.513  31.265  31.634  1.00  0.00     0.031 C 
ATOM     37  C   UNL A   1      38.861  28.341  27.764  1.00  0.00     0.029 A 
ATOM     38  N   UNL A   1      40.187  28.344  29.564  1.00  0.00    -0.354 N 
ATOM     39  C   UNL A   1      39.328  30.847  32.966  1.00  0.00     0.074 A 
ATOM     40  C   UNL A   1      38.119  31.616  32.761  1.00  0.00     0.031 C 
ATOM     41  C   UNL A   1      39.905  27.541  27.495  1.00  0.00     0.029 A 
ATOM     42  C   UNL A   1      40.817  27.549  28.634  1.00  0.00     0.049 A 
ATOM     43  H   UNL A   1      40.548  28.508  30.465  1.00  0.00     0.167 HD
ATOM     44  C   UNL A   1      40.101  30.923  34.076  1.00  0.00     0.034 A 
ATOM     45  C   UNL A   1      42.003  26.911  28.680  1.00  0.00     0.034 A 
ATOM     46  C   UNL A   1      41.288  30.138  34.288  1.00  0.00     0.049 A 
ATOM     47  C   UNL A   1      42.836  27.005  29.928  1.00  0.00     0.074 A 
ATOM     48  C   UNL A   1      42.088  30.077  35.417  1.00  0.00     0.029 A 
ATOM     49  N   UNL A   1      41.860  29.292  33.350  1.00  0.00    -0.354 N 
ATOM     50  N   UNL A   1      42.582  27.642  31.045  1.00  0.00    -0.248 NA
ATOM     51  C   UNL A   1      44.109  26.268  29.935  1.00  0.00     0.031 C 
ATOM     52  C   UNL A   1      43.163  29.224  35.147  1.00  0.00     0.029 A 
ATOM     53  C   UNL A   1      43.014  28.723  33.864  1.00  0.00     0.049 A 
ATOM     54  H   UNL A   1      41.499  29.122  32.450  1.00  0.00     0.167 HD
ATOM     55  C   UNL A   1      43.645  27.360  31.896  1.00  0.00     0.074 A 
ATOM     56  C   UNL A   1      44.533  26.473  31.174  1.00  0.00     0.031 C 
ATOM     57  C   UNL A   1      43.871  27.808  33.155  1.00  0.00     0.034 A 
BRANCH  44  58
ATOM     58  C   UNL A   1      39.666  31.860  35.174  1.00  0.00     0.023 A 
ATOM     59  C   UNL A   1      39.993  33.230  35.092  1.00  0.00     0.012 A 
ATOM     60  C   UNL A   1      38.879  31.402  36.249  1.00  0.00     0.148 A 
ATOM     61  C   UNL A   1      39.574  34.121  36.079  1.00  0.00     0.002 A 
ATOM     62  C   UNL A   1      38.426  32.305  37.204  1.00  0.00     0.091 A 
ATOM     63  F   UNL A   1      38.593  30.094  36.320  1.00  0.00    -0.205 F 
ATOM     64  C   UNL A   1      38.782  33.661  37.127  1.00  0.00     0.022 A 
BRANCH  62  65
ATOM     65  S   UNL A   1      37.336  31.829  38.550  1.00  0.00     0.127 S 
ATOM     66  O   UNL A   1      38.165  32.120  39.718  1.00  0.00    -0.237 OA
ATOM     67  O   UNL A   1      36.205  32.738  38.364  1.00  0.00    -0.237 OA
ATOM     68  O   UNL A   1      37.026  30.422  38.340  1.00  0.00    -0.744 OA
ENDBRANCH  62  65
ENDBRANCH  44  58
BRANCH  45  69
ATOM     69  C   UNL A   1      42.456  26.093  27.520  1.00  0.00     0.023 A 
ATOM     70  C   UNL A   1      43.293  26.672  26.546  1.00  0.00     0.012 A 
ATOM     71  C   UNL A   1      42.081  24.742  27.387  1.00  0.00     0.148 A 
ATOM     72  C   UNL A   1      43.721  25.931  25.445  1.00  0.00     0.002 A 
ATOM     73  C   UNL A   1      42.558  23.994  26.320  1.00  0.00     0.091 A 
ATOM     74  F   UNL A   1      41.275  24.213  28.320  1.00  0.00    -0.205 F 
ATOM     75  C   UNL A   1      43.363  24.589  25.337  1.00  0.00     0.022 A 
BRANCH  73  76
ATOM     76  S   UNL A   1      42.255  22.230  26.167  1.00  0.00     0.127 S 
ATOM     77  O   UNL A   1      42.744  21.730  27.449  1.00  0.00    -0.237 OA
ATOM     78  O   UNL A   1      40.802  22.189  26.003  1.00  0.00    -0.237 OA
ATOM     79  O   UNL A   1      43.005  21.803  24.994  1.00  0.00    -0.744 OA
ENDBRANCH  73  76
ENDBRANCH  45  69
BRANCH  57  80
ATOM     80  C   UNL A   1      45.117  27.328  33.855  1.00  0.00     0.023 A 
ATOM     81  C   UNL A   1      46.298  28.094  33.786  1.00  0.00     0.012 A 
ATOM     82  C   UNL A   1      45.095  26.157  34.638  1.00  0.00     0.148 A 
ATOM     83  C   UNL A   1      47.448  27.683  34.459  1.00  0.00     0.002 A 
ATOM     84  C   UNL A   1      46.230  25.783  35.348  1.00  0.00     0.091 A 
ATOM     85  F   UNL A   1      43.967  25.435  34.678  1.00  0.00    -0.205 F 
ATOM     86  C   UNL A   1      47.411  26.537  35.249  1.00  0.00     0.022 A 
BRANCH  84  87
ATOM     87  S   UNL A   1      46.251  24.378  36.466  1.00  0.00     0.127 S 
ATOM     88  O   UNL A   1      46.025  23.262  35.548  1.00  0.00    -0.237 OA
ATOM     89  O   UNL A   1      47.602  24.445  37.023  1.00  0.00    -0.237 OA
ATOM     90  O   UNL A   1      45.184  24.612  37.431  1.00  0.00    -0.744 OA
ENDBRANCH  84  87
ENDBRANCH  57  80
ENDBRANCH  31  32
ENDBRANCH  23  26
ENDBRANCH  21  22
ENDBRANCH   1  21
TORSDOF 15
ENDMDL
