MODEL 1
REMARK VINA RESULT:     -10.8      0.000      0.000
REMARK SMILES O=C(NCCCNC(=O)[C@@H]1CCCC[C@H]1C(=O)N[C@@H]1CONC1=O)c1ccc(-c2c3nc(c(-c4cccc(S(=O)(=O)[O-])c4F)c4ccc([nH]4)c(-c4cccc(S(=O)(=O)[O-])c4F)c4nc(c(-c5cccc(S(=O)(=O)[O-])c5F)c5ccc2[nH]5)C=C4)C=C3)cc1
REMARK SMILES IDX 4 1 3 2 1 3 2 4 25 6 26 7 87 8 27 9 86 10 28 11 29 12 30 13
REMARK SMILES IDX 80 14 31 15 85 16 79 17 81 18 32 19 84 20 78 21 77 22 33 24
REMARK SMILES IDX 65 25 45 26 64 27 46 28 49 29 63 30 82 31 47 32 48 33 62 35
REMARK SMILES IDX 83 36 50 37 34 38 35 39 43 40 36 41 38 42 44 43 37 44 39 45
REMARK SMILES IDX 40 46 41 47 42 48 66 49 67 50 75 51 68 52 70 53 76 54 69 55
REMARK SMILES IDX 71 56 72 57 73 58 74 59 51 60 52 61 60 62 53 63 55 64 61 65
REMARK SMILES IDX 54 66 56 67 57 68 58 69 59 70 5 71 6 72 7 73 8 74 9 76 10 77
REMARK SMILES IDX 11 78 15 79 12 80 14 81 13 82 16 83 17 84 18 85 19 87 20 88
REMARK SMILES IDX 23 89 21 90 22 91 24 92
REMARK H PARENT 3 5 81 23 49 34 7 75 18 86 22 93
REMARK Flexibility Score: inf
ROOT
ATOM      1  C   UNL A   1      34.245  32.509  28.869  1.00  0.00     0.118 C 
ENDROOT
BRANCH   1   2
ATOM      2  N   UNL A   1      33.741  31.446  28.001  1.00  0.00    -0.352 N 
ATOM      3  O   UNL A   1      33.858  29.761  26.521  1.00  0.00    -0.269 OA
ATOM      4  C   UNL A   1      34.393  30.377  27.438  1.00  0.00     0.251 C 
ATOM      5  H   UNL A   1      32.782  31.505  27.787  1.00  0.00     0.163 HD
BRANCH   4   6
ATOM      6  C   UNL A   1      35.723  29.976  27.937  1.00  0.00     0.039 A 
ATOM      7  C   UNL A   1      36.864  30.232  27.175  1.00  0.00     0.014 A 
ATOM      8  C   UNL A   1      35.838  29.374  29.193  1.00  0.00     0.014 A 
ATOM      9  C   UNL A   1      38.092  29.738  27.583  1.00  0.00     0.010 A 
ATOM     10  C   UNL A   1      37.096  28.987  29.659  1.00  0.00     0.010 A 
ATOM     11  C   UNL A   1      38.228  29.140  28.843  1.00  0.00    -0.014 A 
BRANCH  11  12
ATOM     12  C   UNL A   1      39.584  28.764  29.311  1.00  0.00     0.031 A 
ATOM     13  C   UNL A   1      40.244  29.490  30.446  1.00  0.00     0.074 A 
ATOM     14  C   UNL A   1      40.207  27.741  28.693  1.00  0.00     0.049 A 
ATOM     15  N   UNL A   1      41.411  29.267  30.990  1.00  0.00    -0.248 NA
ATOM     16  C   UNL A   1      39.510  30.617  31.041  1.00  0.00     0.031 C 
ATOM     17  C   UNL A   1      39.666  26.991  27.554  1.00  0.00     0.029 A 
ATOM     18  N   UNL A   1      41.417  27.148  28.932  1.00  0.00    -0.354 N 
ATOM     19  C   UNL A   1      41.577  30.254  31.955  1.00  0.00     0.074 A 
ATOM     20  C   UNL A   1      40.390  31.080  31.917  1.00  0.00     0.031 C 
ATOM     21  C   UNL A   1      40.517  26.012  27.226  1.00  0.00     0.029 A 
ATOM     22  C   UNL A   1      41.694  26.107  28.077  1.00  0.00     0.049 A 
ATOM     23  H   UNL A   1      42.030  27.438  29.647  1.00  0.00     0.167 HD
ATOM     24  C   UNL A   1      42.621  30.444  32.796  1.00  0.00     0.034 A 
ATOM     25  C   UNL A   1      42.784  25.325  27.978  1.00  0.00     0.034 A 
ATOM     26  C   UNL A   1      43.782  29.593  32.838  1.00  0.00     0.049 A 
ATOM     27  C   UNL A   1      43.916  25.549  28.934  1.00  0.00     0.074 A 
ATOM     28  C   UNL A   1      44.867  29.657  33.694  1.00  0.00     0.029 A 
ATOM     29  N   UNL A   1      44.017  28.531  31.976  1.00  0.00    -0.354 N 
ATOM     30  N   UNL A   1      44.006  26.414  29.914  1.00  0.00    -0.248 NA
ATOM     31  C   UNL A   1      45.086  24.674  28.789  1.00  0.00     0.031 C 
ATOM     32  C   UNL A   1      45.773  28.656  33.327  1.00  0.00     0.029 A 
ATOM     33  C   UNL A   1      45.235  27.941  32.268  1.00  0.00     0.049 A 
ATOM     34  H   UNL A   1      43.407  28.240  31.260  1.00  0.00     0.167 HD
ATOM     35  C   UNL A   1      45.228  26.169  30.526  1.00  0.00     0.074 A 
ATOM     36  C   UNL A   1      45.833  25.060  29.814  1.00  0.00     0.031 C 
ATOM     37  C   UNL A   1      45.802  26.810  31.574  1.00  0.00     0.034 A 
BRANCH  24  38
ATOM     38  C   UNL A   1      42.551  31.615  33.746  1.00  0.00     0.023 A 
ATOM     39  C   UNL A   1      42.870  32.912  33.292  1.00  0.00     0.012 A 
ATOM     40  C   UNL A   1      42.136  31.436  35.080  1.00  0.00     0.148 A 
ATOM     41  C   UNL A   1      42.823  34.002  34.161  1.00  0.00     0.002 A 
ATOM     42  C   UNL A   1      42.043  32.535  35.928  1.00  0.00     0.091 A 
ATOM     43  F   UNL A   1      41.855  30.195  35.503  1.00  0.00    -0.205 F 
ATOM     44  C   UNL A   1      42.401  33.815  35.475  1.00  0.00     0.022 A 
BRANCH  42  45
ATOM     45  S   UNL A   1      41.431  32.406  37.612  1.00  0.00     0.127 S 
ATOM     46  O   UNL A   1      40.020  32.090  37.391  1.00  0.00    -0.237 OA
ATOM     47  O   UNL A   1      42.226  31.300  38.146  1.00  0.00    -0.237 OA
ATOM     48  O   UNL A   1      41.697  33.697  38.233  1.00  0.00    -0.744 OA
ENDBRANCH  42  45
ENDBRANCH  24  38
BRANCH  25  49
ATOM     49  C   UNL A   1      42.817  24.234  26.964  1.00  0.00     0.023 A 
ATOM     50  C   UNL A   1      43.590  24.396  25.799  1.00  0.00     0.012 A 
ATOM     51  C   UNL A   1      42.144  23.015  27.180  1.00  0.00     0.148 A 
ATOM     52  C   UNL A   1      43.676  23.372  24.856  1.00  0.00     0.002 A 
ATOM     53  C   UNL A   1      42.281  21.978  26.265  1.00  0.00     0.091 A 
ATOM     54  F   UNL A   1      41.409  22.884  28.293  1.00  0.00    -0.205 F 
ATOM     55  C   UNL A   1      43.033  22.160  25.095  1.00  0.00     0.022 A 
BRANCH  53  56
ATOM     56  S   UNL A   1      41.605  20.340  26.554  1.00  0.00     0.127 S 
ATOM     57  O   UNL A   1      40.169  20.607  26.566  1.00  0.00    -0.237 OA
ATOM     58  O   UNL A   1      42.088  19.606  25.384  1.00  0.00    -0.237 OA
ATOM     59  O   UNL A   1      42.173  19.896  27.820  1.00  0.00    -0.744 OA
ENDBRANCH  53  56
ENDBRANCH  25  49
BRANCH  37  60
ATOM     60  C   UNL A   1      47.135  26.297  32.048  1.00  0.00     0.023 A 
ATOM     61  C   UNL A   1      48.326  26.823  31.510  1.00  0.00     0.012 A 
ATOM     62  C   UNL A   1      47.204  25.331  33.071  1.00  0.00     0.148 A 
ATOM     63  C   UNL A   1      49.566  26.369  31.958  1.00  0.00     0.002 A 
ATOM     64  C   UNL A   1      48.442  24.923  33.549  1.00  0.00     0.091 A 
ATOM     65  F   UNL A   1      46.059  24.827  33.553  1.00  0.00    -0.205 F 
ATOM     66  C   UNL A   1      49.624  25.430  32.985  1.00  0.00     0.022 A 
BRANCH  64  67
ATOM     67  S   UNL A   1      48.609  23.795  34.937  1.00  0.00     0.127 S 
ATOM     68  O   UNL A   1      47.724  22.701  34.538  1.00  0.00    -0.237 OA
ATOM     69  O   UNL A   1      50.035  23.469  34.902  1.00  0.00    -0.237 OA
ATOM     70  O   UNL A   1      48.189  24.541  36.115  1.00  0.00    -0.744 OA
ENDBRANCH  64  67
ENDBRANCH  37  60
ENDBRANCH  11  12
ENDBRANCH   4   6
ENDBRANCH   1   2
BRANCH   1  71
ATOM     71  C   UNL A   1      34.895  33.624  28.065  1.00  0.00     0.042 C 
BRANCH  71  72
ATOM     72  C   UNL A   1      35.646  34.608  28.950  1.00  0.00     0.117 C 
BRANCH  72  73
ATOM     73  N   UNL A   1      37.049  34.266  29.074  1.00  0.00    -0.356 N 
ATOM     74  C   UNL A   1      37.897  34.014  30.089  1.00  0.00     0.223 C 
ATOM     75  H   UNL A   1      37.492  34.201  28.198  1.00  0.00     0.163 HD
ATOM     76  O   UNL A   1      39.045  33.722  29.719  1.00  0.00    -0.275 OA
BRANCH  74  77
ATOM     77  C   UNL A   1      37.618  34.124  31.606  1.00  0.00     0.091 C 
ATOM     78  C   UNL A   1      38.968  34.577  32.221  1.00  0.00     0.014 C 
ATOM     79  C   UNL A   1      37.018  32.934  32.362  1.00  0.00     0.091 C 
ATOM     80  C   UNL A   1      39.019  34.588  33.737  1.00  0.00     0.001 C 
ATOM     81  C   UNL A   1      37.318  32.768  33.864  1.00  0.00     0.014 C 
ATOM     82  C   UNL A   1      38.700  33.215  34.288  1.00  0.00     0.001 C 
BRANCH  79  83
ATOM     83  C   UNL A   1      35.503  32.787  32.236  1.00  0.00     0.224 C 
ATOM     84  O   UNL A   1      35.029  31.647  32.164  1.00  0.00    -0.275 OA
ATOM     85  N   UNL A   1      34.601  33.784  32.325  1.00  0.00    -0.342 N 
ATOM     86  H   UNL A   1      33.687  33.418  32.343  1.00  0.00     0.164 HD
BRANCH  85  87
ATOM     87  C   UNL A   1      34.565  35.252  32.402  1.00  0.00     0.202 C 
ATOM     88  C   UNL A   1      34.487  35.952  33.750  1.00  0.00     0.228 C 
ATOM     89  C   UNL A   1      33.227  35.655  31.811  1.00  0.00     0.268 C 
ATOM     90  O   UNL A   1      33.496  36.986  33.676  1.00  0.00    -0.271 OA
ATOM     91  N   UNL A   1      32.691  36.651  32.575  1.00  0.00    -0.233 N 
ATOM     92  O   UNL A   1      32.708  35.160  30.827  1.00  0.00    -0.270 OA
ATOM     93  H   UNL A   1      31.831  37.088  32.375  1.00  0.00     0.199 HD
ENDBRANCH  85  87
ENDBRANCH  79  83
ENDBRANCH  74  77
ENDBRANCH  72  73
ENDBRANCH  71  72
ENDBRANCH   1  71
TORSDOF 15
ENDMDL
MODEL 2
REMARK VINA RESULT:     -10.8      3.859      6.620
REMARK SMILES O=C(NCCCNC(=O)[C@@H]1CCCC[C@H]1C(=O)N[C@@H]1CONC1=O)c1ccc(-c2c3nc(c(-c4cccc(S(=O)(=O)[O-])c4F)c4ccc([nH]4)c(-c4cccc(S(=O)(=O)[O-])c4F)c4nc(c(-c5cccc(S(=O)(=O)[O-])c5F)c5ccc2[nH]5)C=C4)C=C3)cc1
REMARK SMILES IDX 4 1 3 2 1 3 2 4 25 6 26 7 87 8 27 9 86 10 28 11 29 12 30 13
REMARK SMILES IDX 80 14 31 15 85 16 79 17 81 18 32 19 84 20 78 21 77 22 33 24
REMARK SMILES IDX 65 25 45 26 64 27 46 28 49 29 63 30 82 31 47 32 48 33 62 35
REMARK SMILES IDX 83 36 50 37 34 38 35 39 43 40 36 41 38 42 44 43 37 44 39 45
REMARK SMILES IDX 40 46 41 47 42 48 66 49 67 50 75 51 68 52 70 53 76 54 69 55
REMARK SMILES IDX 71 56 72 57 73 58 74 59 51 60 52 61 60 62 53 63 55 64 61 65
REMARK SMILES IDX 54 66 56 67 57 68 58 69 59 70 5 71 6 72 7 73 8 74 9 76 10 77
REMARK SMILES IDX 11 78 15 79 12 80 14 81 13 82 16 83 17 84 18 85 19 87 20 88
REMARK SMILES IDX 23 89 21 90 22 91 24 92
REMARK H PARENT 3 5 81 23 49 34 7 75 18 86 22 93
REMARK Flexibility Score: inf
ROOT
ATOM      1  C   UNL A   1      32.897  29.640  25.948  1.00  0.00     0.118 C 
ENDROOT
BRANCH   1   2
ATOM      2  N   UNL A   1      32.694  31.065  26.198  1.00  0.00    -0.352 N 
ATOM      3  O   UNL A   1      32.763  32.988  27.356  1.00  0.00    -0.269 OA
ATOM      4  C   UNL A   1      33.270  31.894  27.129  1.00  0.00     0.251 C 
ATOM      5  H   UNL A   1      32.042  31.502  25.603  1.00  0.00     0.163 HD
BRANCH   4   6
ATOM      6  C   UNL A   1      34.489  31.468  27.843  1.00  0.00     0.039 A 
ATOM      7  C   UNL A   1      34.596  30.164  28.330  1.00  0.00     0.014 A 
ATOM      8  C   UNL A   1      35.551  32.364  27.996  1.00  0.00     0.014 A 
ATOM      9  C   UNL A   1      35.680  29.806  29.114  1.00  0.00     0.010 A 
ATOM     10  C   UNL A   1      36.700  31.961  28.680  1.00  0.00     0.010 A 
ATOM     11  C   UNL A   1      36.759  30.688  29.270  1.00  0.00    -0.014 A 
BRANCH  11  12
ATOM     12  C   UNL A   1      37.968  30.214  29.984  1.00  0.00     0.031 A 
ATOM     13  C   UNL A   1      38.248  30.626  31.400  1.00  0.00     0.074 A 
ATOM     14  C   UNL A   1      38.811  29.391  29.329  1.00  0.00     0.049 A 
ATOM     15  N   UNL A   1      39.243  30.278  32.172  1.00  0.00    -0.248 NA
ATOM     16  C   UNL A   1      37.296  31.555  32.030  1.00  0.00     0.031 C 
ATOM     17  C   UNL A   1      38.650  28.958  27.937  1.00  0.00     0.029 A 
ATOM     18  N   UNL A   1      39.957  28.765  29.737  1.00  0.00    -0.354 N 
ATOM     19  C   UNL A   1      39.071  30.982  33.358  1.00  0.00     0.074 A 
ATOM     20  C   UNL A   1      37.875  31.782  33.201  1.00  0.00     0.031 C 
ATOM     21  C   UNL A   1      39.630  28.103  27.624  1.00  0.00     0.029 A 
ATOM     22  C   UNL A   1      40.530  27.983  28.762  1.00  0.00     0.049 A 
ATOM     23  H   UNL A   1      40.335  28.864  30.642  1.00  0.00     0.167 HD
ATOM     24  C   UNL A   1      39.838  30.955  34.474  1.00  0.00     0.034 A 
ATOM     25  C   UNL A   1      41.665  27.261  28.776  1.00  0.00     0.034 A 
ATOM     26  C   UNL A   1      41.009  30.131  34.621  1.00  0.00     0.049 A 
ATOM     27  C   UNL A   1      42.484  27.237  30.031  1.00  0.00     0.074 A 
ATOM     28  C   UNL A   1      41.821  29.978  35.731  1.00  0.00     0.029 A 
ATOM     29  N   UNL A   1      41.546  29.330  33.622  1.00  0.00    -0.354 N 
ATOM     30  N   UNL A   1      42.244  27.820  31.180  1.00  0.00    -0.248 NA
ATOM     31  C   UNL A   1      43.715  26.439  30.002  1.00  0.00     0.031 C 
ATOM     32  C   UNL A   1      42.867  29.113  35.392  1.00  0.00     0.029 A 
ATOM     33  C   UNL A   1      42.686  28.693  34.083  1.00  0.00     0.049 A 
ATOM     34  H   UNL A   1      41.171  29.231  32.717  1.00  0.00     0.167 HD
ATOM     35  C   UNL A   1      43.276  27.434  32.025  1.00  0.00     0.074 A 
ATOM     36  C   UNL A   1      44.133  26.552  31.255  1.00  0.00     0.031 C 
ATOM     37  C   UNL A   1      43.501  27.785  33.315  1.00  0.00     0.034 A 
BRANCH  24  38
ATOM     38  C   UNL A   1      39.428  31.839  35.626  1.00  0.00     0.023 A 
ATOM     39  C   UNL A   1      39.877  33.176  35.684  1.00  0.00     0.012 A 
ATOM     40  C   UNL A   1      38.572  31.357  36.635  1.00  0.00     0.148 A 
ATOM     41  C   UNL A   1      39.517  34.001  36.750  1.00  0.00     0.002 A 
ATOM     42  C   UNL A   1      38.178  32.200  37.668  1.00  0.00     0.091 A 
ATOM     43  F   UNL A   1      38.171  30.079  36.578  1.00  0.00    -0.205 F 
ATOM     44  C   UNL A   1      38.661  33.516  37.736  1.00  0.00     0.022 A 
BRANCH  42  45
ATOM     45  S   UNL A   1      37.013  31.693  38.938  1.00  0.00     0.127 S 
ATOM     46  O   UNL A   1      35.955  32.690  38.786  1.00  0.00    -0.237 OA
ATOM     47  O   UNL A   1      36.647  30.345  38.500  1.00  0.00    -0.237 OA
ATOM     48  O   UNL A   1      37.747  31.740  40.196  1.00  0.00    -0.744 OA
ENDBRANCH  42  45
ENDBRANCH  24  38
BRANCH  25  49
ATOM     49  C   UNL A   1      42.049  26.470  27.573  1.00  0.00     0.023 A 
ATOM     50  C   UNL A   1      42.785  27.090  26.546  1.00  0.00     0.012 A 
ATOM     51  C   UNL A   1      41.749  25.097  27.475  1.00  0.00     0.148 A 
ATOM     52  C   UNL A   1      43.199  26.361  25.431  1.00  0.00     0.002 A 
ATOM     53  C   UNL A   1      42.214  24.364  26.390  1.00  0.00     0.091 A 
ATOM     54  F   UNL A   1      41.043  24.529  28.463  1.00  0.00    -0.205 F 
ATOM     55  C   UNL A   1      42.924  24.997  25.359  1.00  0.00     0.022 A 
BRANCH  53  56
ATOM     56  S   UNL A   1      42.030  22.581  26.279  1.00  0.00     0.127 S 
ATOM     57  O   UNL A   1      42.691  22.292  25.010  1.00  0.00    -0.237 OA
ATOM     58  O   UNL A   1      42.753  22.131  27.469  1.00  0.00    -0.237 OA
ATOM     59  O   UNL A   1      40.596  22.329  26.314  1.00  0.00    -0.744 OA
ENDBRANCH  53  56
ENDBRANCH  25  49
BRANCH  37  60
ATOM     60  C   UNL A   1      44.698  27.176  33.995  1.00  0.00     0.023 A 
ATOM     61  C   UNL A   1      45.947  27.825  33.941  1.00  0.00     0.012 A 
ATOM     62  C   UNL A   1      44.567  25.986  34.737  1.00  0.00     0.148 A 
ATOM     63  C   UNL A   1      47.057  27.280  34.585  1.00  0.00     0.002 A 
ATOM     64  C   UNL A   1      45.664  25.478  35.421  1.00  0.00     0.091 A 
ATOM     65  F   UNL A   1      43.375  25.373  34.756  1.00  0.00    -0.205 F 
ATOM     66  C   UNL A   1      46.912  26.114  35.335  1.00  0.00     0.022 A 
BRANCH  64  67
ATOM     67  S   UNL A   1      45.543  24.040  36.490  1.00  0.00     0.127 S 
ATOM     68  O   UNL A   1      46.916  23.913  36.974  1.00  0.00    -0.237 OA
ATOM     69  O   UNL A   1      44.580  24.484  37.499  1.00  0.00    -0.237 OA
ATOM     70  O   UNL A   1      45.073  22.949  35.647  1.00  0.00    -0.744 OA
ENDBRANCH  64  67
ENDBRANCH  37  60
ENDBRANCH  11  12
ENDBRANCH   4   6
ENDBRANCH   1   2
BRANCH   1  71
ATOM     71  C   UNL A   1      31.935  28.788  26.763  1.00  0.00     0.042 C 
BRANCH  71  72
ATOM     72  C   UNL A   1      32.272  27.306  26.685  1.00  0.00     0.117 C 
BRANCH  72  73
ATOM     73  N   UNL A   1      31.091  26.474  26.800  1.00  0.00    -0.356 N 
ATOM     74  C   UNL A   1      30.278  25.826  25.945  1.00  0.00     0.223 C 
ATOM     75  H   UNL A   1      30.813  26.354  27.736  1.00  0.00     0.163 HD
ATOM     76  O   UNL A   1      29.373  25.187  26.505  1.00  0.00    -0.275 OA
BRANCH  74  77
ATOM     77  C   UNL A   1      30.308  25.858  24.399  1.00  0.00     0.091 C 
ATOM     78  C   UNL A   1      31.591  25.075  24.015  1.00  0.00     0.014 C 
ATOM     79  C   UNL A   1      30.214  27.198  23.660  1.00  0.00     0.091 C 
ATOM     80  C   UNL A   1      31.957  25.112  22.543  1.00  0.00     0.001 C 
ATOM     81  C   UNL A   1      30.859  27.335  22.267  1.00  0.00     0.014 C 
ATOM     82  C   UNL A   1      32.133  26.541  22.077  1.00  0.00     0.001 C 
BRANCH  79  83
ATOM     83  C   UNL A   1      28.800  27.752  23.506  1.00  0.00     0.224 C 
ATOM     84  O   UNL A   1      27.847  26.995  23.724  1.00  0.00    -0.275 OA
ATOM     85  N   UNL A   1      28.475  29.039  23.274  1.00  0.00    -0.342 N 
ATOM     86  H   UNL A   1      27.502  29.165  23.346  1.00  0.00     0.164 HD
BRANCH  85  87
ATOM     87  C   UNL A   1      29.132  30.314  22.945  1.00  0.00     0.202 C 
ATOM     88  C   UNL A   1      29.000  31.512  23.872  1.00  0.00     0.228 C 
ATOM     89  C   UNL A   1      28.405  30.838  21.721  1.00  0.00     0.268 C 
ATOM     90  O   UNL A   1      28.707  32.674  23.086  1.00  0.00    -0.271 OA
ATOM     91  N   UNL A   1      28.215  32.183  21.865  1.00  0.00    -0.233 N 
ATOM     92  O   UNL A   1      28.036  30.169  20.773  1.00  0.00    -0.270 OA
ATOM     93  H   UNL A   1      27.780  32.747  21.186  1.00  0.00     0.199 HD
ENDBRANCH  85  87
ENDBRANCH  79  83
ENDBRANCH  74  77
ENDBRANCH  72  73
ENDBRANCH  71  72
ENDBRANCH   1  71
TORSDOF 15
ENDMDL
MODEL 3
REMARK VINA RESULT:     -10.7      3.915      6.901
REMARK SMILES O=C(NCCCNC(=O)[C@@H]1CCCC[C@H]1C(=O)N[C@@H]1CONC1=O)c1ccc(-c2c3nc(c(-c4cccc(S(=O)(=O)[O-])c4F)c4ccc([nH]4)c(-c4cccc(S(=O)(=O)[O-])c4F)c4nc(c(-c5cccc(S(=O)(=O)[O-])c5F)c5ccc2[nH]5)C=C4)C=C3)cc1
REMARK SMILES IDX 4 1 3 2 1 3 2 4 25 6 26 7 87 8 27 9 86 10 28 11 29 12 30 13
REMARK SMILES IDX 80 14 31 15 85 16 79 17 81 18 32 19 84 20 78 21 77 22 33 24
REMARK SMILES IDX 65 25 45 26 64 27 46 28 49 29 63 30 82 31 47 32 48 33 62 35
REMARK SMILES IDX 83 36 50 37 34 38 35 39 43 40 36 41 38 42 44 43 37 44 39 45
REMARK SMILES IDX 40 46 41 47 42 48 66 49 67 50 75 51 68 52 70 53 76 54 69 55
REMARK SMILES IDX 71 56 72 57 73 58 74 59 51 60 52 61 60 62 53 63 55 64 61 65
REMARK SMILES IDX 54 66 56 67 57 68 58 69 59 70 5 71 6 72 7 73 8 74 9 76 10 77
REMARK SMILES IDX 11 78 15 79 12 80 14 81 13 82 16 83 17 84 18 85 19 87 20 88
REMARK SMILES IDX 23 89 21 90 22 91 24 92
REMARK H PARENT 3 5 81 23 49 34 7 75 18 86 22 93
REMARK Flexibility Score: inf
ROOT
ATOM      1  C   UNL A   1      33.316  29.010  25.271  1.00  0.00     0.118 C 
ENDROOT
BRANCH   1   2
ATOM      2  N   UNL A   1      32.843  30.331  25.680  1.00  0.00    -0.352 N 
ATOM      3  O   UNL A   1      32.488  32.056  27.074  1.00  0.00    -0.269 OA
ATOM      4  C   UNL A   1      33.199  31.107  26.756  1.00  0.00     0.251 C 
ATOM      5  H   UNL A   1      32.162  30.728  25.091  1.00  0.00     0.163 HD
BRANCH   4   6
ATOM      6  C   UNL A   1      34.427  30.800  27.514  1.00  0.00     0.039 A 
ATOM      7  C   UNL A   1      34.608  29.533  28.071  1.00  0.00     0.014 A 
ATOM      8  C   UNL A   1      35.425  31.771  27.640  1.00  0.00     0.014 A 
ATOM      9  C   UNL A   1      35.696  29.288  28.892  1.00  0.00     0.010 A 
ATOM     10  C   UNL A   1      36.581  31.481  28.366  1.00  0.00     0.010 A 
ATOM     11  C   UNL A   1      36.711  30.247  29.023  1.00  0.00    -0.014 A 
BRANCH  11  12
ATOM     12  C   UNL A   1      37.932  29.892  29.783  1.00  0.00     0.031 A 
ATOM     13  C   UNL A   1      38.165  30.414  31.171  1.00  0.00     0.074 A 
ATOM     14  C   UNL A   1      38.830  29.074  29.197  1.00  0.00     0.049 A 
ATOM     15  N   UNL A   1      39.165  30.176  31.978  1.00  0.00    -0.248 NA
ATOM     16  C   UNL A   1      37.153  31.328  31.723  1.00  0.00     0.031 C 
ATOM     17  C   UNL A   1      38.716  28.539  27.836  1.00  0.00     0.029 A 
ATOM     18  N   UNL A   1      40.002  28.543  29.662  1.00  0.00    -0.354 N 
ATOM     19  C   UNL A   1      38.935  30.948  33.110  1.00  0.00     0.074 A 
ATOM     20  C   UNL A   1      37.699  31.667  32.883  1.00  0.00     0.031 C 
ATOM     21  C   UNL A   1      39.748  27.721  27.596  1.00  0.00     0.029 A 
ATOM     22  C   UNL A   1      40.634  27.730  28.751  1.00  0.00     0.049 A 
ATOM     23  H   UNL A   1      40.359  28.725  30.563  1.00  0.00     0.167 HD
ATOM     24  C   UNL A   1      39.683  31.041  34.235  1.00  0.00     0.034 A 
ATOM     25  C   UNL A   1      41.806  27.076  28.829  1.00  0.00     0.034 A 
ATOM     26  C   UNL A   1      40.895  30.296  34.454  1.00  0.00     0.049 A 
ATOM     27  C   UNL A   1      42.604  27.184  30.093  1.00  0.00     0.074 A 
ATOM     28  C   UNL A   1      41.696  30.265  35.582  1.00  0.00     0.029 A 
ATOM     29  N   UNL A   1      41.492  29.461  33.519  1.00  0.00    -0.354 N 
ATOM     30  N   UNL A   1      42.313  27.829  31.197  1.00  0.00    -0.248 NA
ATOM     31  C   UNL A   1      43.878  26.456  30.135  1.00  0.00     0.031 C 
ATOM     32  C   UNL A   1      42.793  29.439  35.316  1.00  0.00     0.029 A 
ATOM     33  C   UNL A   1      42.658  28.921  34.038  1.00  0.00     0.049 A 
ATOM     34  H   UNL A   1      41.138  29.278  32.618  1.00  0.00     0.167 HD
ATOM     35  C   UNL A   1      43.351  27.560  32.079  1.00  0.00     0.074 A 
ATOM     36  C   UNL A   1      44.268  26.677  31.383  1.00  0.00     0.031 C 
ATOM     37  C   UNL A   1      43.535  28.010  33.344  1.00  0.00     0.034 A 
BRANCH  24  38
ATOM     38  C   UNL A   1      39.206  31.977  35.318  1.00  0.00     0.023 A 
ATOM     39  C   UNL A   1      38.239  31.545  36.250  1.00  0.00     0.012 A 
ATOM     40  C   UNL A   1      39.740  33.276  35.433  1.00  0.00     0.148 A 
ATOM     41  C   UNL A   1      37.779  32.404  37.247  1.00  0.00     0.002 A 
ATOM     42  C   UNL A   1      39.312  34.110  36.461  1.00  0.00     0.091 A 
ATOM     43  F   UNL A   1      40.642  33.681  34.528  1.00  0.00    -0.205 F 
ATOM     44  C   UNL A   1      38.321  33.682  37.358  1.00  0.00     0.022 A 
BRANCH  42  45
ATOM     45  S   UNL A   1      40.011  35.741  36.734  1.00  0.00     0.127 S 
ATOM     46  O   UNL A   1      41.435  35.435  36.868  1.00  0.00    -0.237 OA
ATOM     47  O   UNL A   1      39.653  36.442  35.500  1.00  0.00    -0.237 OA
ATOM     48  O   UNL A   1      39.363  36.258  37.932  1.00  0.00    -0.744 OA
ENDBRANCH  42  45
ENDBRANCH  24  38
BRANCH  25  49
ATOM     49  C   UNL A   1      42.254  26.228  27.689  1.00  0.00     0.023 A 
ATOM     50  C   UNL A   1      43.167  26.752  26.755  1.00  0.00     0.012 A 
ATOM     51  C   UNL A   1      41.833  24.888  27.565  1.00  0.00     0.148 A 
ATOM     52  C   UNL A   1      43.638  25.965  25.705  1.00  0.00     0.002 A 
ATOM     53  C   UNL A   1      42.352  24.092  26.551  1.00  0.00     0.091 A 
ATOM     54  F   UNL A   1      40.960  24.412  28.463  1.00  0.00    -0.205 F 
ATOM     55  C   UNL A   1      43.241  24.633  25.610  1.00  0.00     0.022 A 
BRANCH  53  56
ATOM     56  S   UNL A   1      42.007  22.334  26.432  1.00  0.00     0.127 S 
ATOM     57  O   UNL A   1      40.553  22.324  26.292  1.00  0.00    -0.237 OA
ATOM     58  O   UNL A   1      42.747  21.965  25.226  1.00  0.00    -0.237 OA
ATOM     59  O   UNL A   1      42.525  21.746  27.660  1.00  0.00    -0.744 OA
ENDBRANCH  53  56
ENDBRANCH  25  49
BRANCH  37  60
ATOM     60  C   UNL A   1      44.752  27.518  34.080  1.00  0.00     0.023 A 
ATOM     61  C   UNL A   1      45.948  28.261  34.044  1.00  0.00     0.012 A 
ATOM     62  C   UNL A   1      44.689  26.344  34.856  1.00  0.00     0.148 A 
ATOM     63  C   UNL A   1      47.074  27.823  34.739  1.00  0.00     0.002 A 
ATOM     64  C   UNL A   1      45.798  25.943  35.589  1.00  0.00     0.091 A 
ATOM     65  F   UNL A   1      43.548  25.639  34.858  1.00  0.00    -0.205 F 
ATOM     66  C   UNL A   1      46.996  26.673  35.521  1.00  0.00     0.022 A 
BRANCH  64  67
ATOM     67  S   UNL A   1      45.754  24.532  36.700  1.00  0.00     0.127 S 
ATOM     68  O   UNL A   1      47.103  24.553  37.260  1.00  0.00    -0.237 OA
ATOM     69  O   UNL A   1      44.698  24.911  37.640  1.00  0.00    -0.237 OA
ATOM     70  O   UNL A   1      45.437  23.377  35.871  1.00  0.00    -0.744 OA
ENDBRANCH  64  67
ENDBRANCH  37  60
ENDBRANCH  11  12
ENDBRANCH   4   6
ENDBRANCH   1   2
BRANCH   1  71
ATOM     71  C   UNL A   1      33.595  28.954  23.777  1.00  0.00     0.042 C 
BRANCH  71  72
ATOM     72  C   UNL A   1      32.402  28.435  22.988  1.00  0.00     0.117 C 
BRANCH  72  73
ATOM     73  N   UNL A   1      32.806  27.551  21.913  1.00  0.00    -0.356 N 
ATOM     74  C   UNL A   1      32.902  26.219  21.741  1.00  0.00     0.223 C 
ATOM     75  H   UNL A   1      33.077  28.048  21.108  1.00  0.00     0.163 HD
ATOM     76  O   UNL A   1      33.278  25.890  20.605  1.00  0.00    -0.275 OA
BRANCH  74  77
ATOM     77  C   UNL A   1      32.678  25.109  22.793  1.00  0.00     0.091 C 
ATOM     78  C   UNL A   1      33.517  23.909  22.281  1.00  0.00     0.014 C 
ATOM     79  C   UNL A   1      31.254  24.690  23.173  1.00  0.00     0.091 C 
ATOM     80  C   UNL A   1      33.329  22.612  23.047  1.00  0.00     0.001 C 
ATOM     81  C   UNL A   1      31.001  23.254  23.673  1.00  0.00     0.014 C 
ATOM     82  C   UNL A   1      31.874  22.197  23.034  1.00  0.00     0.001 C 
BRANCH  79  83
ATOM     83  C   UNL A   1      30.562  25.597  24.187  1.00  0.00     0.224 C 
ATOM     84  O   UNL A   1      29.487  26.118  23.869  1.00  0.00    -0.275 OA
ATOM     85  N   UNL A   1      30.945  25.793  25.464  1.00  0.00    -0.342 N 
ATOM     86  H   UNL A   1      30.265  26.315  25.949  1.00  0.00     0.164 HD
BRANCH  85  87
ATOM     87  C   UNL A   1      32.069  25.465  26.355  1.00  0.00     0.202 C 
ATOM     88  C   UNL A   1      33.465  25.256  25.790  1.00  0.00     0.228 C 
ATOM     89  C   UNL A   1      31.777  24.070  26.876  1.00  0.00     0.268 C 
ATOM     90  O   UNL A   1      34.031  24.078  26.381  1.00  0.00    -0.271 OA
ATOM     91  N   UNL A   1      32.937  23.350  26.878  1.00  0.00    -0.233 N 
ATOM     92  O   UNL A   1      30.685  23.655  27.220  1.00  0.00    -0.270 OA
ATOM     93  H   UNL A   1      33.000  22.420  27.193  1.00  0.00     0.199 HD
ENDBRANCH  85  87
ENDBRANCH  79  83
ENDBRANCH  74  77
ENDBRANCH  72  73
ENDBRANCH  71  72
ENDBRANCH   1  71
TORSDOF 15
ENDMDL
