MODEL 1
REMARK VINA RESULT:     -13.5      0.000      0.000
REMARK SMILES O=C(NCCCNC(=O)[C@@H]1CCCC[C@H]1C(=O)Nc1ccccc1C(=O)N1CCOCC1)c1ccc(-c2c3nc(c(-c4cccc(S(=O)(=O)[O-])c4F)c4ccc([nH]4)c(-c4cccc(S(=O)(=O)[O-])c4F)c4nc(c(-c5cccc(S(=O)(=O)[O-])c5F)c5ccc2[nH]5)C=C4)C=C3)cc1
REMARK SMILES IDX 5 1 4 2 3 3 1 4 2 5 33 7 34 8 95 9 35 10 94 11 36 12 37 13
REMARK SMILES IDX 38 14 88 15 39 16 93 17 87 18 89 19 40 20 92 21 86 22 85 23
REMARK SMILES IDX 41 25 73 26 53 27 72 28 54 29 57 30 71 31 90 32 55 33 56 34
REMARK SMILES IDX 70 36 91 37 58 38 42 39 43 40 51 41 44 42 46 43 52 44 45 45
REMARK SMILES IDX 47 46 48 47 49 48 50 49 74 50 75 51 83 52 76 53 78 54 84 55
REMARK SMILES IDX 77 56 79 57 80 58 81 59 82 60 59 61 60 62 68 63 61 64 63 65
REMARK SMILES IDX 69 66 62 67 64 68 65 69 66 70 67 71 6 72 7 73 8 74 9 76
REMARK SMILES IDX 10 77 11 78 15 79 12 80 14 81 13 82 16 83 17 84 18 85 19 87
REMARK SMILES IDX 20 88 24 89 21 90 23 91 22 92 25 93 26 94 27 95 28 96 32 97
REMARK SMILES IDX 29 98 31 99 30 100
REMARK H PARENT 3 6 89 24 57 35 7 75 18 86
REMARK Flexibility Score: inf
ROOT
ATOM      1  C   UNL A   1      31.353  28.836  25.643  1.00  0.00     0.042 C 
ENDROOT
BRANCH   1   2
ATOM      2  C   UNL A   1      32.575  29.761  25.726  1.00  0.00     0.118 C 
BRANCH   2   3
ATOM      3  N   UNL A   1      32.261  31.130  26.149  1.00  0.00    -0.352 N 
ATOM      4  O   UNL A   1      32.397  33.066  27.307  1.00  0.00    -0.269 OA
ATOM      5  C   UNL A   1      32.907  32.000  27.014  1.00  0.00     0.251 C 
ATOM      6  H   UNL A   1      31.442  31.499  25.744  1.00  0.00     0.163 HD
BRANCH   5   7
ATOM      7  C   UNL A   1      34.205  31.611  27.617  1.00  0.00     0.039 A 
ATOM      8  C   UNL A   1      34.432  30.289  27.981  1.00  0.00     0.014 A 
ATOM      9  C   UNL A   1      35.200  32.570  27.833  1.00  0.00     0.014 A 
ATOM     10  C   UNL A   1      35.516  29.977  28.785  1.00  0.00     0.010 A 
ATOM     11  C   UNL A   1      36.374  32.217  28.513  1.00  0.00     0.010 A 
ATOM     12  C   UNL A   1      36.520  30.925  29.041  1.00  0.00    -0.014 A 
BRANCH  12  13
ATOM     13  C   UNL A   1      37.733  30.483  29.777  1.00  0.00     0.031 A 
ATOM     14  C   UNL A   1      37.997  30.897  31.199  1.00  0.00     0.074 A 
ATOM     15  C   UNL A   1      38.582  29.645  29.145  1.00  0.00     0.049 A 
ATOM     16  N   UNL A   1      38.989  30.551  31.981  1.00  0.00    -0.248 NA
ATOM     17  C   UNL A   1      37.039  31.820  31.828  1.00  0.00     0.031 C 
ATOM     18  C   UNL A   1      38.443  29.209  27.750  1.00  0.00     0.029 A 
ATOM     19  N   UNL A   1      39.703  28.991  29.580  1.00  0.00    -0.354 N 
ATOM     20  C   UNL A   1      38.807  31.252  33.168  1.00  0.00     0.074 A 
ATOM     21  C   UNL A   1      37.604  32.040  33.008  1.00  0.00     0.031 C 
ATOM     22  C   UNL A   1      39.395  28.313  27.468  1.00  0.00     0.029 A 
ATOM     23  C   UNL A   1      40.272  28.183  28.623  1.00  0.00     0.049 A 
ATOM     24  H   UNL A   1      40.068  29.088  30.490  1.00  0.00     0.167 HD
ATOM     25  C   UNL A   1      39.572  31.230  34.288  1.00  0.00     0.034 A 
ATOM     26  C   UNL A   1      41.394  27.442  28.649  1.00  0.00     0.034 A 
ATOM     27  C   UNL A   1      40.746  30.410  34.443  1.00  0.00     0.049 A 
ATOM     28  C   UNL A   1      42.204  27.422  29.910  1.00  0.00     0.074 A 
ATOM     29  C   UNL A   1      41.560  30.274  35.554  1.00  0.00     0.029 A 
ATOM     30  N   UNL A   1      41.278  29.589  33.458  1.00  0.00    -0.354 N 
ATOM     31  N   UNL A   1      41.959  28.016  31.052  1.00  0.00    -0.248 NA
ATOM     32  C   UNL A   1      43.432  26.620  29.894  1.00  0.00     0.031 C 
ATOM     33  C   UNL A   1      42.599  29.394  35.232  1.00  0.00     0.029 A 
ATOM     34  C   UNL A   1      42.415  28.955  33.931  1.00  0.00     0.049 A 
ATOM     35  H   UNL A   1      40.902  29.476  32.556  1.00  0.00     0.167 HD
ATOM     36  C   UNL A   1      42.994  27.649  31.899  1.00  0.00     0.074 A 
ATOM     37  C   UNL A   1      43.849  26.751  31.145  1.00  0.00     0.031 C 
ATOM     38  C   UNL A   1      43.229  28.035  33.177  1.00  0.00     0.034 A 
BRANCH  25  39
ATOM     39  C   UNL A   1      39.160  32.106  35.446  1.00  0.00     0.023 A 
ATOM     40  C   UNL A   1      38.306  31.596  36.444  1.00  0.00     0.012 A 
ATOM     41  C   UNL A   1      39.680  33.409  35.586  1.00  0.00     0.148 A 
ATOM     42  C   UNL A   1      37.950  32.377  37.545  1.00  0.00     0.002 A 
ATOM     43  C   UNL A   1      39.355  34.167  36.706  1.00  0.00     0.091 A 
ATOM     44  F   UNL A   1      40.478  33.886  34.621  1.00  0.00    -0.205 F 
ATOM     45  C   UNL A   1      38.482  33.657  37.681  1.00  0.00     0.022 A 
BRANCH  43  46
ATOM     46  S   UNL A   1      40.047  35.797  37.014  1.00  0.00     0.127 S 
ATOM     47  O   UNL A   1      39.617  36.528  35.823  1.00  0.00    -0.237 OA
ATOM     48  O   UNL A   1      39.370  36.192  38.248  1.00  0.00    -0.237 OA
ATOM     49  O   UNL A   1      41.485  35.604  37.144  1.00  0.00    -0.744 OA
ENDBRANCH  43  46
ENDBRANCH  25  39
BRANCH  26  50
ATOM     50  C   UNL A   1      41.794  26.662  27.445  1.00  0.00     0.023 A 
ATOM     51  C   UNL A   1      42.466  27.302  26.389  1.00  0.00     0.012 A 
ATOM     52  C   UNL A   1      41.568  25.272  27.374  1.00  0.00     0.148 A 
ATOM     53  C   UNL A   1      42.889  26.577  25.274  1.00  0.00     0.002 A 
ATOM     54  C   UNL A   1      42.049  24.545  26.293  1.00  0.00     0.091 A 
ATOM     55  F   UNL A   1      40.911  24.683  28.383  1.00  0.00    -0.205 F 
ATOM     56  C   UNL A   1      42.694  25.197  25.232  1.00  0.00     0.022 A 
BRANCH  54  57
ATOM     57  S   UNL A   1      41.980  22.751  26.242  1.00  0.00     0.127 S 
ATOM     58  O   UNL A   1      42.624  22.464  24.963  1.00  0.00    -0.237 OA
ATOM     59  O   UNL A   1      42.761  22.383  27.423  1.00  0.00    -0.237 OA
ATOM     60  O   UNL A   1      40.566  22.413  26.333  1.00  0.00    -0.744 OA
ENDBRANCH  54  57
ENDBRANCH  26  50
BRANCH  38  61
ATOM     61  C   UNL A   1      44.447  27.463  33.849  1.00  0.00     0.023 A 
ATOM     62  C   UNL A   1      45.674  28.152  33.779  1.00  0.00     0.012 A 
ATOM     63  C   UNL A   1      44.361  26.269  34.590  1.00  0.00     0.148 A 
ATOM     64  C   UNL A   1      46.808  27.640  34.408  1.00  0.00     0.002 A 
ATOM     65  C   UNL A   1      45.483  25.793  35.256  1.00  0.00     0.091 A 
ATOM     66  F   UNL A   1      43.188  25.619  34.624  1.00  0.00    -0.205 F 
ATOM     67  C   UNL A   1      46.710  26.469  35.155  1.00  0.00     0.022 A 
BRANCH  65  68
ATOM     68  S   UNL A   1      45.425  24.346  36.318  1.00  0.00     0.127 S 
ATOM     69  O   UNL A   1      46.846  24.072  36.526  1.00  0.00    -0.237 OA
ATOM     70  O   UNL A   1      44.722  24.855  37.496  1.00  0.00    -0.237 OA
ATOM     71  O   UNL A   1      44.695  23.330  35.573  1.00  0.00    -0.744 OA
ENDBRANCH  65  68
ENDBRANCH  38  61
ENDBRANCH  12  13
ENDBRANCH   5   7
ENDBRANCH   2   3
ENDBRANCH   1   2
BRANCH   1  72
ATOM     72  C   UNL A   1      31.596  27.473  26.293  1.00  0.00     0.117 C 
BRANCH  72  73
ATOM     73  N   UNL A   1      32.989  27.036  26.328  1.00  0.00    -0.356 N 
ATOM     74  C   UNL A   1      33.687  26.176  25.520  1.00  0.00     0.223 C 
ATOM     75  H   UNL A   1      33.519  27.427  27.059  1.00  0.00     0.163 HD
ATOM     76  O   UNL A   1      34.919  26.255  25.567  1.00  0.00    -0.275 OA
BRANCH  74  77
ATOM     77  C   UNL A   1      33.002  25.042  24.724  1.00  0.00     0.091 C 
ATOM     78  C   UNL A   1      32.377  25.886  23.564  1.00  0.00     0.014 C 
ATOM     79  C   UNL A   1      31.828  24.258  25.429  1.00  0.00     0.091 C 
ATOM     80  C   UNL A   1      31.473  25.124  22.609  1.00  0.00     0.001 C 
ATOM     81  C   UNL A   1      31.024  23.453  24.379  1.00  0.00     0.014 C 
ATOM     82  C   UNL A   1      30.390  24.365  23.352  1.00  0.00     0.001 C 
BRANCH  79  83
ATOM     83  C   UNL A   1      31.855  23.291  26.650  1.00  0.00     0.228 C 
ATOM     84  O   UNL A   1      30.936  23.354  27.479  1.00  0.00    -0.274 OA
ATOM     85  N   UNL A   1      32.655  22.187  26.744  1.00  0.00    -0.325 N 
ATOM     86  H   UNL A   1      32.328  21.473  27.337  1.00  0.00     0.169 HD
BRANCH  85  87
ATOM     87  C   UNL A   1      33.869  21.938  26.114  1.00  0.00     0.054 A 
ATOM     88  C   UNL A   1      34.793  22.994  26.062  1.00  0.00     0.027 A 
ATOM     89  C   UNL A   1      34.196  20.703  25.561  1.00  0.00     0.063 A 
ATOM     90  C   UNL A   1      36.118  22.747  25.708  1.00  0.00     0.002 A 
ATOM     91  C   UNL A   1      35.553  20.443  25.291  1.00  0.00     0.016 A 
ATOM     92  C   UNL A   1      36.515  21.450  25.400  1.00  0.00     0.001 A 
BRANCH  89  93
ATOM     93  C   UNL A   1      33.184  19.758  24.965  1.00  0.00     0.256 C 
ATOM     94  O   UNL A   1      32.025  20.156  24.860  1.00  0.00    -0.269 OA
ATOM     95  N   UNL A   1      33.471  18.392  24.831  1.00  0.00    -0.334 N 
ATOM     96  C   UNL A   1      32.600  17.539  25.627  1.00  0.00     0.148 C 
ATOM     97  C   UNL A   1      33.665  17.814  23.492  1.00  0.00     0.148 C 
ATOM     98  C   UNL A   1      33.098  16.096  25.638  1.00  0.00     0.181 C 
ATOM     99  C   UNL A   1      34.062  16.333  23.513  1.00  0.00     0.181 C 
ATOM    100  O   UNL A   1      33.149  15.564  24.306  1.00  0.00    -0.378 OA
ENDBRANCH  89  93
ENDBRANCH  85  87
ENDBRANCH  79  83
ENDBRANCH  74  77
ENDBRANCH  72  73
ENDBRANCH   1  72
TORSDOF 16
ENDMDL
MODEL 2
REMARK VINA RESULT:     -13.3      1.567      2.022
REMARK SMILES O=C(NCCCNC(=O)[C@@H]1CCCC[C@H]1C(=O)Nc1ccccc1C(=O)N1CCOCC1)c1ccc(-c2c3nc(c(-c4cccc(S(=O)(=O)[O-])c4F)c4ccc([nH]4)c(-c4cccc(S(=O)(=O)[O-])c4F)c4nc(c(-c5cccc(S(=O)(=O)[O-])c5F)c5ccc2[nH]5)C=C4)C=C3)cc1
REMARK SMILES IDX 5 1 4 2 3 3 1 4 2 5 33 7 34 8 95 9 35 10 94 11 36 12 37 13
REMARK SMILES IDX 38 14 88 15 39 16 93 17 87 18 89 19 40 20 92 21 86 22 85 23
REMARK SMILES IDX 41 25 73 26 53 27 72 28 54 29 57 30 71 31 90 32 55 33 56 34
REMARK SMILES IDX 70 36 91 37 58 38 42 39 43 40 51 41 44 42 46 43 52 44 45 45
REMARK SMILES IDX 47 46 48 47 49 48 50 49 74 50 75 51 83 52 76 53 78 54 84 55
REMARK SMILES IDX 77 56 79 57 80 58 81 59 82 60 59 61 60 62 68 63 61 64 63 65
REMARK SMILES IDX 69 66 62 67 64 68 65 69 66 70 67 71 6 72 7 73 8 74 9 76
REMARK SMILES IDX 10 77 11 78 15 79 12 80 14 81 13 82 16 83 17 84 18 85 19 87
REMARK SMILES IDX 20 88 24 89 21 90 23 91 22 92 25 93 26 94 27 95 28 96 32 97
REMARK SMILES IDX 29 98 31 99 30 100
REMARK H PARENT 3 6 89 24 57 35 7 75 18 86
REMARK Flexibility Score: inf
ROOT
ATOM      1  C   UNL A   1      31.925  29.416  24.883  1.00  0.00     0.042 C 
ENDROOT
BRANCH   1   2
ATOM      2  C   UNL A   1      32.835  29.892  26.022  1.00  0.00     0.118 C 
BRANCH   2   3
ATOM      3  N   UNL A   1      32.584  31.272  26.451  1.00  0.00    -0.352 N 
ATOM      4  O   UNL A   1      32.823  33.201  27.603  1.00  0.00    -0.269 OA
ATOM      5  C   UNL A   1      33.285  32.117  27.298  1.00  0.00     0.251 C 
ATOM      6  H   UNL A   1      31.769  31.671  26.067  1.00  0.00     0.163 HD
BRANCH   5   7
ATOM      7  C   UNL A   1      34.582  31.679  27.869  1.00  0.00     0.039 A 
ATOM      8  C   UNL A   1      34.732  30.378  28.332  1.00  0.00     0.014 A 
ATOM      9  C   UNL A   1      35.655  32.574  27.953  1.00  0.00     0.014 A 
ATOM     10  C   UNL A   1      35.833  30.050  29.106  1.00  0.00     0.010 A 
ATOM     11  C   UNL A   1      36.835  32.187  28.603  1.00  0.00     0.010 A 
ATOM     12  C   UNL A   1      36.916  30.936  29.231  1.00  0.00    -0.014 A 
BRANCH  12  13
ATOM     13  C   UNL A   1      38.133  30.462  29.942  1.00  0.00     0.031 A 
ATOM     14  C   UNL A   1      38.429  30.857  31.363  1.00  0.00     0.074 A 
ATOM     15  C   UNL A   1      38.953  29.613  29.288  1.00  0.00     0.049 A 
ATOM     16  N   UNL A   1      39.427  30.485  32.125  1.00  0.00    -0.248 NA
ATOM     17  C   UNL A   1      37.501  31.794  32.016  1.00  0.00     0.031 C 
ATOM     18  C   UNL A   1      38.782  29.193  27.892  1.00  0.00     0.029 A 
ATOM     19  N   UNL A   1      40.069  28.933  29.698  1.00  0.00    -0.354 N 
ATOM     20  C   UNL A   1      39.280  31.178  33.320  1.00  0.00     0.074 A 
ATOM     21  C   UNL A   1      38.090  31.991  33.188  1.00  0.00     0.031 C 
ATOM     22  C   UNL A   1      39.711  28.281  27.585  1.00  0.00     0.029 A 
ATOM     23  C   UNL A   1      40.604  28.123  28.723  1.00  0.00     0.049 A 
ATOM     24  H   UNL A   1      40.450  29.015  30.602  1.00  0.00     0.167 HD
ATOM     25  C   UNL A   1      40.063  31.131  34.427  1.00  0.00     0.034 A 
ATOM     26  C   UNL A   1      41.712  27.359  28.724  1.00  0.00     0.034 A 
ATOM     27  C   UNL A   1      41.223  30.286  34.554  1.00  0.00     0.049 A 
ATOM     28  C   UNL A   1      42.542  27.311  29.970  1.00  0.00     0.074 A 
ATOM     29  C   UNL A   1      42.053  30.123  35.650  1.00  0.00     0.029 A 
ATOM     30  N   UNL A   1      41.721  29.464  33.553  1.00  0.00    -0.354 N 
ATOM     31  N   UNL A   1      42.329  27.900  31.122  1.00  0.00    -0.248 NA
ATOM     32  C   UNL A   1      43.753  26.485  29.925  1.00  0.00     0.031 C 
ATOM     33  C   UNL A   1      43.068  29.226  35.302  1.00  0.00     0.029 A 
ATOM     34  C   UNL A   1      42.854  28.803  34.000  1.00  0.00     0.049 A 
ATOM     35  H   UNL A   1      41.328  29.367  32.656  1.00  0.00     0.167 HD
ATOM     36  C   UNL A   1      43.371  27.504  31.947  1.00  0.00     0.074 A 
ATOM     37  C   UNL A   1      44.194  26.596  31.171  1.00  0.00     0.031 C 
ATOM     38  C   UNL A   1      43.635  27.873  33.224  1.00  0.00     0.034 A 
BRANCH  25  39
ATOM     39  C   UNL A   1      39.689  32.004  35.600  1.00  0.00     0.023 A 
ATOM     40  C   UNL A   1      40.198  33.315  35.690  1.00  0.00     0.012 A 
ATOM     41  C   UNL A   1      38.774  31.553  36.573  1.00  0.00     0.148 A 
ATOM     42  C   UNL A   1      39.830  34.151  36.745  1.00  0.00     0.002 A 
ATOM     43  C   UNL A   1      38.379  32.405  37.599  1.00  0.00     0.091 A 
ATOM     44  F   UNL A   1      38.312  30.298  36.482  1.00  0.00    -0.205 F 
ATOM     45  C   UNL A   1      38.913  33.701  37.692  1.00  0.00     0.022 A 
BRANCH  43  46
ATOM     46  S   UNL A   1      37.147  31.947  38.824  1.00  0.00     0.127 S 
ATOM     47  O   UNL A   1      37.836  32.275  40.071  1.00  0.00    -0.237 OA
ATOM     48  O   UNL A   1      36.034  32.837  38.492  1.00  0.00    -0.237 OA
ATOM     49  O   UNL A   1      36.877  30.532  38.613  1.00  0.00    -0.744 OA
ENDBRANCH  43  46
ENDBRANCH  25  39
BRANCH  26  50
ATOM     50  C   UNL A   1      42.075  26.582  27.506  1.00  0.00     0.023 A 
ATOM     51  C   UNL A   1      42.799  27.202  26.472  1.00  0.00     0.012 A 
ATOM     52  C   UNL A   1      41.762  25.211  27.401  1.00  0.00     0.148 A 
ATOM     53  C   UNL A   1      43.187  26.476  25.345  1.00  0.00     0.002 A 
ATOM     54  C   UNL A   1      42.209  24.480  26.308  1.00  0.00     0.091 A 
ATOM     55  F   UNL A   1      41.057  24.643  28.389  1.00  0.00    -0.205 F 
ATOM     56  C   UNL A   1      42.906  25.113  25.269  1.00  0.00     0.022 A 
BRANCH  54  57
ATOM     57  S   UNL A   1      42.026  22.696  26.214  1.00  0.00     0.127 S 
ATOM     58  O   UNL A   1      40.573  22.544  26.213  1.00  0.00    -0.237 OA
ATOM     59  O   UNL A   1      42.679  22.389  24.942  1.00  0.00    -0.237 OA
ATOM     60  O   UNL A   1      42.720  22.171  27.382  1.00  0.00    -0.744 OA
ENDBRANCH  54  57
ENDBRANCH  26  50
BRANCH  38  61
ATOM     61  C   UNL A   1      44.853  27.271  33.869  1.00  0.00     0.023 A 
ATOM     62  C   UNL A   1      46.079  27.965  33.837  1.00  0.00     0.012 A 
ATOM     63  C   UNL A   1      44.767  26.042  34.550  1.00  0.00     0.148 A 
ATOM     64  C   UNL A   1      47.212  27.424  34.442  1.00  0.00     0.002 A 
ATOM     65  C   UNL A   1      45.889  25.535  35.195  1.00  0.00     0.091 A 
ATOM     66  F   UNL A   1      43.596  25.389  34.549  1.00  0.00    -0.205 F 
ATOM     67  C   UNL A   1      47.115  26.217  35.130  1.00  0.00     0.022 A 
BRANCH  65  68
ATOM     68  S   UNL A   1      45.831  24.037  36.183  1.00  0.00     0.127 S 
ATOM     69  O   UNL A   1      45.151  24.504  37.391  1.00  0.00    -0.237 OA
ATOM     70  O   UNL A   1      45.036  23.142  35.342  1.00  0.00    -0.237 OA
ATOM     71  O   UNL A   1      47.215  23.623  36.366  1.00  0.00    -0.744 OA
ENDBRANCH  65  68
ENDBRANCH  38  61
ENDBRANCH  12  13
ENDBRANCH   5   7
ENDBRANCH   2   3
ENDBRANCH   1   2
BRANCH   1  72
ATOM     72  C   UNL A   1      32.652  28.526  23.873  1.00  0.00     0.117 C 
BRANCH  72  73
ATOM     73  N   UNL A   1      33.581  27.558  24.449  1.00  0.00    -0.356 N 
ATOM     74  C   UNL A   1      33.492  26.199  24.600  1.00  0.00     0.223 C 
ATOM     75  H   UNL A   1      34.417  27.950  24.790  1.00  0.00     0.163 HD
ATOM     76  O   UNL A   1      34.552  25.597  24.802  1.00  0.00    -0.275 OA
BRANCH  74  77
ATOM     77  C   UNL A   1      32.137  25.460  24.698  1.00  0.00     0.091 C 
ATOM     78  C   UNL A   1      31.769  25.797  26.181  1.00  0.00     0.014 C 
ATOM     79  C   UNL A   1      32.149  23.889  24.555  1.00  0.00     0.091 C 
ATOM     80  C   UNL A   1      30.525  25.112  26.722  1.00  0.00     0.001 C 
ATOM     81  C   UNL A   1      30.807  23.302  25.057  1.00  0.00     0.014 C 
ATOM     82  C   UNL A   1      30.584  23.609  26.522  1.00  0.00     0.001 C 
BRANCH  79  83
ATOM     83  C   UNL A   1      32.470  22.993  23.321  1.00  0.00     0.228 C 
ATOM     84  O   UNL A   1      31.621  22.890  22.424  1.00  0.00    -0.274 OA
ATOM     85  N   UNL A   1      33.717  22.532  23.005  1.00  0.00    -0.325 N 
ATOM     86  H   UNL A   1      33.867  22.326  22.054  1.00  0.00     0.169 HD
BRANCH  85  87
ATOM     87  C   UNL A   1      34.803  22.316  23.845  1.00  0.00     0.054 A 
ATOM     88  C   UNL A   1      36.023  22.907  23.481  1.00  0.00     0.027 A 
ATOM     89  C   UNL A   1      34.718  21.565  25.015  1.00  0.00     0.063 A 
ATOM     90  C   UNL A   1      37.070  22.976  24.400  1.00  0.00     0.002 A 
ATOM     91  C   UNL A   1      35.744  21.716  25.967  1.00  0.00     0.016 A 
ATOM     92  C   UNL A   1      36.897  22.449  25.675  1.00  0.00     0.001 A 
BRANCH  89  93
ATOM     93  C   UNL A   1      33.778  20.402  25.197  1.00  0.00     0.256 C 
ATOM     94  O   UNL A   1      33.323  20.208  26.324  1.00  0.00    -0.269 OA
ATOM     95  N   UNL A   1      33.674  19.404  24.217  1.00  0.00    -0.334 N 
ATOM     96  C   UNL A   1      34.099  18.092  24.683  1.00  0.00     0.148 C 
ATOM     97  C   UNL A   1      32.443  19.288  23.421  1.00  0.00     0.148 C 
ATOM     98  C   UNL A   1      34.197  17.099  23.528  1.00  0.00     0.181 C 
ATOM     99  C   UNL A   1      32.516  18.212  22.330  1.00  0.00     0.181 C 
ATOM    100  O   UNL A   1      32.928  16.952  22.874  1.00  0.00    -0.378 OA
ENDBRANCH  89  93
ENDBRANCH  85  87
ENDBRANCH  79  83
ENDBRANCH  74  77
ENDBRANCH  72  73
ENDBRANCH   1  72
TORSDOF 16
ENDMDL
MODEL 3
REMARK VINA RESULT:     -12.9      0.531      7.543
REMARK SMILES O=C(NCCCNC(=O)[C@@H]1CCCC[C@H]1C(=O)Nc1ccccc1C(=O)N1CCOCC1)c1ccc(-c2c3nc(c(-c4cccc(S(=O)(=O)[O-])c4F)c4ccc([nH]4)c(-c4cccc(S(=O)(=O)[O-])c4F)c4nc(c(-c5cccc(S(=O)(=O)[O-])c5F)c5ccc2[nH]5)C=C4)C=C3)cc1
REMARK SMILES IDX 5 1 4 2 3 3 1 4 2 5 33 7 34 8 95 9 35 10 94 11 36 12 37 13
REMARK SMILES IDX 38 14 88 15 39 16 93 17 87 18 89 19 40 20 92 21 86 22 85 23
REMARK SMILES IDX 41 25 73 26 53 27 72 28 54 29 57 30 71 31 90 32 55 33 56 34
REMARK SMILES IDX 70 36 91 37 58 38 42 39 43 40 51 41 44 42 46 43 52 44 45 45
REMARK SMILES IDX 47 46 48 47 49 48 50 49 74 50 75 51 83 52 76 53 78 54 84 55
REMARK SMILES IDX 77 56 79 57 80 58 81 59 82 60 59 61 60 62 68 63 61 64 63 65
REMARK SMILES IDX 69 66 62 67 64 68 65 69 66 70 67 71 6 72 7 73 8 74 9 76
REMARK SMILES IDX 10 77 11 78 15 79 12 80 14 81 13 82 16 83 17 84 18 85 19 87
REMARK SMILES IDX 20 88 24 89 21 90 23 91 22 92 25 93 26 94 27 95 28 96 32 97
REMARK SMILES IDX 29 98 31 99 30 100
REMARK H PARENT 3 6 89 24 57 35 7 75 18 86
REMARK Flexibility Score: inf
ROOT
ATOM      1  C   UNL A   1      31.388  28.861  26.671  1.00  0.00     0.042 C 
ENDROOT
BRANCH   1   2
ATOM      2  C   UNL A   1      32.489  29.776  26.118  1.00  0.00     0.118 C 
BRANCH   2   3
ATOM      3  N   UNL A   1      32.292  31.198  26.419  1.00  0.00    -0.352 N 
ATOM      4  O   UNL A   1      32.622  33.218  27.375  1.00  0.00    -0.269 OA
ATOM      5  C   UNL A   1      33.042  32.096  27.164  1.00  0.00     0.251 C 
ATOM      6  H   UNL A   1      31.480  31.586  26.019  1.00  0.00     0.163 HD
BRANCH   5   7
ATOM      7  C   UNL A   1      34.340  31.671  27.742  1.00  0.00     0.039 A 
ATOM      8  C   UNL A   1      34.519  30.356  28.152  1.00  0.00     0.014 A 
ATOM      9  C   UNL A   1      35.384  32.591  27.886  1.00  0.00     0.014 A 
ATOM     10  C   UNL A   1      35.614  30.026  28.934  1.00  0.00     0.010 A 
ATOM     11  C   UNL A   1      36.563  32.210  28.543  1.00  0.00     0.010 A 
ATOM     12  C   UNL A   1      36.668  30.936  29.119  1.00  0.00    -0.014 A 
BRANCH  12  13
ATOM     13  C   UNL A   1      37.884  30.467  29.834  1.00  0.00     0.031 A 
ATOM     14  C   UNL A   1      38.886  29.551  29.184  1.00  0.00     0.074 A 
ATOM     15  C   UNL A   1      38.099  30.932  31.082  1.00  0.00     0.049 A 
ATOM     16  N   UNL A   1      40.014  29.097  29.669  1.00  0.00    -0.248 NA
ATOM     17  C   UNL A   1      38.588  29.071  27.826  1.00  0.00     0.031 C 
ATOM     18  C   UNL A   1      37.173  31.797  31.823  1.00  0.00     0.029 A 
ATOM     19  N   UNL A   1      39.155  30.776  31.940  1.00  0.00    -0.354 N 
ATOM     20  C   UNL A   1      40.533  28.242  28.705  1.00  0.00     0.074 A 
ATOM     21  C   UNL A   1      39.599  28.241  27.600  1.00  0.00     0.031 C 
ATOM     22  C   UNL A   1      37.728  32.148  32.989  1.00  0.00     0.029 A 
ATOM     23  C   UNL A   1      39.002  31.457  33.125  1.00  0.00     0.049 A 
ATOM     24  H   UNL A   1      39.947  30.230  31.729  1.00  0.00     0.167 HD
ATOM     25  C   UNL A   1      41.686  27.529  28.740  1.00  0.00     0.034 A 
ATOM     26  C   UNL A   1      39.780  31.501  34.222  1.00  0.00     0.034 A 
ATOM     27  C   UNL A   1      42.624  27.571  29.833  1.00  0.00     0.049 A 
ATOM     28  C   UNL A   1      41.059  30.721  34.219  1.00  0.00     0.074 A 
ATOM     29  C   UNL A   1      43.846  26.930  29.944  1.00  0.00     0.029 A 
ATOM     30  N   UNL A   1      42.444  28.289  31.007  1.00  0.00    -0.354 N 
ATOM     31  N   UNL A   1      41.576  29.996  33.257  1.00  0.00    -0.248 NA
ATOM     32  C   UNL A   1      41.870  30.776  35.440  1.00  0.00     0.031 C 
ATOM     33  C   UNL A   1      44.391  27.238  31.196  1.00  0.00     0.029 A 
ATOM     34  C   UNL A   1      43.525  28.097  31.852  1.00  0.00     0.049 A 
ATOM     35  H   UNL A   1      41.662  28.851  31.210  1.00  0.00     0.167 HD
ATOM     36  C   UNL A   1      42.782  29.519  33.749  1.00  0.00     0.074 A 
ATOM     37  C   UNL A   1      42.932  30.068  35.083  1.00  0.00     0.031 C 
ATOM     38  C   UNL A   1      43.673  28.685  33.160  1.00  0.00     0.034 A 
BRANCH  25  39
ATOM     39  C   UNL A   1      42.016  26.652  27.556  1.00  0.00     0.023 A 
ATOM     40  C   UNL A   1      42.747  27.179  26.473  1.00  0.00     0.012 A 
ATOM     41  C   UNL A   1      41.667  25.286  27.551  1.00  0.00     0.148 A 
ATOM     42  C   UNL A   1      43.098  26.372  25.390  1.00  0.00     0.002 A 
ATOM     43  C   UNL A   1      42.056  24.477  26.488  1.00  0.00     0.091 A 
ATOM     44  F   UNL A   1      40.958  24.803  28.581  1.00  0.00    -0.205 F 
ATOM     45  C   UNL A   1      42.763  25.020  25.403  1.00  0.00     0.022 A 
BRANCH  43  46
ATOM     46  S   UNL A   1      41.739  22.708  26.445  1.00  0.00     0.127 S 
ATOM     47  O   UNL A   1      40.277  22.672  26.429  1.00  0.00    -0.237 OA
ATOM     48  O   UNL A   1      42.371  22.312  25.187  1.00  0.00    -0.237 OA
ATOM     49  O   UNL A   1      42.365  22.159  27.639  1.00  0.00    -0.744 OA
ENDBRANCH  43  46
ENDBRANCH  25  39
BRANCH  26  50
ATOM     50  C   UNL A   1      39.362  32.321  35.393  1.00  0.00     0.023 A 
ATOM     51  C   UNL A   1      38.628  31.727  36.436  1.00  0.00     0.012 A 
ATOM     52  C   UNL A   1      39.747  33.673  35.507  1.00  0.00     0.148 A 
ATOM     53  C   UNL A   1      38.268  32.469  37.562  1.00  0.00     0.002 A 
ATOM     54  C   UNL A   1      39.442  34.386  36.659  1.00  0.00     0.091 A 
ATOM     55  F   UNL A   1      40.431  34.225  34.495  1.00  0.00    -0.205 F 
ATOM     56  C   UNL A   1      38.688  33.792  37.680  1.00  0.00     0.022 A 
BRANCH  54  57
ATOM     57  S   UNL A   1      40.082  36.038  36.955  1.00  0.00     0.127 S 
ATOM     58  O   UNL A   1      41.471  35.762  37.308  1.00  0.00    -0.237 OA
ATOM     59  O   UNL A   1      39.892  36.676  35.651  1.00  0.00    -0.237 OA
ATOM     60  O   UNL A   1      39.253  36.593  38.016  1.00  0.00    -0.744 OA
ENDBRANCH  54  57
ENDBRANCH  26  50
BRANCH  38  61
ATOM     61  C   UNL A   1      44.906  28.340  33.948  1.00  0.00     0.023 A 
ATOM     62  C   UNL A   1      46.042  29.171  33.873  1.00  0.00     0.012 A 
ATOM     63  C   UNL A   1      44.920  27.219  34.801  1.00  0.00     0.148 A 
ATOM     64  C   UNL A   1      47.187  28.870  34.609  1.00  0.00     0.002 A 
ATOM     65  C   UNL A   1      46.047  26.956  35.569  1.00  0.00     0.091 A 
ATOM     66  F   UNL A   1      43.836  26.430  34.839  1.00  0.00    -0.205 F 
ATOM     67  C   UNL A   1      47.185  27.771  35.465  1.00  0.00     0.022 A 
BRANCH  65  68
ATOM     68  S   UNL A   1      46.098  25.620  36.768  1.00  0.00     0.127 S 
ATOM     69  O   UNL A   1      44.946  25.932  37.612  1.00  0.00    -0.237 OA
ATOM     70  O   UNL A   1      45.933  24.438  35.921  1.00  0.00    -0.237 OA
ATOM     71  O   UNL A   1      47.396  25.716  37.421  1.00  0.00    -0.744 OA
ENDBRANCH  65  68
ENDBRANCH  38  61
ENDBRANCH  12  13
ENDBRANCH   5   7
ENDBRANCH   2   3
ENDBRANCH   1   2
BRANCH   1  72
ATOM     72  C   UNL A   1      31.733  27.376  26.548  1.00  0.00     0.117 C 
BRANCH  72  73
ATOM     73  N   UNL A   1      33.150  27.077  26.365  1.00  0.00    -0.356 N 
ATOM     74  C   UNL A   1      33.801  26.318  25.427  1.00  0.00     0.223 C 
ATOM     75  H   UNL A   1      33.743  27.493  27.033  1.00  0.00     0.163 HD
ATOM     76  O   UNL A   1      35.014  26.516  25.304  1.00  0.00    -0.275 OA
BRANCH  74  77
ATOM     77  C   UNL A   1      33.116  25.150  24.682  1.00  0.00     0.091 C 
ATOM     78  C   UNL A   1      32.431  25.951  23.526  1.00  0.00     0.014 C 
ATOM     79  C   UNL A   1      31.986  24.356  25.446  1.00  0.00     0.091 C 
ATOM     80  C   UNL A   1      31.512  25.146  22.622  1.00  0.00     0.001 C 
ATOM     81  C   UNL A   1      31.166  23.508  24.444  1.00  0.00     0.014 C 
ATOM     82  C   UNL A   1      30.474  24.381  23.420  1.00  0.00     0.001 C 
BRANCH  79  83
ATOM     83  C   UNL A   1      32.080  23.419  26.688  1.00  0.00     0.228 C 
ATOM     84  O   UNL A   1      31.217  23.517  27.572  1.00  0.00    -0.274 OA
ATOM     85  N   UNL A   1      32.868  22.305  26.757  1.00  0.00    -0.325 N 
ATOM     86  H   UNL A   1      32.570  21.611  27.388  1.00  0.00     0.169 HD
BRANCH  85  87
ATOM     87  C   UNL A   1      34.034  22.020  26.056  1.00  0.00     0.054 A 
ATOM     88  C   UNL A   1      34.971  23.057  25.924  1.00  0.00     0.027 A 
ATOM     89  C   UNL A   1      34.302  20.769  25.508  1.00  0.00     0.063 A 
ATOM     90  C   UNL A   1      36.267  22.778  25.491  1.00  0.00     0.002 A 
ATOM     91  C   UNL A   1      35.634  20.478  25.157  1.00  0.00     0.016 A 
ATOM     92  C   UNL A   1      36.620  21.468  25.185  1.00  0.00     0.001 A 
BRANCH  89  93
ATOM     93  C   UNL A   1      33.237  19.833  24.996  1.00  0.00     0.256 C 
ATOM     94  O   UNL A   1      32.077  20.243  24.981  1.00  0.00    -0.269 OA
ATOM     95  N   UNL A   1      33.499  18.464  24.845  1.00  0.00    -0.334 N 
ATOM     96  C   UNL A   1      32.685  17.622  25.710  1.00  0.00     0.148 C 
ATOM     97  C   UNL A   1      33.581  17.881  23.497  1.00  0.00     0.148 C 
ATOM     98  C   UNL A   1      33.168  16.174  25.687  1.00  0.00     0.181 C 
ATOM     99  C   UNL A   1      33.965  16.395  23.492  1.00  0.00     0.181 C 
ATOM    100  O   UNL A   1      33.108  15.638  24.357  1.00  0.00    -0.378 OA
ENDBRANCH  89  93
ENDBRANCH  85  87
ENDBRANCH  79  83
ENDBRANCH  74  77
ENDBRANCH  72  73
ENDBRANCH   1  72
TORSDOF 16
ENDMDL
