MODEL 1
REMARK VINA RESULT:     -12.8      0.000      0.000
REMARK SMILES N#Cc1ccc(C(=O)N2CCC(Oc3ccccc3)(C(=O)NCCCNC(=O)c3ccc(-c4c5nc(c(-c6cccc(S(=O)(=O)[O-])c6F)c6ccc([nH]6)c(-c6cccc(S(=O)(=O)[O-])c6F)c6nc(c(-c7cccc(S(=O)(=O)[O-])c7F)c7ccc4[nH]7)C=C6)C=C5)cc3)CC2)cc1
REMARK SMILES IDX 24 1 23 2 22 3 20 4 21 5 12 7 7 8 8 9 9 10 10 11 93 12 11 13
REMARK SMILES IDX 92 14 6 15 3 16 4 17 95 18 5 19 94 20 2 21 1 22 13 23 14 24
REMARK SMILES IDX 15 25 19 26 16 27 18 28 17 29 25 30 26 31 27 32 28 34 29 35
REMARK SMILES IDX 30 36 91 37 31 38 90 39 32 40 33 41 34 42 84 43 35 44 89 45
REMARK SMILES IDX 83 46 85 47 36 48 88 49 82 50 81 51 37 53 69 54 49 55 68 56
REMARK SMILES IDX 50 57 53 58 67 59 86 60 51 61 52 62 66 64 87 65 54 66 38 67
REMARK SMILES IDX 39 68 47 69 40 70 42 71 48 72 41 73 43 74 44 75 45 76 46 77
REMARK SMILES IDX 70 78 71 79 79 80 72 81 74 82 80 83 73 84 75 85 76 86 77 87
REMARK SMILES IDX 78 88 55 89 56 90 64 91 57 92 59 93 65 94 58 95 60 96 61 97
REMARK SMILES IDX 62 98 63 99
REMARK H PARENT 22 6 26 33 85 52 53 63
REMARK Flexibility Score: inf
ROOT
ATOM      1  C   UNL A   1      37.678  19.630  25.006  1.00  0.00     0.042 C 
ENDROOT
BRANCH   1   2
ATOM      2  C   UNL A   1      36.536  20.610  24.775  1.00  0.00     0.118 C 
BRANCH   2   3
ATOM      3  N   UNL A   1      36.093  21.217  26.017  1.00  0.00    -0.353 N 
ATOM      4  C   UNL A   1      34.836  21.497  26.467  1.00  0.00     0.264 C 
ATOM      5  O   UNL A   1      34.763  21.945  27.617  1.00  0.00    -0.270 OA
ATOM      6  H   UNL A   1      36.817  21.469  26.635  1.00  0.00     0.163 HD
BRANCH   4   7
ATOM      7  C   UNL A   1      33.577  21.273  25.577  1.00  0.00     0.190 C 
ATOM      8  C   UNL A   1      32.373  24.892  23.824  1.00  0.00     0.253 C 
ATOM      9  O   UNL A   1      31.950  24.651  22.698  1.00  0.00    -0.269 OA
ATOM     10  N   UNL A   1      33.011  23.941  24.601  1.00  0.00    -0.338 N 
ATOM     11  C   UNL A   1      34.101  23.189  24.013  1.00  0.00     0.124 C 
ATOM     12  C   UNL A   1      32.608  23.619  25.965  1.00  0.00     0.124 C 
ATOM     13  C   UNL A   1      33.846  21.702  24.124  1.00  0.00     0.080 C 
ATOM     14  C   UNL A   1      32.404  22.109  26.148  1.00  0.00     0.080 C 
BRANCH   8  15
ATOM     15  C   UNL A   1      32.368  26.296  24.331  1.00  0.00     0.040 A 
ATOM     16  C   UNL A   1      32.333  28.809  25.578  1.00  0.00     0.052 A 
ATOM     17  C   UNL A   1      33.518  28.067  25.526  1.00  0.00     0.020 A 
ATOM     18  C   UNL A   1      31.167  28.294  25.006  1.00  0.00     0.020 A 
ATOM     19  C   UNL A   1      33.536  26.812  24.906  1.00  0.00     0.015 A 
ATOM     20  C   UNL A   1      31.182  27.039  24.396  1.00  0.00     0.015 A 
BRANCH  16  21
ATOM     21  C   UNL A   1      32.303  30.084  26.234  1.00  0.00     0.099 C 
ATOM     22  N   UNL A   1      32.267  31.112  26.770  1.00  0.00    -0.192 NA
ENDBRANCH  16  21
ENDBRANCH   8  15
BRANCH   7  23
ATOM     23  O   UNL A   1      33.344  19.853  25.776  1.00  0.00    -0.477 OA
BRANCH  23  24
ATOM     24  C   UNL A   1      33.365  19.023  24.696  1.00  0.00     0.120 A 
ATOM     25  C   UNL A   1      32.363  19.192  23.743  1.00  0.00     0.046 A 
ATOM     26  C   UNL A   1      34.239  17.943  24.594  1.00  0.00     0.046 A 
ATOM     27  C   UNL A   1      32.300  18.342  22.639  1.00  0.00     0.004 A 
ATOM     28  C   UNL A   1      34.199  17.112  23.475  1.00  0.00     0.004 A 
ATOM     29  C   UNL A   1      33.234  17.317  22.493  1.00  0.00     0.000 A 
ENDBRANCH  23  24
ENDBRANCH   7  23
ENDBRANCH   4   7
ENDBRANCH   2   3
ENDBRANCH   1   2
BRANCH   1  30
ATOM     30  C   UNL A   1      38.853  20.223  25.771  1.00  0.00     0.118 C 
BRANCH  30  31
ATOM     31  N   UNL A   1      39.925  19.262  25.980  1.00  0.00    -0.352 N 
ATOM     32  C   UNL A   1      41.265  19.466  26.190  1.00  0.00     0.251 C 
ATOM     33  H   UNL A   1      39.645  18.317  25.970  1.00  0.00     0.163 HD
ATOM     34  O   UNL A   1      42.034  18.509  26.134  1.00  0.00    -0.269 OA
BRANCH  32  35
ATOM     35  C   UNL A   1      41.788  20.822  26.467  1.00  0.00     0.039 A 
ATOM     36  C   UNL A   1      41.944  21.711  25.402  1.00  0.00     0.014 A 
ATOM     37  C   UNL A   1      42.149  21.211  27.759  1.00  0.00     0.014 A 
ATOM     38  C   UNL A   1      42.412  23.003  25.642  1.00  0.00     0.010 A 
ATOM     39  C   UNL A   1      42.521  22.529  28.011  1.00  0.00     0.010 A 
ATOM     40  C   UNL A   1      42.672  23.437  26.953  1.00  0.00    -0.014 A 
BRANCH  40  41
ATOM     41  C   UNL A   1      43.094  24.835  27.225  1.00  0.00     0.031 A 
ATOM     42  C   UNL A   1      42.158  25.802  27.900  1.00  0.00     0.074 A 
ATOM     43  C   UNL A   1      44.310  25.251  26.818  1.00  0.00     0.049 A 
ATOM     44  N   UNL A   1      42.353  27.058  28.208  1.00  0.00    -0.248 NA
ATOM     45  C   UNL A   1      40.819  25.302  28.257  1.00  0.00     0.031 C 
ATOM     46  C   UNL A   1      45.284  24.433  26.092  1.00  0.00     0.029 A 
ATOM     47  N   UNL A   1      44.929  26.470  26.940  1.00  0.00    -0.354 N 
ATOM     48  C   UNL A   1      41.162  27.505  28.765  1.00  0.00     0.074 A 
ATOM     49  C   UNL A   1      40.232  26.398  28.716  1.00  0.00     0.031 C 
ATOM     50  C   UNL A   1      46.383  25.164  25.852  1.00  0.00     0.029 A 
ATOM     51  C   UNL A   1      46.178  26.514  26.364  1.00  0.00     0.049 A 
ATOM     52  H   UNL A   1      44.519  27.239  27.397  1.00  0.00     0.167 HD
ATOM     53  C   UNL A   1      40.871  28.719  29.291  1.00  0.00     0.034 A 
ATOM     54  C   UNL A   1      47.053  27.531  26.245  1.00  0.00     0.034 A 
ATOM     55  C   UNL A   1      41.801  29.815  29.351  1.00  0.00     0.049 A 
ATOM     56  C   UNL A   1      46.706  28.868  26.838  1.00  0.00     0.074 A 
ATOM     57  C   UNL A   1      41.626  31.059  29.930  1.00  0.00     0.029 A 
ATOM     58  N   UNL A   1      43.071  29.808  28.795  1.00  0.00    -0.354 N 
ATOM     59  N   UNL A   1      45.625  29.229  27.486  1.00  0.00    -0.248 NA
ATOM     60  C   UNL A   1      47.713  29.930  26.715  1.00  0.00     0.031 C 
ATOM     61  C   UNL A   1      42.769  31.824  29.675  1.00  0.00     0.029 A 
ATOM     62  C   UNL A   1      43.683  31.034  28.996  1.00  0.00     0.049 A 
ATOM     63  H   UNL A   1      43.479  29.044  28.326  1.00  0.00     0.167 HD
ATOM     64  C   UNL A   1      45.839  30.544  27.883  1.00  0.00     0.074 A 
ATOM     65  C   UNL A   1      47.163  30.907  27.420  1.00  0.00     0.031 C 
ATOM     66  C   UNL A   1      45.014  31.376  28.563  1.00  0.00     0.034 A 
BRANCH  53  67
ATOM     67  C   UNL A   1      39.493  28.923  29.867  1.00  0.00     0.023 A 
ATOM     68  C   UNL A   1      39.197  28.469  31.170  1.00  0.00     0.012 A 
ATOM     69  C   UNL A   1      38.505  29.616  29.140  1.00  0.00     0.148 A 
ATOM     70  C   UNL A   1      37.931  28.664  31.721  1.00  0.00     0.002 A 
ATOM     71  C   UNL A   1      37.263  29.853  29.717  1.00  0.00     0.091 A 
ATOM     72  F   UNL A   1      38.797  30.026  27.898  1.00  0.00    -0.205 F 
ATOM     73  C   UNL A   1      36.970  29.365  31.000  1.00  0.00     0.022 A 
BRANCH  71  74
ATOM     74  S   UNL A   1      35.984  30.817  28.904  1.00  0.00     0.127 S 
ATOM     75  O   UNL A   1      35.301  29.793  28.116  1.00  0.00    -0.237 OA
ATOM     76  O   UNL A   1      35.217  31.325  30.042  1.00  0.00    -0.237 OA
ATOM     77  O   UNL A   1      36.677  31.837  28.130  1.00  0.00    -0.744 OA
ENDBRANCH  71  74
ENDBRANCH  53  67
BRANCH  54  78
ATOM     78  C   UNL A   1      48.360  27.316  25.562  1.00  0.00     0.023 A 
ATOM     79  C   UNL A   1      49.484  26.917  26.311  1.00  0.00     0.012 A 
ATOM     80  C   UNL A   1      48.491  27.500  24.173  1.00  0.00     0.148 A 
ATOM     81  C   UNL A   1      50.725  26.748  25.695  1.00  0.00     0.002 A 
ATOM     82  C   UNL A   1      49.714  27.271  23.556  1.00  0.00     0.091 A 
ATOM     83  F   UNL A   1      47.410  27.884  23.480  1.00  0.00    -0.205 F 
ATOM     84  C   UNL A   1      50.838  26.916  24.317  1.00  0.00     0.022 A 
BRANCH  82  85
ATOM     85  S   UNL A   1      49.922  27.337  21.773  1.00  0.00     0.127 S 
ATOM     86  O   UNL A   1      49.637  28.742  21.493  1.00  0.00    -0.237 OA
ATOM     87  O   UNL A   1      51.324  26.947  21.622  1.00  0.00    -0.237 OA
ATOM     88  O   UNL A   1      48.968  26.381  21.228  1.00  0.00    -0.744 OA
ENDBRANCH  82  85
ENDBRANCH  54  78
BRANCH  66  89
ATOM     89  C   UNL A   1      45.532  32.750  28.905  1.00  0.00     0.023 A 
ATOM     90  C   UNL A   1      46.263  32.962  30.092  1.00  0.00     0.012 A 
ATOM     91  C   UNL A   1      45.335  33.824  28.015  1.00  0.00     0.148 A 
ATOM     92  C   UNL A   1      46.746  34.232  30.408  1.00  0.00     0.002 A 
ATOM     93  C   UNL A   1      45.871  35.071  28.308  1.00  0.00     0.091 A 
ATOM     94  F   UNL A   1      44.625  33.606  26.898  1.00  0.00    -0.205 F 
ATOM     95  C   UNL A   1      46.562  35.282  29.511  1.00  0.00     0.022 A 
BRANCH  93  96
ATOM     96  S   UNL A   1      45.770  36.455  27.168  1.00  0.00     0.127 S 
ATOM     97  O   UNL A   1      46.546  37.477  27.873  1.00  0.00    -0.237 OA
ATOM     98  O   UNL A   1      46.416  35.916  25.971  1.00  0.00    -0.237 OA
ATOM     99  O   UNL A   1      44.352  36.750  27.012  1.00  0.00    -0.744 OA
ENDBRANCH  93  96
ENDBRANCH  66  89
ENDBRANCH  40  41
ENDBRANCH  32  35
ENDBRANCH  30  31
ENDBRANCH   1  30
TORSDOF 17
ENDMDL
MODEL 2
REMARK VINA RESULT:     -12.5      5.292      9.546
REMARK SMILES N#Cc1ccc(C(=O)N2CCC(Oc3ccccc3)(C(=O)NCCCNC(=O)c3ccc(-c4c5nc(c(-c6cccc(S(=O)(=O)[O-])c6F)c6ccc([nH]6)c(-c6cccc(S(=O)(=O)[O-])c6F)c6nc(c(-c7cccc(S(=O)(=O)[O-])c7F)c7ccc4[nH]7)C=C6)C=C5)cc3)CC2)cc1
REMARK SMILES IDX 24 1 23 2 22 3 20 4 21 5 12 7 7 8 8 9 9 10 10 11 93 12 11 13
REMARK SMILES IDX 92 14 6 15 3 16 4 17 95 18 5 19 94 20 2 21 1 22 13 23 14 24
REMARK SMILES IDX 15 25 19 26 16 27 18 28 17 29 25 30 26 31 27 32 28 34 29 35
REMARK SMILES IDX 30 36 91 37 31 38 90 39 32 40 33 41 34 42 84 43 35 44 89 45
REMARK SMILES IDX 83 46 85 47 36 48 88 49 82 50 81 51 37 53 69 54 49 55 68 56
REMARK SMILES IDX 50 57 53 58 67 59 86 60 51 61 52 62 66 64 87 65 54 66 38 67
REMARK SMILES IDX 39 68 47 69 40 70 42 71 48 72 41 73 43 74 44 75 45 76 46 77
REMARK SMILES IDX 70 78 71 79 79 80 72 81 74 82 80 83 73 84 75 85 76 86 77 87
REMARK SMILES IDX 78 88 55 89 56 90 64 91 57 92 59 93 65 94 58 95 60 96 61 97
REMARK SMILES IDX 62 98 63 99
REMARK H PARENT 22 6 26 33 85 52 53 63
REMARK Flexibility Score: inf
ROOT
ATOM      1  C   UNL A   1      31.436  30.825  25.971  1.00  0.00     0.042 C 
ENDROOT
BRANCH   1   2
ATOM      2  C   UNL A   1      31.491  29.425  25.375  1.00  0.00     0.118 C 
BRANCH   2   3
ATOM      3  N   UNL A   1      32.493  29.328  24.328  1.00  0.00    -0.353 N 
ATOM      4  C   UNL A   1      32.480  28.636  23.153  1.00  0.00     0.264 C 
ATOM      5  O   UNL A   1      33.455  28.814  22.414  1.00  0.00    -0.270 OA
ATOM      6  H   UNL A   1      33.314  29.844  24.494  1.00  0.00     0.163 HD
BRANCH   4   7
ATOM      7  C   UNL A   1      31.313  27.675  22.779  1.00  0.00     0.190 C 
ATOM      8  C   UNL A   1      31.921  23.902  24.517  1.00  0.00     0.253 C 
ATOM      9  O   UNL A   1      30.828  23.449  24.842  1.00  0.00    -0.269 OA
ATOM     10  N   UNL A   1      32.088  25.204  24.077  1.00  0.00    -0.338 N 
ATOM     11  C   UNL A   1      31.531  26.278  24.874  1.00  0.00     0.124 C 
ATOM     12  C   UNL A   1      32.750  25.547  22.824  1.00  0.00     0.124 C 
ATOM     13  C   UNL A   1      30.611  27.142  24.040  1.00  0.00     0.080 C 
ATOM     14  C   UNL A   1      31.885  26.483  21.970  1.00  0.00     0.080 C 
BRANCH   8  15
ATOM     15  C   UNL A   1      33.155  23.099  24.756  1.00  0.00     0.040 A 
ATOM     16  C   UNL A   1      35.591  21.718  24.938  1.00  0.00     0.052 A 
ATOM     17  C   UNL A   1      35.504  23.049  25.362  1.00  0.00     0.020 A 
ATOM     18  C   UNL A   1      34.460  21.079  24.424  1.00  0.00     0.020 A 
ATOM     19  C   UNL A   1      34.290  23.739  25.270  1.00  0.00     0.015 A 
ATOM     20  C   UNL A   1      33.251  21.770  24.324  1.00  0.00     0.015 A 
BRANCH  16  21
ATOM     21  C   UNL A   1      36.839  21.014  25.007  1.00  0.00     0.099 C 
ATOM     22  N   UNL A   1      37.846  20.441  25.050  1.00  0.00    -0.192 NA
ENDBRANCH  16  21
ENDBRANCH   8  15
BRANCH   7  23
ATOM     23  O   UNL A   1      30.505  28.534  21.931  1.00  0.00    -0.477 OA
BRANCH  23  24
ATOM     24  C   UNL A   1      29.493  29.253  22.492  1.00  0.00     0.120 A 
ATOM     25  C   UNL A   1      28.298  28.581  22.742  1.00  0.00     0.046 A 
ATOM     26  C   UNL A   1      29.562  30.632  22.675  1.00  0.00     0.046 A 
ATOM     27  C   UNL A   1      27.208  29.272  23.270  1.00  0.00     0.004 A 
ATOM     28  C   UNL A   1      28.485  31.319  23.234  1.00  0.00     0.004 A 
ATOM     29  C   UNL A   1      27.309  30.637  23.539  1.00  0.00     0.000 A 
ENDBRANCH  23  24
ENDBRANCH   7  23
ENDBRANCH   4   7
ENDBRANCH   2   3
ENDBRANCH   1   2
BRANCH   1  30
ATOM     30  C   UNL A   1      32.617  31.156  26.872  1.00  0.00     0.118 C 
BRANCH  30  31
ATOM     31  N   UNL A   1      32.798  32.589  27.051  1.00  0.00    -0.352 N 
ATOM     32  C   UNL A   1      33.732  33.277  27.783  1.00  0.00     0.251 C 
ATOM     33  H   UNL A   1      32.148  33.153  26.571  1.00  0.00     0.163 HD
ATOM     34  O   UNL A   1      33.579  34.482  27.970  1.00  0.00    -0.269 OA
BRANCH  32  35
ATOM     35  C   UNL A   1      34.904  32.580  28.356  1.00  0.00     0.039 A 
ATOM     36  C   UNL A   1      36.139  33.232  28.354  1.00  0.00     0.014 A 
ATOM     37  C   UNL A   1      34.801  31.284  28.867  1.00  0.00     0.014 A 
ATOM     38  C   UNL A   1      37.254  32.604  28.911  1.00  0.00     0.010 A 
ATOM     39  C   UNL A   1      35.889  30.700  29.510  1.00  0.00     0.010 A 
ATOM     40  C   UNL A   1      37.133  31.347  29.526  1.00  0.00    -0.014 A 
BRANCH  40  41
ATOM     41  C   UNL A   1      38.297  30.707  30.191  1.00  0.00     0.031 A 
ATOM     42  C   UNL A   1      38.693  31.099  31.590  1.00  0.00     0.074 A 
ATOM     43  C   UNL A   1      39.033  29.803  29.513  1.00  0.00     0.049 A 
ATOM     44  N   UNL A   1      39.682  30.653  32.321  1.00  0.00    -0.248 NA
ATOM     45  C   UNL A   1      37.888  32.142  32.248  1.00  0.00     0.031 C 
ATOM     46  C   UNL A   1      38.796  29.388  28.129  1.00  0.00     0.029 A 
ATOM     47  N   UNL A   1      40.138  29.082  29.890  1.00  0.00    -0.354 N 
ATOM     48  C   UNL A   1      39.638  31.377  33.506  1.00  0.00     0.074 A 
ATOM     49  C   UNL A   1      38.549  32.321  33.383  1.00  0.00     0.031 C 
ATOM     50  C   UNL A   1      39.713  28.473  27.780  1.00  0.00     0.029 A 
ATOM     51  C   UNL A   1      40.631  28.269  28.895  1.00  0.00     0.049 A 
ATOM     52  H   UNL A   1      40.541  29.141  30.786  1.00  0.00     0.167 HD
ATOM     53  C   UNL A   1      40.415  31.253  34.608  1.00  0.00     0.034 A 
ATOM     54  C   UNL A   1      41.709  27.461  28.876  1.00  0.00     0.034 A 
ATOM     55  C   UNL A   1      41.489  30.304  34.734  1.00  0.00     0.049 A 
ATOM     56  C   UNL A   1      42.555  27.342  30.112  1.00  0.00     0.074 A 
ATOM     57  C   UNL A   1      42.287  30.052  35.835  1.00  0.00     0.029 A 
ATOM     58  N   UNL A   1      41.931  29.468  33.720  1.00  0.00    -0.354 N 
ATOM     59  N   UNL A   1      42.411  27.934  31.273  1.00  0.00    -0.248 NA
ATOM     60  C   UNL A   1      43.695  26.418  30.049  1.00  0.00     0.031 C 
ATOM     61  C   UNL A   1      43.248  29.102  35.471  1.00  0.00     0.029 A 
ATOM     62  C   UNL A   1      43.006  28.714  34.163  1.00  0.00     0.049 A 
ATOM     63  H   UNL A   1      41.538  29.416  32.819  1.00  0.00     0.167 HD
ATOM     64  C   UNL A   1      43.413  27.423  32.090  1.00  0.00     0.074 A 
ATOM     65  C   UNL A   1      44.145  26.458  31.295  1.00  0.00     0.031 C 
ATOM     66  C   UNL A   1      43.706  27.730  33.377  1.00  0.00     0.034 A 
BRANCH  53  67
ATOM     67  C   UNL A   1      40.121  32.155  35.781  1.00  0.00     0.023 A 
ATOM     68  C   UNL A   1      40.865  33.339  35.964  1.00  0.00     0.012 A 
ATOM     69  C   UNL A   1      39.070  31.857  36.670  1.00  0.00     0.148 A 
ATOM     70  C   UNL A   1      40.595  34.190  37.035  1.00  0.00     0.002 A 
ATOM     71  C   UNL A   1      38.773  32.737  37.704  1.00  0.00     0.091 A 
ATOM     72  F   UNL A   1      38.384  30.720  36.491  1.00  0.00    -0.205 F 
ATOM     73  C   UNL A   1      39.543  33.895  37.896  1.00  0.00     0.022 A 
BRANCH  71  74
ATOM     74  S   UNL A   1      37.386  32.491  38.818  1.00  0.00     0.127 S 
ATOM     75  O   UNL A   1      37.562  31.092  39.202  1.00  0.00    -0.237 OA
ATOM     76  O   UNL A   1      37.673  33.456  39.879  1.00  0.00    -0.237 OA
ATOM     77  O   UNL A   1      36.188  32.775  38.041  1.00  0.00    -0.744 OA
ENDBRANCH  71  74
ENDBRANCH  53  67
BRANCH  54  78
ATOM     78  C   UNL A   1      42.031  26.675  27.652  1.00  0.00     0.023 A 
ATOM     79  C   UNL A   1      42.636  27.310  26.550  1.00  0.00     0.012 A 
ATOM     80  C   UNL A   1      41.745  25.298  27.579  1.00  0.00     0.148 A 
ATOM     81  C   UNL A   1      42.911  26.598  25.381  1.00  0.00     0.002 A 
ATOM     82  C   UNL A   1      42.076  24.581  26.437  1.00  0.00     0.091 A 
ATOM     83  F   UNL A   1      41.166  24.715  28.637  1.00  0.00    -0.205 F 
ATOM     84  C   UNL A   1      42.639  25.233  25.328  1.00  0.00     0.022 A 
BRANCH  82  85
ATOM     85  S   UNL A   1      41.882  22.800  26.326  1.00  0.00     0.127 S 
ATOM     86  O   UNL A   1      40.428  22.658  26.326  1.00  0.00    -0.237 OA
ATOM     87  O   UNL A   1      42.533  22.508  25.049  1.00  0.00    -0.237 OA
ATOM     88  O   UNL A   1      42.568  22.254  27.490  1.00  0.00    -0.744 OA
ENDBRANCH  82  85
ENDBRANCH  54  78
BRANCH  66  89
ATOM     89  C   UNL A   1      44.831  26.975  34.038  1.00  0.00     0.023 A 
ATOM     90  C   UNL A   1      46.170  27.361  33.829  1.00  0.00     0.012 A 
ATOM     91  C   UNL A   1      44.550  25.905  34.911  1.00  0.00     0.148 A 
ATOM     92  C   UNL A   1      47.212  26.665  34.442  1.00  0.00     0.002 A 
ATOM     93  C   UNL A   1      45.588  25.256  35.564  1.00  0.00     0.091 A 
ATOM     94  F   UNL A   1      43.271  25.542  35.086  1.00  0.00    -0.205 F 
ATOM     95  C   UNL A   1      46.921  25.622  35.318  1.00  0.00     0.022 A 
BRANCH  93  96
ATOM     96  S   UNL A   1      45.305  23.969  36.785  1.00  0.00     0.127 S 
ATOM     97  O   UNL A   1      44.839  22.863  35.948  1.00  0.00    -0.237 OA
ATOM     98  O   UNL A   1      46.641  23.784  37.353  1.00  0.00    -0.237 OA
ATOM     99  O   UNL A   1      44.319  24.502  37.715  1.00  0.00    -0.744 OA
ENDBRANCH  93  96
ENDBRANCH  66  89
ENDBRANCH  40  41
ENDBRANCH  32  35
ENDBRANCH  30  31
ENDBRANCH   1  30
TORSDOF 17
ENDMDL
MODEL 3
REMARK VINA RESULT:     -12.4      5.592     11.585
REMARK SMILES N#Cc1ccc(C(=O)N2CCC(Oc3ccccc3)(C(=O)NCCCNC(=O)c3ccc(-c4c5nc(c(-c6cccc(S(=O)(=O)[O-])c6F)c6ccc([nH]6)c(-c6cccc(S(=O)(=O)[O-])c6F)c6nc(c(-c7cccc(S(=O)(=O)[O-])c7F)c7ccc4[nH]7)C=C6)C=C5)cc3)CC2)cc1
REMARK SMILES IDX 24 1 23 2 22 3 20 4 21 5 12 7 7 8 8 9 9 10 10 11 93 12 11 13
REMARK SMILES IDX 92 14 6 15 3 16 4 17 95 18 5 19 94 20 2 21 1 22 13 23 14 24
REMARK SMILES IDX 15 25 19 26 16 27 18 28 17 29 25 30 26 31 27 32 28 34 29 35
REMARK SMILES IDX 30 36 91 37 31 38 90 39 32 40 33 41 34 42 84 43 35 44 89 45
REMARK SMILES IDX 83 46 85 47 36 48 88 49 82 50 81 51 37 53 69 54 49 55 68 56
REMARK SMILES IDX 50 57 53 58 67 59 86 60 51 61 52 62 66 64 87 65 54 66 38 67
REMARK SMILES IDX 39 68 47 69 40 70 42 71 48 72 41 73 43 74 44 75 45 76 46 77
REMARK SMILES IDX 70 78 71 79 79 80 72 81 74 82 80 83 73 84 75 85 76 86 77 87
REMARK SMILES IDX 78 88 55 89 56 90 64 91 57 92 59 93 65 94 58 95 60 96 61 97
REMARK SMILES IDX 62 98 63 99
REMARK H PARENT 22 6 26 33 85 52 53 63
REMARK Flexibility Score: inf
ROOT
ATOM      1  C   UNL A   1      31.365  31.575  26.147  1.00  0.00     0.042 C 
ENDROOT
BRANCH   1   2
ATOM      2  C   UNL A   1      31.496  30.113  25.744  1.00  0.00     0.118 C 
BRANCH   2   3
ATOM      3  N   UNL A   1      32.634  29.899  24.868  1.00  0.00    -0.353 N 
ATOM      4  C   UNL A   1      32.762  29.118  23.757  1.00  0.00     0.264 C 
ATOM      5  O   UNL A   1      33.842  29.203  23.161  1.00  0.00    -0.270 OA
ATOM      6  H   UNL A   1      33.446  30.398  25.117  1.00  0.00     0.163 HD
BRANCH   4   7
ATOM      7  C   UNL A   1      31.619  28.172  23.283  1.00  0.00     0.190 C 
ATOM      8  C   UNL A   1      32.202  24.306  24.810  1.00  0.00     0.253 C 
ATOM      9  O   UNL A   1      31.103  23.824  25.068  1.00  0.00    -0.269 OA
ATOM     10  N   UNL A   1      32.372  25.633  24.456  1.00  0.00    -0.338 N 
ATOM     11  C   UNL A   1      31.776  26.652  25.297  1.00  0.00     0.124 C 
ATOM     12  C   UNL A   1      33.075  26.057  23.252  1.00  0.00     0.124 C 
ATOM     13  C   UNL A   1      30.877  27.557  24.483  1.00  0.00     0.080 C 
ATOM     14  C   UNL A   1      32.231  27.037  22.424  1.00  0.00     0.080 C 
BRANCH   8  15
ATOM     15  C   UNL A   1      33.436  23.499  25.045  1.00  0.00     0.040 A 
ATOM     16  C   UNL A   1      35.886  22.146  25.245  1.00  0.00     0.052 A 
ATOM     17  C   UNL A   1      35.734  23.414  25.820  1.00  0.00     0.020 A 
ATOM     18  C   UNL A   1      34.813  21.557  24.572  1.00  0.00     0.020 A 
ATOM     19  C   UNL A   1      34.512  24.089  25.719  1.00  0.00     0.015 A 
ATOM     20  C   UNL A   1      33.598  22.235  24.463  1.00  0.00     0.015 A 
BRANCH  16  21
ATOM     21  C   UNL A   1      37.142  21.459  25.325  1.00  0.00     0.099 C 
ATOM     22  N   UNL A   1      38.160  20.906  25.376  1.00  0.00    -0.192 NA
ENDBRANCH  16  21
ENDBRANCH   8  15
BRANCH   7  23
ATOM     23  O   UNL A   1      30.833  29.075  22.460  1.00  0.00    -0.477 OA
BRANCH  23  24
ATOM     24  C   UNL A   1      29.562  29.382  22.844  1.00  0.00     0.120 A 
ATOM     25  C   UNL A   1      28.616  28.361  22.787  1.00  0.00     0.046 A 
ATOM     26  C   UNL A   1      29.159  30.683  23.136  1.00  0.00     0.046 A 
ATOM     27  C   UNL A   1      27.287  28.623  23.121  1.00  0.00     0.004 A 
ATOM     28  C   UNL A   1      27.838  30.941  23.501  1.00  0.00     0.004 A 
ATOM     29  C   UNL A   1      26.903  29.909  23.501  1.00  0.00     0.000 A 
ENDBRANCH  23  24
ENDBRANCH   7  23
ENDBRANCH   4   7
ENDBRANCH   2   3
ENDBRANCH   1   2
BRANCH   1  30
ATOM     30  C   UNL A   1      32.565  32.110  26.917  1.00  0.00     0.118 C 
BRANCH  30  31
ATOM     31  N   UNL A   1      32.437  33.524  27.237  1.00  0.00    -0.352 N 
ATOM     32  C   UNL A   1      33.079  34.276  28.188  1.00  0.00     0.251 C 
ATOM     33  H   UNL A   1      31.788  34.018  26.684  1.00  0.00     0.163 HD
ATOM     34  O   UNL A   1      32.672  35.409  28.433  1.00  0.00    -0.269 OA
BRANCH  32  35
ATOM     35  C   UNL A   1      34.241  33.730  28.923  1.00  0.00     0.039 A 
ATOM     36  C   UNL A   1      34.028  32.703  29.845  1.00  0.00     0.014 A 
ATOM     37  C   UNL A   1      35.527  34.240  28.732  1.00  0.00     0.014 A 
ATOM     38  C   UNL A   1      35.112  32.155  30.533  1.00  0.00     0.010 A 
ATOM     39  C   UNL A   1      36.617  33.627  29.345  1.00  0.00     0.010 A 
ATOM     40  C   UNL A   1      36.421  32.588  30.264  1.00  0.00    -0.014 A 
BRANCH  40  41
ATOM     41  C   UNL A   1      37.587  31.955  30.934  1.00  0.00     0.031 A 
ATOM     42  C   UNL A   1      38.435  30.945  30.207  1.00  0.00     0.074 A 
ATOM     43  C   UNL A   1      37.854  32.255  32.222  1.00  0.00     0.049 A 
ATOM     44  N   UNL A   1      39.481  30.288  30.636  1.00  0.00    -0.248 NA
ATOM     45  C   UNL A   1      38.046  30.612  28.826  1.00  0.00     0.031 C 
ATOM     46  C   UNL A   1      37.068  33.164  33.058  1.00  0.00     0.029 A 
ATOM     47  N   UNL A   1      38.850  31.814  33.056  1.00  0.00    -0.354 N 
ATOM     48  C   UNL A   1      39.857  29.447  29.596  1.00  0.00     0.074 A 
ATOM     49  C   UNL A   1      38.903  29.646  28.527  1.00  0.00     0.031 C 
ATOM     50  C   UNL A   1      37.622  33.230  34.278  1.00  0.00     0.029 A 
ATOM     51  C   UNL A   1      38.773  32.336  34.328  1.00  0.00     0.049 A 
ATOM     52  H   UNL A   1      39.552  31.186  32.773  1.00  0.00     0.167 HD
ATOM     53  C   UNL A   1      40.914  28.603  29.524  1.00  0.00     0.034 A 
ATOM     54  C   UNL A   1      39.533  32.107  35.416  1.00  0.00     0.034 A 
ATOM     55  C   UNL A   1      41.870  28.417  30.583  1.00  0.00     0.049 A 
ATOM     56  C   UNL A   1      40.699  31.166  35.310  1.00  0.00     0.074 A 
ATOM     57  C   UNL A   1      43.014  27.640  30.580  1.00  0.00     0.029 A 
ATOM     58  N   UNL A   1      41.782  28.994  31.840  1.00  0.00    -0.354 N 
ATOM     59  N   UNL A   1      41.120  30.486  34.271  1.00  0.00    -0.248 NA
ATOM     60  C   UNL A   1      41.518  30.984  36.516  1.00  0.00     0.031 C 
ATOM     61  C   UNL A   1      43.590  27.704  31.853  1.00  0.00     0.029 A 
ATOM     62  C   UNL A   1      42.840  28.573  32.629  1.00  0.00     0.049 A 
ATOM     63  H   UNL A   1      41.074  29.613  32.130  1.00  0.00     0.167 HD
ATOM     64  C   UNL A   1      42.275  29.831  34.685  1.00  0.00     0.074 A 
ATOM     65  C   UNL A   1      42.496  30.213  36.065  1.00  0.00     0.031 C 
ATOM     66  C   UNL A   1      43.074  28.985  33.989  1.00  0.00     0.034 A 
BRANCH  53  67
ATOM     67  C   UNL A   1      41.108  27.827  28.246  1.00  0.00     0.023 A 
ATOM     68  C   UNL A   1      41.716  28.442  27.131  1.00  0.00     0.012 A 
ATOM     69  C   UNL A   1      40.738  26.469  28.165  1.00  0.00     0.148 A 
ATOM     70  C   UNL A   1      41.915  27.733  25.948  1.00  0.00     0.002 A 
ATOM     71  C   UNL A   1      40.989  25.755  27.000  1.00  0.00     0.091 A 
ATOM     72  F   UNL A   1      40.147  25.905  29.228  1.00  0.00    -0.205 F 
ATOM     73  C   UNL A   1      41.562  26.388  25.887  1.00  0.00     0.022 A 
BRANCH  71  74
ATOM     74  S   UNL A   1      40.648  23.998  26.848  1.00  0.00     0.127 S 
ATOM     75  O   UNL A   1      39.227  24.003  26.503  1.00  0.00    -0.237 OA
ATOM     76  O   UNL A   1      41.540  23.609  25.756  1.00  0.00    -0.237 OA
ATOM     77  O   UNL A   1      40.971  23.410  28.140  1.00  0.00    -0.744 OA
ENDBRANCH  71  74
ENDBRANCH  53  67
BRANCH  54  78
ATOM     78  C   UNL A   1      39.234  32.809  36.697  1.00  0.00     0.023 A 
ATOM     79  C   UNL A   1      39.843  34.048  36.976  1.00  0.00     0.012 A 
ATOM     80  C   UNL A   1      38.344  32.255  37.636  1.00  0.00     0.148 A 
ATOM     81  C   UNL A   1      39.605  34.701  38.185  1.00  0.00     0.002 A 
ATOM     82  C   UNL A   1      38.063  32.938  38.812  1.00  0.00     0.091 A 
ATOM     83  F   UNL A   1      37.779  31.073  37.353  1.00  0.00    -0.205 F 
ATOM     84  C   UNL A   1      38.709  34.152  39.099  1.00  0.00     0.022 A 
BRANCH  82  85
ATOM     85  S   UNL A   1      36.828  32.372  39.985  1.00  0.00     0.127 S 
ATOM     86  O   UNL A   1      35.628  32.323  39.154  1.00  0.00    -0.237 OA
ATOM     87  O   UNL A   1      37.365  31.068  40.376  1.00  0.00    -0.237 OA
ATOM     88  O   UNL A   1      36.814  33.362  41.054  1.00  0.00    -0.744 OA
ENDBRANCH  82  85
ENDBRANCH  54  78
BRANCH  66  89
ATOM     89  C   UNL A   1      44.302  28.454  34.684  1.00  0.00     0.023 A 
ATOM     90  C   UNL A   1      45.498  29.200  34.688  1.00  0.00     0.012 A 
ATOM     91  C   UNL A   1      44.250  27.230  35.379  1.00  0.00     0.148 A 
ATOM     92  C   UNL A   1      46.634  28.711  35.333  1.00  0.00     0.002 A 
ATOM     93  C   UNL A   1      45.367  26.779  36.069  1.00  0.00     0.091 A 
ATOM     94  F   UNL A   1      43.107  26.528  35.352  1.00  0.00    -0.205 F 
ATOM     95  C   UNL A   1      46.566  27.508  36.033  1.00  0.00     0.022 A 
BRANCH  93  96
ATOM     96  S   UNL A   1      45.342  25.294  37.079  1.00  0.00     0.127 S 
ATOM     97  O   UNL A   1      46.490  25.515  37.959  1.00  0.00    -0.237 OA
ATOM     98  O   UNL A   1      44.040  25.392  37.738  1.00  0.00    -0.237 OA
ATOM     99  O   UNL A   1      45.473  24.174  36.157  1.00  0.00    -0.744 OA
ENDBRANCH  93  96
ENDBRANCH  66  89
ENDBRANCH  40  41
ENDBRANCH  32  35
ENDBRANCH  30  31
ENDBRANCH   1  30
TORSDOF 17
ENDMDL
