MODEL 1
REMARK VINA RESULT:     -12.1      0.000      0.000
REMARK SMILES O=C(C[C@H]1CN(C(=O)NCc2ccc(Br)cc2)CCO1)NCCCNC(=O)c1ccc(-c2c3nc(c(-c4cccc(S(=O)(=O)[O-])c4F)c4ccc([nH]4)c(-c4cccc(S(=O)(=O)[O-])c4F)c4nc(c(-c5cccc(S(=O)(=O)[O-])c5F)c5ccc2[nH]5)C=C4)C=C3)cc1
REMARK SMILES IDX 22 1 21 2 1 3 2 4 3 6 4 7 5 8 20 9 6 10 19 11 18 12 7 13
REMARK SMILES IDX 8 14 9 15 10 17 11 18 12 19 17 20 13 21 16 22 14 23 15 24
REMARK SMILES IDX 23 25 24 26 25 27 26 28 27 30 28 31 29 32 90 33 30 34 89 35
REMARK SMILES IDX 31 36 32 37 33 38 83 39 34 40 88 41 82 42 84 43 35 44 87 45
REMARK SMILES IDX 81 46 80 47 36 49 68 50 48 51 67 52 49 53 52 54 66 55 85 56
REMARK SMILES IDX 50 57 51 58 65 60 86 61 53 62 37 63 38 64 46 65 39 66 41 67
REMARK SMILES IDX 47 68 40 69 42 70 43 71 44 72 45 73 69 74 70 75 78 76 71 77
REMARK SMILES IDX 73 78 79 79 72 80 74 81 75 82 76 83 77 84 54 85 55 86 63 87
REMARK SMILES IDX 56 88 58 89 64 90 57 91 59 92 60 93 61 94 62 95
REMARK H PARENT 21 5 9 16 25 29 84 48 52 59
REMARK Flexibility Score: inf
ROOT
ATOM      1  C   UNL A   1      31.388  28.079  26.127  1.00  0.00     0.117 C 
ENDROOT
BRANCH   1   2
ATOM      2  N   UNL A   1      32.138  26.849  26.334  1.00  0.00    -0.356 N 
ATOM      3  O   UNL A   1      30.292  25.459  26.405  1.00  0.00    -0.275 OA
ATOM      4  C   UNL A   1      31.508  25.622  26.401  1.00  0.00     0.222 C 
ATOM      5  H   UNL A   1      33.117  26.893  26.428  1.00  0.00     0.163 HD
BRANCH   4   6
ATOM      6  C   UNL A   1      32.405  24.415  26.449  1.00  0.00     0.133 C 
BRANCH   6   7
ATOM      7  C   UNL A   1      31.723  23.154  27.022  1.00  0.00     0.147 C 
ATOM      8  C   UNL A   1      31.458  21.978  26.059  1.00  0.00     0.154 C 
ATOM      9  O   UNL A   1      32.447  22.662  28.168  1.00  0.00    -0.374 OA
ATOM     10  N   UNL A   1      32.693  21.371  25.590  1.00  0.00    -0.320 N 
ATOM     11  C   UNL A   1      33.714  22.103  27.802  1.00  0.00     0.182 C 
ATOM     12  C   UNL A   1      33.625  21.043  26.692  1.00  0.00     0.150 C 
BRANCH  10  13
ATOM     13  C   UNL A   1      33.033  20.964  24.335  1.00  0.00     0.317 C 
ATOM     14  O   UNL A   1      33.757  19.974  24.186  1.00  0.00    -0.249 OA
ATOM     15  N   UNL A   1      32.687  21.557  23.180  1.00  0.00    -0.334 N 
ATOM     16  H   UNL A   1      33.247  21.222  22.444  1.00  0.00     0.165 HD
BRANCH  15  17
ATOM     17  C   UNL A   1      31.739  22.542  22.681  1.00  0.00     0.153 C 
BRANCH  17  18
ATOM     18  C   UNL A   1      32.185  23.987  22.847  1.00  0.00    -0.029 A 
ATOM     19  C   UNL A   1      33.533  24.340  22.995  1.00  0.00     0.007 A 
ATOM     20  C   UNL A   1      31.260  25.035  22.749  1.00  0.00     0.007 A 
ATOM     21  C   UNL A   1      33.928  25.689  22.988  1.00  0.00     0.016 A 
ATOM     22  C   UNL A   1      31.637  26.380  22.765  1.00  0.00     0.016 A 
ATOM     23  C   UNL A   1      32.980  26.702  22.861  1.00  0.00     0.017 A 
ATOM     24  Br  UNL A   1      33.515  28.512  22.767  1.00  0.00    -0.051 Br
ENDBRANCH  17  18
ENDBRANCH  15  17
ENDBRANCH  10  13
ENDBRANCH   6   7
ENDBRANCH   4   6
ENDBRANCH   1   2
BRANCH   1  25
ATOM     25  C   UNL A   1      31.798  29.276  26.970  1.00  0.00     0.042 C 
BRANCH  25  26
ATOM     26  C   UNL A   1      32.465  30.439  26.244  1.00  0.00     0.118 C 
BRANCH  26  27
ATOM     27  N   UNL A   1      32.362  31.750  26.871  1.00  0.00    -0.352 N 
ATOM     28  C   UNL A   1      33.300  32.474  27.587  1.00  0.00     0.251 C 
ATOM     29  H   UNL A   1      31.488  32.189  26.772  1.00  0.00     0.163 HD
ATOM     30  O   UNL A   1      33.015  33.582  28.040  1.00  0.00    -0.269 OA
BRANCH  28  31
ATOM     31  C   UNL A   1      34.641  31.900  27.854  1.00  0.00     0.039 A 
ATOM     32  C   UNL A   1      35.747  32.748  27.940  1.00  0.00     0.014 A 
ATOM     33  C   UNL A   1      34.798  30.536  28.096  1.00  0.00     0.014 A 
ATOM     34  C   UNL A   1      36.963  32.250  28.422  1.00  0.00     0.010 A 
ATOM     35  C   UNL A   1      35.957  30.075  28.706  1.00  0.00     0.010 A 
ATOM     36  C   UNL A   1      37.050  30.930  28.894  1.00  0.00    -0.014 A 
BRANCH  36  37
ATOM     37  C   UNL A   1      38.242  30.450  29.646  1.00  0.00     0.031 A 
ATOM     38  C   UNL A   1      38.526  30.941  31.041  1.00  0.00     0.074 A 
ATOM     39  C   UNL A   1      39.136  29.656  29.019  1.00  0.00     0.049 A 
ATOM     40  N   UNL A   1      39.527  30.644  31.830  1.00  0.00    -0.248 NA
ATOM     41  C   UNL A   1      37.595  31.930  31.611  1.00  0.00     0.031 C 
ATOM     42  C   UNL A   1      39.058  29.230  27.617  1.00  0.00     0.029 A 
ATOM     43  N   UNL A   1      40.296  29.077  29.470  1.00  0.00    -0.354 N 
ATOM     44  C   UNL A   1      39.370  31.436  32.961  1.00  0.00     0.074 A 
ATOM     45  C   UNL A   1      38.210  32.269  32.734  1.00  0.00     0.031 C 
ATOM     46  C   UNL A   1      40.098  28.429  27.339  1.00  0.00     0.029 A 
ATOM     47  C   UNL A   1      40.929  28.298  28.528  1.00  0.00     0.049 A 
ATOM     48  H   UNL A   1      40.643  29.208  30.382  1.00  0.00     0.167 HD
ATOM     49  C   UNL A   1      40.094  31.439  34.106  1.00  0.00     0.034 A 
ATOM     50  C   UNL A   1      42.041  27.543  28.621  1.00  0.00     0.034 A 
ATOM     51  C   UNL A   1      41.201  30.557  34.353  1.00  0.00     0.049 A 
ATOM     52  C   UNL A   1      42.748  27.459  29.946  1.00  0.00     0.074 A 
ATOM     53  C   UNL A   1      41.937  30.399  35.513  1.00  0.00     0.029 A 
ATOM     54  N   UNL A   1      41.726  29.672  33.423  1.00  0.00    -0.354 N 
ATOM     55  N   UNL A   1      42.470  28.076  31.069  1.00  0.00    -0.248 NA
ATOM     56  C   UNL A   1      43.890  26.538  30.032  1.00  0.00     0.031 C 
ATOM     57  C   UNL A   1      42.910  29.419  35.283  1.00  0.00     0.029 A 
ATOM     58  C   UNL A   1      42.771  28.959  33.984  1.00  0.00     0.049 A 
ATOM     59  H   UNL A   1      41.402  29.567  32.500  1.00  0.00     0.167 HD
ATOM     60  C   UNL A   1      43.377  27.594  32.004  1.00  0.00     0.074 A 
ATOM     61  C   UNL A   1      44.195  26.611  31.322  1.00  0.00     0.031 C 
ATOM     62  C   UNL A   1      43.536  27.946  33.304  1.00  0.00     0.034 A 
BRANCH  49  63
ATOM     63  C   UNL A   1      39.650  32.369  35.206  1.00  0.00     0.023 A 
ATOM     64  C   UNL A   1      38.763  31.895  36.196  1.00  0.00     0.012 A 
ATOM     65  C   UNL A   1      40.129  33.691  35.288  1.00  0.00     0.148 A 
ATOM     66  C   UNL A   1      38.324  32.731  37.221  1.00  0.00     0.002 A 
ATOM     67  C   UNL A   1      39.721  34.506  36.340  1.00  0.00     0.091 A 
ATOM     68  F   UNL A   1      40.954  34.134  34.329  1.00  0.00    -0.205 F 
ATOM     69  C   UNL A   1      38.810  34.032  37.298  1.00  0.00     0.022 A 
BRANCH  67  70
ATOM     70  S   UNL A   1      40.347  36.174  36.572  1.00  0.00     0.127 S 
ATOM     71  O   UNL A   1      39.669  36.574  37.804  1.00  0.00    -0.237 OA
ATOM     72  O   UNL A   1      41.786  35.947  36.715  1.00  0.00    -0.237 OA
ATOM     73  O   UNL A   1      39.967  36.914  35.378  1.00  0.00    -0.744 OA
ENDBRANCH  67  70
ENDBRANCH  49  63
BRANCH  50  74
ATOM     74  C   UNL A   1      42.476  26.710  27.462  1.00  0.00     0.023 A 
ATOM     75  C   UNL A   1      43.286  27.290  26.466  1.00  0.00     0.012 A 
ATOM     76  C   UNL A   1      42.129  25.350  27.354  1.00  0.00     0.148 A 
ATOM     77  C   UNL A   1      43.714  26.544  25.367  1.00  0.00     0.002 A 
ATOM     78  C   UNL A   1      42.604  24.597  26.284  1.00  0.00     0.091 A 
ATOM     79  F   UNL A   1      41.350  24.815  28.305  1.00  0.00    -0.205 F 
ATOM     80  C   UNL A   1      43.381  25.195  25.282  1.00  0.00     0.022 A 
BRANCH  78  81
ATOM     81  S   UNL A   1      42.335  22.824  26.165  1.00  0.00     0.127 S 
ATOM     82  O   UNL A   1      40.878  22.738  26.223  1.00  0.00    -0.237 OA
ATOM     83  O   UNL A   1      42.919  22.512  24.860  1.00  0.00    -0.237 OA
ATOM     84  O   UNL A   1      43.053  22.246  27.293  1.00  0.00    -0.744 OA
ENDBRANCH  78  81
ENDBRANCH  50  74
BRANCH  62  85
ATOM     85  C   UNL A   1      44.618  27.245  34.082  1.00  0.00     0.023 A 
ATOM     86  C   UNL A   1      45.928  27.761  34.075  1.00  0.00     0.012 A 
ATOM     87  C   UNL A   1      44.324  26.111  34.862  1.00  0.00     0.148 A 
ATOM     88  C   UNL A   1      46.939  27.135  34.800  1.00  0.00     0.002 A 
ATOM     89  C   UNL A   1      45.327  25.520  35.621  1.00  0.00     0.091 A 
ATOM     90  F   UNL A   1      43.077  25.619  34.839  1.00  0.00    -0.205 F 
ATOM     91  C   UNL A   1      46.639  26.021  35.581  1.00  0.00     0.022 A 
BRANCH  89  92
ATOM     92  S   UNL A   1      44.992  24.143  36.726  1.00  0.00     0.127 S 
ATOM     93  O   UNL A   1      46.306  23.909  37.321  1.00  0.00    -0.237 OA
ATOM     94  O   UNL A   1      43.999  24.706  37.642  1.00  0.00    -0.237 OA
ATOM     95  O   UNL A   1      44.482  23.076  35.875  1.00  0.00    -0.744 OA
ENDBRANCH  89  92
ENDBRANCH  62  85
ENDBRANCH  36  37
ENDBRANCH  28  31
ENDBRANCH  26  27
ENDBRANCH  25  26
ENDBRANCH   1  25
TORSDOF 17
ENDMDL
MODEL 2
REMARK VINA RESULT:     -11.9      1.907      2.335
REMARK SMILES O=C(C[C@H]1CN(C(=O)NCc2ccc(Br)cc2)CCO1)NCCCNC(=O)c1ccc(-c2c3nc(c(-c4cccc(S(=O)(=O)[O-])c4F)c4ccc([nH]4)c(-c4cccc(S(=O)(=O)[O-])c4F)c4nc(c(-c5cccc(S(=O)(=O)[O-])c5F)c5ccc2[nH]5)C=C4)C=C3)cc1
REMARK SMILES IDX 22 1 21 2 1 3 2 4 3 6 4 7 5 8 20 9 6 10 19 11 18 12 7 13
REMARK SMILES IDX 8 14 9 15 10 17 11 18 12 19 17 20 13 21 16 22 14 23 15 24
REMARK SMILES IDX 23 25 24 26 25 27 26 28 27 30 28 31 29 32 90 33 30 34 89 35
REMARK SMILES IDX 31 36 32 37 33 38 83 39 34 40 88 41 82 42 84 43 35 44 87 45
REMARK SMILES IDX 81 46 80 47 36 49 68 50 48 51 67 52 49 53 52 54 66 55 85 56
REMARK SMILES IDX 50 57 51 58 65 60 86 61 53 62 37 63 38 64 46 65 39 66 41 67
REMARK SMILES IDX 47 68 40 69 42 70 43 71 44 72 45 73 69 74 70 75 78 76 71 77
REMARK SMILES IDX 73 78 79 79 72 80 74 81 75 82 76 83 77 84 54 85 55 86 63 87
REMARK SMILES IDX 56 88 58 89 64 90 57 91 59 92 60 93 61 94 62 95
REMARK H PARENT 21 5 9 16 25 29 84 48 52 59
REMARK Flexibility Score: inf
ROOT
ATOM      1  C   UNL A   1      31.524  28.615  25.017  1.00  0.00     0.117 C 
ENDROOT
BRANCH   1   2
ATOM      2  N   UNL A   1      32.030  27.311  25.416  1.00  0.00    -0.356 N 
ATOM      3  O   UNL A   1      30.099  26.147  24.904  1.00  0.00    -0.275 OA
ATOM      4  C   UNL A   1      31.271  26.167  25.268  1.00  0.00     0.222 C 
ATOM      5  H   UNL A   1      32.934  27.242  25.801  1.00  0.00     0.163 HD
BRANCH   4   6
ATOM      6  C   UNL A   1      31.965  24.864  25.562  1.00  0.00     0.133 C 
BRANCH   6   7
ATOM      7  C   UNL A   1      31.109  23.871  26.376  1.00  0.00     0.147 C 
ATOM      8  C   UNL A   1      30.797  22.499  25.742  1.00  0.00     0.154 C 
ATOM      9  O   UNL A   1      31.683  23.658  27.682  1.00  0.00    -0.374 OA
ATOM     10  N   UNL A   1      31.994  21.689  25.585  1.00  0.00    -0.320 N 
ATOM     11  C   UNL A   1      32.908  22.920  27.615  1.00  0.00     0.182 C 
ATOM     12  C   UNL A   1      32.796  21.605  26.827  1.00  0.00     0.150 C 
BRANCH  10  13
ATOM     13  C   UNL A   1      32.388  20.924  24.529  1.00  0.00     0.317 C 
ATOM     14  O   UNL A   1      31.976  19.763  24.424  1.00  0.00    -0.249 OA
ATOM     15  N   UNL A   1      33.238  21.284  23.553  1.00  0.00    -0.334 N 
ATOM     16  H   UNL A   1      33.542  20.491  23.056  1.00  0.00     0.165 HD
BRANCH  15  17
ATOM     17  C   UNL A   1      33.847  22.485  23.002  1.00  0.00     0.153 C 
BRANCH  17  18
ATOM     18  C   UNL A   1      35.016  23.027  23.811  1.00  0.00    -0.029 A 
ATOM     19  C   UNL A   1      34.876  24.104  24.696  1.00  0.00     0.007 A 
ATOM     20  C   UNL A   1      36.264  22.389  23.777  1.00  0.00     0.007 A 
ATOM     21  C   UNL A   1      35.932  24.480  25.545  1.00  0.00     0.016 A 
ATOM     22  C   UNL A   1      37.328  22.767  24.597  1.00  0.00     0.016 A 
ATOM     23  C   UNL A   1      37.149  23.802  25.500  1.00  0.00     0.017 A 
ATOM     24  Br  UNL A   1      38.542  24.250  26.696  1.00  0.00    -0.051 Br
ENDBRANCH  17  18
ENDBRANCH  15  17
ENDBRANCH  10  13
ENDBRANCH   6   7
ENDBRANCH   4   6
ENDBRANCH   1   2
BRANCH   1  25
ATOM     25  C   UNL A   1      31.532  29.703  26.080  1.00  0.00     0.042 C 
BRANCH  25  26
ATOM     26  C   UNL A   1      32.890  30.262  26.489  1.00  0.00     0.118 C 
BRANCH  26  27
ATOM     27  N   UNL A   1      32.891  31.550  27.170  1.00  0.00    -0.352 N 
ATOM     28  C   UNL A   1      33.890  32.177  27.894  1.00  0.00     0.251 C 
ATOM     29  H   UNL A   1      32.048  32.052  27.107  1.00  0.00     0.163 HD
ATOM     30  O   UNL A   1      33.692  33.283  28.397  1.00  0.00    -0.269 OA
BRANCH  28  31
ATOM     31  C   UNL A   1      35.192  31.501  28.110  1.00  0.00     0.039 A 
ATOM     32  C   UNL A   1      36.372  32.244  28.040  1.00  0.00     0.014 A 
ATOM     33  C   UNL A   1      35.247  30.152  28.456  1.00  0.00     0.014 A 
ATOM     34  C   UNL A   1      37.574  31.673  28.472  1.00  0.00     0.010 A 
ATOM     35  C   UNL A   1      36.406  29.633  29.017  1.00  0.00     0.010 A 
ATOM     36  C   UNL A   1      37.582  30.391  29.048  1.00  0.00    -0.014 A 
BRANCH  36  37
ATOM     37  C   UNL A   1      38.784  29.861  29.749  1.00  0.00     0.031 A 
ATOM     38  C   UNL A   1      39.153  30.345  31.127  1.00  0.00     0.074 A 
ATOM     39  C   UNL A   1      39.613  29.026  29.087  1.00  0.00     0.049 A 
ATOM     40  N   UNL A   1      40.174  30.006  31.872  1.00  0.00    -0.248 NA
ATOM     41  C   UNL A   1      38.294  31.376  31.733  1.00  0.00     0.031 C 
ATOM     42  C   UNL A   1      39.453  28.598  27.693  1.00  0.00     0.029 A 
ATOM     43  N   UNL A   1      40.765  28.397  29.489  1.00  0.00    -0.354 N 
ATOM     44  C   UNL A   1      40.105  30.808  33.004  1.00  0.00     0.074 A 
ATOM     45  C   UNL A   1      38.974  31.691  32.825  1.00  0.00     0.031 C 
ATOM     46  C   UNL A   1      40.442  27.750  27.372  1.00  0.00     0.029 A 
ATOM     47  C   UNL A   1      41.320  27.587  28.524  1.00  0.00     0.049 A 
ATOM     48  H   UNL A   1      41.159  28.515  30.383  1.00  0.00     0.167 HD
ATOM     49  C   UNL A   1      40.879  30.783  34.116  1.00  0.00     0.034 A 
ATOM     50  C   UNL A   1      42.399  26.782  28.571  1.00  0.00     0.034 A 
ATOM     51  C   UNL A   1      41.955  29.853  34.317  1.00  0.00     0.049 A 
ATOM     52  C   UNL A   1      43.161  26.672  29.864  1.00  0.00     0.074 A 
ATOM     53  C   UNL A   1      42.736  29.667  35.444  1.00  0.00     0.029 A 
ATOM     54  N   UNL A   1      42.398  28.942  33.370  1.00  0.00    -0.354 N 
ATOM     55  N   UNL A   1      42.962  27.305  30.994  1.00  0.00    -0.248 NA
ATOM     56  C   UNL A   1      44.264  25.701  29.904  1.00  0.00     0.031 C 
ATOM     57  C   UNL A   1      43.652  28.644  35.176  1.00  0.00     0.029 A 
ATOM     58  C   UNL A   1      43.434  28.185  33.887  1.00  0.00     0.049 A 
ATOM     59  H   UNL A   1      42.028  28.848  32.463  1.00  0.00     0.167 HD
ATOM     60  C   UNL A   1      43.889  26.787  31.890  1.00  0.00     0.074 A 
ATOM     61  C   UNL A   1      44.630  25.766  31.177  1.00  0.00     0.031 C 
ATOM     62  C   UNL A   1      44.122  27.136  33.179  1.00  0.00     0.034 A 
BRANCH  49  63
ATOM     63  C   UNL A   1      40.527  31.737  35.229  1.00  0.00     0.023 A 
ATOM     64  C   UNL A   1      41.310  32.895  35.419  1.00  0.00     0.012 A 
ATOM     65  C   UNL A   1      39.413  31.515  36.061  1.00  0.00     0.148 A 
ATOM     66  C   UNL A   1      41.019  33.792  36.445  1.00  0.00     0.002 A 
ATOM     67  C   UNL A   1      39.102  32.439  37.055  1.00  0.00     0.091 A 
ATOM     68  F   UNL A   1      38.691  30.399  35.882  1.00  0.00    -0.205 F 
ATOM     69  C   UNL A   1      39.911  33.569  37.256  1.00  0.00     0.022 A 
BRANCH  67  70
ATOM     70  S   UNL A   1      37.652  32.283  38.104  1.00  0.00     0.127 S 
ATOM     71  O   UNL A   1      38.112  32.917  39.339  1.00  0.00    -0.237 OA
ATOM     72  O   UNL A   1      36.650  33.050  37.363  1.00  0.00    -0.237 OA
ATOM     73  O   UNL A   1      37.376  30.857  38.196  1.00  0.00    -0.744 OA
ENDBRANCH  67  70
ENDBRANCH  49  63
BRANCH  50  74
ATOM     74  C   UNL A   1      42.744  25.926  27.399  1.00  0.00     0.023 A 
ATOM     75  C   UNL A   1      43.542  26.463  26.369  1.00  0.00     0.012 A 
ATOM     76  C   UNL A   1      42.323  24.586  27.309  1.00  0.00     0.148 A 
ATOM     77  C   UNL A   1      43.887  25.693  25.257  1.00  0.00     0.002 A 
ATOM     78  C   UNL A   1      42.714  23.808  26.224  1.00  0.00     0.091 A 
ATOM     79  F   UNL A   1      41.555  24.094  28.292  1.00  0.00    -0.205 F 
ATOM     80  C   UNL A   1      43.481  24.364  25.189  1.00  0.00     0.022 A 
BRANCH  78  81
ATOM     81  S   UNL A   1      42.349  22.051  26.122  1.00  0.00     0.127 S 
ATOM     82  O   UNL A   1      43.162  21.642  24.980  1.00  0.00    -0.237 OA
ATOM     83  O   UNL A   1      42.819  21.564  27.419  1.00  0.00    -0.237 OA
ATOM     84  O   UNL A   1      40.905  21.965  25.940  1.00  0.00    -0.744 OA
ENDBRANCH  78  81
ENDBRANCH  50  74
BRANCH  62  85
ATOM     85  C   UNL A   1      45.205  26.391  33.912  1.00  0.00     0.023 A 
ATOM     86  C   UNL A   1      46.551  26.769  33.740  1.00  0.00     0.012 A 
ATOM     87  C   UNL A   1      44.886  25.355  34.810  1.00  0.00     0.148 A 
ATOM     88  C   UNL A   1      47.566  26.100  34.420  1.00  0.00     0.002 A 
ATOM     89  C   UNL A   1      45.899  24.725  35.522  1.00  0.00     0.091 A 
ATOM     90  F   UNL A   1      43.602  24.992  34.945  1.00  0.00    -0.205 F 
ATOM     91  C   UNL A   1      47.242  25.086  35.319  1.00  0.00     0.022 A 
BRANCH  89  92
ATOM     92  S   UNL A   1      45.549  23.478  36.767  1.00  0.00     0.127 S 
ATOM     93  O   UNL A   1      44.844  22.463  35.986  1.00  0.00    -0.237 OA
ATOM     94  O   UNL A   1      46.888  23.086  37.209  1.00  0.00    -0.237 OA
ATOM     95  O   UNL A   1      44.758  24.156  37.786  1.00  0.00    -0.744 OA
ENDBRANCH  89  92
ENDBRANCH  62  85
ENDBRANCH  36  37
ENDBRANCH  28  31
ENDBRANCH  26  27
ENDBRANCH  25  26
ENDBRANCH   1  25
TORSDOF 17
ENDMDL
MODEL 3
REMARK VINA RESULT:     -11.7      5.034     10.059
REMARK SMILES O=C(C[C@H]1CN(C(=O)NCc2ccc(Br)cc2)CCO1)NCCCNC(=O)c1ccc(-c2c3nc(c(-c4cccc(S(=O)(=O)[O-])c4F)c4ccc([nH]4)c(-c4cccc(S(=O)(=O)[O-])c4F)c4nc(c(-c5cccc(S(=O)(=O)[O-])c5F)c5ccc2[nH]5)C=C4)C=C3)cc1
REMARK SMILES IDX 22 1 21 2 1 3 2 4 3 6 4 7 5 8 20 9 6 10 19 11 18 12 7 13
REMARK SMILES IDX 8 14 9 15 10 17 11 18 12 19 17 20 13 21 16 22 14 23 15 24
REMARK SMILES IDX 23 25 24 26 25 27 26 28 27 30 28 31 29 32 90 33 30 34 89 35
REMARK SMILES IDX 31 36 32 37 33 38 83 39 34 40 88 41 82 42 84 43 35 44 87 45
REMARK SMILES IDX 81 46 80 47 36 49 68 50 48 51 67 52 49 53 52 54 66 55 85 56
REMARK SMILES IDX 50 57 51 58 65 60 86 61 53 62 37 63 38 64 46 65 39 66 41 67
REMARK SMILES IDX 47 68 40 69 42 70 43 71 44 72 45 73 69 74 70 75 78 76 71 77
REMARK SMILES IDX 73 78 79 79 72 80 74 81 75 82 76 83 77 84 54 85 55 86 63 87
REMARK SMILES IDX 56 88 58 89 64 90 57 91 59 92 60 93 61 94 62 95
REMARK H PARENT 21 5 9 16 25 29 84 48 52 59
REMARK Flexibility Score: inf
ROOT
ATOM      1  C   UNL A   1      36.454  23.212  23.613  1.00  0.00     0.117 C 
ENDROOT
BRANCH   1   2
ATOM      2  N   UNL A   1      35.272  24.043  23.779  1.00  0.00    -0.356 N 
ATOM      3  O   UNL A   1      35.715  24.643  25.968  1.00  0.00    -0.275 OA
ATOM      4  C   UNL A   1      35.037  24.738  24.949  1.00  0.00     0.222 C 
ATOM      5  H   UNL A   1      34.623  24.111  23.041  1.00  0.00     0.163 HD
BRANCH   4   6
ATOM      6  C   UNL A   1      33.871  25.689  24.937  1.00  0.00     0.133 C 
BRANCH   6   7
ATOM      7  C   UNL A   1      33.804  26.575  23.675  1.00  0.00     0.147 C 
ATOM      8  C   UNL A   1      32.516  26.528  22.828  1.00  0.00     0.154 C 
ATOM      9  O   UNL A   1      34.091  27.950  24.005  1.00  0.00    -0.374 OA
ATOM     10  N   UNL A   1      31.373  27.071  23.545  1.00  0.00    -0.320 N 
ATOM     11  C   UNL A   1      33.041  28.547  24.774  1.00  0.00     0.182 C 
ATOM     12  C   UNL A   1      31.648  28.398  24.139  1.00  0.00     0.150 C 
BRANCH  10  13
ATOM     13  C   UNL A   1      30.099  26.596  23.626  1.00  0.00     0.317 C 
ATOM     14  O   UNL A   1      29.160  27.383  23.793  1.00  0.00    -0.249 OA
ATOM     15  N   UNL A   1      29.720  25.308  23.576  1.00  0.00    -0.334 N 
ATOM     16  H   UNL A   1      28.794  25.213  23.896  1.00  0.00     0.165 HD
BRANCH  15  17
ATOM     17  C   UNL A   1      30.255  24.010  23.194  1.00  0.00     0.153 C 
BRANCH  17  18
ATOM     18  C   UNL A   1      31.059  23.315  24.283  1.00  0.00    -0.029 A 
ATOM     19  C   UNL A   1      32.007  22.325  23.993  1.00  0.00     0.007 A 
ATOM     20  C   UNL A   1      30.952  23.723  25.619  1.00  0.00     0.007 A 
ATOM     21  C   UNL A   1      32.844  21.814  25.001  1.00  0.00     0.016 A 
ATOM     22  C   UNL A   1      31.760  23.206  26.634  1.00  0.00     0.016 A 
ATOM     23  C   UNL A   1      32.726  22.266  26.314  1.00  0.00     0.017 A 
ATOM     24  Br  UNL A   1      33.903  21.644  27.654  1.00  0.00    -0.051 Br
ENDBRANCH  17  18
ENDBRANCH  15  17
ENDBRANCH  10  13
ENDBRANCH   6   7
ENDBRANCH   4   6
ENDBRANCH   1   2
BRANCH   1  25
ATOM     25  C   UNL A   1      36.405  21.825  24.235  1.00  0.00     0.042 C 
BRANCH  25  26
ATOM     26  C   UNL A   1      37.126  21.637  25.566  1.00  0.00     0.118 C 
BRANCH  26  27
ATOM     27  N   UNL A   1      38.383  20.900  25.532  1.00  0.00    -0.352 N 
ATOM     28  C   UNL A   1      39.624  21.227  26.050  1.00  0.00     0.251 C 
ATOM     29  H   UNL A   1      38.343  20.035  25.067  1.00  0.00     0.163 HD
ATOM     30  O   UNL A   1      40.574  20.457  25.917  1.00  0.00    -0.269 OA
BRANCH  28  31
ATOM     31  C   UNL A   1      39.829  22.530  26.728  1.00  0.00     0.039 A 
ATOM     32  C   UNL A   1      40.648  22.595  27.858  1.00  0.00     0.014 A 
ATOM     33  C   UNL A   1      39.280  23.700  26.208  1.00  0.00     0.014 A 
ATOM     34  C   UNL A   1      41.036  23.842  28.359  1.00  0.00     0.010 A 
ATOM     35  C   UNL A   1      39.776  24.932  26.613  1.00  0.00     0.010 A 
ATOM     36  C   UNL A   1      40.675  25.020  27.683  1.00  0.00    -0.014 A 
BRANCH  36  37
ATOM     37  C   UNL A   1      41.280  26.334  28.033  1.00  0.00     0.031 A 
ATOM     38  C   UNL A   1      42.703  26.656  27.660  1.00  0.00     0.074 A 
ATOM     39  C   UNL A   1      40.576  27.196  28.798  1.00  0.00     0.049 A 
ATOM     40  N   UNL A   1      43.393  27.741  27.904  1.00  0.00    -0.248 NA
ATOM     41  C   UNL A   1      43.471  25.610  26.963  1.00  0.00     0.031 C 
ATOM     42  C   UNL A   1      39.243  26.944  29.355  1.00  0.00     0.029 A 
ATOM     43  N   UNL A   1      40.886  28.453  29.254  1.00  0.00    -0.354 N 
ATOM     44  C   UNL A   1      44.677  27.492  27.434  1.00  0.00     0.074 A 
ATOM     45  C   UNL A   1      44.687  26.132  26.941  1.00  0.00     0.031 C 
ATOM     46  C   UNL A   1      38.836  28.024  30.040  1.00  0.00     0.029 A 
ATOM     47  C   UNL A   1      39.882  29.038  29.993  1.00  0.00     0.049 A 
ATOM     48  H   UNL A   1      41.746  28.895  29.070  1.00  0.00     0.167 HD
ATOM     49  C   UNL A   1      45.739  28.329  27.371  1.00  0.00     0.034 A 
ATOM     50  C   UNL A   1      39.802  30.263  30.547  1.00  0.00     0.034 A 
ATOM     51  C   UNL A   1      45.699  29.702  27.797  1.00  0.00     0.049 A 
ATOM     52  C   UNL A   1      40.945  31.222  30.345  1.00  0.00     0.074 A 
ATOM     53  C   UNL A   1      46.680  30.670  27.682  1.00  0.00     0.029 A 
ATOM     54  N   UNL A   1      44.612  30.305  28.410  1.00  0.00    -0.354 N 
ATOM     55  N   UNL A   1      42.084  31.026  29.728  1.00  0.00    -0.248 NA
ATOM     56  C   UNL A   1      40.770  32.583  30.871  1.00  0.00     0.031 C 
ATOM     57  C   UNL A   1      46.186  31.859  28.230  1.00  0.00     0.029 A 
ATOM     58  C   UNL A   1      44.893  31.634  28.673  1.00  0.00     0.049 A 
ATOM     59  H   UNL A   1      43.764  29.854  28.626  1.00  0.00     0.167 HD
ATOM     60  C   UNL A   1      42.749  32.246  29.759  1.00  0.00     0.074 A 
ATOM     61  C   UNL A   1      41.870  33.182  30.432  1.00  0.00     0.031 C 
ATOM     62  C   UNL A   1      43.983  32.562  29.294  1.00  0.00     0.034 A 
BRANCH  49  63
ATOM     63  C   UNL A   1      47.004  27.802  26.743  1.00  0.00     0.023 A 
ATOM     64  C   UNL A   1      48.007  27.251  27.568  1.00  0.00     0.012 A 
ATOM     65  C   UNL A   1      47.191  27.815  25.347  1.00  0.00     0.148 A 
ATOM     66  C   UNL A   1      49.193  26.765  27.022  1.00  0.00     0.002 A 
ATOM     67  C   UNL A   1      48.358  27.285  24.806  1.00  0.00     0.091 A 
ATOM     68  F   UNL A   1      46.238  28.360  24.577  1.00  0.00    -0.205 F 
ATOM     69  C   UNL A   1      49.364  26.773  25.641  1.00  0.00     0.022 A 
BRANCH  67  70
ATOM     70  S   UNL A   1      48.644  27.179  23.035  1.00  0.00     0.127 S 
ATOM     71  O   UNL A   1      50.055  27.552  22.941  1.00  0.00    -0.237 OA
ATOM     72  O   UNL A   1      48.367  25.769  22.761  1.00  0.00    -0.237 OA
ATOM     73  O   UNL A   1      47.708  28.110  22.422  1.00  0.00    -0.744 OA
ENDBRANCH  67  70
ENDBRANCH  49  63
BRANCH  50  74
ATOM     74  C   UNL A   1      38.549  30.693  31.233  1.00  0.00     0.023 A 
ATOM     75  C   UNL A   1      38.416  30.473  32.618  1.00  0.00     0.012 A 
ATOM     76  C   UNL A   1      37.510  31.343  30.541  1.00  0.00     0.148 A 
ATOM     77  C   UNL A   1      37.260  30.861  33.296  1.00  0.00     0.002 A 
ATOM     78  C   UNL A   1      36.383  31.777  31.232  1.00  0.00     0.091 A 
ATOM     79  F   UNL A   1      37.648  31.536  29.221  1.00  0.00    -0.205 F 
ATOM     80  C   UNL A   1      36.248  31.521  32.605  1.00  0.00     0.022 A 
BRANCH  78  81
ATOM     81  S   UNL A   1      35.093  32.751  30.448  1.00  0.00     0.127 S 
ATOM     82  O   UNL A   1      34.633  31.848  29.396  1.00  0.00    -0.237 OA
ATOM     83  O   UNL A   1      34.148  32.949  31.547  1.00  0.00    -0.237 OA
ATOM     84  O   UNL A   1      35.748  33.973  29.998  1.00  0.00    -0.744 OA
ENDBRANCH  78  81
ENDBRANCH  50  74
BRANCH  62  85
ATOM     85  C   UNL A   1      44.446  33.984  29.472  1.00  0.00     0.023 A 
ATOM     86  C   UNL A   1      45.093  34.362  30.664  1.00  0.00     0.012 A 
ATOM     87  C   UNL A   1      44.288  34.927  28.439  1.00  0.00     0.148 A 
ATOM     88  C   UNL A   1      45.541  35.670  30.841  1.00  0.00     0.002 A 
ATOM     89  C   UNL A   1      44.780  36.216  28.604  1.00  0.00     0.091 A 
ATOM     90  F   UNL A   1      43.648  34.556  27.320  1.00  0.00    -0.205 F 
ATOM     91  C   UNL A   1      45.395  36.594  29.809  1.00  0.00     0.022 A 
BRANCH  89  92
ATOM     92  S   UNL A   1      44.715  37.431  27.282  1.00  0.00     0.127 S 
ATOM     93  O   UNL A   1      45.068  38.661  27.987  1.00  0.00    -0.237 OA
ATOM     94  O   UNL A   1      45.738  36.945  26.354  1.00  0.00    -0.237 OA
ATOM     95  O   UNL A   1      43.356  37.366  26.760  1.00  0.00    -0.744 OA
ENDBRANCH  89  92
ENDBRANCH  62  85
ENDBRANCH  36  37
ENDBRANCH  28  31
ENDBRANCH  26  27
ENDBRANCH  25  26
ENDBRANCH   1  25
TORSDOF 17
ENDMDL
