MODEL 1
REMARK VINA RESULT:     -12.0      0.000      0.000
REMARK SMILES CCOc1ccc(-c2ccc(N3CCC[C@H](C(=O)NCCCNC(=O)c4ccc(-c5c6nc(c(-c7cccc(S(=O)(=O)[O-])c7F)c7ccc([nH]7)c(-c7cccc(S(=O)(=O)[O-])c7F)c7nc(c(-c8cccc(S(=O)(=O)[O-])c8F)c8ccc5[nH]8)C=C7)C=C6)cc4)C3)nn2)cc1
REMARK SMILES IDX 20 1 19 2 17 3 18 4 16 6 12 7 13 8 89 9 14 10 15 11 11 12
REMARK SMILES IDX 8 13 9 14 91 15 10 16 90 17 7 18 4 19 5 20 93 21 6 22 92 23
REMARK SMILES IDX 3 24 2 25 1 26 21 27 22 28 23 29 24 30 25 32 26 33 27 34
REMARK SMILES IDX 88 35 28 36 87 37 29 38 30 39 31 40 81 41 32 42 86 43 80 44
REMARK SMILES IDX 82 45 33 46 85 47 79 48 78 49 34 51 66 52 46 53 65 54 47 55
REMARK SMILES IDX 50 56 64 57 83 58 48 59 49 60 63 62 84 63 51 64 35 65 36 66
REMARK SMILES IDX 44 67 37 68 39 69 45 70 38 71 40 72 41 73 42 74 43 75 67 76
REMARK SMILES IDX 68 77 76 78 69 79 71 80 77 81 70 82 72 83 73 84 74 85 75 86
REMARK SMILES IDX 52 87 53 88 61 89 54 90 56 91 62 92 55 93 57 94 58 95 59 96
REMARK SMILES IDX 60 97
REMARK H PARENT 19 5 23 31 82 50 50 61
REMARK Flexibility Score: inf
ROOT
ATOM      1  C   UNL A   1      31.329  30.822  25.777  1.00  0.00     0.117 C 
ENDROOT
BRANCH   1   2
ATOM      2  N   UNL A   1      32.410  29.915  26.080  1.00  0.00    -0.356 N 
ATOM      3  C   UNL A   1      32.940  28.926  25.315  1.00  0.00     0.224 C 
ATOM      4  O   UNL A   1      34.065  28.523  25.639  1.00  0.00    -0.275 OA
ATOM      5  H   UNL A   1      32.821  30.030  26.967  1.00  0.00     0.163 HD
BRANCH   3   6
ATOM      6  C   UNL A   1      32.235  28.285  24.109  1.00  0.00     0.098 C 
ATOM      7  N   UNL A   1      33.192  26.145  23.239  1.00  0.00    -0.354 N 
ATOM      8  C   UNL A   1      33.416  26.672  21.899  1.00  0.00     0.118 C 
ATOM      9  C   UNL A   1      32.186  26.757  24.101  1.00  0.00     0.131 C 
ATOM     10  C   UNL A   1      33.547  28.192  21.883  1.00  0.00     0.022 C 
ATOM     11  C   UNL A   1      32.537  28.929  22.755  1.00  0.00     0.017 C 
BRANCH   7  12
ATOM     12  C   UNL A   1      34.030  25.169  23.753  1.00  0.00     0.151 A 
ATOM     13  C   UNL A   1      35.970  23.424  24.669  1.00  0.00     0.093 A 
ATOM     14  C   UNL A   1      35.351  24.280  25.564  1.00  0.00     0.035 A 
ATOM     15  N   UNL A   1      35.601  23.409  23.375  1.00  0.00    -0.148 NA
ATOM     16  C   UNL A   1      34.384  25.167  25.095  1.00  0.00     0.051 A 
ATOM     17  N   UNL A   1      34.600  24.259  22.933  1.00  0.00    -0.132 NA
BRANCH  13  18
ATOM     18  C   UNL A   1      37.002  22.481  25.092  1.00  0.00     0.002 A 
ATOM     19  C   UNL A   1      39.082  20.739  25.816  1.00  0.00     0.119 A 
ATOM     20  C   UNL A   1      38.022  20.266  25.048  1.00  0.00     0.047 A 
ATOM     21  C   UNL A   1      39.126  22.072  26.208  1.00  0.00     0.047 A 
ATOM     22  C   UNL A   1      36.979  21.133  24.696  1.00  0.00     0.014 A 
ATOM     23  C   UNL A   1      38.086  22.933  25.861  1.00  0.00     0.014 A 
BRANCH  19  24
ATOM     24  O   UNL A   1      40.131  19.905  26.084  1.00  0.00    -0.494 OA
BRANCH  24  25
ATOM     25  C   UNL A   1      41.371  20.612  26.226  1.00  0.00     0.226 C 
ATOM     26  C   UNL A   1      42.136  20.150  27.457  1.00  0.00     0.049 C 
ENDBRANCH  24  25
ENDBRANCH  19  24
ENDBRANCH  13  18
ENDBRANCH   7  12
ENDBRANCH   3   6
ENDBRANCH   1   2
BRANCH   1  27
ATOM     27  C   UNL A   1      31.231  32.030  26.691  1.00  0.00     0.042 C 
BRANCH  27  28
ATOM     28  C   UNL A   1      32.577  32.630  27.049  1.00  0.00     0.118 C 
BRANCH  28  29
ATOM     29  N   UNL A   1      32.494  33.958  27.651  1.00  0.00    -0.352 N 
ATOM     30  C   UNL A   1      33.335  34.582  28.547  1.00  0.00     0.251 C 
ATOM     31  H   UNL A   1      31.715  34.492  27.373  1.00  0.00     0.163 HD
ATOM     32  O   UNL A   1      33.097  35.725  28.919  1.00  0.00    -0.269 OA
BRANCH  30  33
ATOM     33  C   UNL A   1      34.494  33.854  29.114  1.00  0.00     0.039 A 
ATOM     34  C   UNL A   1      35.775  34.374  28.902  1.00  0.00     0.014 A 
ATOM     35  C   UNL A   1      34.331  32.703  29.884  1.00  0.00     0.014 A 
ATOM     36  C   UNL A   1      36.878  33.786  29.528  1.00  0.00     0.010 A 
ATOM     37  C   UNL A   1      35.409  32.194  30.599  1.00  0.00     0.010 A 
ATOM     38  C   UNL A   1      36.696  32.719  30.420  1.00  0.00    -0.014 A 
BRANCH  38  39
ATOM     39  C   UNL A   1      37.832  32.118  31.165  1.00  0.00     0.031 A 
ATOM     40  C   UNL A   1      38.604  30.975  30.557  1.00  0.00     0.074 A 
ATOM     41  C   UNL A   1      38.102  32.522  32.422  1.00  0.00     0.049 A 
ATOM     42  N   UNL A   1      39.554  30.247  31.084  1.00  0.00    -0.248 NA
ATOM     43  C   UNL A   1      38.226  30.565  29.193  1.00  0.00     0.031 C 
ATOM     44  C   UNL A   1      37.365  33.553  33.160  1.00  0.00     0.029 A 
ATOM     45  N   UNL A   1      39.056  32.098  33.314  1.00  0.00    -0.354 N 
ATOM     46  C   UNL A   1      39.842  29.264  30.144  1.00  0.00     0.074 A 
ATOM     47  C   UNL A   1      38.939  29.461  29.033  1.00  0.00     0.031 C 
ATOM     48  C   UNL A   1      37.902  33.689  34.383  1.00  0.00     0.029 A 
ATOM     49  C   UNL A   1      39.003  32.743  34.528  1.00  0.00     0.049 A 
ATOM     50  H   UNL A   1      39.714  31.398  33.104  1.00  0.00     0.167 HD
ATOM     51  C   UNL A   1      40.801  28.308  30.180  1.00  0.00     0.034 A 
ATOM     52  C   UNL A   1      39.762  32.591  35.632  1.00  0.00     0.034 A 
ATOM     53  C   UNL A   1      41.755  28.176  31.246  1.00  0.00     0.049 A 
ATOM     54  C   UNL A   1      40.889  31.594  35.605  1.00  0.00     0.074 A 
ATOM     55  C   UNL A   1      42.835  27.316  31.333  1.00  0.00     0.029 A 
ATOM     56  N   UNL A   1      41.752  28.938  32.404  1.00  0.00    -0.354 N 
ATOM     57  N   UNL A   1      41.248  30.781  34.642  1.00  0.00    -0.248 NA
ATOM     58  C   UNL A   1      41.742  31.521  36.801  1.00  0.00     0.031 C 
ATOM     59  C   UNL A   1      43.487  27.559  32.547  1.00  0.00     0.029 A 
ATOM     60  C   UNL A   1      42.816  28.575  33.211  1.00  0.00     0.049 A 
ATOM     61  H   UNL A   1      41.091  29.634  32.621  1.00  0.00     0.167 HD
ATOM     62  C   UNL A   1      42.385  30.125  35.099  1.00  0.00     0.074 A 
ATOM     63  C   UNL A   1      42.668  30.653  36.418  1.00  0.00     0.031 C 
ATOM     64  C   UNL A   1      43.118  29.160  34.491  1.00  0.00     0.034 A 
BRANCH  51  65
ATOM     65  C   UNL A   1      40.912  27.387  28.994  1.00  0.00     0.023 A 
ATOM     66  C   UNL A   1      40.096  26.237  28.933  1.00  0.00     0.012 A 
ATOM     67  C   UNL A   1      41.786  27.670  27.927  1.00  0.00     0.148 A 
ATOM     68  C   UNL A   1      40.180  25.361  27.852  1.00  0.00     0.002 A 
ATOM     69  C   UNL A   1      41.831  26.815  26.831  1.00  0.00     0.091 A 
ATOM     70  F   UNL A   1      42.570  28.753  28.011  1.00  0.00    -0.205 F 
ATOM     71  C   UNL A   1      41.039  25.655  26.797  1.00  0.00     0.022 A 
BRANCH  69  72
ATOM     72  S   UNL A   1      42.847  27.147  25.387  1.00  0.00     0.127 S 
ATOM     73  O   UNL A   1      44.162  27.354  25.992  1.00  0.00    -0.237 OA
ATOM     74  O   UNL A   1      42.716  25.906  24.624  1.00  0.00    -0.237 OA
ATOM     75  O   UNL A   1      42.259  28.315  24.746  1.00  0.00    -0.744 OA
ENDBRANCH  69  72
ENDBRANCH  51  65
BRANCH  52  76
ATOM     76  C   UNL A   1      39.546  33.477  36.812  1.00  0.00     0.023 A 
ATOM     77  C   UNL A   1      39.986  34.815  36.753  1.00  0.00     0.012 A 
ATOM     78  C   UNL A   1      38.882  33.025  37.968  1.00  0.00     0.148 A 
ATOM     79  C   UNL A   1      39.797  35.677  37.833  1.00  0.00     0.002 A 
ATOM     80  C   UNL A   1      38.650  33.904  39.022  1.00  0.00     0.091 A 
ATOM     81  F   UNL A   1      38.482  31.746  38.013  1.00  0.00    -0.205 F 
ATOM     82  C   UNL A   1      39.121  35.225  38.963  1.00  0.00     0.022 A 
BRANCH  80  83
ATOM     83  S   UNL A   1      37.676  33.443  40.459  1.00  0.00     0.127 S 
ATOM     84  O   UNL A   1      36.429  32.993  39.846  1.00  0.00    -0.237 OA
ATOM     85  O   UNL A   1      38.488  32.381  41.054  1.00  0.00    -0.237 OA
ATOM     86  O   UNL A   1      37.587  34.651  41.270  1.00  0.00    -0.744 OA
ENDBRANCH  80  83
ENDBRANCH  52  76
BRANCH  64  87
ATOM     87  C   UNL A   1      44.318  28.627  35.227  1.00  0.00     0.023 A 
ATOM     88  C   UNL A   1      45.577  29.227  35.028  1.00  0.00     0.012 A 
ATOM     89  C   UNL A   1      44.182  27.594  36.175  1.00  0.00     0.148 A 
ATOM     90  C   UNL A   1      46.689  28.788  35.745  1.00  0.00     0.002 A 
ATOM     91  C   UNL A   1      45.286  27.192  36.916  1.00  0.00     0.091 A 
ATOM     92  F   UNL A   1      42.979  27.022  36.331  1.00  0.00    -0.205 F 
ATOM     93  C   UNL A   1      46.542  27.781  36.697  1.00  0.00     0.022 A 
BRANCH  91  94
ATOM     94  S   UNL A   1      45.162  25.969  38.227  1.00  0.00     0.127 S 
ATOM     95  O   UNL A   1      44.125  26.549  39.078  1.00  0.00    -0.237 OA
ATOM     96  O   UNL A   1      44.751  24.769  37.497  1.00  0.00    -0.237 OA
ATOM     97  O   UNL A   1      46.490  25.885  38.818  1.00  0.00    -0.744 OA
ENDBRANCH  91  94
ENDBRANCH  64  87
ENDBRANCH  38  39
ENDBRANCH  30  33
ENDBRANCH  28  29
ENDBRANCH  27  28
ENDBRANCH   1  27
TORSDOF 17
ENDMDL
MODEL 2
REMARK VINA RESULT:     -11.8      2.113      2.776
REMARK SMILES CCOc1ccc(-c2ccc(N3CCC[C@H](C(=O)NCCCNC(=O)c4ccc(-c5c6nc(c(-c7cccc(S(=O)(=O)[O-])c7F)c7ccc([nH]7)c(-c7cccc(S(=O)(=O)[O-])c7F)c7nc(c(-c8cccc(S(=O)(=O)[O-])c8F)c8ccc5[nH]8)C=C7)C=C6)cc4)C3)nn2)cc1
REMARK SMILES IDX 20 1 19 2 17 3 18 4 16 6 12 7 13 8 89 9 14 10 15 11 11 12
REMARK SMILES IDX 8 13 9 14 91 15 10 16 90 17 7 18 4 19 5 20 93 21 6 22 92 23
REMARK SMILES IDX 3 24 2 25 1 26 21 27 22 28 23 29 24 30 25 32 26 33 27 34
REMARK SMILES IDX 88 35 28 36 87 37 29 38 30 39 31 40 81 41 32 42 86 43 80 44
REMARK SMILES IDX 82 45 33 46 85 47 79 48 78 49 34 51 66 52 46 53 65 54 47 55
REMARK SMILES IDX 50 56 64 57 83 58 48 59 49 60 63 62 84 63 51 64 35 65 36 66
REMARK SMILES IDX 44 67 37 68 39 69 45 70 38 71 40 72 41 73 42 74 43 75 67 76
REMARK SMILES IDX 68 77 76 78 69 79 71 80 77 81 70 82 72 83 73 84 74 85 75 86
REMARK SMILES IDX 52 87 53 88 61 89 54 90 56 91 62 92 55 93 57 94 58 95 59 96
REMARK SMILES IDX 60 97
REMARK H PARENT 19 5 23 31 82 50 50 61
REMARK Flexibility Score: inf
ROOT
ATOM      1  C   UNL A   1      33.255  30.054  27.384  1.00  0.00     0.117 C 
ENDROOT
BRANCH   1   2
ATOM      2  N   UNL A   1      33.674  29.409  26.163  1.00  0.00    -0.356 N 
ATOM      3  C   UNL A   1      32.930  29.039  25.089  1.00  0.00     0.224 C 
ATOM      4  O   UNL A   1      33.549  28.827  24.038  1.00  0.00    -0.275 OA
ATOM      5  H   UNL A   1      34.636  29.209  26.100  1.00  0.00     0.163 HD
BRANCH   3   6
ATOM      6  C   UNL A   1      31.404  28.858  25.107  1.00  0.00     0.098 C 
ATOM      7  N   UNL A   1      30.518  26.609  24.470  1.00  0.00    -0.354 N 
ATOM      8  C   UNL A   1      29.710  27.126  23.372  1.00  0.00     0.118 C 
ATOM      9  C   UNL A   1      30.900  27.490  25.567  1.00  0.00     0.131 C 
ATOM     10  C   UNL A   1      30.232  28.456  22.838  1.00  0.00     0.022 C 
ATOM     11  C   UNL A   1      30.659  29.451  23.911  1.00  0.00     0.017 C 
BRANCH   7  12
ATOM     12  C   UNL A   1      31.052  25.332  24.399  1.00  0.00     0.151 A 
ATOM     13  C   UNL A   1      31.787  22.672  24.218  1.00  0.00     0.093 A 
ATOM     14  C   UNL A   1      31.921  23.490  23.108  1.00  0.00     0.035 A 
ATOM     15  N   UNL A   1      31.348  23.176  25.386  1.00  0.00    -0.148 NA
ATOM     16  C   UNL A   1      31.536  24.826  23.201  1.00  0.00     0.051 A 
ATOM     17  N   UNL A   1      31.019  24.519  25.478  1.00  0.00    -0.132 NA
BRANCH  13  18
ATOM     18  C   UNL A   1      32.158  21.260  24.184  1.00  0.00     0.002 A 
ATOM     19  C   UNL A   1      32.729  18.512  24.082  1.00  0.00     0.119 A 
ATOM     20  C   UNL A   1      32.739  19.174  25.307  1.00  0.00     0.047 A 
ATOM     21  C   UNL A   1      32.417  19.200  22.914  1.00  0.00     0.047 A 
ATOM     22  C   UNL A   1      32.465  20.547  25.355  1.00  0.00     0.014 A 
ATOM     23  C   UNL A   1      32.148  20.567  22.964  1.00  0.00     0.014 A 
BRANCH  19  24
ATOM     24  O   UNL A   1      32.918  17.159  24.058  1.00  0.00    -0.494 OA
BRANCH  24  25
ATOM     25  C   UNL A   1      33.155  16.616  25.364  1.00  0.00     0.226 C 
ATOM     26  C   UNL A   1      32.970  15.106  25.380  1.00  0.00     0.049 C 
ENDBRANCH  24  25
ENDBRANCH  19  24
ENDBRANCH  13  18
ENDBRANCH   7  12
ENDBRANCH   3   6
ENDBRANCH   1   2
BRANCH   1  27
ATOM     27  C   UNL A   1      32.450  31.326  27.193  1.00  0.00     0.042 C 
BRANCH  27  28
ATOM     28  C   UNL A   1      33.307  32.558  26.971  1.00  0.00     0.118 C 
BRANCH  28  29
ATOM     29  N   UNL A   1      32.738  33.785  27.523  1.00  0.00    -0.352 N 
ATOM     30  C   UNL A   1      33.150  34.555  28.588  1.00  0.00     0.251 C 
ATOM     31  H   UNL A   1      31.933  34.113  27.060  1.00  0.00     0.163 HD
ATOM     32  O   UNL A   1      32.539  35.575  28.881  1.00  0.00    -0.269 OA
BRANCH  30  33
ATOM     33  C   UNL A   1      34.294  34.122  29.424  1.00  0.00     0.039 A 
ATOM     34  C   UNL A   1      34.046  33.256  30.494  1.00  0.00     0.014 A 
ATOM     35  C   UNL A   1      35.600  34.520  29.142  1.00  0.00     0.014 A 
ATOM     36  C   UNL A   1      35.114  32.728  31.225  1.00  0.00     0.010 A 
ATOM     37  C   UNL A   1      36.664  33.903  29.790  1.00  0.00     0.010 A 
ATOM     38  C   UNL A   1      36.435  33.011  30.847  1.00  0.00    -0.014 A 
BRANCH  38  39
ATOM     39  C   UNL A   1      37.598  32.408  31.549  1.00  0.00     0.031 A 
ATOM     40  C   UNL A   1      38.368  31.290  30.894  1.00  0.00     0.074 A 
ATOM     41  C   UNL A   1      37.894  32.786  32.808  1.00  0.00     0.049 A 
ATOM     42  N   UNL A   1      39.341  30.563  31.379  1.00  0.00    -0.248 NA
ATOM     43  C   UNL A   1      37.960  30.908  29.531  1.00  0.00     0.031 C 
ATOM     44  C   UNL A   1      37.163  33.788  33.589  1.00  0.00     0.029 A 
ATOM     45  N   UNL A   1      38.876  32.353  33.665  1.00  0.00    -0.354 N 
ATOM     46  C   UNL A   1      39.617  29.606  30.409  1.00  0.00     0.074 A 
ATOM     47  C   UNL A   1      38.683  29.818  29.326  1.00  0.00     0.031 C 
ATOM     48  C   UNL A   1      37.729  33.903  34.801  1.00  0.00     0.029 A 
ATOM     49  C   UNL A   1      38.846  32.968  34.896  1.00  0.00     0.049 A 
ATOM     50  H   UNL A   1      39.537  31.667  33.421  1.00  0.00     0.167 HD
ATOM     51  C   UNL A   1      40.588  28.663  30.397  1.00  0.00     0.034 A 
ATOM     52  C   UNL A   1      39.634  32.800  35.975  1.00  0.00     0.034 A 
ATOM     53  C   UNL A   1      41.572  28.518  31.435  1.00  0.00     0.049 A 
ATOM     54  C   UNL A   1      40.774  31.819  35.896  1.00  0.00     0.074 A 
ATOM     55  C   UNL A   1      42.664  27.671  31.473  1.00  0.00     0.029 A 
ATOM     56  N   UNL A   1      41.589  29.252  32.611  1.00  0.00    -0.354 N 
ATOM     57  N   UNL A   1      41.118  31.034  34.905  1.00  0.00    -0.248 NA
ATOM     58  C   UNL A   1      41.657  31.729  37.068  1.00  0.00     0.031 C 
ATOM     59  C   UNL A   1      43.344  27.894  32.676  1.00  0.00     0.029 A 
ATOM     60  C   UNL A   1      42.677  28.885  33.381  1.00  0.00     0.049 A 
ATOM     61  H   UNL A   1      40.924  29.934  32.861  1.00  0.00     0.167 HD
ATOM     62  C   UNL A   1      42.275  30.383  35.316  1.00  0.00     0.074 A 
ATOM     63  C   UNL A   1      42.585  30.883  36.641  1.00  0.00     0.031 C 
ATOM     64  C   UNL A   1      43.004  29.442  34.667  1.00  0.00     0.034 A 
BRANCH  51  65
ATOM     65  C   UNL A   1      40.681  27.772  29.186  1.00  0.00     0.023 A 
ATOM     66  C   UNL A   1      39.875  26.615  29.117  1.00  0.00     0.012 A 
ATOM     67  C   UNL A   1      41.527  28.089  28.107  1.00  0.00     0.148 A 
ATOM     68  C   UNL A   1      39.943  25.767  28.013  1.00  0.00     0.002 A 
ATOM     69  C   UNL A   1      41.555  27.262  26.989  1.00  0.00     0.091 A 
ATOM     70  F   UNL A   1      42.302  29.179  28.199  1.00  0.00    -0.205 F 
ATOM     71  C   UNL A   1      40.774  26.095  26.946  1.00  0.00     0.022 A 
BRANCH  69  72
ATOM     72  S   UNL A   1      42.533  27.640  25.531  1.00  0.00     0.127 S 
ATOM     73  O   UNL A   1      43.886  27.681  26.085  1.00  0.00    -0.237 OA
ATOM     74  O   UNL A   1      42.264  26.489  24.670  1.00  0.00    -0.237 OA
ATOM     75  O   UNL A   1      42.023  28.906  25.025  1.00  0.00    -0.744 OA
ENDBRANCH  69  72
ENDBRANCH  51  65
BRANCH  52  76
ATOM     76  C   UNL A   1      39.438  33.654  37.182  1.00  0.00     0.023 A 
ATOM     77  C   UNL A   1      39.950  34.968  37.181  1.00  0.00     0.012 A 
ATOM     78  C   UNL A   1      38.723  33.198  38.306  1.00  0.00     0.148 A 
ATOM     79  C   UNL A   1      39.780  35.800  38.287  1.00  0.00     0.002 A 
ATOM     80  C   UNL A   1      38.513  34.051  39.385  1.00  0.00     0.091 A 
ATOM     81  F   UNL A   1      38.254  31.943  38.296  1.00  0.00    -0.205 F 
ATOM     82  C   UNL A   1      39.054  35.347  39.384  1.00  0.00     0.022 A 
BRANCH  80  83
ATOM     83  S   UNL A   1      37.481  33.594  40.783  1.00  0.00     0.127 S 
ATOM     84  O   UNL A   1      36.264  33.132  40.121  1.00  0.00    -0.237 OA
ATOM     85  O   UNL A   1      38.274  32.541  41.419  1.00  0.00    -0.237 OA
ATOM     86  O   UNL A   1      37.350  34.807  41.581  1.00  0.00    -0.744 OA
ENDBRANCH  80  83
ENDBRANCH  52  76
BRANCH  64  87
ATOM     87  C   UNL A   1      44.230  28.909  35.360  1.00  0.00     0.023 A 
ATOM     88  C   UNL A   1      45.483  29.498  35.105  1.00  0.00     0.012 A 
ATOM     89  C   UNL A   1      44.125  27.885  36.321  1.00  0.00     0.148 A 
ATOM     90  C   UNL A   1      46.621  29.058  35.781  1.00  0.00     0.002 A 
ATOM     91  C   UNL A   1      45.256  27.482  37.022  1.00  0.00     0.091 A 
ATOM     92  F   UNL A   1      42.926  27.322  36.532  1.00  0.00    -0.205 F 
ATOM     93  C   UNL A   1      46.505  28.061  36.747  1.00  0.00     0.022 A 
BRANCH  91  94
ATOM     94  S   UNL A   1      45.176  26.272  38.347  1.00  0.00     0.127 S 
ATOM     95  O   UNL A   1      44.771  25.067  37.627  1.00  0.00    -0.237 OA
ATOM     96  O   UNL A   1      46.555  26.254  38.839  1.00  0.00    -0.237 OA
ATOM     97  O   UNL A   1      44.207  26.793  39.301  1.00  0.00    -0.744 OA
ENDBRANCH  91  94
ENDBRANCH  64  87
ENDBRANCH  38  39
ENDBRANCH  30  33
ENDBRANCH  28  29
ENDBRANCH  27  28
ENDBRANCH   1  27
TORSDOF 17
ENDMDL
MODEL 3
REMARK VINA RESULT:     -11.7      1.029      7.697
REMARK SMILES CCOc1ccc(-c2ccc(N3CCC[C@H](C(=O)NCCCNC(=O)c4ccc(-c5c6nc(c(-c7cccc(S(=O)(=O)[O-])c7F)c7ccc([nH]7)c(-c7cccc(S(=O)(=O)[O-])c7F)c7nc(c(-c8cccc(S(=O)(=O)[O-])c8F)c8ccc5[nH]8)C=C7)C=C6)cc4)C3)nn2)cc1
REMARK SMILES IDX 20 1 19 2 17 3 18 4 16 6 12 7 13 8 89 9 14 10 15 11 11 12
REMARK SMILES IDX 8 13 9 14 91 15 10 16 90 17 7 18 4 19 5 20 93 21 6 22 92 23
REMARK SMILES IDX 3 24 2 25 1 26 21 27 22 28 23 29 24 30 25 32 26 33 27 34
REMARK SMILES IDX 88 35 28 36 87 37 29 38 30 39 31 40 81 41 32 42 86 43 80 44
REMARK SMILES IDX 82 45 33 46 85 47 79 48 78 49 34 51 66 52 46 53 65 54 47 55
REMARK SMILES IDX 50 56 64 57 83 58 48 59 49 60 63 62 84 63 51 64 35 65 36 66
REMARK SMILES IDX 44 67 37 68 39 69 45 70 38 71 40 72 41 73 42 74 43 75 67 76
REMARK SMILES IDX 68 77 76 78 69 79 71 80 77 81 70 82 72 83 73 84 74 85 75 86
REMARK SMILES IDX 52 87 53 88 61 89 54 90 56 91 62 92 55 93 57 94 58 95 59 96
REMARK SMILES IDX 60 97
REMARK H PARENT 19 5 23 31 82 50 50 61
REMARK Flexibility Score: inf
ROOT
ATOM      1  C   UNL A   1      31.858  30.370  26.493  1.00  0.00     0.117 C 
ENDROOT
BRANCH   1   2
ATOM      2  N   UNL A   1      32.489  29.907  25.281  1.00  0.00    -0.356 N 
ATOM      3  C   UNL A   1      32.030  29.023  24.358  1.00  0.00     0.224 C 
ATOM      4  O   UNL A   1      32.580  29.048  23.249  1.00  0.00    -0.275 OA
ATOM      5  H   UNL A   1      33.378  30.287  25.096  1.00  0.00     0.163 HD
BRANCH   3   6
ATOM      6  C   UNL A   1      30.904  28.007  24.610  1.00  0.00     0.098 C 
ATOM      7  N   UNL A   1      31.573  25.612  24.872  1.00  0.00    -0.354 N 
ATOM      8  C   UNL A   1      30.743  25.153  23.765  1.00  0.00     0.118 C 
ATOM      9  C   UNL A   1      31.245  26.856  25.558  1.00  0.00     0.131 C 
ATOM     10  C   UNL A   1      30.447  26.262  22.758  1.00  0.00     0.022 C 
ATOM     11  C   UNL A   1      30.092  27.608  23.378  1.00  0.00     0.017 C 
BRANCH   7  12
ATOM     12  C   UNL A   1      32.754  24.954  25.175  1.00  0.00     0.151 A 
ATOM     13  C   UNL A   1      35.127  23.558  25.438  1.00  0.00     0.093 A 
ATOM     14  C   UNL A   1      35.159  24.941  25.360  1.00  0.00     0.035 A 
ATOM     15  N   UNL A   1      33.952  22.903  25.432  1.00  0.00    -0.148 NA
ATOM     16  C   UNL A   1      33.962  25.638  25.214  1.00  0.00     0.051 A 
ATOM     17  N   UNL A   1      32.766  23.613  25.340  1.00  0.00    -0.132 NA
BRANCH  13  18
ATOM     18  C   UNL A   1      36.346  22.766  25.577  1.00  0.00     0.002 A 
ATOM     19  C   UNL A   1      38.755  21.332  25.744  1.00  0.00     0.119 A 
ATOM     20  C   UNL A   1      37.633  20.734  25.175  1.00  0.00     0.047 A 
ATOM     21  C   UNL A   1      38.693  22.640  26.209  1.00  0.00     0.047 A 
ATOM     22  C   UNL A   1      36.429  21.446  25.103  1.00  0.00     0.014 A 
ATOM     23  C   UNL A   1      37.493  23.347  26.140  1.00  0.00     0.014 A 
BRANCH  19  24
ATOM     24  O   UNL A   1      39.943  20.656  25.735  1.00  0.00    -0.494 OA
BRANCH  24  25
ATOM     25  C   UNL A   1      40.740  20.936  26.893  1.00  0.00     0.226 C 
ATOM     26  C   UNL A   1      41.744  19.824  27.159  1.00  0.00     0.049 C 
ENDBRANCH  24  25
ENDBRANCH  19  24
ENDBRANCH  13  18
ENDBRANCH   7  12
ENDBRANCH   3   6
ENDBRANCH   1   2
BRANCH   1  27
ATOM     27  C   UNL A   1      31.679  31.874  26.589  1.00  0.00     0.042 C 
BRANCH  27  28
ATOM     28  C   UNL A   1      32.826  32.578  27.289  1.00  0.00     0.118 C 
BRANCH  28  29
ATOM     29  N   UNL A   1      32.496  33.916  27.772  1.00  0.00    -0.352 N 
ATOM     30  C   UNL A   1      33.132  34.705  28.704  1.00  0.00     0.251 C 
ATOM     31  H   UNL A   1      31.693  34.317  27.368  1.00  0.00     0.163 HD
ATOM     32  O   UNL A   1      32.702  35.825  28.957  1.00  0.00    -0.269 OA
BRANCH  30  33
ATOM     33  C   UNL A   1      34.299  34.185  29.453  1.00  0.00     0.039 A 
ATOM     34  C   UNL A   1      34.068  33.345  30.547  1.00  0.00     0.014 A 
ATOM     35  C   UNL A   1      35.607  34.476  29.067  1.00  0.00     0.014 A 
ATOM     36  C   UNL A   1      35.144  32.735  31.197  1.00  0.00     0.010 A 
ATOM     37  C   UNL A   1      36.665  33.778  29.637  1.00  0.00     0.010 A 
ATOM     38  C   UNL A   1      36.450  32.910  30.716  1.00  0.00    -0.014 A 
BRANCH  38  39
ATOM     39  C   UNL A   1      37.611  32.217  31.331  1.00  0.00     0.031 A 
ATOM     40  C   UNL A   1      38.178  32.719  32.634  1.00  0.00     0.074 A 
ATOM     41  C   UNL A   1      38.222  31.212  30.671  1.00  0.00     0.049 A 
ATOM     42  N   UNL A   1      39.245  32.324  33.278  1.00  0.00    -0.248 NA
ATOM     43  C   UNL A   1      37.477  33.845  33.276  1.00  0.00     0.031 C 
ATOM     44  C   UNL A   1      37.830  30.699  29.355  1.00  0.00     0.029 A 
ATOM     45  N   UNL A   1      39.319  30.458  31.006  1.00  0.00    -0.354 N 
ATOM     46  C   UNL A   1      39.374  33.186  34.360  1.00  0.00     0.074 A 
ATOM     47  C   UNL A   1      38.303  34.151  34.265  1.00  0.00     0.031 C 
ATOM     48  C   UNL A   1      38.664  29.707  29.003  1.00  0.00     0.029 A 
ATOM     49  C   UNL A   1      39.662  29.528  30.052  1.00  0.00     0.049 A 
ATOM     50  H   UNL A   1      39.812  30.572  31.849  1.00  0.00     0.167 HD
ATOM     51  C   UNL A   1      40.277  33.154  35.369  1.00  0.00     0.034 A 
ATOM     52  C   UNL A   1      40.666  28.630  30.029  1.00  0.00     0.034 A 
ATOM     53  C   UNL A   1      41.283  32.137  35.508  1.00  0.00     0.049 A 
ATOM     54  C   UNL A   1      41.592  28.546  31.214  1.00  0.00     0.074 A 
ATOM     55  C   UNL A   1      42.176  31.946  36.547  1.00  0.00     0.029 A 
ATOM     56  N   UNL A   1      41.516  31.130  34.585  1.00  0.00    -0.354 N 
ATOM     57  N   UNL A   1      41.599  29.269  32.307  1.00  0.00    -0.248 NA
ATOM     58  C   UNL A   1      42.621  27.496  31.182  1.00  0.00     0.031 C 
ATOM     59  C   UNL A   1      42.951  30.819  36.250  1.00  0.00     0.029 A 
ATOM     60  C   UNL A   1      42.534  30.306  35.031  1.00  0.00     0.049 A 
ATOM     61  H   UNL A   1      41.028  31.017  33.737  1.00  0.00     0.167 HD
ATOM     62  C   UNL A   1      42.606  28.743  33.107  1.00  0.00     0.074 A 
ATOM     63  C   UNL A   1      43.174  27.625  32.381  1.00  0.00     0.031 C 
ATOM     64  C   UNL A   1      43.038  29.159  34.323  1.00  0.00     0.034 A 
BRANCH  51  65
ATOM     65  C   UNL A   1      40.161  34.205  36.442  1.00  0.00     0.023 A 
ATOM     66  C   UNL A   1      40.541  35.533  36.152  1.00  0.00     0.012 A 
ATOM     67  C   UNL A   1      39.646  33.897  37.716  1.00  0.00     0.148 A 
ATOM     68  C   UNL A   1      40.452  36.527  37.126  1.00  0.00     0.002 A 
ATOM     69  C   UNL A   1      39.518  34.904  38.667  1.00  0.00     0.091 A 
ATOM     70  F   UNL A   1      39.312  32.627  37.982  1.00  0.00    -0.205 F 
ATOM     71  C   UNL A   1      39.931  36.215  38.378  1.00  0.00     0.022 A 
BRANCH  69  72
ATOM     72  S   UNL A   1      38.786  34.619  40.282  1.00  0.00     0.127 S 
ATOM     73  O   UNL A   1      38.562  35.987  40.750  1.00  0.00    -0.237 OA
ATOM     74  O   UNL A   1      37.566  33.885  39.945  1.00  0.00    -0.237 OA
ATOM     75  O   UNL A   1      39.766  33.850  41.035  1.00  0.00    -0.744 OA
ENDBRANCH  69  72
ENDBRANCH  51  65
BRANCH  52  76
ATOM     76  C   UNL A   1      40.783  27.670  28.894  1.00  0.00     0.023 A 
ATOM     77  C   UNL A   1      39.896  26.576  28.830  1.00  0.00     0.012 A 
ATOM     78  C   UNL A   1      41.727  27.847  27.865  1.00  0.00     0.148 A 
ATOM     79  C   UNL A   1      39.967  25.660  27.780  1.00  0.00     0.002 A 
ATOM     80  C   UNL A   1      41.760  26.960  26.794  1.00  0.00     0.091 A 
ATOM     81  F   UNL A   1      42.572  28.885  27.948  1.00  0.00    -0.205 F 
ATOM     82  C   UNL A   1      40.891  25.857  26.757  1.00  0.00     0.022 A 
BRANCH  80  83
ATOM     83  S   UNL A   1      42.829  27.209  25.372  1.00  0.00     0.127 S 
ATOM     84  O   UNL A   1      42.666  25.951  24.648  1.00  0.00    -0.237 OA
ATOM     85  O   UNL A   1      42.218  28.373  24.729  1.00  0.00    -0.237 OA
ATOM     86  O   UNL A   1      44.154  27.460  25.923  1.00  0.00    -0.744 OA
ENDBRANCH  80  83
ENDBRANCH  52  76
BRANCH  64  87
ATOM     87  C   UNL A   1      44.158  28.388  34.968  1.00  0.00     0.023 A 
ATOM     88  C   UNL A   1      45.491  28.670  34.611  1.00  0.00     0.012 A 
ATOM     89  C   UNL A   1      43.894  27.448  35.983  1.00  0.00     0.148 A 
ATOM     90  C   UNL A   1      46.545  28.008  35.239  1.00  0.00     0.002 A 
ATOM     91  C   UNL A   1      44.952  26.825  36.635  1.00  0.00     0.091 A 
ATOM     92  F   UNL A   1      42.617  27.178  36.291  1.00  0.00    -0.205 F 
ATOM     93  C   UNL A   1      46.277  27.097  36.258  1.00  0.00     0.022 A 
BRANCH  91  94
ATOM     94  S   UNL A   1      44.696  25.711  38.021  1.00  0.00     0.127 S 
ATOM     95  O   UNL A   1      44.171  24.522  37.354  1.00  0.00    -0.237 OA
ATOM     96  O   UNL A   1      46.049  25.562  38.558  1.00  0.00    -0.237 OA
ATOM     97  O   UNL A   1      43.770  26.395  38.913  1.00  0.00    -0.744 OA
ENDBRANCH  91  94
ENDBRANCH  64  87
ENDBRANCH  38  39
ENDBRANCH  30  33
ENDBRANCH  28  29
ENDBRANCH  27  28
ENDBRANCH   1  27
TORSDOF 17
ENDMDL
