MODEL 1
REMARK VINA RESULT:     -10.2      0.000      0.000
REMARK SMILES O=C(C[NH2+]C[C@@H]1CCCO1)NCCCNC(=O)c1ccc(-c2c3nc(c(-c4cccc(S(=O)(=O)[O-])c4F)c4ccc([nH]4)c(-c4cccc(S(=O)(=O)[O-])c4F)c4nc(c(-c5cccc(S(=O)(=O)[O-])c5F)c5ccc2[nH]5)C=C4)C=C3)cc1
REMARK SMILES IDX 13 1 12 2 11 3 1 4 2 5 3 7 4 8 5 11 6 12 7 13 10 14 8 15
REMARK SMILES IDX 9 16 14 17 15 18 16 19 17 21 18 22 19 23 80 24 20 25 79 26
REMARK SMILES IDX 21 27 22 28 23 29 73 30 24 31 78 32 72 33 74 34 25 35 77 36
REMARK SMILES IDX 71 37 70 38 26 40 58 41 38 42 57 43 39 44 42 45 56 46 75 47
REMARK SMILES IDX 40 48 41 49 55 51 76 52 43 53 27 54 28 55 36 56 29 57 31 58
REMARK SMILES IDX 37 59 30 60 32 61 33 62 34 63 35 64 59 65 60 66 68 67 61 68
REMARK SMILES IDX 63 69 69 70 62 71 64 72 65 73 66 74 67 75 44 76 45 77 53 78
REMARK SMILES IDX 46 79 48 80 54 81 47 82 49 83 50 84 51 85 52 86
REMARK H PARENT 11 6 4 9 4 10 15 20 74 39 42 50
REMARK Flexibility Score: inf
ROOT
ATOM      1  C   UNL A   1      34.493  34.508  28.524  1.00  0.00     0.042 C 
ENDROOT
BRANCH   1   2
ATOM      2  C   UNL A   1      33.229  35.176  29.056  1.00  0.00     0.118 C 
BRANCH   2   3
ATOM      3  N   UNL A   1      33.171  35.190  30.502  1.00  0.00    -0.351 N 
ATOM      4  O   UNL A   1      32.747  37.442  30.736  1.00  0.00    -0.269 OA
ATOM      5  C   UNL A   1      32.942  36.336  31.231  1.00  0.00     0.275 C 
ATOM      6  H   UNL A   1      33.301  34.342  30.986  1.00  0.00     0.163 HD
BRANCH   5   7
ATOM      7  C   UNL A   1      32.981  36.116  32.745  1.00  0.00     0.361 C 
BRANCH   7   8
ATOM      8  N   UNL A   1      33.556  34.790  33.046  1.00  0.00    -0.336 N 
ATOM      9  H   UNL A   1      33.587  34.241  32.187  1.00  0.00     0.346 HD
ATOM     10  H   UNL A   1      32.967  34.338  33.746  1.00  0.00     0.346 HD
BRANCH   8  11
ATOM     11  C   UNL A   1      34.921  34.901  33.594  1.00  0.00     0.293 C 
BRANCH  11  12
ATOM     12  C   UNL A   1      35.909  33.833  33.077  1.00  0.00     0.173 C 
ATOM     13  C   UNL A   1      35.236  32.559  32.596  1.00  0.00     0.040 C 
ATOM     14  O   UNL A   1      36.815  33.418  34.120  1.00  0.00    -0.372 OA
ATOM     15  C   UNL A   1      36.371  31.571  32.688  1.00  0.00     0.031 C 
ATOM     16  C   UNL A   1      37.080  32.016  33.952  1.00  0.00     0.161 C 
ENDBRANCH  11  12
ENDBRANCH   8  11
ENDBRANCH   7   8
ENDBRANCH   5   7
ENDBRANCH   2   3
ENDBRANCH   1   2
BRANCH   1  17
ATOM     17  C   UNL A   1      34.716  33.077  29.011  1.00  0.00     0.118 C 
BRANCH  17  18
ATOM     18  N   UNL A   1      34.055  32.079  28.183  1.00  0.00    -0.352 N 
ATOM     19  C   UNL A   1      34.483  30.848  27.750  1.00  0.00     0.251 C 
ATOM     20  H   UNL A   1      33.152  32.328  27.882  1.00  0.00     0.163 HD
ATOM     21  O   UNL A   1      33.790  30.233  26.940  1.00  0.00    -0.269 OA
BRANCH  19  22
ATOM     22  C   UNL A   1      35.762  30.260  28.216  1.00  0.00     0.039 A 
ATOM     23  C   UNL A   1      36.880  30.360  27.382  1.00  0.00     0.014 A 
ATOM     24  C   UNL A   1      35.869  29.578  29.432  1.00  0.00     0.014 A 
ATOM     25  C   UNL A   1      38.108  29.829  27.789  1.00  0.00     0.010 A 
ATOM     26  C   UNL A   1      37.112  29.116  29.870  1.00  0.00     0.010 A 
ATOM     27  C   UNL A   1      38.245  29.231  29.053  1.00  0.00    -0.014 A 
BRANCH  27  28
ATOM     28  C   UNL A   1      39.578  28.767  29.527  1.00  0.00     0.031 A 
ATOM     29  C   UNL A   1      40.298  29.469  30.647  1.00  0.00     0.074 A 
ATOM     30  C   UNL A   1      40.171  27.727  28.905  1.00  0.00     0.049 A 
ATOM     31  N   UNL A   1      41.444  29.170  31.205  1.00  0.00    -0.248 NA
ATOM     32  C   UNL A   1      39.666  30.679  31.199  1.00  0.00     0.031 C 
ATOM     33  C   UNL A   1      39.629  27.020  27.742  1.00  0.00     0.029 A 
ATOM     34  N   UNL A   1      41.363  27.093  29.151  1.00  0.00    -0.354 N 
ATOM     35  C   UNL A   1      41.684  30.161  32.150  1.00  0.00     0.074 A 
ATOM     36  C   UNL A   1      40.580  31.094  32.064  1.00  0.00     0.031 C 
ATOM     37  C   UNL A   1      40.474  26.038  27.390  1.00  0.00     0.029 A 
ATOM     38  C   UNL A   1      41.627  26.058  28.283  1.00  0.00     0.049 A 
ATOM     39  H   UNL A   1      41.971  27.354  29.880  1.00  0.00     0.167 HD
ATOM     40  C   UNL A   1      42.710  30.272  33.029  1.00  0.00     0.034 A 
ATOM     41  C   UNL A   1      42.675  25.214  28.216  1.00  0.00     0.034 A 
ATOM     42  C   UNL A   1      43.789  29.324  33.137  1.00  0.00     0.049 A 
ATOM     43  C   UNL A   1      43.767  25.319  29.247  1.00  0.00     0.074 A 
ATOM     44  C   UNL A   1      44.828  29.303  34.053  1.00  0.00     0.029 A 
ATOM     45  N   UNL A   1      43.976  28.236  32.299  1.00  0.00    -0.354 N 
ATOM     46  N   UNL A   1      43.885  26.162  30.244  1.00  0.00    -0.248 NA
ATOM     47  C   UNL A   1      44.845  24.323  29.171  1.00  0.00     0.031 C 
ATOM     48  C   UNL A   1      45.656  28.215  33.752  1.00  0.00     0.029 A 
ATOM     49  C   UNL A   1      45.116  27.540  32.670  1.00  0.00     0.049 A 
ATOM     50  H   UNL A   1      43.386  27.994  31.549  1.00  0.00     0.167 HD
ATOM     51  C   UNL A   1      45.029  25.777  30.934  1.00  0.00     0.074 A 
ATOM     52  C   UNL A   1      45.549  24.607  30.258  1.00  0.00     0.031 C 
ATOM     53  C   UNL A   1      45.603  26.351  32.020  1.00  0.00     0.034 A 
BRANCH  40  54
ATOM     54  C   UNL A   1      42.687  31.435  33.991  1.00  0.00     0.023 A 
ATOM     55  C   UNL A   1      43.309  32.648  33.628  1.00  0.00     0.012 A 
ATOM     56  C   UNL A   1      41.998  31.354  35.217  1.00  0.00     0.148 A 
ATOM     57  C   UNL A   1      43.279  33.748  34.484  1.00  0.00     0.002 A 
ATOM     58  C   UNL A   1      41.932  32.470  36.045  1.00  0.00     0.091 A 
ATOM     59  F   UNL A   1      41.427  30.189  35.555  1.00  0.00    -0.205 F 
ATOM     60  C   UNL A   1      42.582  33.662  35.686  1.00  0.00     0.022 A 
BRANCH  58  61
ATOM     61  S   UNL A   1      40.991  32.489  37.575  1.00  0.00     0.127 S 
ATOM     62  O   UNL A   1      41.858  31.714  38.463  1.00  0.00    -0.237 OA
ATOM     63  O   UNL A   1      40.929  33.919  37.880  1.00  0.00    -0.237 OA
ATOM     64  O   UNL A   1      39.708  31.877  37.266  1.00  0.00    -0.744 OA
ENDBRANCH  58  61
ENDBRANCH  40  54
BRANCH  41  65
ATOM     65  C   UNL A   1      42.700  24.141  27.183  1.00  0.00     0.023 A 
ATOM     66  C   UNL A   1      43.393  24.358  25.975  1.00  0.00     0.012 A 
ATOM     67  C   UNL A   1      42.066  22.903  27.398  1.00  0.00     0.148 A 
ATOM     68  C   UNL A   1      43.423  23.375  24.986  1.00  0.00     0.002 A 
ATOM     69  C   UNL A   1      42.150  21.907  26.433  1.00  0.00     0.091 A 
ATOM     70  F   UNL A   1      41.403  22.721  28.549  1.00  0.00    -0.205 F 
ATOM     71  C   UNL A   1      42.811  22.146  25.219  1.00  0.00     0.022 A 
BRANCH  69  72
ATOM     72  S   UNL A   1      41.509  20.251  26.705  1.00  0.00     0.127 S 
ATOM     73  O   UNL A   1      40.079  20.507  26.866  1.00  0.00    -0.237 OA
ATOM     74  O   UNL A   1      41.878  19.576  25.458  1.00  0.00    -0.237 OA
ATOM     75  O   UNL A   1      42.199  19.751  27.884  1.00  0.00    -0.744 OA
ENDBRANCH  69  72
ENDBRANCH  41  65
BRANCH  53  76
ATOM     76  C   UNL A   1      46.846  25.698  32.571  1.00  0.00     0.023 A 
ATOM     77  C   UNL A   1      46.752  24.822  33.673  1.00  0.00     0.012 A 
ATOM     78  C   UNL A   1      48.103  25.925  31.978  1.00  0.00     0.148 A 
ATOM     79  C   UNL A   1      47.896  24.226  34.206  1.00  0.00     0.002 A 
ATOM     80  C   UNL A   1      49.230  25.286  32.482  1.00  0.00     0.091 A 
ATOM     81  F   UNL A   1      48.180  26.775  30.944  1.00  0.00    -0.205 F 
ATOM     82  C   UNL A   1      49.132  24.451  33.606  1.00  0.00     0.022 A 
BRANCH  80  83
ATOM     83  S   UNL A   1      50.844  25.444  31.708  1.00  0.00     0.127 S 
ATOM     84  O   UNL A   1      51.159  26.848  31.958  1.00  0.00    -0.237 OA
ATOM     85  O   UNL A   1      51.652  24.492  32.473  1.00  0.00    -0.237 OA
ATOM     86  O   UNL A   1      50.650  25.078  30.311  1.00  0.00    -0.744 OA
ENDBRANCH  80  83
ENDBRANCH  53  76
ENDBRANCH  27  28
ENDBRANCH  19  22
ENDBRANCH  17  18
ENDBRANCH   1  17
TORSDOF 16
ENDMDL
MODEL 2
REMARK VINA RESULT:     -10.2      1.340      1.672
REMARK SMILES O=C(C[NH2+]C[C@@H]1CCCO1)NCCCNC(=O)c1ccc(-c2c3nc(c(-c4cccc(S(=O)(=O)[O-])c4F)c4ccc([nH]4)c(-c4cccc(S(=O)(=O)[O-])c4F)c4nc(c(-c5cccc(S(=O)(=O)[O-])c5F)c5ccc2[nH]5)C=C4)C=C3)cc1
REMARK SMILES IDX 13 1 12 2 11 3 1 4 2 5 3 7 4 8 5 11 6 12 7 13 10 14 8 15
REMARK SMILES IDX 9 16 14 17 15 18 16 19 17 21 18 22 19 23 80 24 20 25 79 26
REMARK SMILES IDX 21 27 22 28 23 29 73 30 24 31 78 32 72 33 74 34 25 35 77 36
REMARK SMILES IDX 71 37 70 38 26 40 58 41 38 42 57 43 39 44 42 45 56 46 75 47
REMARK SMILES IDX 40 48 41 49 55 51 76 52 43 53 27 54 28 55 36 56 29 57 31 58
REMARK SMILES IDX 37 59 30 60 32 61 33 62 34 63 35 64 59 65 60 66 68 67 61 68
REMARK SMILES IDX 63 69 69 70 62 71 64 72 65 73 66 74 67 75 44 76 45 77 53 78
REMARK SMILES IDX 46 79 48 80 54 81 47 82 49 83 50 84 51 85 52 86
REMARK H PARENT 11 6 4 9 4 10 15 20 74 39 42 50
REMARK Flexibility Score: inf
ROOT
ATOM      1  C   UNL A   1      33.425  33.949  28.064  1.00  0.00     0.042 C 
ENDROOT
BRANCH   1   2
ATOM      2  C   UNL A   1      33.730  35.146  28.959  1.00  0.00     0.118 C 
BRANCH   2   3
ATOM      3  N   UNL A   1      33.122  35.033  30.267  1.00  0.00    -0.351 N 
ATOM      4  O   UNL A   1      32.898  37.292  30.659  1.00  0.00    -0.269 OA
ATOM      5  C   UNL A   1      32.760  36.127  31.021  1.00  0.00     0.275 C 
ATOM      6  H   UNL A   1      32.959  34.134  30.634  1.00  0.00     0.163 HD
BRANCH   5   7
ATOM      7  C   UNL A   1      32.187  35.763  32.393  1.00  0.00     0.361 C 
BRANCH   7   8
ATOM      8  N   UNL A   1      33.079  34.801  33.071  1.00  0.00    -0.336 N 
ATOM      9  H   UNL A   1      33.275  34.028  32.436  1.00  0.00     0.346 HD
ATOM     10  H   UNL A   1      32.610  34.471  33.914  1.00  0.00     0.346 HD
BRANCH   8  11
ATOM     11  C   UNL A   1      34.354  35.429  33.468  1.00  0.00     0.293 C 
BRANCH  11  12
ATOM     12  C   UNL A   1      35.587  34.508  33.353  1.00  0.00     0.173 C 
ATOM     13  C   UNL A   1      35.940  34.136  31.923  1.00  0.00     0.040 C 
ATOM     14  O   UNL A   1      35.364  33.255  34.031  1.00  0.00    -0.372 OA
ATOM     15  C   UNL A   1      36.750  32.881  32.134  1.00  0.00     0.031 C 
ATOM     16  C   UNL A   1      36.015  32.217  33.282  1.00  0.00     0.161 C 
ENDBRANCH  11  12
ENDBRANCH   8  11
ENDBRANCH   7   8
ENDBRANCH   5   7
ENDBRANCH   2   3
ENDBRANCH   1   2
BRANCH   1  17
ATOM     17  C   UNL A   1      34.321  32.732  28.291  1.00  0.00     0.118 C 
BRANCH  17  18
ATOM     18  N   UNL A   1      33.750  31.494  27.780  1.00  0.00    -0.352 N 
ATOM     19  C   UNL A   1      34.313  30.256  27.598  1.00  0.00     0.251 C 
ATOM     20  H   UNL A   1      32.802  31.556  27.522  1.00  0.00     0.163 HD
ATOM     21  O   UNL A   1      33.658  29.388  27.022  1.00  0.00    -0.269 OA
BRANCH  19  22
ATOM     22  C   UNL A   1      35.689  29.951  28.057  1.00  0.00     0.039 A 
ATOM     23  C   UNL A   1      35.866  29.513  29.373  1.00  0.00     0.014 A 
ATOM     24  C   UNL A   1      36.806  30.130  27.235  1.00  0.00     0.014 A 
ATOM     25  C   UNL A   1      37.146  29.202  29.843  1.00  0.00     0.010 A 
ATOM     26  C   UNL A   1      38.073  29.746  27.681  1.00  0.00     0.010 A 
ATOM     27  C   UNL A   1      38.260  29.283  28.990  1.00  0.00    -0.014 A 
BRANCH  27  28
ATOM     28  C   UNL A   1      39.604  28.847  29.461  1.00  0.00     0.031 A 
ATOM     29  C   UNL A   1      40.311  29.564  30.581  1.00  0.00     0.074 A 
ATOM     30  C   UNL A   1      40.218  27.822  28.835  1.00  0.00     0.049 A 
ATOM     31  N   UNL A   1      41.464  29.289  31.136  1.00  0.00    -0.248 NA
ATOM     32  C   UNL A   1      39.653  30.758  31.136  1.00  0.00     0.031 C 
ATOM     33  C   UNL A   1      39.689  27.104  27.672  1.00  0.00     0.029 A 
ATOM     34  N   UNL A   1      41.424  27.214  29.079  1.00  0.00    -0.354 N 
ATOM     35  C   UNL A   1      41.684  30.283  32.081  1.00  0.00     0.074 A 
ATOM     36  C   UNL A   1      40.560  31.192  31.999  1.00  0.00     0.031 C 
ATOM     37  C   UNL A   1      40.555  26.142  27.318  1.00  0.00     0.029 A 
ATOM     38  C   UNL A   1      41.709  26.186  28.209  1.00  0.00     0.049 A 
ATOM     39  H   UNL A   1      42.028  27.487  29.806  1.00  0.00     0.167 HD
ATOM     40  C   UNL A   1      42.709  30.416  32.958  1.00  0.00     0.034 A 
ATOM     41  C   UNL A   1      42.775  25.365  28.138  1.00  0.00     0.034 A 
ATOM     42  C   UNL A   1      43.810  29.492  33.063  1.00  0.00     0.049 A 
ATOM     43  C   UNL A   1      43.866  25.493  29.166  1.00  0.00     0.074 A 
ATOM     44  C   UNL A   1      44.851  29.492  33.976  1.00  0.00     0.029 A 
ATOM     45  N   UNL A   1      44.019  28.409  32.222  1.00  0.00    -0.354 N 
ATOM     46  N   UNL A   1      43.968  26.336  30.164  1.00  0.00    -0.248 NA
ATOM     47  C   UNL A   1      44.966  24.520  29.087  1.00  0.00     0.031 C 
ATOM     48  C   UNL A   1      45.702  28.423  33.672  1.00  0.00     0.029 A 
ATOM     49  C   UNL A   1      45.174  27.738  32.590  1.00  0.00     0.049 A 
ATOM     50  H   UNL A   1      43.432  28.155  31.473  1.00  0.00     0.167 HD
ATOM     51  C   UNL A   1      45.122  25.976  30.852  1.00  0.00     0.074 A 
ATOM     52  C   UNL A   1      45.667  24.819  30.173  1.00  0.00     0.031 C 
ATOM     53  C   UNL A   1      45.686  26.560  31.937  1.00  0.00     0.034 A 
BRANCH  40  54
ATOM     54  C   UNL A   1      42.663  31.577  33.921  1.00  0.00     0.023 A 
ATOM     55  C   UNL A   1      43.192  32.824  33.531  1.00  0.00     0.012 A 
ATOM     56  C   UNL A   1      42.041  31.456  35.179  1.00  0.00     0.148 A 
ATOM     57  C   UNL A   1      43.138  33.921  34.389  1.00  0.00     0.002 A 
ATOM     58  C   UNL A   1      41.948  32.567  36.011  1.00  0.00     0.091 A 
ATOM     59  F   UNL A   1      41.558  30.259  35.543  1.00  0.00    -0.205 F 
ATOM     60  C   UNL A   1      42.506  33.796  35.623  1.00  0.00     0.022 A 
BRANCH  58  61
ATOM     61  S   UNL A   1      41.082  32.531  37.586  1.00  0.00     0.127 S 
ATOM     62  O   UNL A   1      41.942  31.649  38.374  1.00  0.00    -0.237 OA
ATOM     63  O   UNL A   1      41.120  33.938  37.989  1.00  0.00    -0.237 OA
ATOM     64  O   UNL A   1      39.752  32.016  37.302  1.00  0.00    -0.744 OA
ENDBRANCH  58  61
ENDBRANCH  40  54
BRANCH  41  65
ATOM     65  C   UNL A   1      42.821  24.295  27.103  1.00  0.00     0.023 A 
ATOM     66  C   UNL A   1      43.551  24.509  25.917  1.00  0.00     0.012 A 
ATOM     67  C   UNL A   1      42.170  23.062  27.295  1.00  0.00     0.148 A 
ATOM     68  C   UNL A   1      43.602  23.527  24.926  1.00  0.00     0.002 A 
ATOM     69  C   UNL A   1      42.274  22.067  26.331  1.00  0.00     0.091 A 
ATOM     70  F   UNL A   1      41.472  22.883  28.426  1.00  0.00    -0.205 F 
ATOM     71  C   UNL A   1      42.973  22.304  25.137  1.00  0.00     0.022 A 
BRANCH  69  72
ATOM     72  S   UNL A   1      41.611  20.416  26.579  1.00  0.00     0.127 S 
ATOM     73  O   UNL A   1      40.175  20.680  26.655  1.00  0.00    -0.237 OA
ATOM     74  O   UNL A   1      42.048  19.729  25.362  1.00  0.00    -0.237 OA
ATOM     75  O   UNL A   1      42.229  19.924  27.801  1.00  0.00    -0.744 OA
ENDBRANCH  69  72
ENDBRANCH  41  65
BRANCH  53  76
ATOM     76  C   UNL A   1      46.944  25.934  32.485  1.00  0.00     0.023 A 
ATOM     77  C   UNL A   1      48.204  26.356  32.014  1.00  0.00     0.012 A 
ATOM     78  C   UNL A   1      46.879  24.949  33.490  1.00  0.00     0.148 A 
ATOM     79  C   UNL A   1      49.375  25.771  32.497  1.00  0.00     0.002 A 
ATOM     80  C   UNL A   1      48.052  24.410  34.004  1.00  0.00     0.091 A 
ATOM     81  F   UNL A   1      45.674  24.544  33.915  1.00  0.00    -0.205 F 
ATOM     82  C   UNL A   1      49.300  24.806  33.498  1.00  0.00     0.022 A 
BRANCH  80  83
ATOM     83  S   UNL A   1      48.048  23.233  35.363  1.00  0.00     0.127 S 
ATOM     84  O   UNL A   1      47.381  22.082  34.758  1.00  0.00    -0.237 OA
ATOM     85  O   UNL A   1      49.477  23.045  35.619  1.00  0.00    -0.237 OA
ATOM     86  O   UNL A   1      47.325  23.884  36.447  1.00  0.00    -0.744 OA
ENDBRANCH  80  83
ENDBRANCH  53  76
ENDBRANCH  27  28
ENDBRANCH  19  22
ENDBRANCH  17  18
ENDBRANCH   1  17
TORSDOF 16
ENDMDL
MODEL 3
REMARK VINA RESULT:     -10.1      4.650     12.059
REMARK SMILES O=C(C[NH2+]C[C@@H]1CCCO1)NCCCNC(=O)c1ccc(-c2c3nc(c(-c4cccc(S(=O)(=O)[O-])c4F)c4ccc([nH]4)c(-c4cccc(S(=O)(=O)[O-])c4F)c4nc(c(-c5cccc(S(=O)(=O)[O-])c5F)c5ccc2[nH]5)C=C4)C=C3)cc1
REMARK SMILES IDX 13 1 12 2 11 3 1 4 2 5 3 7 4 8 5 11 6 12 7 13 10 14 8 15
REMARK SMILES IDX 9 16 14 17 15 18 16 19 17 21 18 22 19 23 80 24 20 25 79 26
REMARK SMILES IDX 21 27 22 28 23 29 73 30 24 31 78 32 72 33 74 34 25 35 77 36
REMARK SMILES IDX 71 37 70 38 26 40 58 41 38 42 57 43 39 44 42 45 56 46 75 47
REMARK SMILES IDX 40 48 41 49 55 51 76 52 43 53 27 54 28 55 36 56 29 57 31 58
REMARK SMILES IDX 37 59 30 60 32 61 33 62 34 63 35 64 59 65 60 66 68 67 61 68
REMARK SMILES IDX 63 69 69 70 62 71 64 72 65 73 66 74 67 75 44 76 45 77 53 78
REMARK SMILES IDX 46 79 48 80 54 81 47 82 49 83 50 84 51 85 52 86
REMARK H PARENT 11 6 4 9 4 10 15 20 74 39 42 50
REMARK Flexibility Score: inf
ROOT
ATOM      1  C   UNL A   1      41.634  19.974  27.402  1.00  0.00     0.042 C 
ENDROOT
BRANCH   1   2
ATOM      2  C   UNL A   1      41.887  19.348  26.034  1.00  0.00     0.118 C 
BRANCH   2   3
ATOM      3  N   UNL A   1      43.037  19.915  25.365  1.00  0.00    -0.351 N 
ATOM      4  O   UNL A   1      44.342  18.017  25.409  1.00  0.00    -0.269 OA
ATOM      5  C   UNL A   1      44.186  19.198  25.113  1.00  0.00     0.275 C 
ATOM      6  H   UNL A   1      42.997  20.856  25.076  1.00  0.00     0.163 HD
BRANCH   5   7
ATOM      7  C   UNL A   1      45.289  20.023  24.445  1.00  0.00     0.361 C 
BRANCH   7   8
ATOM      8  N   UNL A   1      44.712  21.243  23.847  1.00  0.00    -0.336 N 
ATOM      9  H   UNL A   1      43.725  21.300  24.099  1.00  0.00     0.346 HD
ATOM     10  H   UNL A   1      44.826  21.186  22.834  1.00  0.00     0.346 HD
BRANCH   8  11
ATOM     11  C   UNL A   1      45.398  22.459  24.321  1.00  0.00     0.293 C 
BRANCH  11  12
ATOM     12  C   UNL A   1      45.575  22.542  25.852  1.00  0.00     0.173 C 
ATOM     13  C   UNL A   1      44.390  23.166  26.571  1.00  0.00     0.040 C 
ATOM     14  O   UNL A   1      46.709  23.363  26.200  1.00  0.00    -0.372 OA
ATOM     15  C   UNL A   1      45.027  23.608  27.864  1.00  0.00     0.031 C 
ATOM     16  C   UNL A   1      46.391  24.081  27.402  1.00  0.00     0.161 C 
ENDBRANCH  11  12
ENDBRANCH   8  11
ENDBRANCH   7   8
ENDBRANCH   5   7
ENDBRANCH   2   3
ENDBRANCH   1   2
BRANCH   1  17
ATOM     17  C   UNL A   1      41.116  21.411  27.364  1.00  0.00     0.118 C 
BRANCH  17  18
ATOM     18  N   UNL A   1      39.918  21.569  26.553  1.00  0.00    -0.352 N 
ATOM     19  C   UNL A   1      39.135  22.672  26.317  1.00  0.00     0.251 C 
ATOM     20  H   UNL A   1      39.619  20.749  26.099  1.00  0.00     0.163 HD
ATOM     21  O   UNL A   1      38.084  22.528  25.693  1.00  0.00    -0.269 OA
BRANCH  19  22
ATOM     22  C   UNL A   1      39.513  24.017  26.813  1.00  0.00     0.039 A 
ATOM     23  C   UNL A   1      39.222  24.338  28.143  1.00  0.00     0.014 A 
ATOM     24  C   UNL A   1      40.106  24.976  25.987  1.00  0.00     0.014 A 
ATOM     25  C   UNL A   1      39.573  25.591  28.654  1.00  0.00     0.010 A 
ATOM     26  C   UNL A   1      40.526  26.197  26.520  1.00  0.00     0.010 A 
ATOM     27  C   UNL A   1      40.260  26.523  27.857  1.00  0.00    -0.014 A 
BRANCH  27  28
ATOM     28  C   UNL A   1      40.729  27.812  28.436  1.00  0.00     0.031 A 
ATOM     29  C   UNL A   1      42.197  28.110  28.593  1.00  0.00     0.074 A 
ATOM     30  C   UNL A   1      39.818  28.704  28.874  1.00  0.00     0.049 A 
ATOM     31  N   UNL A   1      42.772  29.197  29.042  1.00  0.00    -0.248 NA
ATOM     32  C   UNL A   1      43.143  27.045  28.223  1.00  0.00     0.031 C 
ATOM     33  C   UNL A   1      38.367  28.500  28.874  1.00  0.00     0.029 A 
ATOM     34  N   UNL A   1      39.975  29.956  29.417  1.00  0.00    -0.354 N 
ATOM     35  C   UNL A   1      44.138  28.942  29.034  1.00  0.00     0.074 A 
ATOM     36  C   UNL A   1      44.305  27.580  28.571  1.00  0.00     0.031 C 
ATOM     37  C   UNL A   1      37.768  29.593  29.371  1.00  0.00     0.029 A 
ATOM     38  C   UNL A   1      38.787  30.567  29.747  1.00  0.00     0.049 A 
ATOM     39  H   UNL A   1      40.854  30.376  29.557  1.00  0.00     0.167 HD
ATOM     40  C   UNL A   1      45.164  29.769  29.353  1.00  0.00     0.034 A 
ATOM     41  C   UNL A   1      38.542  31.778  30.284  1.00  0.00     0.034 A 
ATOM     42  C   UNL A   1      44.999  31.134  29.781  1.00  0.00     0.049 A 
ATOM     43  C   UNL A   1      39.697  32.701  30.566  1.00  0.00     0.074 A 
ATOM     44  C   UNL A   1      45.977  32.079  30.044  1.00  0.00     0.029 A 
ATOM     45  N   UNL A   1      43.779  31.749  30.018  1.00  0.00    -0.354 N 
ATOM     46  N   UNL A   1      40.979  32.500  30.387  1.00  0.00    -0.248 NA
ATOM     47  C   UNL A   1      39.364  34.038  31.079  1.00  0.00     0.031 C 
ATOM     48  C   UNL A   1      45.348  33.257  30.463  1.00  0.00     0.029 A 
ATOM     49  C   UNL A   1      43.978  33.058  30.429  1.00  0.00     0.049 A 
ATOM     50  H   UNL A   1      42.900  31.319  29.909  1.00  0.00     0.167 HD
ATOM     51  C   UNL A   1      41.604  33.693  30.730  1.00  0.00     0.074 A 
ATOM     52  C   UNL A   1      40.555  34.621  31.099  1.00  0.00     0.031 C 
ATOM     53  C   UNL A   1      42.927  33.989  30.752  1.00  0.00     0.034 A 
BRANCH  40  54
ATOM     54  C   UNL A   1      46.568  29.238  29.197  1.00  0.00     0.023 A 
ATOM     55  C   UNL A   1      47.211  28.640  30.301  1.00  0.00     0.012 A 
ATOM     56  C   UNL A   1      47.225  29.269  27.951  1.00  0.00     0.148 A 
ATOM     57  C   UNL A   1      48.497  28.116  30.178  1.00  0.00     0.002 A 
ATOM     58  C   UNL A   1      48.488  28.702  27.825  1.00  0.00     0.091 A 
ATOM     59  F   UNL A   1      46.607  29.856  26.916  1.00  0.00    -0.205 F 
ATOM     60  C   UNL A   1      49.130  28.137  28.939  1.00  0.00     0.022 A 
BRANCH  58  61
ATOM     61  S   UNL A   1      49.356  28.604  26.254  1.00  0.00     0.127 S 
ATOM     62  O   UNL A   1      50.194  27.422  26.455  1.00  0.00    -0.237 OA
ATOM     63  O   UNL A   1      48.256  28.417  25.306  1.00  0.00    -0.237 OA
ATOM     64  O   UNL A   1      50.074  29.861  26.112  1.00  0.00    -0.744 OA
ENDBRANCH  58  61
ENDBRANCH  40  54
BRANCH  41  65
ATOM     65  C   UNL A   1      37.137  32.219  30.513  1.00  0.00     0.023 A 
ATOM     66  C   UNL A   1      36.552  32.037  31.782  1.00  0.00     0.012 A 
ATOM     67  C   UNL A   1      36.389  32.838  29.494  1.00  0.00     0.148 A 
ATOM     68  C   UNL A   1      35.235  32.430  32.020  1.00  0.00     0.002 A 
ATOM     69  C   UNL A   1      35.098  33.280  29.756  1.00  0.00     0.091 A 
ATOM     70  F   UNL A   1      36.961  32.992  28.291  1.00  0.00    -0.205 F 
ATOM     71  C   UNL A   1      34.512  33.061  31.012  1.00  0.00     0.022 A 
BRANCH  69  72
ATOM     72  S   UNL A   1      34.146  34.223  28.559  1.00  0.00     0.127 S 
ATOM     73  O   UNL A   1      34.959  35.430  28.415  1.00  0.00    -0.237 OA
ATOM     74  O   UNL A   1      34.156  33.332  27.397  1.00  0.00    -0.237 OA
ATOM     75  O   UNL A   1      32.835  34.411  29.161  1.00  0.00    -0.744 OA
ENDBRANCH  69  72
ENDBRANCH  41  65
BRANCH  53  76
ATOM     76  C   UNL A   1      43.317  35.389  31.155  1.00  0.00     0.023 A 
ATOM     77  C   UNL A   1      43.566  35.687  32.511  1.00  0.00     0.012 A 
ATOM     78  C   UNL A   1      43.469  36.401  30.188  1.00  0.00     0.148 A 
ATOM     79  C   UNL A   1      43.909  36.983  32.901  1.00  0.00     0.002 A 
ATOM     80  C   UNL A   1      43.862  37.676  30.579  1.00  0.00     0.091 A 
ATOM     81  F   UNL A   1      43.210  36.108  28.906  1.00  0.00    -0.205 F 
ATOM     82  C   UNL A   1      44.065  37.974  31.935  1.00  0.00     0.022 A 
BRANCH  80  83
ATOM     83  S   UNL A   1      44.181  38.984  29.388  1.00  0.00     0.127 S 
ATOM     84  O   UNL A   1      43.048  38.842  28.477  1.00  0.00    -0.237 OA
ATOM     85  O   UNL A   1      44.143  40.185  30.225  1.00  0.00    -0.237 OA
ATOM     86  O   UNL A   1      45.489  38.691  28.820  1.00  0.00    -0.744 OA
ENDBRANCH  80  83
ENDBRANCH  53  76
ENDBRANCH  27  28
ENDBRANCH  19  22
ENDBRANCH  17  18
ENDBRANCH   1  17
TORSDOF 16
ENDMDL
