MODEL 1
REMARK VINA RESULT:     -11.4      0.000      0.000
REMARK SMILES Cc1ccc2c(c1)c(-c1ccnc3c(C)cccc13)c(C)n2CC(=O)NCCCNC(=O)c1ccc(-c2c3nc(c(-c4cccc(S(=O)(=O)[O-])c4F)c4ccc([nH]4)c(-c4cccc(S(=O)(=O)[O-])c4F)c4nc(c(-c5cccc(S(=O)(=O)[O-])c5F)c5ccc2[nH]5)C=C4)C=C3)cc1
REMARK SMILES IDX 28 1 27 2 26 3 24 4 25 5 23 7 22 8 1 9 2 10 3 11 7 12 4 13
REMARK SMILES IDX 6 14 5 15 8 16 20 17 21 18 9 19 10 20 19 21 11 22 13 23
REMARK SMILES IDX 18 24 12 25 14 26 17 27 15 28 16 29 29 30 30 31 31 32 32 34
REMARK SMILES IDX 33 35 34 36 95 37 35 38 94 39 36 40 37 41 38 42 88 43 39 44
REMARK SMILES IDX 93 45 87 46 89 47 40 48 92 49 86 50 85 51 41 53 73 54 53 55
REMARK SMILES IDX 72 56 54 57 57 58 71 59 90 60 55 61 56 62 70 64 91 65 58 66
REMARK SMILES IDX 42 67 43 68 51 69 44 70 46 71 52 72 45 73 47 74 48 75 49 76
REMARK SMILES IDX 50 77 74 78 75 79 83 80 76 81 78 82 84 83 77 84 79 85 80 86
REMARK SMILES IDX 81 87 82 88 59 89 60 90 68 91 61 92 63 93 69 94 62 95 64 96
REMARK SMILES IDX 65 97 66 98 67 99
REMARK H PARENT 26 6 30 33 89 52 57 63
REMARK Flexibility Score: inf
ROOT
ATOM      1  C   UNL A   1      41.822  19.212  26.954  1.00  0.00     0.042 C 
ENDROOT
BRANCH   1   2
ATOM      2  C   UNL A   1      42.983  19.389  25.978  1.00  0.00     0.117 C 
BRANCH   2   3
ATOM      3  N   UNL A   1      42.899  20.631  25.225  1.00  0.00    -0.354 N 
ATOM      4  C   UNL A   1      43.797  21.648  25.093  1.00  0.00     0.239 C 
ATOM      5  O   UNL A   1      43.477  22.600  24.374  1.00  0.00    -0.273 OA
ATOM      6  H   UNL A   1      42.056  20.758  24.732  1.00  0.00     0.163 HD
BRANCH   4   7
ATOM      7  C   UNL A   1      45.163  21.583  25.746  1.00  0.00     0.222 C 
BRANCH   7   8
ATOM      8  N   UNL A   1      45.596  22.849  26.325  1.00  0.00    -0.335 N 
ATOM      9  C   UNL A   1      44.350  25.466  31.186  1.00  0.00     0.044 C 
ATOM     10  C   UNL A   1      44.668  24.712  29.927  1.00  0.00    -0.050 A 
ATOM     11  C   UNL A   1      44.247  23.389  29.785  1.00  0.00     0.005 A 
ATOM     12  C   UNL A   1      45.409  25.314  28.898  1.00  0.00     0.014 A 
ATOM     13  C   UNL A   1      44.528  22.657  28.628  1.00  0.00     0.027 A 
ATOM     14  C   UNL A   1      45.705  24.595  27.719  1.00  0.00     0.008 A 
ATOM     15  C   UNL A   1      45.244  23.284  27.593  1.00  0.00     0.049 A 
ATOM     16  C   UNL A   1      46.408  24.911  26.518  1.00  0.00     0.011 A 
ATOM     17  C   UNL A   1      46.408  23.784  25.709  1.00  0.00     0.024 A 
ATOM     18  C   UNL A   1      47.077  23.571  24.391  1.00  0.00     0.065 C 
BRANCH  16  19
ATOM     19  C   UNL A   1      47.036  26.173  26.143  1.00  0.00    -0.005 A 
ATOM     20  C   UNL A   1      46.429  26.935  25.149  1.00  0.00     0.029 A 
ATOM     21  C   UNL A   1      48.248  26.612  26.737  1.00  0.00     0.008 A 
ATOM     22  C   UNL A   1      47.030  28.120  24.793  1.00  0.00     0.112 A 
ATOM     23  C   UNL A   1      48.784  27.845  26.298  1.00  0.00     0.074 A 
ATOM     24  C   UNL A   1      48.944  25.875  27.726  1.00  0.00     0.011 A 
ATOM     25  N   UNL A   1      48.167  28.586  25.353  1.00  0.00    -0.256 NA
ATOM     26  C   UNL A   1      49.988  28.292  26.866  1.00  0.00    -0.025 A 
ATOM     27  C   UNL A   1      50.136  26.327  28.275  1.00  0.00     0.001 A 
ATOM     28  C   UNL A   1      50.626  29.590  26.443  1.00  0.00     0.047 C 
ATOM     29  C   UNL A   1      50.658  27.534  27.844  1.00  0.00     0.005 A 
ENDBRANCH  16  19
ENDBRANCH   7   8
ENDBRANCH   4   7
ENDBRANCH   2   3
ENDBRANCH   1   2
BRANCH   1  30
ATOM     30  C   UNL A   1      41.249  20.528  27.482  1.00  0.00     0.118 C 
BRANCH  30  31
ATOM     31  N   UNL A   1      40.057  20.981  26.790  1.00  0.00    -0.352 N 
ATOM     32  C   UNL A   1      39.523  22.203  26.486  1.00  0.00     0.251 C 
ATOM     33  H   UNL A   1      39.503  20.235  26.464  1.00  0.00     0.163 HD
ATOM     34  O   UNL A   1      38.507  22.183  25.786  1.00  0.00    -0.269 OA
BRANCH  32  35
ATOM     35  C   UNL A   1      40.029  23.509  26.989  1.00  0.00     0.039 A 
ATOM     36  C   UNL A   1      41.151  23.683  27.799  1.00  0.00     0.014 A 
ATOM     37  C   UNL A   1      39.275  24.643  26.631  1.00  0.00     0.014 A 
ATOM     38  C   UNL A   1      41.446  24.933  28.332  1.00  0.00     0.010 A 
ATOM     39  C   UNL A   1      39.581  25.900  27.138  1.00  0.00     0.010 A 
ATOM     40  C   UNL A   1      40.639  26.033  28.030  1.00  0.00    -0.014 A 
BRANCH  40  41
ATOM     41  C   UNL A   1      41.026  27.330  28.577  1.00  0.00     0.031 A 
ATOM     42  C   UNL A   1      42.335  27.837  28.079  1.00  0.00     0.074 A 
ATOM     43  C   UNL A   1      40.231  28.064  29.382  1.00  0.00     0.049 A 
ATOM     44  N   UNL A   1      43.418  28.046  28.754  1.00  0.00    -0.248 NA
ATOM     45  C   UNL A   1      42.489  28.010  26.625  1.00  0.00     0.031 C 
ATOM     46  C   UNL A   1      38.824  27.811  29.710  1.00  0.00     0.029 A 
ATOM     47  N   UNL A   1      40.476  29.267  29.985  1.00  0.00    -0.354 N 
ATOM     48  C   UNL A   1      44.319  28.598  27.843  1.00  0.00     0.074 A 
ATOM     49  C   UNL A   1      43.761  28.399  26.531  1.00  0.00     0.031 C 
ATOM     50  C   UNL A   1      38.279  28.933  30.232  1.00  0.00     0.029 A 
ATOM     51  C   UNL A   1      39.326  29.921  30.421  1.00  0.00     0.049 A 
ATOM     52  H   UNL A   1      41.381  29.635  30.100  1.00  0.00     0.167 HD
ATOM     53  C   UNL A   1      45.327  29.420  28.239  1.00  0.00     0.034 A 
ATOM     54  C   UNL A   1      39.244  31.201  30.858  1.00  0.00     0.034 A 
ATOM     55  C   UNL A   1      45.535  29.390  29.655  1.00  0.00     0.049 A 
ATOM     56  C   UNL A   1      40.595  31.597  31.308  1.00  0.00     0.074 A 
ATOM     57  C   UNL A   1      46.158  28.570  30.568  1.00  0.00     0.029 A 
ATOM     58  N   UNL A   1      44.701  30.226  30.345  1.00  0.00    -0.354 N 
ATOM     59  N   UNL A   1      41.187  31.081  32.347  1.00  0.00    -0.248 NA
ATOM     60  C   UNL A   1      41.430  32.429  30.450  1.00  0.00     0.031 C 
ATOM     61  C   UNL A   1      45.524  28.822  31.821  1.00  0.00     0.029 A 
ATOM     62  C   UNL A   1      44.550  29.801  31.636  1.00  0.00     0.049 A 
ATOM     63  H   UNL A   1      44.268  31.024  29.964  1.00  0.00     0.167 HD
ATOM     64  C   UNL A   1      42.528  31.167  32.035  1.00  0.00     0.074 A 
ATOM     65  C   UNL A   1      42.625  32.163  30.981  1.00  0.00     0.031 C 
ATOM     66  C   UNL A   1      43.393  30.185  32.408  1.00  0.00     0.034 A 
BRANCH  53  67
ATOM     67  C   UNL A   1      45.824  30.585  27.419  1.00  0.00     0.023 A 
ATOM     68  C   UNL A   1      47.205  30.870  27.410  1.00  0.00     0.012 A 
ATOM     69  C   UNL A   1      44.957  31.566  26.886  1.00  0.00     0.148 A 
ATOM     70  C   UNL A   1      47.699  32.067  26.876  1.00  0.00     0.002 A 
ATOM     71  C   UNL A   1      45.456  32.714  26.284  1.00  0.00     0.091 A 
ATOM     72  F   UNL A   1      43.638  31.457  27.085  1.00  0.00    -0.205 F 
ATOM     73  C   UNL A   1      46.826  32.980  26.293  1.00  0.00     0.022 A 
BRANCH  71  74
ATOM     74  S   UNL A   1      44.370  33.895  25.477  1.00  0.00     0.127 S 
ATOM     75  O   UNL A   1      45.319  34.905  25.022  1.00  0.00    -0.237 OA
ATOM     76  O   UNL A   1      43.776  33.078  24.417  1.00  0.00    -0.237 OA
ATOM     77  O   UNL A   1      43.426  34.312  26.505  1.00  0.00    -0.744 OA
ENDBRANCH  71  74
ENDBRANCH  53  67
BRANCH  54  78
ATOM     78  C   UNL A   1      38.155  32.207  30.811  1.00  0.00     0.023 A 
ATOM     79  C   UNL A   1      37.518  32.450  29.574  1.00  0.00     0.012 A 
ATOM     80  C   UNL A   1      37.521  32.660  31.986  1.00  0.00     0.148 A 
ATOM     81  C   UNL A   1      36.248  33.030  29.513  1.00  0.00     0.002 A 
ATOM     82  C   UNL A   1      36.258  33.247  31.919  1.00  0.00     0.091 A 
ATOM     83  F   UNL A   1      38.102  32.423  33.169  1.00  0.00    -0.205 F 
ATOM     84  C   UNL A   1      35.610  33.411  30.687  1.00  0.00     0.022 A 
BRANCH  82  85
ATOM     85  S   UNL A   1      35.365  33.756  33.393  1.00  0.00     0.127 S 
ATOM     86  O   UNL A   1      33.969  33.605  32.977  1.00  0.00    -0.237 OA
ATOM     87  O   UNL A   1      35.820  32.776  34.375  1.00  0.00    -0.237 OA
ATOM     88  O   UNL A   1      35.766  35.137  33.632  1.00  0.00    -0.744 OA
ENDBRANCH  82  85
ENDBRANCH  54  78
BRANCH  66  89
ATOM     89  C   UNL A   1      43.003  29.321  33.565  1.00  0.00     0.023 A 
ATOM     90  C   UNL A   1      42.101  28.247  33.443  1.00  0.00     0.012 A 
ATOM     91  C   UNL A   1      43.664  29.537  34.784  1.00  0.00     0.148 A 
ATOM     92  C   UNL A   1      41.863  27.400  34.530  1.00  0.00     0.002 A 
ATOM     93  C   UNL A   1      43.455  28.673  35.846  1.00  0.00     0.091 A 
ATOM     94  F   UNL A   1      44.513  30.574  34.865  1.00  0.00    -0.205 F 
ATOM     95  C   UNL A   1      42.551  27.604  35.726  1.00  0.00     0.022 A 
BRANCH  93  96
ATOM     96  S   UNL A   1      44.382  28.815  37.373  1.00  0.00     0.127 S 
ATOM     97  O   UNL A   1      43.821  30.027  37.962  1.00  0.00    -0.237 OA
ATOM     98  O   UNL A   1      44.027  27.574  38.063  1.00  0.00    -0.237 OA
ATOM     99  O   UNL A   1      45.788  28.902  36.988  1.00  0.00    -0.744 OA
ENDBRANCH  93  96
ENDBRANCH  66  89
ENDBRANCH  40  41
ENDBRANCH  32  35
ENDBRANCH  30  31
ENDBRANCH   1  30
TORSDOF 15
ENDMDL
MODEL 2
REMARK VINA RESULT:     -11.3      4.650     11.287
REMARK SMILES Cc1ccc2c(c1)c(-c1ccnc3c(C)cccc13)c(C)n2CC(=O)NCCCNC(=O)c1ccc(-c2c3nc(c(-c4cccc(S(=O)(=O)[O-])c4F)c4ccc([nH]4)c(-c4cccc(S(=O)(=O)[O-])c4F)c4nc(c(-c5cccc(S(=O)(=O)[O-])c5F)c5ccc2[nH]5)C=C4)C=C3)cc1
REMARK SMILES IDX 28 1 27 2 26 3 24 4 25 5 23 7 22 8 1 9 2 10 3 11 7 12 4 13
REMARK SMILES IDX 6 14 5 15 8 16 20 17 21 18 9 19 10 20 19 21 11 22 13 23
REMARK SMILES IDX 18 24 12 25 14 26 17 27 15 28 16 29 29 30 30 31 31 32 32 34
REMARK SMILES IDX 33 35 34 36 95 37 35 38 94 39 36 40 37 41 38 42 88 43 39 44
REMARK SMILES IDX 93 45 87 46 89 47 40 48 92 49 86 50 85 51 41 53 73 54 53 55
REMARK SMILES IDX 72 56 54 57 57 58 71 59 90 60 55 61 56 62 70 64 91 65 58 66
REMARK SMILES IDX 42 67 43 68 51 69 44 70 46 71 52 72 45 73 47 74 48 75 49 76
REMARK SMILES IDX 50 77 74 78 75 79 83 80 76 81 78 82 84 83 77 84 79 85 80 86
REMARK SMILES IDX 81 87 82 88 59 89 60 90 68 91 61 92 63 93 69 94 62 95 64 96
REMARK SMILES IDX 65 97 66 98 67 99
REMARK H PARENT 26 6 30 33 89 52 57 63
REMARK Flexibility Score: inf
ROOT
ATOM      1  C   UNL A   1      32.611  30.715  26.893  1.00  0.00     0.042 C 
ENDROOT
BRANCH   1   2
ATOM      2  C   UNL A   1      32.498  29.597  25.858  1.00  0.00     0.117 C 
BRANCH   2   3
ATOM      3  N   UNL A   1      31.621  28.519  26.288  1.00  0.00    -0.354 N 
ATOM      4  C   UNL A   1      31.881  27.198  26.498  1.00  0.00     0.239 C 
ATOM      5  O   UNL A   1      30.946  26.486  26.879  1.00  0.00    -0.273 OA
ATOM      6  H   UNL A   1      30.688  28.788  26.455  1.00  0.00     0.163 HD
BRANCH   4   7
ATOM      7  C   UNL A   1      33.279  26.634  26.337  1.00  0.00     0.222 C 
BRANCH   7   8
ATOM      8  N   UNL A   1      33.358  25.524  25.395  1.00  0.00    -0.335 N 
ATOM      9  C   UNL A   1      32.675  25.202  19.786  1.00  0.00     0.044 C 
ATOM     10  C   UNL A   1      32.876  25.352  21.267  1.00  0.00    -0.050 A 
ATOM     11  C   UNL A   1      32.953  26.626  21.830  1.00  0.00     0.005 A 
ATOM     12  C   UNL A   1      33.014  24.224  22.090  1.00  0.00     0.014 A 
ATOM     13  C   UNL A   1      33.143  26.803  23.204  1.00  0.00     0.027 A 
ATOM     14  C   UNL A   1      33.206  24.376  23.481  1.00  0.00     0.008 A 
ATOM     15  C   UNL A   1      33.248  25.663  24.020  1.00  0.00     0.049 A 
ATOM     16  C   UNL A   1      33.367  23.461  24.563  1.00  0.00     0.011 A 
ATOM     17  C   UNL A   1      33.554  24.196  25.725  1.00  0.00     0.024 A 
ATOM     18  C   UNL A   1      33.847  23.713  27.108  1.00  0.00     0.065 C 
BRANCH  16  19
ATOM     19  C   UNL A   1      33.347  22.003  24.525  1.00  0.00    -0.005 A 
ATOM     20  C   UNL A   1      32.113  21.369  24.421  1.00  0.00     0.029 A 
ATOM     21  C   UNL A   1      34.537  21.235  24.625  1.00  0.00     0.008 A 
ATOM     22  C   UNL A   1      32.100  19.993  24.395  1.00  0.00     0.112 A 
ATOM     23  C   UNL A   1      34.413  19.827  24.589  1.00  0.00     0.074 A 
ATOM     24  C   UNL A   1      35.825  21.807  24.771  1.00  0.00     0.011 A 
ATOM     25  N   UNL A   1      33.210  19.228  24.459  1.00  0.00    -0.256 NA
ATOM     26  C   UNL A   1      35.578  19.049  24.697  1.00  0.00    -0.025 A 
ATOM     27  C   UNL A   1      36.966  21.025  24.882  1.00  0.00     0.001 A 
ATOM     28  C   UNL A   1      35.525  17.543  24.677  1.00  0.00     0.047 C 
ATOM     29  C   UNL A   1      36.842  19.647  24.846  1.00  0.00     0.005 A 
ENDBRANCH  16  19
ENDBRANCH   7   8
ENDBRANCH   4   7
ENDBRANCH   2   3
ENDBRANCH   1   2
BRANCH   1  30
ATOM     30  C   UNL A   1      33.996  30.829  27.533  1.00  0.00     0.118 C 
BRANCH  30  31
ATOM     31  N   UNL A   1      34.037  31.654  28.725  1.00  0.00    -0.352 N 
ATOM     32  C   UNL A   1      34.997  31.975  29.645  1.00  0.00     0.251 C 
ATOM     33  H   UNL A   1      33.171  32.083  28.918  1.00  0.00     0.163 HD
ATOM     34  O   UNL A   1      34.666  32.805  30.496  1.00  0.00    -0.269 OA
BRANCH  32  35
ATOM     35  C   UNL A   1      36.347  31.354  29.726  1.00  0.00     0.039 A 
ATOM     36  C   UNL A   1      37.558  32.043  29.679  1.00  0.00     0.014 A 
ATOM     37  C   UNL A   1      36.374  29.949  29.824  1.00  0.00     0.014 A 
ATOM     38  C   UNL A   1      38.761  31.346  29.614  1.00  0.00     0.010 A 
ATOM     39  C   UNL A   1      37.574  29.248  29.787  1.00  0.00     0.010 A 
ATOM     40  C   UNL A   1      38.765  29.950  29.632  1.00  0.00    -0.014 A 
BRANCH  40  41
ATOM     41  C   UNL A   1      40.059  29.274  29.612  1.00  0.00     0.031 A 
ATOM     42  C   UNL A   1      40.684  29.112  30.954  1.00  0.00     0.074 A 
ATOM     43  C   UNL A   1      40.604  28.744  28.498  1.00  0.00     0.049 A 
ATOM     44  N   UNL A   1      41.783  29.636  31.390  1.00  0.00    -0.248 NA
ATOM     45  C   UNL A   1      39.920  28.378  31.976  1.00  0.00     0.031 C 
ATOM     46  C   UNL A   1      39.966  28.585  27.187  1.00  0.00     0.029 A 
ATOM     47  N   UNL A   1      41.808  28.118  28.331  1.00  0.00    -0.354 N 
ATOM     48  C   UNL A   1      41.963  29.106  32.667  1.00  0.00     0.074 A 
ATOM     49  C   UNL A   1      40.720  28.480  33.038  1.00  0.00     0.031 C 
ATOM     50  C   UNL A   1      40.675  27.702  26.448  1.00  0.00     0.029 A 
ATOM     51  C   UNL A   1      41.890  27.359  27.165  1.00  0.00     0.049 A 
ATOM     52  H   UNL A   1      42.548  28.197  28.975  1.00  0.00     0.167 HD
ATOM     53  C   UNL A   1      43.197  28.976  33.224  1.00  0.00     0.034 A 
ATOM     54  C   UNL A   1      42.868  26.478  26.845  1.00  0.00     0.034 A 
ATOM     55  C   UNL A   1      44.199  29.709  32.510  1.00  0.00     0.049 A 
ATOM     56  C   UNL A   1      44.064  26.846  27.632  1.00  0.00     0.074 A 
ATOM     57  C   UNL A   1      44.630  31.013  32.425  1.00  0.00     0.029 A 
ATOM     58  N   UNL A   1      44.709  29.029  31.438  1.00  0.00    -0.354 N 
ATOM     59  N   UNL A   1      44.735  27.947  27.449  1.00  0.00    -0.248 NA
ATOM     60  C   UNL A   1      44.406  26.086  28.829  1.00  0.00     0.031 C 
ATOM     61  C   UNL A   1      45.268  31.135  31.155  1.00  0.00     0.029 A 
ATOM     62  C   UNL A   1      45.224  29.898  30.516  1.00  0.00     0.049 A 
ATOM     63  H   UNL A   1      44.705  28.050  31.343  1.00  0.00     0.167 HD
ATOM     64  C   UNL A   1      45.254  28.224  28.696  1.00  0.00     0.074 A 
ATOM     65  C   UNL A   1      45.195  26.975  29.436  1.00  0.00     0.031 C 
ATOM     66  C   UNL A   1      45.364  29.508  29.134  1.00  0.00     0.034 A 
BRANCH  53  67
ATOM     67  C   UNL A   1      43.585  27.838  34.135  1.00  0.00     0.023 A 
ATOM     68  C   UNL A   1      44.098  28.137  35.414  1.00  0.00     0.012 A 
ATOM     69  C   UNL A   1      43.724  26.508  33.677  1.00  0.00     0.148 A 
ATOM     70  C   UNL A   1      44.700  27.150  36.206  1.00  0.00     0.002 A 
ATOM     71  C   UNL A   1      44.247  25.516  34.496  1.00  0.00     0.091 A 
ATOM     72  F   UNL A   1      43.478  26.227  32.391  1.00  0.00    -0.205 F 
ATOM     73  C   UNL A   1      44.755  25.835  35.757  1.00  0.00     0.022 A 
BRANCH  71  74
ATOM     74  S   UNL A   1      44.293  23.799  33.974  1.00  0.00     0.127 S 
ATOM     75  O   UNL A   1      44.669  23.928  32.570  1.00  0.00    -0.237 OA
ATOM     76  O   UNL A   1      45.331  23.249  34.848  1.00  0.00    -0.237 OA
ATOM     77  O   UNL A   1      42.957  23.283  34.240  1.00  0.00    -0.744 OA
ENDBRANCH  71  74
ENDBRANCH  53  67
BRANCH  54  78
ATOM     78  C   UNL A   1      42.871  25.238  26.030  1.00  0.00     0.023 A 
ATOM     79  C   UNL A   1      43.877  25.082  25.051  1.00  0.00     0.012 A 
ATOM     80  C   UNL A   1      42.142  24.098  26.423  1.00  0.00     0.148 A 
ATOM     81  C   UNL A   1      44.217  23.820  24.554  1.00  0.00     0.002 A 
ATOM     82  C   UNL A   1      42.478  22.843  25.917  1.00  0.00     0.091 A 
ATOM     83  F   UNL A   1      41.197  24.224  27.363  1.00  0.00    -0.205 F 
ATOM     84  C   UNL A   1      43.530  22.698  25.002  1.00  0.00     0.022 A 
BRANCH  82  85
ATOM     85  S   UNL A   1      41.644  21.345  26.455  1.00  0.00     0.127 S 
ATOM     86  O   UNL A   1      40.257  21.605  26.063  1.00  0.00    -0.237 OA
ATOM     87  O   UNL A   1      42.321  20.322  25.664  1.00  0.00    -0.237 OA
ATOM     88  O   UNL A   1      41.851  21.282  27.896  1.00  0.00    -0.744 OA
ENDBRANCH  82  85
ENDBRANCH  54  78
BRANCH  66  89
ATOM     89  C   UNL A   1      45.420  30.589  28.102  1.00  0.00     0.023 A 
ATOM     90  C   UNL A   1      44.267  31.120  27.493  1.00  0.00     0.012 A 
ATOM     91  C   UNL A   1      46.673  31.160  27.831  1.00  0.00     0.148 A 
ATOM     92  C   UNL A   1      44.369  32.210  26.623  1.00  0.00     0.002 A 
ATOM     93  C   UNL A   1      46.765  32.263  27.000  1.00  0.00     0.091 A 
ATOM     94  F   UNL A   1      47.751  30.624  28.426  1.00  0.00    -0.205 F 
ATOM     95  C   UNL A   1      45.616  32.790  26.387  1.00  0.00     0.022 A 
BRANCH  93  96
ATOM     96  S   UNL A   1      48.317  33.120  26.737  1.00  0.00     0.127 S 
ATOM     97  O   UNL A   1      48.565  33.715  28.047  1.00  0.00    -0.237 OA
ATOM     98  O   UNL A   1      49.216  32.024  26.379  1.00  0.00    -0.237 OA
ATOM     99  O   UNL A   1      48.077  34.073  25.657  1.00  0.00    -0.744 OA
ENDBRANCH  93  96
ENDBRANCH  66  89
ENDBRANCH  40  41
ENDBRANCH  32  35
ENDBRANCH  30  31
ENDBRANCH   1  30
TORSDOF 15
ENDMDL
MODEL 3
REMARK VINA RESULT:     -11.0      5.205     11.999
REMARK SMILES Cc1ccc2c(c1)c(-c1ccnc3c(C)cccc13)c(C)n2CC(=O)NCCCNC(=O)c1ccc(-c2c3nc(c(-c4cccc(S(=O)(=O)[O-])c4F)c4ccc([nH]4)c(-c4cccc(S(=O)(=O)[O-])c4F)c4nc(c(-c5cccc(S(=O)(=O)[O-])c5F)c5ccc2[nH]5)C=C4)C=C3)cc1
REMARK SMILES IDX 28 1 27 2 26 3 24 4 25 5 23 7 22 8 1 9 2 10 3 11 7 12 4 13
REMARK SMILES IDX 6 14 5 15 8 16 20 17 21 18 9 19 10 20 19 21 11 22 13 23
REMARK SMILES IDX 18 24 12 25 14 26 17 27 15 28 16 29 29 30 30 31 31 32 32 34
REMARK SMILES IDX 33 35 34 36 95 37 35 38 94 39 36 40 37 41 38 42 88 43 39 44
REMARK SMILES IDX 93 45 87 46 89 47 40 48 92 49 86 50 85 51 41 53 73 54 53 55
REMARK SMILES IDX 72 56 54 57 57 58 71 59 90 60 55 61 56 62 70 64 91 65 58 66
REMARK SMILES IDX 42 67 43 68 51 69 44 70 46 71 52 72 45 73 47 74 48 75 49 76
REMARK SMILES IDX 50 77 74 78 75 79 83 80 76 81 78 82 84 83 77 84 79 85 80 86
REMARK SMILES IDX 81 87 82 88 59 89 60 90 68 91 61 92 63 93 69 94 62 95 64 96
REMARK SMILES IDX 65 97 66 98 67 99
REMARK H PARENT 26 6 30 33 89 52 57 63
REMARK Flexibility Score: inf
ROOT
ATOM      1  C   UNL A   1      34.820  33.269  27.765  1.00  0.00     0.042 C 
ENDROOT
BRANCH   1   2
ATOM      2  C   UNL A   1      34.857  31.746  27.660  1.00  0.00     0.117 C 
BRANCH   2   3
ATOM      3  N   UNL A   1      33.569  31.132  27.939  1.00  0.00    -0.354 N 
ATOM      4  C   UNL A   1      32.806  30.292  27.183  1.00  0.00     0.239 C 
ATOM      5  O   UNL A   1      31.739  29.900  27.667  1.00  0.00    -0.273 OA
ATOM      6  H   UNL A   1      33.184  31.361  28.817  1.00  0.00     0.163 HD
BRANCH   4   7
ATOM      7  C   UNL A   1      33.279  29.802  25.830  1.00  0.00     0.222 C 
BRANCH   7   8
ATOM      8  N   UNL A   1      32.472  28.716  25.286  1.00  0.00    -0.335 N 
ATOM      9  C   UNL A   1      27.480  28.610  22.622  1.00  0.00     0.044 C 
ATOM     10  C   UNL A   1      28.814  28.701  23.305  1.00  0.00    -0.050 A 
ATOM     11  C   UNL A   1      29.414  29.947  23.493  1.00  0.00     0.005 A 
ATOM     12  C   UNL A   1      29.482  27.543  23.733  1.00  0.00     0.014 A 
ATOM     13  C   UNL A   1      30.657  30.069  24.121  1.00  0.00     0.027 A 
ATOM     14  C   UNL A   1      30.738  27.639  24.371  1.00  0.00     0.008 A 
ATOM     15  C   UNL A   1      31.298  28.901  24.573  1.00  0.00     0.049 A 
ATOM     16  C   UNL A   1      31.645  26.684  24.918  1.00  0.00     0.011 A 
ATOM     17  C   UNL A   1      32.756  27.367  25.394  1.00  0.00     0.024 A 
ATOM     18  C   UNL A   1      34.016  26.822  25.982  1.00  0.00     0.065 C 
BRANCH  16  19
ATOM     19  C   UNL A   1      31.495  25.235  24.997  1.00  0.00    -0.005 A 
ATOM     20  C   UNL A   1      30.850  24.705  26.111  1.00  0.00     0.029 A 
ATOM     21  C   UNL A   1      32.013  24.373  23.996  1.00  0.00     0.008 A 
ATOM     22  C   UNL A   1      30.718  23.338  26.184  1.00  0.00     0.112 A 
ATOM     23  C   UNL A   1      31.825  22.981  24.168  1.00  0.00     0.074 A 
ATOM     24  C   UNL A   1      32.713  24.835  22.854  1.00  0.00     0.011 A 
ATOM     25  N   UNL A   1      31.173  22.485  25.240  1.00  0.00    -0.256 NA
ATOM     26  C   UNL A   1      32.340  22.110  23.194  1.00  0.00    -0.025 A 
ATOM     27  C   UNL A   1      33.220  23.961  21.903  1.00  0.00     0.001 A 
ATOM     28  C   UNL A   1      32.188  20.616  23.312  1.00  0.00     0.047 C 
ATOM     29  C   UNL A   1      33.035  22.601  22.073  1.00  0.00     0.005 A 
ENDBRANCH  16  19
ENDBRANCH   7   8
ENDBRANCH   4   7
ENDBRANCH   2   3
ENDBRANCH   1   2
BRANCH   1  30
ATOM     30  C   UNL A   1      35.422  33.816  29.060  1.00  0.00     0.118 C 
BRANCH  30  31
ATOM     31  N   UNL A   1      34.934  33.172  30.265  1.00  0.00    -0.352 N 
ATOM     32  C   UNL A   1      35.402  32.188  31.092  1.00  0.00     0.251 C 
ATOM     33  H   UNL A   1      34.061  33.525  30.554  1.00  0.00     0.163 HD
ATOM     34  O   UNL A   1      34.723  31.968  32.098  1.00  0.00    -0.269 OA
BRANCH  32  35
ATOM     35  C   UNL A   1      36.599  31.345  30.827  1.00  0.00     0.039 A 
ATOM     36  C   UNL A   1      36.584  29.969  30.599  1.00  0.00     0.014 A 
ATOM     37  C   UNL A   1      37.840  32.010  30.846  1.00  0.00     0.014 A 
ATOM     38  C   UNL A   1      37.776  29.258  30.511  1.00  0.00     0.010 A 
ATOM     39  C   UNL A   1      39.034  31.310  30.730  1.00  0.00     0.010 A 
ATOM     40  C   UNL A   1      38.999  29.925  30.611  1.00  0.00    -0.014 A 
BRANCH  40  41
ATOM     41  C   UNL A   1      40.218  29.135  30.460  1.00  0.00     0.031 A 
ATOM     42  C   UNL A   1      40.934  28.865  31.738  1.00  0.00     0.074 A 
ATOM     43  C   UNL A   1      40.618  28.600  29.288  1.00  0.00     0.049 A 
ATOM     44  N   UNL A   1      42.110  29.270  32.095  1.00  0.00    -0.248 NA
ATOM     45  C   UNL A   1      40.191  28.165  32.800  1.00  0.00     0.031 C 
ATOM     46  C   UNL A   1      39.861  28.551  28.032  1.00  0.00     0.029 A 
ATOM     47  N   UNL A   1      41.740  27.874  29.000  1.00  0.00    -0.354 N 
ATOM     48  C   UNL A   1      42.343  28.677  33.335  1.00  0.00     0.074 A 
ATOM     49  C   UNL A   1      41.082  28.153  33.792  1.00  0.00     0.031 C 
ATOM     50  C   UNL A   1      40.422  27.636  27.209  1.00  0.00     0.029 A 
ATOM     51  C   UNL A   1      41.654  27.157  27.809  1.00  0.00     0.049 A 
ATOM     52  H   UNL A   1      42.534  27.861  29.580  1.00  0.00     0.167 HD
ATOM     53  C   UNL A   1      43.601  28.414  33.780  1.00  0.00     0.034 A 
ATOM     54  C   UNL A   1      42.515  26.203  27.380  1.00  0.00     0.034 A 
ATOM     55  C   UNL A   1      44.605  29.079  33.006  1.00  0.00     0.049 A 
ATOM     56  C   UNL A   1      43.801  26.430  28.072  1.00  0.00     0.074 A 
ATOM     57  C   UNL A   1      45.148  30.341  32.924  1.00  0.00     0.029 A 
ATOM     58  N   UNL A   1      44.959  28.398  31.874  1.00  0.00    -0.354 N 
ATOM     59  N   UNL A   1      44.555  27.471  27.866  1.00  0.00    -0.248 NA
ATOM     60  C   UNL A   1      44.168  25.597  29.211  1.00  0.00     0.031 C 
ATOM     61  C   UNL A   1      45.689  30.453  31.609  1.00  0.00     0.029 A 
ATOM     62  C   UNL A   1      45.476  29.251  30.938  1.00  0.00     0.049 A 
ATOM     63  H   UNL A   1      44.855  27.427  31.750  1.00  0.00     0.167 HD
ATOM     64  C   UNL A   1      45.199  27.652  29.072  1.00  0.00     0.074 A 
ATOM     65  C   UNL A   1      45.084  26.386  29.776  1.00  0.00     0.031 C 
ATOM     66  C   UNL A   1      45.465  28.903  29.538  1.00  0.00     0.034 A 
BRANCH  53  67
ATOM     67  C   UNL A   1      43.954  27.211  34.619  1.00  0.00     0.023 A 
ATOM     68  C   UNL A   1      44.596  27.413  35.859  1.00  0.00     0.012 A 
ATOM     69  C   UNL A   1      43.930  25.893  34.110  1.00  0.00     0.148 A 
ATOM     70  C   UNL A   1      45.166  26.346  36.566  1.00  0.00     0.002 A 
ATOM     71  C   UNL A   1      44.424  24.827  34.852  1.00  0.00     0.091 A 
ATOM     72  F   UNL A   1      43.554  25.685  32.842  1.00  0.00    -0.205 F 
ATOM     73  C   UNL A   1      45.061  25.050  36.073  1.00  0.00     0.022 A 
BRANCH  71  74
ATOM     74  S   UNL A   1      44.265  23.134  34.275  1.00  0.00     0.127 S 
ATOM     75  O   UNL A   1      45.138  23.139  33.106  1.00  0.00    -0.237 OA
ATOM     76  O   UNL A   1      44.769  22.379  35.424  1.00  0.00    -0.237 OA
ATOM     77  O   UNL A   1      42.843  22.948  34.018  1.00  0.00    -0.744 OA
ENDBRANCH  71  74
ENDBRANCH  53  67
BRANCH  54  78
ATOM     78  C   UNL A   1      42.335  25.000  26.530  1.00  0.00     0.023 A 
ATOM     79  C   UNL A   1      43.312  24.719  25.549  1.00  0.00     0.012 A 
ATOM     80  C   UNL A   1      41.437  23.974  26.888  1.00  0.00     0.148 A 
ATOM     81  C   UNL A   1      43.459  23.434  25.018  1.00  0.00     0.002 A 
ATOM     82  C   UNL A   1      41.581  22.697  26.347  1.00  0.00     0.091 A 
ATOM     83  F   UNL A   1      40.515  24.218  27.828  1.00  0.00    -0.205 F 
ATOM     84  C   UNL A   1      42.605  22.419  25.432  1.00  0.00     0.022 A 
BRANCH  82  85
ATOM     85  S   UNL A   1      40.524  21.330  26.840  1.00  0.00     0.127 S 
ATOM     86  O   UNL A   1      41.107  20.206  26.103  1.00  0.00    -0.237 OA
ATOM     87  O   UNL A   1      40.737  21.289  28.284  1.00  0.00    -0.237 OA
ATOM     88  O   UNL A   1      39.184  21.697  26.399  1.00  0.00    -0.744 OA
ENDBRANCH  82  85
ENDBRANCH  54  78
BRANCH  66  89
ATOM     89  C   UNL A   1      45.537  30.013  28.539  1.00  0.00     0.023 A 
ATOM     90  C   UNL A   1      44.394  30.680  28.058  1.00  0.00     0.012 A 
ATOM     91  C   UNL A   1      46.811  30.467  28.168  1.00  0.00     0.148 A 
ATOM     92  C   UNL A   1      44.527  31.788  27.215  1.00  0.00     0.002 A 
ATOM     93  C   UNL A   1      46.940  31.588  27.365  1.00  0.00     0.091 A 
ATOM     94  F   UNL A   1      47.879  29.804  28.641  1.00  0.00    -0.205 F 
ATOM     95  C   UNL A   1      45.800  32.251  26.881  1.00  0.00     0.022 A 
BRANCH  93  96
ATOM     96  S   UNL A   1      48.541  32.297  26.983  1.00  0.00     0.127 S 
ATOM     97  O   UNL A   1      48.201  33.306  25.986  1.00  0.00    -0.237 OA
ATOM     98  O   UNL A   1      48.958  32.830  28.280  1.00  0.00    -0.237 OA
ATOM     99  O   UNL A   1      49.367  31.195  26.497  1.00  0.00    -0.744 OA
ENDBRANCH  93  96
ENDBRANCH  66  89
ENDBRANCH  40  41
ENDBRANCH  32  35
ENDBRANCH  30  31
ENDBRANCH   1  30
TORSDOF 15
ENDMDL
