MODEL 1
REMARK VINA RESULT:     -13.2      0.000      0.000
REMARK SMILES O=C(NCCCNC(=O)[C@H]1CC=CC[C@@H]1C(=O)N[C@@H]1CCCN(c2ccccc2F)C1=O)c1ccc(-c2c3nc(c(-c4cccc(S(=O)(=O)[O-])c4F)c4ccc([nH]4)c(-c4cccc(S(=O)(=O)[O-])c4F)c4nc(c(-c5cccc(S(=O)(=O)[O-])c5F)c5ccc2[nH]5)C=C4)C=C3)cc1
REMARK SMILES IDX 5 1 4 2 3 3 1 4 2 5 33 7 34 8 95 9 35 10 94 11 36 12 37 13
REMARK SMILES IDX 38 14 88 15 39 16 93 17 87 18 89 19 40 20 92 21 86 22 85 23
REMARK SMILES IDX 41 25 73 26 53 27 72 28 54 29 57 30 71 31 90 32 55 33 56 34
REMARK SMILES IDX 70 36 91 37 58 38 42 39 43 40 51 41 44 42 46 43 52 44 45 45
REMARK SMILES IDX 47 46 48 47 49 48 50 49 74 50 75 51 83 52 76 53 78 54 84 55
REMARK SMILES IDX 77 56 79 57 80 58 81 59 82 60 59 61 60 62 68 63 61 64 63 65
REMARK SMILES IDX 69 66 62 67 64 68 65 69 66 70 67 71 6 72 7 73 8 74 9 76
REMARK SMILES IDX 10 77 11 78 15 79 12 80 14 81 13 82 16 83 17 84 18 85 19 87
REMARK SMILES IDX 20 88 31 89 21 90 23 91 32 92 22 93 24 94 25 95 29 96 26 97
REMARK SMILES IDX 28 98 30 99 27 100
REMARK H PARENT 3 6 89 24 57 35 7 75 18 86
REMARK Flexibility Score: inf
ROOT
ATOM      1  C   UNL A   1      32.117  28.014  25.820  1.00  0.00     0.042 C 
ENDROOT
BRANCH   1   2
ATOM      2  C   UNL A   1      32.920  29.207  25.320  1.00  0.00     0.118 C 
BRANCH   2   3
ATOM      3  N   UNL A   1      32.439  30.483  25.827  1.00  0.00    -0.352 N 
ATOM      4  O   UNL A   1      32.224  32.238  27.205  1.00  0.00    -0.269 OA
ATOM      5  C   UNL A   1      32.891  31.272  26.859  1.00  0.00     0.251 C 
ATOM      6  H   UNL A   1      31.655  30.843  25.351  1.00  0.00     0.163 HD
BRANCH   5   7
ATOM      7  C   UNL A   1      34.149  30.941  27.568  1.00  0.00     0.039 A 
ATOM      8  C   UNL A   1      34.374  29.665  28.086  1.00  0.00     0.014 A 
ATOM      9  C   UNL A   1      35.140  31.922  27.682  1.00  0.00     0.014 A 
ATOM     10  C   UNL A   1      35.507  29.418  28.856  1.00  0.00     0.010 A 
ATOM     11  C   UNL A   1      36.323  31.642  28.373  1.00  0.00     0.010 A 
ATOM     12  C   UNL A   1      36.503  30.399  28.995  1.00  0.00    -0.014 A 
BRANCH  12  13
ATOM     13  C   UNL A   1      37.757  30.067  29.719  1.00  0.00     0.031 A 
ATOM     14  C   UNL A   1      38.025  30.590  31.103  1.00  0.00     0.074 A 
ATOM     15  C   UNL A   1      38.662  29.275  29.110  1.00  0.00     0.049 A 
ATOM     16  N   UNL A   1      39.061  30.376  31.872  1.00  0.00    -0.248 NA
ATOM     17  C   UNL A   1      37.007  31.468  31.704  1.00  0.00     0.031 C 
ATOM     18  C   UNL A   1      38.526  28.738  27.754  1.00  0.00     0.029 A 
ATOM     19  N   UNL A   1      39.866  28.782  29.543  1.00  0.00    -0.354 N 
ATOM     20  C   UNL A   1      38.841  31.115  33.028  1.00  0.00     0.074 A 
ATOM     21  C   UNL A   1      37.574  31.792  32.859  1.00  0.00     0.031 C 
ATOM     22  C   UNL A   1      39.584  27.964  27.478  1.00  0.00     0.029 A 
ATOM     23  C   UNL A   1      40.503  27.995  28.610  1.00  0.00     0.049 A 
ATOM     24  H   UNL A   1      40.239  28.971  30.433  1.00  0.00     0.167 HD
ATOM     25  C   UNL A   1      39.617  31.204  34.136  1.00  0.00     0.034 A 
ATOM     26  C   UNL A   1      41.699  27.378  28.651  1.00  0.00     0.034 A 
ATOM     27  C   UNL A   1      40.861  30.501  34.309  1.00  0.00     0.049 A 
ATOM     28  C   UNL A   1      42.532  27.487  29.895  1.00  0.00     0.074 A 
ATOM     29  C   UNL A   1      41.689  30.487  35.418  1.00  0.00     0.029 A 
ATOM     30  N   UNL A   1      41.458  29.691  33.356  1.00  0.00    -0.354 N 
ATOM     31  N   UNL A   1      42.253  28.101  31.018  1.00  0.00    -0.248 NA
ATOM     32  C   UNL A   1      43.831  26.801  29.889  1.00  0.00     0.031 C 
ATOM     33  C   UNL A   1      42.798  29.688  35.127  1.00  0.00     0.029 A 
ATOM     34  C   UNL A   1      42.648  29.181  33.846  1.00  0.00     0.049 A 
ATOM     35  H   UNL A   1      41.090  29.507  32.461  1.00  0.00     0.167 HD
ATOM     36  C   UNL A   1      43.330  27.860  31.862  1.00  0.00     0.074 A 
ATOM     37  C   UNL A   1      44.255  27.022  31.127  1.00  0.00     0.031 C 
ATOM     38  C   UNL A   1      43.540  28.310  33.123  1.00  0.00     0.034 A 
BRANCH  25  39
ATOM     39  C   UNL A   1      39.130  32.055  35.280  1.00  0.00     0.023 A 
ATOM     40  C   UNL A   1      38.233  31.507  36.219  1.00  0.00     0.012 A 
ATOM     41  C   UNL A   1      39.643  33.351  35.491  1.00  0.00     0.148 A 
ATOM     42  C   UNL A   1      37.840  32.238  37.338  1.00  0.00     0.002 A 
ATOM     43  C   UNL A   1      39.278  34.059  36.631  1.00  0.00     0.091 A 
ATOM     44  F   UNL A   1      40.482  33.862  34.579  1.00  0.00    -0.205 F 
ATOM     45  C   UNL A   1      38.372  33.508  37.552  1.00  0.00     0.022 A 
BRANCH  43  46
ATOM     46  S   UNL A   1      39.971  35.666  37.040  1.00  0.00     0.127 S 
ATOM     47  O   UNL A   1      41.389  35.343  37.195  1.00  0.00    -0.237 OA
ATOM     48  O   UNL A   1      39.652  36.453  35.848  1.00  0.00    -0.237 OA
ATOM     49  O   UNL A   1      39.293  36.100  38.254  1.00  0.00    -0.744 OA
ENDBRANCH  43  46
ENDBRANCH  25  39
BRANCH  26  50
ATOM     50  C   UNL A   1      42.135  26.556  27.487  1.00  0.00     0.023 A 
ATOM     51  C   UNL A   1      42.962  27.133  26.505  1.00  0.00     0.012 A 
ATOM     52  C   UNL A   1      41.811  25.188  27.397  1.00  0.00     0.148 A 
ATOM     53  C   UNL A   1      43.449  26.365  25.448  1.00  0.00     0.002 A 
ATOM     54  C   UNL A   1      42.350  24.415  26.376  1.00  0.00     0.091 A 
ATOM     55  F   UNL A   1      41.010  24.662  28.335  1.00  0.00    -0.205 F 
ATOM     56  C   UNL A   1      43.158  25.005  25.392  1.00  0.00     0.022 A 
BRANCH  54  57
ATOM     57  S   UNL A   1      42.158  22.630  26.317  1.00  0.00     0.127 S 
ATOM     58  O   UNL A   1      42.864  22.213  27.525  1.00  0.00    -0.237 OA
ATOM     59  O   UNL A   1      40.703  22.481  26.371  1.00  0.00    -0.237 OA
ATOM     60  O   UNL A   1      42.756  22.212  25.056  1.00  0.00    -0.744 OA
ENDBRANCH  54  57
ENDBRANCH  26  50
BRANCH  38  61
ATOM     61  C   UNL A   1      44.813  27.897  33.811  1.00  0.00     0.023 A 
ATOM     62  C   UNL A   1      45.940  28.739  33.751  1.00  0.00     0.012 A 
ATOM     63  C   UNL A   1      44.860  26.732  34.603  1.00  0.00     0.148 A 
ATOM     64  C   UNL A   1      47.104  28.417  34.449  1.00  0.00     0.002 A 
ATOM     65  C   UNL A   1      46.006  26.442  35.335  1.00  0.00     0.091 A 
ATOM     66  F   UNL A   1      43.782  25.935  34.630  1.00  0.00    -0.205 F 
ATOM     67  C   UNL A   1      47.131  27.278  35.251  1.00  0.00     0.022 A 
BRANCH  65  68
ATOM     68  S   UNL A   1      46.097  25.053  36.469  1.00  0.00     0.127 S 
ATOM     69  O   UNL A   1      46.045  23.916  35.552  1.00  0.00    -0.237 OA
ATOM     70  O   UNL A   1      47.396  25.260  37.110  1.00  0.00    -0.237 OA
ATOM     71  O   UNL A   1      44.954  25.188  37.363  1.00  0.00    -0.744 OA
ENDBRANCH  65  68
ENDBRANCH  38  61
ENDBRANCH  12  13
ENDBRANCH   5   7
ENDBRANCH   2   3
ENDBRANCH   1   2
BRANCH   1  72
ATOM     72  C   UNL A   1      32.897  27.023  26.670  1.00  0.00     0.117 C 
BRANCH  72  73
ATOM     73  N   UNL A   1      32.447  25.651  26.513  1.00  0.00    -0.356 N 
ATOM     74  C   UNL A   1      32.525  24.791  25.462  1.00  0.00     0.224 C 
ATOM     75  H   UNL A   1      32.005  25.277  27.310  1.00  0.00     0.163 HD
ATOM     76  O   UNL A   1      32.015  23.678  25.620  1.00  0.00    -0.275 OA
BRANCH  74  77
ATOM     77  C   UNL A   1      33.152  25.227  24.138  1.00  0.00     0.095 C 
ATOM     78  C   UNL A   1      34.670  24.981  24.090  1.00  0.00     0.041 C 
ATOM     79  C   UNL A   1      32.387  24.567  22.966  1.00  0.00     0.095 C 
ATOM     80  C   UNL A   1      35.100  23.663  23.533  1.00  0.00    -0.030 C 
ATOM     81  C   UNL A   1      32.845  23.148  22.604  1.00  0.00     0.041 C 
ATOM     82  C   UNL A   1      34.278  22.834  22.884  1.00  0.00    -0.030 C 
BRANCH  79  83
ATOM     83  C   UNL A   1      32.373  25.468  21.742  1.00  0.00     0.224 C 
ATOM     84  O   UNL A   1      33.002  25.188  20.720  1.00  0.00    -0.275 OA
ATOM     85  N   UNL A   1      31.636  26.616  21.752  1.00  0.00    -0.344 N 
ATOM     86  H   UNL A   1      31.647  27.112  20.901  1.00  0.00     0.164 HD
BRANCH  85  87
ATOM     87  C   UNL A   1      30.827  27.246  22.806  1.00  0.00     0.172 C 
ATOM     88  C   UNL A   1      29.721  26.348  23.364  1.00  0.00     0.037 C 
ATOM     89  C   UNL A   1      30.504  28.726  22.483  1.00  0.00     0.249 C 
ATOM     90  C   UNL A   1      28.529  27.135  23.875  1.00  0.00     0.025 C 
ATOM     91  N   UNL A   1      29.170  29.132  22.561  1.00  0.00    -0.308 N 
ATOM     92  O   UNL A   1      31.442  29.494  22.249  1.00  0.00    -0.272 OA
ATOM     93  C   UNL A   1      28.100  28.180  22.861  1.00  0.00     0.126 C 
BRANCH  91  94
ATOM     94  C   UNL A   1      28.789  30.467  22.189  1.00  0.00     0.080 A 
ATOM     95  C   UNL A   1      28.373  30.741  20.877  1.00  0.00     0.029 A 
ATOM     96  C   UNL A   1      28.817  31.538  23.097  1.00  0.00     0.146 A 
ATOM     97  C   UNL A   1      27.991  32.034  20.496  1.00  0.00     0.002 A 
ATOM     98  C   UNL A   1      28.444  32.829  22.720  1.00  0.00     0.041 A 
ATOM     99  F   UNL A   1      29.295  31.385  24.339  1.00  0.00    -0.205 F 
ATOM    100  C   UNL A   1      28.026  33.078  21.416  1.00  0.00     0.003 A 
ENDBRANCH  91  94
ENDBRANCH  85  87
ENDBRANCH  79  83
ENDBRANCH  74  77
ENDBRANCH  72  73
ENDBRANCH   1  72
TORSDOF 16
ENDMDL
MODEL 2
REMARK VINA RESULT:     -13.2      2.624      5.141
REMARK SMILES O=C(NCCCNC(=O)[C@H]1CC=CC[C@@H]1C(=O)N[C@@H]1CCCN(c2ccccc2F)C1=O)c1ccc(-c2c3nc(c(-c4cccc(S(=O)(=O)[O-])c4F)c4ccc([nH]4)c(-c4cccc(S(=O)(=O)[O-])c4F)c4nc(c(-c5cccc(S(=O)(=O)[O-])c5F)c5ccc2[nH]5)C=C4)C=C3)cc1
REMARK SMILES IDX 5 1 4 2 3 3 1 4 2 5 33 7 34 8 95 9 35 10 94 11 36 12 37 13
REMARK SMILES IDX 38 14 88 15 39 16 93 17 87 18 89 19 40 20 92 21 86 22 85 23
REMARK SMILES IDX 41 25 73 26 53 27 72 28 54 29 57 30 71 31 90 32 55 33 56 34
REMARK SMILES IDX 70 36 91 37 58 38 42 39 43 40 51 41 44 42 46 43 52 44 45 45
REMARK SMILES IDX 47 46 48 47 49 48 50 49 74 50 75 51 83 52 76 53 78 54 84 55
REMARK SMILES IDX 77 56 79 57 80 58 81 59 82 60 59 61 60 62 68 63 61 64 63 65
REMARK SMILES IDX 69 66 62 67 64 68 65 69 66 70 67 71 6 72 7 73 8 74 9 76
REMARK SMILES IDX 10 77 11 78 15 79 12 80 14 81 13 82 16 83 17 84 18 85 19 87
REMARK SMILES IDX 20 88 31 89 21 90 23 91 32 92 22 93 24 94 25 95 29 96 26 97
REMARK SMILES IDX 28 98 30 99 27 100
REMARK H PARENT 3 6 89 24 57 35 7 75 18 86
REMARK Flexibility Score: inf
ROOT
ATOM      1  C   UNL A   1      32.642  29.525  25.106  1.00  0.00     0.042 C 
ENDROOT
BRANCH   1   2
ATOM      2  C   UNL A   1      32.192  30.029  26.471  1.00  0.00     0.118 C 
BRANCH   2   3
ATOM      3  N   UNL A   1      32.169  31.479  26.575  1.00  0.00    -0.352 N 
ATOM      4  O   UNL A   1      32.679  33.530  27.325  1.00  0.00    -0.269 OA
ATOM      5  C   UNL A   1      32.989  32.347  27.259  1.00  0.00     0.251 C 
ATOM      6  H   UNL A   1      31.443  31.914  26.071  1.00  0.00     0.163 HD
BRANCH   5   7
ATOM      7  C   UNL A   1      34.211  31.858  27.937  1.00  0.00     0.039 A 
ATOM      8  C   UNL A   1      34.328  30.530  28.349  1.00  0.00     0.014 A 
ATOM      9  C   UNL A   1      35.278  32.741  28.130  1.00  0.00     0.014 A 
ATOM     10  C   UNL A   1      35.432  30.129  29.095  1.00  0.00     0.010 A 
ATOM     11  C   UNL A   1      36.431  32.310  28.794  1.00  0.00     0.010 A 
ATOM     12  C   UNL A   1      36.504  31.009  29.312  1.00  0.00    -0.014 A 
BRANCH  12  13
ATOM     13  C   UNL A   1      37.723  30.518  30.005  1.00  0.00     0.031 A 
ATOM     14  C   UNL A   1      38.051  30.942  31.410  1.00  0.00     0.074 A 
ATOM     15  C   UNL A   1      38.540  29.670  29.348  1.00  0.00     0.049 A 
ATOM     16  N   UNL A   1      39.065  30.587  32.157  1.00  0.00    -0.248 NA
ATOM     17  C   UNL A   1      37.130  31.886  32.064  1.00  0.00     0.031 C 
ATOM     18  C   UNL A   1      38.342  29.217  27.969  1.00  0.00     0.029 A 
ATOM     19  N   UNL A   1      39.691  29.037  29.743  1.00  0.00    -0.354 N 
ATOM     20  C   UNL A   1      38.928  31.286  33.349  1.00  0.00     0.074 A 
ATOM     21  C   UNL A   1      37.734  32.094  33.227  1.00  0.00     0.031 C 
ATOM     22  C   UNL A   1      39.315  28.355  27.644  1.00  0.00     0.029 A 
ATOM     23  C   UNL A   1      40.238  28.238  28.767  1.00  0.00     0.049 A 
ATOM     24  H   UNL A   1      40.086  29.144  30.638  1.00  0.00     0.167 HD
ATOM     25  C   UNL A   1      39.715  31.241  34.452  1.00  0.00     0.034 A 
ATOM     26  C   UNL A   1      41.366  27.502  28.764  1.00  0.00     0.034 A 
ATOM     27  C   UNL A   1      40.882  30.409  34.577  1.00  0.00     0.049 A 
ATOM     28  C   UNL A   1      42.214  27.465  30.002  1.00  0.00     0.074 A 
ATOM     29  C   UNL A   1      41.712  30.257  35.674  1.00  0.00     0.029 A 
ATOM     30  N   UNL A   1      41.389  29.592  33.578  1.00  0.00    -0.354 N 
ATOM     31  N   UNL A   1      42.005  28.047  31.157  1.00  0.00    -0.248 NA
ATOM     32  C   UNL A   1      43.437  26.653  29.949  1.00  0.00     0.031 C 
ATOM     33  C   UNL A   1      42.733  29.365  35.332  1.00  0.00     0.029 A 
ATOM     34  C   UNL A   1      42.525  28.941  34.030  1.00  0.00     0.049 A 
ATOM     35  H   UNL A   1      40.999  29.490  32.680  1.00  0.00     0.167 HD
ATOM     36  C   UNL A   1      43.057  27.658  31.976  1.00  0.00     0.074 A 
ATOM     37  C   UNL A   1      43.889  26.768  31.191  1.00  0.00     0.031 C 
ATOM     38  C   UNL A   1      43.319  28.021  33.255  1.00  0.00     0.034 A 
BRANCH  25  39
ATOM     39  C   UNL A   1      39.324  32.080  35.641  1.00  0.00     0.023 A 
ATOM     40  C   UNL A   1      39.713  33.434  35.692  1.00  0.00     0.012 A 
ATOM     41  C   UNL A   1      38.481  31.566  36.647  1.00  0.00     0.148 A 
ATOM     42  C   UNL A   1      39.286  34.257  36.732  1.00  0.00     0.002 A 
ATOM     43  C   UNL A   1      38.026  32.404  37.660  1.00  0.00     0.091 A 
ATOM     44  F   UNL A   1      38.135  30.271  36.591  1.00  0.00    -0.205 F 
ATOM     45  C   UNL A   1      38.433  33.747  37.708  1.00  0.00     0.022 A 
BRANCH  43  46
ATOM     46  S   UNL A   1      36.859  31.865  38.916  1.00  0.00     0.127 S 
ATOM     47  O   UNL A   1      37.566  32.222  40.146  1.00  0.00    -0.237 OA
ATOM     48  O   UNL A   1      35.688  32.693  38.624  1.00  0.00    -0.237 OA
ATOM     49  O   UNL A   1      36.665  30.438  38.699  1.00  0.00    -0.744 OA
ENDBRANCH  43  46
ENDBRANCH  25  39
BRANCH  26  50
ATOM     50  C   UNL A   1      41.710  26.699  27.557  1.00  0.00     0.023 A 
ATOM     51  C   UNL A   1      42.347  27.326  26.469  1.00  0.00     0.012 A 
ATOM     52  C   UNL A   1      41.492  25.308  27.518  1.00  0.00     0.148 A 
ATOM     53  C   UNL A   1      42.751  26.582  25.361  1.00  0.00     0.002 A 
ATOM     54  C   UNL A   1      41.953  24.564  26.439  1.00  0.00     0.091 A 
ATOM     55  F   UNL A   1      40.871  24.733  28.559  1.00  0.00    -0.205 F 
ATOM     56  C   UNL A   1      42.570  25.202  25.352  1.00  0.00     0.022 A 
BRANCH  54  57
ATOM     57  S   UNL A   1      41.904  22.769  26.416  1.00  0.00     0.127 S 
ATOM     58  O   UNL A   1      42.617  22.466  25.178  1.00  0.00    -0.237 OA
ATOM     59  O   UNL A   1      42.628  22.432  27.643  1.00  0.00    -0.237 OA
ATOM     60  O   UNL A   1      40.492  22.414  26.438  1.00  0.00    -0.744 OA
ENDBRANCH  54  57
ENDBRANCH  26  50
BRANCH  38  61
ATOM     61  C   UNL A   1      44.549  27.448  33.909  1.00  0.00     0.023 A 
ATOM     62  C   UNL A   1      45.760  28.165  33.858  1.00  0.00     0.012 A 
ATOM     63  C   UNL A   1      44.478  26.259  34.660  1.00  0.00     0.148 A 
ATOM     64  C   UNL A   1      46.890  27.694  34.526  1.00  0.00     0.002 A 
ATOM     65  C   UNL A   1      45.594  25.821  35.363  1.00  0.00     0.091 A 
ATOM     66  F   UNL A   1      43.320  25.583  34.679  1.00  0.00    -0.205 F 
ATOM     67  C   UNL A   1      46.803  26.532  35.289  1.00  0.00     0.022 A 
BRANCH  65  68
ATOM     68  S   UNL A   1      45.548  24.391  36.449  1.00  0.00     0.127 S 
ATOM     69  O   UNL A   1      46.910  24.374  36.978  1.00  0.00    -0.237 OA
ATOM     70  O   UNL A   1      44.521  24.771  37.420  1.00  0.00    -0.237 OA
ATOM     71  O   UNL A   1      45.191  23.257  35.606  1.00  0.00    -0.744 OA
ENDBRANCH  65  68
ENDBRANCH  38  61
ENDBRANCH  12  13
ENDBRANCH   5   7
ENDBRANCH   2   3
ENDBRANCH   1   2
BRANCH   1  72
ATOM     72  C   UNL A   1      33.889  28.654  25.120  1.00  0.00     0.117 C 
BRANCH  72  73
ATOM     73  N   UNL A   1      33.938  27.703  24.023  1.00  0.00    -0.356 N 
ATOM     74  C   UNL A   1      33.262  26.544  23.804  1.00  0.00     0.224 C 
ATOM     75  H   UNL A   1      34.575  27.940  23.311  1.00  0.00     0.163 HD
ATOM     76  O   UNL A   1      33.546  25.924  22.775  1.00  0.00    -0.275 OA
BRANCH  74  77
ATOM     77  C   UNL A   1      32.259  26.016  24.830  1.00  0.00     0.095 C 
ATOM     78  C   UNL A   1      30.798  26.269  24.419  1.00  0.00     0.041 C 
ATOM     79  C   UNL A   1      32.563  24.528  25.126  1.00  0.00     0.095 C 
ATOM     80  C   UNL A   1      30.143  25.178  23.636  1.00  0.00    -0.030 C 
ATOM     81  C   UNL A   1      31.939  23.526  24.144  1.00  0.00     0.041 C 
ATOM     82  C   UNL A   1      30.662  23.956  23.499  1.00  0.00    -0.030 C 
BRANCH  79  83
ATOM     83  C   UNL A   1      32.221  24.172  26.564  1.00  0.00     0.224 C 
ATOM     84  O   UNL A   1      31.260  24.675  27.148  1.00  0.00    -0.275 OA
ATOM     85  N   UNL A   1      32.981  23.259  27.236  1.00  0.00    -0.344 N 
ATOM     86  H   UNL A   1      32.658  23.054  28.143  1.00  0.00     0.164 HD
BRANCH  85  87
ATOM     87  C   UNL A   1      34.195  22.526  26.848  1.00  0.00     0.172 C 
ATOM     88  C   UNL A   1      35.229  23.378  26.110  1.00  0.00     0.037 C 
ATOM     89  C   UNL A   1      33.870  21.107  26.317  1.00  0.00     0.249 C 
ATOM     90  C   UNL A   1      36.078  22.567  25.149  1.00  0.00     0.025 C 
ATOM     91  N   UNL A   1      34.419  20.732  25.089  1.00  0.00    -0.308 N 
ATOM     92  O   UNL A   1      33.212  20.349  27.035  1.00  0.00    -0.272 OA
ATOM     93  C   UNL A   1      35.209  21.669  24.289  1.00  0.00     0.126 C 
BRANCH  91  94
ATOM     94  C   UNL A   1      34.088  19.464  24.498  1.00  0.00     0.080 A 
ATOM     95  C   UNL A   1      34.965  18.376  24.626  1.00  0.00     0.029 A 
ATOM     96  C   UNL A   1      32.900  19.257  23.778  1.00  0.00     0.146 A 
ATOM     97  C   UNL A   1      34.657  17.130  24.064  1.00  0.00     0.002 A 
ATOM     98  C   UNL A   1      32.593  18.020  23.211  1.00  0.00     0.041 A 
ATOM     99  F   UNL A   1      32.057  20.267  23.523  1.00  0.00    -0.205 F 
ATOM    100  C   UNL A   1      33.472  16.952  23.357  1.00  0.00     0.003 A 
ENDBRANCH  91  94
ENDBRANCH  85  87
ENDBRANCH  79  83
ENDBRANCH  74  77
ENDBRANCH  72  73
ENDBRANCH   1  72
TORSDOF 16
ENDMDL
MODEL 3
REMARK VINA RESULT:     -13.1      1.288      7.393
REMARK SMILES O=C(NCCCNC(=O)[C@H]1CC=CC[C@@H]1C(=O)N[C@@H]1CCCN(c2ccccc2F)C1=O)c1ccc(-c2c3nc(c(-c4cccc(S(=O)(=O)[O-])c4F)c4ccc([nH]4)c(-c4cccc(S(=O)(=O)[O-])c4F)c4nc(c(-c5cccc(S(=O)(=O)[O-])c5F)c5ccc2[nH]5)C=C4)C=C3)cc1
REMARK SMILES IDX 5 1 4 2 3 3 1 4 2 5 33 7 34 8 95 9 35 10 94 11 36 12 37 13
REMARK SMILES IDX 38 14 88 15 39 16 93 17 87 18 89 19 40 20 92 21 86 22 85 23
REMARK SMILES IDX 41 25 73 26 53 27 72 28 54 29 57 30 71 31 90 32 55 33 56 34
REMARK SMILES IDX 70 36 91 37 58 38 42 39 43 40 51 41 44 42 46 43 52 44 45 45
REMARK SMILES IDX 47 46 48 47 49 48 50 49 74 50 75 51 83 52 76 53 78 54 84 55
REMARK SMILES IDX 77 56 79 57 80 58 81 59 82 60 59 61 60 62 68 63 61 64 63 65
REMARK SMILES IDX 69 66 62 67 64 68 65 69 66 70 67 71 6 72 7 73 8 74 9 76
REMARK SMILES IDX 10 77 11 78 15 79 12 80 14 81 13 82 16 83 17 84 18 85 19 87
REMARK SMILES IDX 20 88 31 89 21 90 23 91 32 92 22 93 24 94 25 95 29 96 26 97
REMARK SMILES IDX 28 98 30 99 27 100
REMARK H PARENT 3 6 89 24 57 35 7 75 18 86
REMARK Flexibility Score: inf
ROOT
ATOM      1  C   UNL A   1      31.777  27.971  26.092  1.00  0.00     0.042 C 
ENDROOT
BRANCH   1   2
ATOM      2  C   UNL A   1      32.651  29.072  25.506  1.00  0.00     0.118 C 
BRANCH   2   3
ATOM      3  N   UNL A   1      32.251  30.409  25.915  1.00  0.00    -0.352 N 
ATOM      4  O   UNL A   1      32.166  32.281  27.147  1.00  0.00    -0.269 OA
ATOM      5  C   UNL A   1      32.772  31.254  26.868  1.00  0.00     0.251 C 
ATOM      6  H   UNL A   1      31.475  30.771  25.429  1.00  0.00     0.163 HD
BRANCH   5   7
ATOM      7  C   UNL A   1      34.029  30.915  27.573  1.00  0.00     0.039 A 
ATOM      8  C   UNL A   1      34.306  29.607  27.972  1.00  0.00     0.014 A 
ATOM      9  C   UNL A   1      34.968  31.925  27.807  1.00  0.00     0.014 A 
ATOM     10  C   UNL A   1      35.433  29.339  28.743  1.00  0.00     0.010 A 
ATOM     11  C   UNL A   1      36.149  31.634  28.497  1.00  0.00     0.010 A 
ATOM     12  C   UNL A   1      36.376  30.346  29.001  1.00  0.00    -0.014 A 
BRANCH  12  13
ATOM     13  C   UNL A   1      37.630  30.005  29.722  1.00  0.00     0.031 A 
ATOM     14  C   UNL A   1      38.676  29.122  29.100  1.00  0.00     0.074 A 
ATOM     15  C   UNL A   1      37.820  30.509  30.958  1.00  0.00     0.049 A 
ATOM     16  N   UNL A   1      39.829  28.748  29.593  1.00  0.00    -0.248 NA
ATOM     17  C   UNL A   1      38.399  28.586  27.758  1.00  0.00     0.031 C 
ATOM     18  C   UNL A   1      36.857  31.348  31.676  1.00  0.00     0.029 A 
ATOM     19  N   UNL A   1      38.875  30.397  31.826  1.00  0.00    -0.354 N 
ATOM     20  C   UNL A   1      40.399  27.908  28.643  1.00  0.00     0.074 A 
ATOM     21  C   UNL A   1      39.462  27.821  27.545  1.00  0.00     0.031 C 
ATOM     22  C   UNL A   1      37.378  31.703  32.859  1.00  0.00     0.029 A 
ATOM     23  C   UNL A   1      38.684  31.071  33.010  1.00  0.00     0.049 A 
ATOM     24  H   UNL A   1      39.690  29.885  31.622  1.00  0.00     0.167 HD
ATOM     25  C   UNL A   1      41.602  27.285  28.678  1.00  0.00     0.034 A 
ATOM     26  C   UNL A   1      39.463  31.162  34.105  1.00  0.00     0.034 A 
ATOM     27  C   UNL A   1      42.542  27.405  29.761  1.00  0.00     0.049 A 
ATOM     28  C   UNL A   1      40.793  30.468  34.111  1.00  0.00     0.074 A 
ATOM     29  C   UNL A   1      43.808  26.853  29.861  1.00  0.00     0.029 A 
ATOM     30  N   UNL A   1      42.325  28.119  30.929  1.00  0.00    -0.354 N 
ATOM     31  N   UNL A   1      41.360  29.770  33.157  1.00  0.00    -0.248 NA
ATOM     32  C   UNL A   1      41.605  30.592  35.330  1.00  0.00     0.031 C 
ATOM     33  C   UNL A   1      44.347  27.216  31.098  1.00  0.00     0.029 A 
ATOM     34  C   UNL A   1      43.429  28.015  31.759  1.00  0.00     0.049 A 
ATOM     35  H   UNL A   1      41.508  28.625  31.138  1.00  0.00     0.167 HD
ATOM     36  C   UNL A   1      42.601  29.388  33.650  1.00  0.00     0.074 A 
ATOM     37  C   UNL A   1      42.714  29.955  34.979  1.00  0.00     0.031 C 
ATOM     38  C   UNL A   1      43.550  28.621  33.061  1.00  0.00     0.034 A 
BRANCH  25  39
ATOM     39  C   UNL A   1      42.005  26.448  27.492  1.00  0.00     0.023 A 
ATOM     40  C   UNL A   1      42.753  27.037  26.451  1.00  0.00     0.012 A 
ATOM     41  C   UNL A   1      41.746  25.064  27.457  1.00  0.00     0.148 A 
ATOM     42  C   UNL A   1      43.221  26.266  25.389  1.00  0.00     0.002 A 
ATOM     43  C   UNL A   1      42.250  24.294  26.414  1.00  0.00     0.091 A 
ATOM     44  F   UNL A   1      41.018  24.525  28.446  1.00  0.00    -0.205 F 
ATOM     45  C   UNL A   1      42.981  24.894  25.376  1.00  0.00     0.022 A 
BRANCH  43  46
ATOM     46  S   UNL A   1      42.068  22.507  26.349  1.00  0.00     0.127 S 
ATOM     47  O   UNL A   1      40.616  22.364  26.239  1.00  0.00    -0.237 OA
ATOM     48  O   UNL A   1      42.807  22.165  25.133  1.00  0.00    -0.237 OA
ATOM     49  O   UNL A   1      42.654  21.998  27.581  1.00  0.00    -0.744 OA
ENDBRANCH  43  46
ENDBRANCH  25  39
BRANCH  26  50
ATOM     50  C   UNL A   1      39.010  31.996  35.254  1.00  0.00     0.023 A 
ATOM     51  C   UNL A   1      39.040  33.399  35.143  1.00  0.00     0.012 A 
ATOM     52  C   UNL A   1      38.469  31.409  36.415  1.00  0.00     0.148 A 
ATOM     53  C   UNL A   1      38.549  34.202  36.172  1.00  0.00     0.002 A 
ATOM     54  C   UNL A   1      37.925  32.213  37.408  1.00  0.00     0.091 A 
ATOM     55  F   UNL A   1      38.464  30.071  36.506  1.00  0.00    -0.205 F 
ATOM     56  C   UNL A   1      37.977  33.611  37.295  1.00  0.00     0.022 A 
BRANCH  54  57
ATOM     57  S   UNL A   1      37.028  31.537  38.810  1.00  0.00     0.127 S 
ATOM     58  O   UNL A   1      37.987  31.723  39.896  1.00  0.00    -0.237 OA
ATOM     59  O   UNL A   1      35.855  32.410  38.867  1.00  0.00    -0.237 OA
ATOM     60  O   UNL A   1      36.730  30.156  38.457  1.00  0.00    -0.744 OA
ENDBRANCH  54  57
ENDBRANCH  26  50
BRANCH  38  61
ATOM     61  C   UNL A   1      44.814  28.354  33.834  1.00  0.00     0.023 A 
ATOM     62  C   UNL A   1      45.899  29.245  33.721  1.00  0.00     0.012 A 
ATOM     63  C   UNL A   1      44.888  27.284  34.748  1.00  0.00     0.148 A 
ATOM     64  C   UNL A   1      47.048  29.063  34.491  1.00  0.00     0.002 A 
ATOM     65  C   UNL A   1      46.016  27.136  35.546  1.00  0.00     0.091 A 
ATOM     66  F   UNL A   1      43.851  26.437  34.824  1.00  0.00    -0.205 F 
ATOM     67  C   UNL A   1      47.100  28.019  35.411  1.00  0.00     0.022 A 
BRANCH  65  68
ATOM     68  S   UNL A   1      46.132  25.882  36.826  1.00  0.00     0.127 S 
ATOM     69  O   UNL A   1      47.314  26.320  37.566  1.00  0.00    -0.237 OA
ATOM     70  O   UNL A   1      44.868  26.052  37.543  1.00  0.00    -0.237 OA
ATOM     71  O   UNL A   1      46.266  24.609  36.131  1.00  0.00    -0.744 OA
ENDBRANCH  65  68
ENDBRANCH  38  61
ENDBRANCH  12  13
ENDBRANCH   5   7
ENDBRANCH   2   3
ENDBRANCH   1   2
BRANCH   1  72
ATOM     72  C   UNL A   1      32.524  26.906  26.880  1.00  0.00     0.117 C 
BRANCH  72  73
ATOM     73  N   UNL A   1      32.047  25.558  26.621  1.00  0.00    -0.356 N 
ATOM     74  C   UNL A   1      32.164  24.755  25.530  1.00  0.00     0.224 C 
ATOM     75  H   UNL A   1      31.550  25.155  27.369  1.00  0.00     0.163 HD
ATOM     76  O   UNL A   1      31.615  23.651  25.595  1.00  0.00    -0.275 OA
BRANCH  74  77
ATOM     77  C   UNL A   1      32.877  25.245  24.270  1.00  0.00     0.095 C 
ATOM     78  C   UNL A   1      34.406  25.096  24.358  1.00  0.00     0.041 C 
ATOM     79  C   UNL A   1      32.265  24.549  23.030  1.00  0.00     0.095 C 
ATOM     80  C   UNL A   1      34.968  23.814  23.836  1.00  0.00    -0.030 C 
ATOM     81  C   UNL A   1      32.844  23.166  22.705  1.00  0.00     0.041 C 
ATOM     82  C   UNL A   1      34.263  22.942  23.112  1.00  0.00    -0.030 C 
BRANCH  79  83
ATOM     83  C   UNL A   1      32.304  25.460  21.814  1.00  0.00     0.224 C 
ATOM     84  O   UNL A   1      32.957  25.177  20.809  1.00  0.00    -0.275 OA
ATOM     85  N   UNL A   1      31.586  26.621  21.813  1.00  0.00    -0.344 N 
ATOM     86  H   UNL A   1      31.631  27.123  20.967  1.00  0.00     0.164 HD
BRANCH  85  87
ATOM     87  C   UNL A   1      30.757  27.257  22.847  1.00  0.00     0.172 C 
ATOM     88  C   UNL A   1      29.634  26.365  23.381  1.00  0.00     0.037 C 
ATOM     89  C   UNL A   1      30.450  28.738  22.516  1.00  0.00     0.249 C 
ATOM     90  C   UNL A   1      28.435  27.160  23.864  1.00  0.00     0.025 C 
ATOM     91  N   UNL A   1      29.117  29.152  22.564  1.00  0.00    -0.308 N 
ATOM     92  O   UNL A   1      31.398  29.500  22.303  1.00  0.00    -0.272 OA
ATOM     93  C   UNL A   1      28.035  28.206  22.840  1.00  0.00     0.126 C 
BRANCH  91  94
ATOM     94  C   UNL A   1      28.753  30.489  22.183  1.00  0.00     0.080 A 
ATOM     95  C   UNL A   1      28.308  30.753  20.877  1.00  0.00     0.029 A 
ATOM     96  C   UNL A   1      28.824  31.572  23.074  1.00  0.00     0.146 A 
ATOM     97  C   UNL A   1      27.942  32.048  20.487  1.00  0.00     0.002 A 
ATOM     98  C   UNL A   1      28.467  32.864  22.687  1.00  0.00     0.041 A 
ATOM     99  F   UNL A   1      29.332  31.426  24.305  1.00  0.00    -0.205 F 
ATOM    100  C   UNL A   1      28.021  33.103  21.391  1.00  0.00     0.003 A 
ENDBRANCH  91  94
ENDBRANCH  85  87
ENDBRANCH  79  83
ENDBRANCH  74  77
ENDBRANCH  72  73
ENDBRANCH   1  72
TORSDOF 16
ENDMDL
