MODEL 1
REMARK VINA RESULT:     -10.7      0.000      0.000
REMARK SMILES CCCNC(=O)CN(C)C(=O)C[N@H+]1CCCC[C@H]1C(=O)NCCCNC(=O)c1ccc(-c2c3nc(c(-c4cccc(S(=O)(=O)[O-])c4F)c4ccc([nH]4)c(-c4cccc(S(=O)(=O)[O-])c4F)c4nc(c(-c5cccc(S(=O)(=O)[O-])c5F)c5ccc2[nH]5)C=C4)C=C3)cc1
REMARK SMILES IDX 19 1 20 2 21 3 18 5 13 6 14 7 15 9 17 10 16 11 12 12 10 13
REMARK SMILES IDX 11 14 8 15 9 16 7 17 5 18 4 19 6 21 3 22 2 23 1 24 22 25
REMARK SMILES IDX 23 26 24 27 25 28 26 29 27 31 28 32 29 33 90 34 30 35 89 36
REMARK SMILES IDX 31 37 32 38 33 39 83 40 34 41 88 42 82 43 84 44 35 45 87 46
REMARK SMILES IDX 81 47 80 48 36 50 68 51 48 52 67 53 49 54 52 55 66 56 85 57
REMARK SMILES IDX 50 58 51 59 65 61 86 62 53 63 37 64 38 65 46 66 39 67 41 68
REMARK SMILES IDX 47 69 40 70 42 71 43 72 44 73 45 74 69 75 70 76 78 77 71 78
REMARK SMILES IDX 73 79 79 80 72 81 74 82 75 83 76 84 77 85 54 86 55 87 63 88
REMARK SMILES IDX 56 89 58 90 64 91 57 92 59 93 60 94 61 95 62 96
REMARK H PARENT 21 4 13 8 4 20 25 30 84 49 52 60
REMARK Flexibility Score: inf
ROOT
ATOM      1  C   UNL A   1      35.346  20.995  24.938  1.00  0.00     0.278 C 
ATOM      2  O   UNL A   1      34.254  20.864  25.497  1.00  0.00    -0.268 OA
ATOM      3  N   UNL A   1      36.239  19.975  25.091  1.00  0.00    -0.351 N 
ATOM      4  H   UNL A   1      35.913  19.217  25.629  1.00  0.00     0.163 HD
ENDROOT
BRANCH   1   5
ATOM      5  C   UNL A   1      35.731  22.233  24.087  1.00  0.00     0.274 C 
ATOM      6  N   UNL A   1      34.618  23.208  23.897  1.00  0.00    -0.317 N 
ATOM      7  C   UNL A   1      34.270  23.944  25.111  1.00  0.00     0.263 C 
ATOM      8  H   UNL A   1      34.978  23.908  23.248  1.00  0.00     0.349 HD
ATOM      9  C   UNL A   1      35.487  24.691  25.652  1.00  0.00     0.062 C 
ATOM     10  C   UNL A   1      36.970  22.917  24.687  1.00  0.00     0.076 C 
ATOM     11  C   UNL A   1      36.645  23.743  25.927  1.00  0.00     0.012 C 
BRANCH   6  12
ATOM     12  C   UNL A   1      33.440  22.597  23.252  1.00  0.00     0.364 C 
BRANCH  12  13
ATOM     13  C   UNL A   1      32.874  23.541  22.176  1.00  0.00     0.277 C 
ATOM     14  O   UNL A   1      33.305  23.497  21.022  1.00  0.00    -0.268 OA
BRANCH  13  15
ATOM     15  N   UNL A   1      31.857  24.422  22.547  1.00  0.00    -0.332 N 
ATOM     16  C   UNL A   1      30.738  24.030  23.391  1.00  0.00     0.147 C 
BRANCH  15  17
ATOM     17  C   UNL A   1      31.819  25.728  21.883  1.00  0.00     0.219 C 
BRANCH  17  18
ATOM     18  C   UNL A   1      32.807  26.810  22.350  1.00  0.00     0.239 C 
ATOM     19  N   UNL A   1      32.512  27.658  23.376  1.00  0.00    -0.355 N 
ATOM     20  H   UNL A   1      33.231  28.285  23.615  1.00  0.00     0.163 HD
ATOM     21  O   UNL A   1      33.812  27.074  21.680  1.00  0.00    -0.273 OA
BRANCH  19  22
ATOM     22  C   UNL A   1      31.307  27.781  24.168  1.00  0.00     0.115 C 
BRANCH  22  23
ATOM     23  C   UNL A   1      30.491  29.009  23.788  1.00  0.00     0.018 C 
ATOM     24  C   UNL A   1      29.228  28.658  23.013  1.00  0.00     0.006 C 
ENDBRANCH  22  23
ENDBRANCH  19  22
ENDBRANCH  17  18
ENDBRANCH  15  17
ENDBRANCH  13  15
ENDBRANCH  12  13
ENDBRANCH   6  12
ENDBRANCH   1   5
BRANCH   3  25
ATOM     25  C   UNL A   1      37.595  19.826  24.592  1.00  0.00     0.118 C 
BRANCH  25  26
ATOM     26  C   UNL A   1      38.471  19.013  25.536  1.00  0.00     0.042 C 
BRANCH  26  27
ATOM     27  C   UNL A   1      39.734  19.728  26.003  1.00  0.00     0.118 C 
BRANCH  27  28
ATOM     28  N   UNL A   1      40.921  18.884  25.954  1.00  0.00    -0.352 N 
ATOM     29  C   UNL A   1      42.245  19.239  26.066  1.00  0.00     0.251 C 
ATOM     30  H   UNL A   1      40.752  17.924  25.822  1.00  0.00     0.163 HD
ATOM     31  O   UNL A   1      43.125  18.406  25.862  1.00  0.00    -0.269 OA
BRANCH  29  32
ATOM     32  C   UNL A   1      42.606  20.631  26.407  1.00  0.00     0.039 A 
ATOM     33  C   UNL A   1      42.636  21.016  27.751  1.00  0.00     0.014 A 
ATOM     34  C   UNL A   1      42.930  21.547  25.405  1.00  0.00     0.014 A 
ATOM     35  C   UNL A   1      43.061  22.302  28.094  1.00  0.00     0.010 A 
ATOM     36  C   UNL A   1      43.423  22.800  25.751  1.00  0.00     0.010 A 
ATOM     37  C   UNL A   1      43.493  23.192  27.098  1.00  0.00    -0.014 A 
BRANCH  37  38
ATOM     38  C   UNL A   1      44.020  24.542  27.418  1.00  0.00     0.031 A 
ATOM     39  C   UNL A   1      43.081  25.602  27.927  1.00  0.00     0.074 A 
ATOM     40  C   UNL A   1      45.299  24.853  27.126  1.00  0.00     0.049 A 
ATOM     41  N   UNL A   1      43.294  26.880  28.102  1.00  0.00    -0.248 NA
ATOM     42  C   UNL A   1      41.709  25.173  28.249  1.00  0.00     0.031 C 
ATOM     43  C   UNL A   1      46.291  23.927  26.576  1.00  0.00     0.029 A 
ATOM     44  N   UNL A   1      45.972  26.046  27.216  1.00  0.00    -0.354 N 
ATOM     45  C   UNL A   1      42.073  27.417  28.493  1.00  0.00     0.074 A 
ATOM     46  C   UNL A   1      41.119  26.329  28.516  1.00  0.00     0.031 C 
ATOM     47  C   UNL A   1      47.443  24.588  26.371  1.00  0.00     0.029 A 
ATOM     48  C   UNL A   1      47.262  25.989  26.737  1.00  0.00     0.049 A 
ATOM     49  H   UNL A   1      45.571  26.864  27.587  1.00  0.00     0.167 HD
ATOM     50  C   UNL A   1      41.778  28.695  28.824  1.00  0.00     0.034 A 
ATOM     51  C   UNL A   1      48.187  26.959  26.596  1.00  0.00     0.034 A 
ATOM     52  C   UNL A   1      42.746  29.756  28.867  1.00  0.00     0.049 A 
ATOM     53  C   UNL A   1      47.847  28.363  27.022  1.00  0.00     0.074 A 
ATOM     54  C   UNL A   1      42.570  31.062  29.287  1.00  0.00     0.029 A 
ATOM     55  N   UNL A   1      44.071  29.632  28.480  1.00  0.00    -0.354 N 
ATOM     56  N   UNL A   1      46.726  28.822  27.525  1.00  0.00    -0.248 NA
ATOM     57  C   UNL A   1      48.904  29.377  26.890  1.00  0.00     0.031 C 
ATOM     58  C   UNL A   1      43.788  31.734  29.141  1.00  0.00     0.029 A 
ATOM     59  C   UNL A   1      44.725  30.839  28.649  1.00  0.00     0.049 A 
ATOM     60  H   UNL A   1      44.485  28.809  28.136  1.00  0.00     0.167 HD
ATOM     61  C   UNL A   1      46.960  30.162  27.815  1.00  0.00     0.074 A 
ATOM     62  C   UNL A   1      48.329  30.440  27.436  1.00  0.00     0.031 C 
ATOM     63  C   UNL A   1      46.112  31.079  28.341  1.00  0.00     0.034 A 
BRANCH  50  64
ATOM     64  C   UNL A   1      40.360  29.010  29.218  1.00  0.00     0.023 A 
ATOM     65  C   UNL A   1      39.422  29.354  28.225  1.00  0.00     0.012 A 
ATOM     66  C   UNL A   1      39.941  28.908  30.559  1.00  0.00     0.148 A 
ATOM     67  C   UNL A   1      38.096  29.623  28.563  1.00  0.00     0.002 A 
ATOM     68  C   UNL A   1      38.609  29.135  30.883  1.00  0.00     0.091 A 
ATOM     69  F   UNL A   1      40.852  28.603  31.493  1.00  0.00    -0.205 F 
ATOM     70  C   UNL A   1      37.687  29.504  29.888  1.00  0.00     0.022 A 
BRANCH  68  71
ATOM     71  S   UNL A   1      37.971  28.926  32.550  1.00  0.00     0.127 S 
ATOM     72  O   UNL A   1      38.170  27.493  32.764  1.00  0.00    -0.237 OA
ATOM     73  O   UNL A   1      38.860  29.787  33.332  1.00  0.00    -0.237 OA
ATOM     74  O   UNL A   1      36.586  29.369  32.505  1.00  0.00    -0.744 OA
ENDBRANCH  68  71
ENDBRANCH  50  64
BRANCH  51  75
ATOM     75  C   UNL A   1      49.551  26.621  26.099  1.00  0.00     0.023 A 
ATOM     76  C   UNL A   1      50.397  25.836  26.907  1.00  0.00     0.012 A 
ATOM     77  C   UNL A   1      50.005  27.038  24.833  1.00  0.00     0.148 A 
ATOM     78  C   UNL A   1      51.680  25.496  26.478  1.00  0.00     0.002 A 
ATOM     79  C   UNL A   1      51.266  26.652  24.388  1.00  0.00     0.091 A 
ATOM     80  F   UNL A   1      49.191  27.794  24.083  1.00  0.00    -0.205 F 
ATOM     81  C   UNL A   1      52.110  25.895  25.215  1.00  0.00     0.022 A 
BRANCH  79  82
ATOM     82  S   UNL A   1      51.855  27.014  22.730  1.00  0.00     0.127 S 
ATOM     83  O   UNL A   1      52.284  28.404  22.861  1.00  0.00    -0.237 OA
ATOM     84  O   UNL A   1      52.942  26.046  22.576  1.00  0.00    -0.237 OA
ATOM     85  O   UNL A   1      50.718  26.781  21.850  1.00  0.00    -0.744 OA
ENDBRANCH  79  82
ENDBRANCH  51  75
BRANCH  63  86
ATOM     86  C   UNL A   1      46.639  32.464  28.606  1.00  0.00     0.023 A 
ATOM     87  C   UNL A   1      47.254  32.757  29.837  1.00  0.00     0.012 A 
ATOM     88  C   UNL A   1      46.633  33.433  27.582  1.00  0.00     0.148 A 
ATOM     89  C   UNL A   1      47.846  34.002  30.051  1.00  0.00     0.002 A 
ATOM     90  C   UNL A   1      47.265  34.652  27.786  1.00  0.00     0.091 A 
ATOM     91  F   UNL A   1      46.025  33.135  26.424  1.00  0.00    -0.205 F 
ATOM     92  C   UNL A   1      47.865  34.942  29.022  1.00  0.00     0.022 A 
BRANCH  90  93
ATOM     93  S   UNL A   1      47.428  35.884  26.487  1.00  0.00     0.127 S 
ATOM     94  O   UNL A   1      48.467  35.293  25.646  1.00  0.00    -0.237 OA
ATOM     95  O   UNL A   1      46.090  35.886  25.895  1.00  0.00    -0.237 OA
ATOM     96  O   UNL A   1      47.797  37.125  27.153  1.00  0.00    -0.744 OA
ENDBRANCH  90  93
ENDBRANCH  63  86
ENDBRANCH  37  38
ENDBRANCH  29  32
ENDBRANCH  27  28
ENDBRANCH  26  27
ENDBRANCH  25  26
ENDBRANCH   3  25
TORSDOF 20
ENDMDL
MODEL 2
REMARK VINA RESULT:     -10.3      2.577      8.056
REMARK SMILES CCCNC(=O)CN(C)C(=O)C[N@H+]1CCCC[C@H]1C(=O)NCCCNC(=O)c1ccc(-c2c3nc(c(-c4cccc(S(=O)(=O)[O-])c4F)c4ccc([nH]4)c(-c4cccc(S(=O)(=O)[O-])c4F)c4nc(c(-c5cccc(S(=O)(=O)[O-])c5F)c5ccc2[nH]5)C=C4)C=C3)cc1
REMARK SMILES IDX 19 1 20 2 21 3 18 5 13 6 14 7 15 9 17 10 16 11 12 12 10 13
REMARK SMILES IDX 11 14 8 15 9 16 7 17 5 18 4 19 6 21 3 22 2 23 1 24 22 25
REMARK SMILES IDX 23 26 24 27 25 28 26 29 27 31 28 32 29 33 90 34 30 35 89 36
REMARK SMILES IDX 31 37 32 38 33 39 83 40 34 41 88 42 82 43 84 44 35 45 87 46
REMARK SMILES IDX 81 47 80 48 36 50 68 51 48 52 67 53 49 54 52 55 66 56 85 57
REMARK SMILES IDX 50 58 51 59 65 61 86 62 53 63 37 64 38 65 46 66 39 67 41 68
REMARK SMILES IDX 47 69 40 70 42 71 43 72 44 73 45 74 69 75 70 76 78 77 71 78
REMARK SMILES IDX 73 79 79 80 72 81 74 82 75 83 76 84 77 85 54 86 55 87 63 88
REMARK SMILES IDX 56 89 58 90 64 91 57 92 59 93 60 94 61 95 62 96
REMARK H PARENT 21 4 13 8 4 20 25 30 84 49 52 60
REMARK Flexibility Score: inf
ROOT
ATOM      1  C   UNL A   1      34.654  21.403  25.097  1.00  0.00     0.278 C 
ATOM      2  O   UNL A   1      33.629  20.743  24.905  1.00  0.00    -0.268 OA
ATOM      3  N   UNL A   1      35.827  20.853  24.668  1.00  0.00    -0.351 N 
ATOM      4  H   UNL A   1      35.736  19.977  24.228  1.00  0.00     0.163 HD
ENDROOT
BRANCH   1   5
ATOM      5  C   UNL A   1      34.662  22.795  25.781  1.00  0.00     0.274 C 
ATOM      6  N   UNL A   1      33.701  23.768  25.188  1.00  0.00    -0.317 N 
ATOM      7  C   UNL A   1      32.300  23.454  25.470  1.00  0.00     0.263 C 
ATOM      8  H   UNL A   1      33.882  24.653  25.662  1.00  0.00     0.349 HD
ATOM      9  C   UNL A   1      32.059  23.386  26.976  1.00  0.00     0.062 C 
ATOM     10  C   UNL A   1      34.430  22.637  27.293  1.00  0.00     0.076 C 
ATOM     11  C   UNL A   1      32.970  22.363  27.639  1.00  0.00     0.012 C 
BRANCH   6  12
ATOM     12  C   UNL A   1      33.947  23.997  23.752  1.00  0.00     0.364 C 
BRANCH  12  13
ATOM     13  C   UNL A   1      33.540  25.430  23.365  1.00  0.00     0.277 C 
ATOM     14  O   UNL A   1      33.987  26.394  23.990  1.00  0.00    -0.268 OA
BRANCH  13  15
ATOM     15  N   UNL A   1      32.673  25.595  22.283  1.00  0.00    -0.332 N 
ATOM     16  C   UNL A   1      32.872  24.936  21.001  1.00  0.00     0.147 C 
BRANCH  15  17
ATOM     17  C   UNL A   1      31.648  26.636  22.392  1.00  0.00     0.219 C 
BRANCH  17  18
ATOM     18  C   UNL A   1      30.616  26.525  23.527  1.00  0.00     0.239 C 
ATOM     19  N   UNL A   1      30.541  27.453  24.523  1.00  0.00    -0.355 N 
ATOM     20  H   UNL A   1      29.820  27.304  25.175  1.00  0.00     0.163 HD
ATOM     21  O   UNL A   1      29.960  25.489  23.681  1.00  0.00    -0.273 OA
BRANCH  19  22
ATOM     22  C   UNL A   1      31.356  28.624  24.772  1.00  0.00     0.115 C 
BRANCH  22  23
ATOM     23  C   UNL A   1      31.747  28.751  26.237  1.00  0.00     0.018 C 
ATOM     24  C   UNL A   1      32.100  27.412  26.870  1.00  0.00     0.006 C 
ENDBRANCH  22  23
ENDBRANCH  19  22
ENDBRANCH  17  18
ENDBRANCH  15  17
ENDBRANCH  13  15
ENDBRANCH  12  13
ENDBRANCH   6  12
ENDBRANCH   1   5
BRANCH   3  25
ATOM     25  C   UNL A   1      37.189  21.349  24.758  1.00  0.00     0.118 C 
BRANCH  25  26
ATOM     26  C   UNL A   1      38.196  20.227  24.980  1.00  0.00     0.042 C 
BRANCH  26  27
ATOM     27  C   UNL A   1      39.178  20.474  26.121  1.00  0.00     0.118 C 
BRANCH  27  28
ATOM     28  N   UNL A   1      40.327  19.578  26.093  1.00  0.00    -0.352 N 
ATOM     29  C   UNL A   1      41.665  19.876  26.197  1.00  0.00     0.251 C 
ATOM     30  H   UNL A   1      40.115  18.623  25.983  1.00  0.00     0.163 HD
ATOM     31  O   UNL A   1      42.507  19.000  26.014  1.00  0.00    -0.269 OA
BRANCH  29  32
ATOM     32  C   UNL A   1      42.088  21.258  26.505  1.00  0.00     0.039 A 
ATOM     33  C   UNL A   1      42.402  22.123  25.453  1.00  0.00     0.014 A 
ATOM     34  C   UNL A   1      42.157  21.702  27.827  1.00  0.00     0.014 A 
ATOM     35  C   UNL A   1      42.717  23.458  25.724  1.00  0.00     0.010 A 
ATOM     36  C   UNL A   1      42.397  23.046  28.090  1.00  0.00     0.010 A 
ATOM     37  C   UNL A   1      42.680  23.938  27.042  1.00  0.00    -0.014 A 
BRANCH  37  38
ATOM     38  C   UNL A   1      42.938  25.362  27.373  1.00  0.00     0.031 A 
ATOM     39  C   UNL A   1      44.346  25.891  27.329  1.00  0.00     0.074 A 
ATOM     40  C   UNL A   1      41.937  26.136  27.839  1.00  0.00     0.049 A 
ATOM     41  N   UNL A   1      44.810  27.041  27.742  1.00  0.00    -0.248 NA
ATOM     42  C   UNL A   1      45.374  24.990  26.779  1.00  0.00     0.031 C 
ATOM     43  C   UNL A   1      40.540  25.721  27.982  1.00  0.00     0.029 A 
ATOM     44  N   UNL A   1      41.950  27.424  28.316  1.00  0.00    -0.354 N 
ATOM     45  C   UNL A   1      46.186  26.980  27.560  1.00  0.00     0.074 A 
ATOM     46  C   UNL A   1      46.485  25.674  27.013  1.00  0.00     0.031 C 
ATOM     47  C   UNL A   1      39.833  26.731  28.516  1.00  0.00     0.029 A 
ATOM     48  C   UNL A   1      40.730  27.850  28.789  1.00  0.00     0.049 A 
ATOM     49  H   UNL A   1      42.756  27.989  28.318  1.00  0.00     0.167 HD
ATOM     50  C   UNL A   1      47.115  27.933  27.805  1.00  0.00     0.034 A 
ATOM     51  C   UNL A   1      40.378  29.004  29.389  1.00  0.00     0.034 A 
ATOM     52  C   UNL A   1      46.804  29.252  28.282  1.00  0.00     0.049 A 
ATOM     53  C   UNL A   1      41.423  30.067  29.602  1.00  0.00     0.074 A 
ATOM     54  C   UNL A   1      47.660  30.323  28.466  1.00  0.00     0.029 A 
ATOM     55  N   UNL A   1      45.537  29.682  28.646  1.00  0.00    -0.354 N 
ATOM     56  N   UNL A   1      42.697  30.043  29.291  1.00  0.00    -0.248 NA
ATOM     57  C   UNL A   1      40.980  31.326  30.219  1.00  0.00     0.031 C 
ATOM     58  C   UNL A   1      46.913  31.398  28.955  1.00  0.00     0.029 A 
ATOM     59  C   UNL A   1      45.589  31.002  29.057  1.00  0.00     0.049 A 
ATOM     60  H   UNL A   1      44.723  29.130  28.617  1.00  0.00     0.167 HD
ATOM     61  C   UNL A   1      43.194  31.297  29.628  1.00  0.00     0.074 A 
ATOM     62  C   UNL A   1      42.085  32.058  30.164  1.00  0.00     0.031 C 
ATOM     63  C   UNL A   1      44.459  31.771  29.512  1.00  0.00     0.034 A 
BRANCH  50  64
ATOM     64  C   UNL A   1      48.555  27.604  27.514  1.00  0.00     0.023 A 
ATOM     65  C   UNL A   1      49.350  27.012  28.515  1.00  0.00     0.012 A 
ATOM     66  C   UNL A   1      49.103  27.822  26.234  1.00  0.00     0.148 A 
ATOM     67  C   UNL A   1      50.678  26.673  28.260  1.00  0.00     0.002 A 
ATOM     68  C   UNL A   1      50.414  27.442  25.974  1.00  0.00     0.091 A 
ATOM     69  F   UNL A   1      48.339  28.408  25.302  1.00  0.00    -0.205 F 
ATOM     70  C   UNL A   1      51.207  26.878  26.988  1.00  0.00     0.022 A 
BRANCH  68  71
ATOM     71  S   UNL A   1      51.156  27.591  24.344  1.00  0.00     0.127 S 
ATOM     72  O   UNL A   1      50.191  26.873  23.514  1.00  0.00    -0.237 OA
ATOM     73  O   UNL A   1      51.174  29.041  24.142  1.00  0.00    -0.237 OA
ATOM     74  O   UNL A   1      52.473  26.980  24.449  1.00  0.00    -0.744 OA
ENDBRANCH  68  71
ENDBRANCH  50  64
BRANCH  51  75
ATOM     75  C   UNL A   1      38.955  29.247  29.760  1.00  0.00     0.023 A 
ATOM     76  C   UNL A   1      38.498  28.827  31.025  1.00  0.00     0.012 A 
ATOM     77  C   UNL A   1      38.064  29.912  28.895  1.00  0.00     0.148 A 
ATOM     78  C   UNL A   1      37.174  29.038  31.411  1.00  0.00     0.002 A 
ATOM     79  C   UNL A   1      36.759  30.165  29.306  1.00  0.00     0.091 A 
ATOM     80  F   UNL A   1      38.513  30.293  27.691  1.00  0.00    -0.205 F 
ATOM     81  C   UNL A   1      36.308  29.715  30.557  1.00  0.00     0.022 A 
BRANCH  79  82
ATOM     82  S   UNL A   1      35.611  31.138  28.326  1.00  0.00     0.127 S 
ATOM     83  O   UNL A   1      35.126  30.151  27.364  1.00  0.00    -0.237 OA
ATOM     84  O   UNL A   1      34.630  31.555  29.329  1.00  0.00    -0.237 OA
ATOM     85  O   UNL A   1      36.398  32.231  27.770  1.00  0.00    -0.744 OA
ENDBRANCH  79  82
ENDBRANCH  51  75
BRANCH  63  86
ATOM     86  C   UNL A   1      44.722  33.199  29.907  1.00  0.00     0.023 A 
ATOM     87  C   UNL A   1      44.576  34.228  28.958  1.00  0.00     0.012 A 
ATOM     88  C   UNL A   1      44.990  33.525  31.252  1.00  0.00     0.148 A 
ATOM     89  C   UNL A   1      44.708  35.563  29.340  1.00  0.00     0.002 A 
ATOM     90  C   UNL A   1      45.072  34.857  31.633  1.00  0.00     0.091 A 
ATOM     91  F   UNL A   1      45.141  32.525  32.134  1.00  0.00    -0.205 F 
ATOM     92  C   UNL A   1      44.939  35.878  30.677  1.00  0.00     0.022 A 
BRANCH  90  93
ATOM     93  S   UNL A   1      45.267  35.360  33.348  1.00  0.00     0.127 S 
ATOM     94  O   UNL A   1      44.089  34.760  33.970  1.00  0.00    -0.237 OA
ATOM     95  O   UNL A   1      46.537  34.732  33.711  1.00  0.00    -0.237 OA
ATOM     96  O   UNL A   1      45.293  36.817  33.339  1.00  0.00    -0.744 OA
ENDBRANCH  90  93
ENDBRANCH  63  86
ENDBRANCH  37  38
ENDBRANCH  29  32
ENDBRANCH  27  28
ENDBRANCH  26  27
ENDBRANCH  25  26
ENDBRANCH   3  25
TORSDOF 20
ENDMDL
MODEL 3
REMARK VINA RESULT:     -10.2      2.097      7.907
REMARK SMILES CCCNC(=O)CN(C)C(=O)C[N@H+]1CCCC[C@H]1C(=O)NCCCNC(=O)c1ccc(-c2c3nc(c(-c4cccc(S(=O)(=O)[O-])c4F)c4ccc([nH]4)c(-c4cccc(S(=O)(=O)[O-])c4F)c4nc(c(-c5cccc(S(=O)(=O)[O-])c5F)c5ccc2[nH]5)C=C4)C=C3)cc1
REMARK SMILES IDX 19 1 20 2 21 3 18 5 13 6 14 7 15 9 17 10 16 11 12 12 10 13
REMARK SMILES IDX 11 14 8 15 9 16 7 17 5 18 4 19 6 21 3 22 2 23 1 24 22 25
REMARK SMILES IDX 23 26 24 27 25 28 26 29 27 31 28 32 29 33 90 34 30 35 89 36
REMARK SMILES IDX 31 37 32 38 33 39 83 40 34 41 88 42 82 43 84 44 35 45 87 46
REMARK SMILES IDX 81 47 80 48 36 50 68 51 48 52 67 53 49 54 52 55 66 56 85 57
REMARK SMILES IDX 50 58 51 59 65 61 86 62 53 63 37 64 38 65 46 66 39 67 41 68
REMARK SMILES IDX 47 69 40 70 42 71 43 72 44 73 45 74 69 75 70 76 78 77 71 78
REMARK SMILES IDX 73 79 79 80 72 81 74 82 75 83 76 84 77 85 54 86 55 87 63 88
REMARK SMILES IDX 56 89 58 90 64 91 57 92 59 93 60 94 61 95 62 96
REMARK H PARENT 21 4 13 8 4 20 25 30 84 49 52 60
REMARK Flexibility Score: inf
ROOT
ATOM      1  C   UNL A   1      35.108  20.912  25.169  1.00  0.00     0.278 C 
ATOM      2  O   UNL A   1      34.119  20.927  25.906  1.00  0.00    -0.268 OA
ATOM      3  N   UNL A   1      35.868  19.779  25.184  1.00  0.00    -0.351 N 
ATOM      4  H   UNL A   1      35.537  19.067  25.778  1.00  0.00     0.163 HD
ENDROOT
BRANCH   1   5
ATOM      5  C   UNL A   1      35.509  22.095  24.249  1.00  0.00     0.274 C 
ATOM      6  N   UNL A   1      34.689  23.325  24.450  1.00  0.00    -0.317 N 
ATOM      7  C   UNL A   1      34.955  24.005  25.718  1.00  0.00     0.263 C 
ATOM      8  H   UNL A   1      34.992  23.974  23.724  1.00  0.00     0.349 HD
ATOM      9  C   UNL A   1      36.432  24.378  25.827  1.00  0.00     0.062 C 
ATOM     10  C   UNL A   1      37.008  22.396  24.406  1.00  0.00     0.076 C 
ATOM     11  C   UNL A   1      37.326  23.155  25.690  1.00  0.00     0.012 C 
BRANCH   6  12
ATOM     12  C   UNL A   1      33.251  23.083  24.233  1.00  0.00     0.364 C 
BRANCH  12  13
ATOM     13  C   UNL A   1      32.481  24.416  24.242  1.00  0.00     0.277 C 
ATOM     14  O   UNL A   1      31.650  24.647  25.123  1.00  0.00    -0.268 OA
BRANCH  13  15
ATOM     15  N   UNL A   1      32.768  25.346  23.241  1.00  0.00    -0.332 N 
ATOM     16  C   UNL A   1      32.905  24.982  21.839  1.00  0.00     0.147 C 
BRANCH  15  17
ATOM     17  C   UNL A   1      33.148  26.696  23.662  1.00  0.00     0.219 C 
BRANCH  17  18
ATOM     18  C   UNL A   1      32.902  27.859  22.685  1.00  0.00     0.239 C 
ATOM     19  N   UNL A   1      31.644  28.284  22.377  1.00  0.00    -0.355 N 
ATOM     20  H   UNL A   1      31.604  29.059  21.772  1.00  0.00     0.163 HD
ATOM     21  O   UNL A   1      33.826  28.310  21.999  1.00  0.00    -0.273 OA
BRANCH  19  22
ATOM     22  C   UNL A   1      30.356  27.775  22.800  1.00  0.00     0.115 C 
BRANCH  22  23
ATOM     23  C   UNL A   1      29.269  28.839  22.741  1.00  0.00     0.018 C 
ATOM     24  C   UNL A   1      29.713  30.092  22.000  1.00  0.00     0.006 C 
ENDBRANCH  22  23
ENDBRANCH  19  22
ENDBRANCH  17  18
ENDBRANCH  15  17
ENDBRANCH  13  15
ENDBRANCH  12  13
ENDBRANCH   6  12
ENDBRANCH   1   5
BRANCH   3  25
ATOM     25  C   UNL A   1      37.086  19.452  24.465  1.00  0.00     0.118 C 
BRANCH  25  26
ATOM     26  C   UNL A   1      38.150  18.853  25.378  1.00  0.00     0.042 C 
BRANCH  26  27
ATOM     27  C   UNL A   1      39.320  19.783  25.681  1.00  0.00     0.118 C 
BRANCH  27  28
ATOM     28  N   UNL A   1      40.509  19.076  26.140  1.00  0.00    -0.352 N 
ATOM     29  C   UNL A   1      41.704  19.586  26.591  1.00  0.00     0.251 C 
ATOM     30  H   UNL A   1      40.449  18.094  26.126  1.00  0.00     0.163 HD
ATOM     31  O   UNL A   1      42.651  18.834  26.809  1.00  0.00    -0.269 OA
BRANCH  29  32
ATOM     32  C   UNL A   1      41.853  21.043  26.788  1.00  0.00     0.039 A 
ATOM     33  C   UNL A   1      42.298  21.520  28.025  1.00  0.00     0.014 A 
ATOM     34  C   UNL A   1      41.569  21.933  25.750  1.00  0.00     0.014 A 
ATOM     35  C   UNL A   1      42.529  22.888  28.197  1.00  0.00     0.010 A 
ATOM     36  C   UNL A   1      41.870  23.282  25.900  1.00  0.00     0.010 A 
ATOM     37  C   UNL A   1      42.351  23.775  27.124  1.00  0.00    -0.014 A 
BRANCH  37  38
ATOM     38  C   UNL A   1      42.650  25.224  27.238  1.00  0.00     0.031 A 
ATOM     39  C   UNL A   1      43.974  25.748  26.752  1.00  0.00     0.074 A 
ATOM     40  C   UNL A   1      41.797  26.038  27.892  1.00  0.00     0.049 A 
ATOM     41  N   UNL A   1      44.503  26.933  26.911  1.00  0.00    -0.248 NA
ATOM     42  C   UNL A   1      44.834  24.801  26.021  1.00  0.00     0.031 C 
ATOM     43  C   UNL A   1      40.508  25.637  28.458  1.00  0.00     0.029 A 
ATOM     44  N   UNL A   1      41.907  27.366  28.226  1.00  0.00    -0.354 N 
ATOM     45  C   UNL A   1      45.775  26.857  26.358  1.00  0.00     0.074 A 
ATOM     46  C   UNL A   1      45.946  25.505  25.872  1.00  0.00     0.031 C 
ATOM     47  C   UNL A   1      39.950  26.693  29.073  1.00  0.00     0.029 A 
ATOM     48  C   UNL A   1      40.855  27.834  28.981  1.00  0.00     0.049 A 
ATOM     49  H   UNL A   1      42.665  27.930  27.951  1.00  0.00     0.167 HD
ATOM     50  C   UNL A   1      46.708  27.831  26.244  1.00  0.00     0.034 A 
ATOM     51  C   UNL A   1      40.652  29.040  29.547  1.00  0.00     0.034 A 
ATOM     52  C   UNL A   1      46.505  29.189  26.666  1.00  0.00     0.049 A 
ATOM     53  C   UNL A   1      41.684  30.119  29.360  1.00  0.00     0.074 A 
ATOM     54  C   UNL A   1      47.348  30.273  26.504  1.00  0.00     0.029 A 
ATOM     55  N   UNL A   1      45.378  29.650  27.329  1.00  0.00    -0.354 N 
ATOM     56  N   UNL A   1      42.821  30.068  28.709  1.00  0.00    -0.248 NA
ATOM     57  C   UNL A   1      41.396  31.431  29.959  1.00  0.00     0.031 C 
ATOM     58  C   UNL A   1      46.737  31.390  27.082  1.00  0.00     0.029 A 
ATOM     59  C   UNL A   1      45.505  31.003  27.586  1.00  0.00     0.049 A 
ATOM     60  H   UNL A   1      44.604  29.097  27.580  1.00  0.00     0.167 HD
ATOM     61  C   UNL A   1      43.357  31.349  28.776  1.00  0.00     0.074 A 
ATOM     62  C   UNL A   1      42.420  32.156  29.529  1.00  0.00     0.031 C 
ATOM     63  C   UNL A   1      44.525  31.811  28.267  1.00  0.00     0.034 A 
BRANCH  50  64
ATOM     64  C   UNL A   1      48.018  27.477  25.593  1.00  0.00     0.023 A 
ATOM     65  C   UNL A   1      49.074  26.975  26.380  1.00  0.00     0.012 A 
ATOM     66  C   UNL A   1      48.185  27.583  24.198  1.00  0.00     0.148 A 
ATOM     67  C   UNL A   1      50.287  26.615  25.794  1.00  0.00     0.002 A 
ATOM     68  C   UNL A   1      49.382  27.182  23.616  1.00  0.00     0.091 A 
ATOM     69  F   UNL A   1      47.179  28.085  23.469  1.00  0.00    -0.205 F 
ATOM     70  C   UNL A   1      50.437  26.707  24.413  1.00  0.00     0.022 A 
BRANCH  68  71
ATOM     71  S   UNL A   1      49.640  27.188  21.838  1.00  0.00     0.127 S 
ATOM     72  O   UNL A   1      48.653  26.205  21.393  1.00  0.00    -0.237 OA
ATOM     73  O   UNL A   1      49.323  28.572  21.483  1.00  0.00    -0.237 OA
ATOM     74  O   UNL A   1      51.032  26.816  21.636  1.00  0.00    -0.744 OA
ENDBRANCH  68  71
ENDBRANCH  50  64
BRANCH  51  75
ATOM     75  C   UNL A   1      39.382  29.315  30.278  1.00  0.00     0.023 A 
ATOM     76  C   UNL A   1      39.197  28.758  31.559  1.00  0.00     0.012 A 
ATOM     77  C   UNL A   1      38.378  30.141  29.738  1.00  0.00     0.148 A 
ATOM     78  C   UNL A   1      38.025  28.994  32.276  1.00  0.00     0.002 A 
ATOM     79  C   UNL A   1      37.232  30.415  30.480  1.00  0.00     0.091 A 
ATOM     80  F   UNL A   1      38.566  30.652  28.513  1.00  0.00    -0.205 F 
ATOM     81  C   UNL A   1      37.048  29.829  31.742  1.00  0.00     0.022 A 
BRANCH  79  82
ATOM     82  S   UNL A   1      35.980  31.577  29.926  1.00  0.00     0.127 S 
ATOM     83  O   UNL A   1      36.791  32.721  29.519  1.00  0.00    -0.237 OA
ATOM     84  O   UNL A   1      35.352  30.845  28.825  1.00  0.00    -0.237 OA
ATOM     85  O   UNL A   1      35.109  31.792  31.074  1.00  0.00    -0.744 OA
ENDBRANCH  79  82
ENDBRANCH  51  75
BRANCH  63  86
ATOM     86  C   UNL A   1      44.848  33.271  28.440  1.00  0.00     0.023 A 
ATOM     87  C   UNL A   1      44.411  34.204  27.482  1.00  0.00     0.012 A 
ATOM     88  C   UNL A   1      45.475  33.724  29.619  1.00  0.00     0.148 A 
ATOM     89  C   UNL A   1      44.606  35.570  27.688  1.00  0.00     0.002 A 
ATOM     90  C   UNL A   1      45.622  35.087  29.838  1.00  0.00     0.091 A 
ATOM     91  F   UNL A   1      45.897  32.813  30.508  1.00  0.00    -0.205 F 
ATOM     92  C   UNL A   1      45.196  36.011  28.870  1.00  0.00     0.022 A 
BRANCH  90  93
ATOM     93  S   UNL A   1      46.279  35.751  31.374  1.00  0.00     0.127 S 
ATOM     94  O   UNL A   1      46.126  37.190  31.165  1.00  0.00    -0.237 OA
ATOM     95  O   UNL A   1      45.374  35.179  32.370  1.00  0.00    -0.237 OA
ATOM     96  O   UNL A   1      47.654  35.278  31.462  1.00  0.00    -0.744 OA
ENDBRANCH  90  93
ENDBRANCH  63  86
ENDBRANCH  37  38
ENDBRANCH  29  32
ENDBRANCH  27  28
ENDBRANCH  26  27
ENDBRANCH  25  26
ENDBRANCH   3  25
TORSDOF 20
ENDMDL
