MODEL 1
REMARK VINA RESULT:     -12.0      0.000      0.000
REMARK SMILES C[N@@H+]1CCC[C@@H](C(=O)N[C@H](C(=O)NCCCNC(=O)c2ccc(-c3c4nc(c(-c5cccc(S(=O)(=O)[O-])c5F)c5ccc([nH]5)c(-c5cccc(S(=O)(=O)[O-])c5F)c5nc(c(-c6cccc(S(=O)(=O)[O-])c6F)c6ccc3[nH]6)C=C5)C=C4)cc2)c2ccccc2)C1
REMARK SMILES IDX 15 1 14 2 13 3 11 4 12 5 10 7 9 8 7 9 8 10 6 12 1 13 2 14
REMARK SMILES IDX 3 15 89 16 4 18 5 19 83 20 84 21 88 22 85 23 87 24 86 25
REMARK SMILES IDX 16 26 17 27 18 28 19 30 20 31 21 32 82 33 22 34 81 35 23 36
REMARK SMILES IDX 24 37 25 38 75 39 26 40 80 41 74 42 76 43 27 44 79 45 73 46
REMARK SMILES IDX 72 47 28 49 60 50 40 51 59 52 41 53 44 54 58 55 77 56 42 57
REMARK SMILES IDX 43 58 57 60 78 61 45 62 29 63 30 64 38 65 31 66 33 67 39 68
REMARK SMILES IDX 32 69 34 70 35 71 36 72 37 73 61 74 62 75 70 76 63 77 65 78
REMARK SMILES IDX 71 79 64 80 66 81 67 82 68 83 69 84 46 85 47 86 55 87 48 88
REMARK SMILES IDX 50 89 56 90 49 91 51 92 52 93 53 94 54 95
REMARK H PARENT 13 6 9 11 2 17 17 29 76 48 44 59
REMARK Flexibility Score: inf
ROOT
ATOM      1  C   UNL A   1      31.691  29.116  26.469  1.00  0.00     0.042 C 
ENDROOT
BRANCH   1   2
ATOM      2  C   UNL A   1      32.197  27.694  26.700  1.00  0.00     0.117 C 
BRANCH   2   3
ATOM      3  N   UNL A   1      31.124  26.719  26.876  1.00  0.00    -0.354 N 
ATOM      4  C   UNL A   1      30.440  25.978  25.940  1.00  0.00     0.247 C 
ATOM      5  O   UNL A   1      29.534  25.243  26.342  1.00  0.00    -0.272 OA
ATOM      6  H   UNL A   1      30.848  26.568  27.809  1.00  0.00     0.163 HD
BRANCH   4   7
ATOM      7  C   UNL A   1      30.821  26.086  24.442  1.00  0.00     0.202 C 
BRANCH   7   8
ATOM      8  N   UNL A   1      30.853  24.767  23.818  1.00  0.00    -0.340 N 
ATOM      9  C   UNL A   1      31.698  23.716  23.932  1.00  0.00     0.229 C 
ATOM     10  O   UNL A   1      31.402  22.710  23.269  1.00  0.00    -0.275 OA
ATOM     11  H   UNL A   1      30.113  24.611  23.188  1.00  0.00     0.164 HD
BRANCH   9  12
ATOM     12  C   UNL A   1      32.947  23.641  24.831  1.00  0.00     0.133 C 
ATOM     13  C   UNL A   1      34.563  20.200  25.004  1.00  0.00     0.332 C 
ATOM     14  N   UNL A   1      34.266  21.540  24.513  1.00  0.00    -0.337 N 
ATOM     15  C   UNL A   1      35.477  22.294  24.186  1.00  0.00     0.262 C 
ATOM     16  C   UNL A   1      33.365  22.281  25.398  1.00  0.00     0.275 C 
ATOM     17  H   UNL A   1      33.758  21.417  23.637  1.00  0.00     0.347 HD
ATOM     18  C   UNL A   1      35.143  23.633  23.522  1.00  0.00     0.062 C 
ATOM     19  C   UNL A   1      34.138  24.454  24.319  1.00  0.00     0.025 C 
ENDBRANCH   9  12
ENDBRANCH   7   8
BRANCH   7  20
ATOM     20  C   UNL A   1      30.008  27.088  23.629  1.00  0.00    -0.016 A 
ATOM     21  C   UNL A   1      28.608  27.110  23.616  1.00  0.00     0.006 A 
ATOM     22  C   UNL A   1      30.677  28.144  22.987  1.00  0.00     0.006 A 
ATOM     23  C   UNL A   1      27.914  28.222  23.127  1.00  0.00     0.000 A 
ATOM     24  C   UNL A   1      29.988  29.248  22.485  1.00  0.00     0.000 A 
ATOM     25  C   UNL A   1      28.605  29.304  22.590  1.00  0.00     0.000 A 
ENDBRANCH   7  20
ENDBRANCH   4   7
ENDBRANCH   2   3
ENDBRANCH   1   2
BRANCH   1  26
ATOM     26  C   UNL A   1      32.710  30.062  25.850  1.00  0.00     0.118 C 
BRANCH  26  27
ATOM     27  N   UNL A   1      32.523  31.439  26.277  1.00  0.00    -0.352 N 
ATOM     28  C   UNL A   1      33.188  32.149  27.250  1.00  0.00     0.251 C 
ATOM     29  H   UNL A   1      31.819  31.935  25.801  1.00  0.00     0.163 HD
ATOM     30  O   UNL A   1      32.753  33.245  27.595  1.00  0.00    -0.269 OA
BRANCH  28  31
ATOM     31  C   UNL A   1      34.404  31.598  27.900  1.00  0.00     0.039 A 
ATOM     32  C   UNL A   1      35.504  32.439  28.092  1.00  0.00     0.014 A 
ATOM     33  C   UNL A   1      34.479  30.261  28.298  1.00  0.00     0.014 A 
ATOM     34  C   UNL A   1      36.652  31.955  28.731  1.00  0.00     0.010 A 
ATOM     35  C   UNL A   1      35.587  29.805  29.014  1.00  0.00     0.010 A 
ATOM     36  C   UNL A   1      36.694  30.641  29.227  1.00  0.00    -0.014 A 
BRANCH  36  37
ATOM     37  C   UNL A   1      37.883  30.125  29.960  1.00  0.00     0.031 A 
ATOM     38  C   UNL A   1      38.176  30.590  31.365  1.00  0.00     0.074 A 
ATOM     39  C   UNL A   1      38.745  29.294  29.341  1.00  0.00     0.049 A 
ATOM     40  N   UNL A   1      39.184  30.286  32.141  1.00  0.00    -0.248 NA
ATOM     41  C   UNL A   1      37.224  31.539  31.967  1.00  0.00     0.031 C 
ATOM     42  C   UNL A   1      38.626  28.827  27.958  1.00  0.00     0.029 A 
ATOM     43  N   UNL A   1      39.909  28.714  29.785  1.00  0.00    -0.354 N 
ATOM     44  C   UNL A   1      39.012  31.033  33.301  1.00  0.00     0.074 A 
ATOM     45  C   UNL A   1      37.821  31.833  33.113  1.00  0.00     0.031 C 
ATOM     46  C   UNL A   1      39.665  28.027  27.671  1.00  0.00     0.029 A 
ATOM     47  C   UNL A   1      40.544  27.948  28.834  1.00  0.00     0.049 A 
ATOM     48  H   UNL A   1      40.256  28.834  30.699  1.00  0.00     0.167 HD
ATOM     49  C   UNL A   1      39.755  31.033  34.434  1.00  0.00     0.034 A 
ATOM     50  C   UNL A   1      41.705  27.264  28.887  1.00  0.00     0.034 A 
ATOM     51  C   UNL A   1      40.912  30.205  34.641  1.00  0.00     0.049 A 
ATOM     52  C   UNL A   1      42.492  27.251  30.170  1.00  0.00     0.074 A 
ATOM     53  C   UNL A   1      41.677  30.066  35.785  1.00  0.00     0.029 A 
ATOM     54  N   UNL A   1      41.477  29.380  33.682  1.00  0.00    -0.354 N 
ATOM     55  N   UNL A   1      42.223  27.839  31.310  1.00  0.00    -0.248 NA
ATOM     56  C   UNL A   1      43.725  26.449  30.186  1.00  0.00     0.031 C 
ATOM     57  C   UNL A   1      42.720  29.176  35.510  1.00  0.00     0.029 A 
ATOM     58  C   UNL A   1      42.587  28.737  34.203  1.00  0.00     0.049 A 
ATOM     59  H   UNL A   1      41.139  29.266  32.764  1.00  0.00     0.167 HD
ATOM     60  C   UNL A   1      43.228  27.450  32.188  1.00  0.00     0.074 A 
ATOM     61  C   UNL A   1      44.102  26.558  31.453  1.00  0.00     0.031 C 
ATOM     62  C   UNL A   1      43.419  27.809  33.481  1.00  0.00     0.034 A 
BRANCH  49  63
ATOM     63  C   UNL A   1      39.307  31.924  35.566  1.00  0.00     0.023 A 
ATOM     64  C   UNL A   1      38.449  31.408  36.559  1.00  0.00     0.012 A 
ATOM     65  C   UNL A   1      39.778  33.247  35.680  1.00  0.00     0.148 A 
ATOM     66  C   UNL A   1      38.036  32.205  37.626  1.00  0.00     0.002 A 
ATOM     67  C   UNL A   1      39.399  34.020  36.772  1.00  0.00     0.091 A 
ATOM     68  F   UNL A   1      40.577  33.727  34.717  1.00  0.00    -0.205 F 
ATOM     69  C   UNL A   1      38.518  33.505  37.738  1.00  0.00     0.022 A 
BRANCH  67  70
ATOM     70  S   UNL A   1      40.028  35.679  37.052  1.00  0.00     0.127 S 
ATOM     71  O   UNL A   1      39.345  36.048  38.290  1.00  0.00    -0.237 OA
ATOM     72  O   UNL A   1      41.465  35.444  37.194  1.00  0.00    -0.237 OA
ATOM     73  O   UNL A   1      39.653  36.454  35.876  1.00  0.00    -0.744 OA
ENDBRANCH  67  70
ENDBRANCH  49  63
BRANCH  50  74
ATOM     74  C   UNL A   1      42.161  26.479  27.704  1.00  0.00     0.023 A 
ATOM     75  C   UNL A   1      42.973  27.099  26.734  1.00  0.00     0.012 A 
ATOM     76  C   UNL A   1      41.818  25.122  27.547  1.00  0.00     0.148 A 
ATOM     77  C   UNL A   1      43.407  26.392  25.612  1.00  0.00     0.002 A 
ATOM     78  C   UNL A   1      42.302  24.408  26.457  1.00  0.00     0.091 A 
ATOM     79  F   UNL A   1      41.036  24.553  28.474  1.00  0.00    -0.205 F 
ATOM     80  C   UNL A   1      43.082  25.045  25.479  1.00  0.00     0.022 A 
BRANCH  78  81
ATOM     81  S   UNL A   1      42.047  22.639  26.274  1.00  0.00     0.127 S 
ATOM     82  O   UNL A   1      42.695  22.117  27.474  1.00  0.00    -0.237 OA
ATOM     83  O   UNL A   1      40.587  22.544  26.271  1.00  0.00    -0.237 OA
ATOM     84  O   UNL A   1      42.673  22.281  25.009  1.00  0.00    -0.744 OA
ENDBRANCH  78  81
ENDBRANCH  50  74
BRANCH  62  85
ATOM     85  C   UNL A   1      44.595  27.212  34.210  1.00  0.00     0.023 A 
ATOM     86  C   UNL A   1      45.823  27.902  34.250  1.00  0.00     0.012 A 
ATOM     87  C   UNL A   1      44.460  26.001  34.917  1.00  0.00     0.148 A 
ATOM     88  C   UNL A   1      46.906  27.381  34.956  1.00  0.00     0.002 A 
ATOM     89  C   UNL A   1      45.528  25.512  35.660  1.00  0.00     0.091 A 
ATOM     90  F   UNL A   1      43.290  25.348  34.852  1.00  0.00    -0.205 F 
ATOM     91  C   UNL A   1      46.755  26.194  35.671  1.00  0.00     0.022 A 
BRANCH  89  92
ATOM     92  S   UNL A   1      45.397  24.045  36.688  1.00  0.00     0.127 S 
ATOM     93  O   UNL A   1      46.791  23.820  37.065  1.00  0.00    -0.237 OA
ATOM     94  O   UNL A   1      44.536  24.507  37.779  1.00  0.00    -0.237 OA
ATOM     95  O   UNL A   1      44.803  23.016  35.845  1.00  0.00    -0.744 OA
ENDBRANCH  89  92
ENDBRANCH  62  85
ENDBRANCH  36  37
ENDBRANCH  28  31
ENDBRANCH  26  27
ENDBRANCH   1  26
TORSDOF 16
ENDMDL
MODEL 2
REMARK VINA RESULT:     -12.0      2.572      3.864
REMARK SMILES C[N@@H+]1CCC[C@@H](C(=O)N[C@H](C(=O)NCCCNC(=O)c2ccc(-c3c4nc(c(-c5cccc(S(=O)(=O)[O-])c5F)c5ccc([nH]5)c(-c5cccc(S(=O)(=O)[O-])c5F)c5nc(c(-c6cccc(S(=O)(=O)[O-])c6F)c6ccc3[nH]6)C=C5)C=C4)cc2)c2ccccc2)C1
REMARK SMILES IDX 15 1 14 2 13 3 11 4 12 5 10 7 9 8 7 9 8 10 6 12 1 13 2 14
REMARK SMILES IDX 3 15 89 16 4 18 5 19 83 20 84 21 88 22 85 23 87 24 86 25
REMARK SMILES IDX 16 26 17 27 18 28 19 30 20 31 21 32 82 33 22 34 81 35 23 36
REMARK SMILES IDX 24 37 25 38 75 39 26 40 80 41 74 42 76 43 27 44 79 45 73 46
REMARK SMILES IDX 72 47 28 49 60 50 40 51 59 52 41 53 44 54 58 55 77 56 42 57
REMARK SMILES IDX 43 58 57 60 78 61 45 62 29 63 30 64 38 65 31 66 33 67 39 68
REMARK SMILES IDX 32 69 34 70 35 71 36 72 37 73 61 74 62 75 70 76 63 77 65 78
REMARK SMILES IDX 71 79 64 80 66 81 67 82 68 83 69 84 46 85 47 86 55 87 48 88
REMARK SMILES IDX 50 89 56 90 49 91 51 92 52 93 53 94 54 95
REMARK H PARENT 13 6 9 11 2 17 17 29 76 48 44 59
REMARK Flexibility Score: inf
ROOT
ATOM      1  C   UNL A   1      34.026  28.037  25.921  1.00  0.00     0.042 C 
ENDROOT
BRANCH   1   2
ATOM      2  C   UNL A   1      33.310  26.837  25.306  1.00  0.00     0.117 C 
BRANCH   2   3
ATOM      3  N   UNL A   1      33.502  26.725  23.862  1.00  0.00    -0.354 N 
ATOM      4  C   UNL A   1      33.775  25.620  23.090  1.00  0.00     0.247 C 
ATOM      5  O   UNL A   1      33.936  25.795  21.878  1.00  0.00    -0.272 OA
ATOM      6  H   UNL A   1      33.424  27.572  23.366  1.00  0.00     0.163 HD
BRANCH   4   7
ATOM      7  C   UNL A   1      33.867  24.221  23.748  1.00  0.00     0.202 C 
BRANCH   7   8
ATOM      8  N   UNL A   1      33.252  23.206  22.898  1.00  0.00    -0.340 N 
ATOM      9  C   UNL A   1      32.396  22.188  23.151  1.00  0.00     0.229 C 
ATOM     10  O   UNL A   1      32.038  21.525  22.167  1.00  0.00    -0.275 OA
ATOM     11  H   UNL A   1      33.512  23.275  21.951  1.00  0.00     0.164 HD
BRANCH   9  12
ATOM     12  C   UNL A   1      31.801  21.816  24.523  1.00  0.00     0.133 C 
ATOM     13  C   UNL A   1      34.370  21.451  27.308  1.00  0.00     0.332 C 
ATOM     14  N   UNL A   1      33.422  22.096  26.408  1.00  0.00    -0.337 N 
ATOM     15  C   UNL A   1      32.519  23.008  27.111  1.00  0.00     0.262 C 
ATOM     16  C   UNL A   1      32.707  21.142  25.558  1.00  0.00     0.275 C 
ATOM     17  H   UNL A   1      33.977  22.672  25.775  1.00  0.00     0.347 HD
ATOM     18  C   UNL A   1      31.643  23.796  26.133  1.00  0.00     0.062 C 
ATOM     19  C   UNL A   1      30.915  22.901  25.138  1.00  0.00     0.025 C 
ENDBRANCH   9  12
ENDBRANCH   7   8
BRANCH   7  20
ATOM     20  C   UNL A   1      35.256  23.810  24.224  1.00  0.00    -0.016 A 
ATOM     21  C   UNL A   1      35.857  24.331  25.377  1.00  0.00     0.006 A 
ATOM     22  C   UNL A   1      35.907  22.744  23.580  1.00  0.00     0.006 A 
ATOM     23  C   UNL A   1      36.970  23.705  25.949  1.00  0.00     0.000 A 
ATOM     24  C   UNL A   1      37.026  22.126  24.139  1.00  0.00     0.000 A 
ATOM     25  C   UNL A   1      37.535  22.585  25.347  1.00  0.00     0.000 A 
ENDBRANCH   7  20
ENDBRANCH   4   7
ENDBRANCH   2   3
ENDBRANCH   1   2
BRANCH   1  26
ATOM     26  C   UNL A   1      33.316  28.659  27.116  1.00  0.00     0.118 C 
BRANCH  26  27
ATOM     27  N   UNL A   1      33.437  30.107  27.143  1.00  0.00    -0.352 N 
ATOM     28  C   UNL A   1      34.437  30.889  27.675  1.00  0.00     0.251 C 
ATOM     29  H   UNL A   1      32.698  30.600  26.719  1.00  0.00     0.163 HD
ATOM     30  O   UNL A   1      34.264  32.102  27.768  1.00  0.00    -0.269 OA
BRANCH  28  31
ATOM     31  C   UNL A   1      35.705  30.284  28.156  1.00  0.00     0.039 A 
ATOM     32  C   UNL A   1      36.801  30.240  27.289  1.00  0.00     0.014 A 
ATOM     33  C   UNL A   1      35.817  29.740  29.438  1.00  0.00     0.014 A 
ATOM     34  C   UNL A   1      38.018  29.705  27.727  1.00  0.00     0.010 A 
ATOM     35  C   UNL A   1      37.053  29.289  29.901  1.00  0.00     0.010 A 
ATOM     36  C   UNL A   1      38.167  29.252  29.048  1.00  0.00    -0.014 A 
BRANCH  36  37
ATOM     37  C   UNL A   1      39.469  28.733  29.550  1.00  0.00     0.031 A 
ATOM     38  C   UNL A   1      40.196  29.442  30.665  1.00  0.00     0.074 A 
ATOM     39  C   UNL A   1      40.040  27.666  28.956  1.00  0.00     0.049 A 
ATOM     40  N   UNL A   1      41.357  29.164  31.201  1.00  0.00    -0.248 NA
ATOM     41  C   UNL A   1      39.546  30.633  31.236  1.00  0.00     0.031 C 
ATOM     42  C   UNL A   1      39.484  26.933  27.817  1.00  0.00     0.029 A 
ATOM     43  N   UNL A   1      41.229  27.025  29.211  1.00  0.00    -0.354 N 
ATOM     44  C   UNL A   1      41.594  30.163  32.139  1.00  0.00     0.074 A 
ATOM     45  C   UNL A   1      40.472  31.074  32.074  1.00  0.00     0.031 C 
ATOM     46  C   UNL A   1      40.323  25.941  27.478  1.00  0.00     0.029 A 
ATOM     47  C   UNL A   1      41.492  25.983  28.351  1.00  0.00     0.049 A 
ATOM     48  H   UNL A   1      41.836  27.287  29.941  1.00  0.00     0.167 HD
ATOM     49  C   UNL A   1      42.632  30.296  32.999  1.00  0.00     0.034 A 
ATOM     50  C   UNL A   1      42.556  25.159  28.269  1.00  0.00     0.034 A 
ATOM     51  C   UNL A   1      43.724  29.365  33.098  1.00  0.00     0.049 A 
ATOM     52  C   UNL A   1      43.678  25.305  29.262  1.00  0.00     0.074 A 
ATOM     53  C   UNL A   1      44.774  29.364  33.999  1.00  0.00     0.029 A 
ATOM     54  N   UNL A   1      43.913  28.275  32.264  1.00  0.00    -0.354 N 
ATOM     55  N   UNL A   1      43.803  26.161  30.246  1.00  0.00    -0.248 NA
ATOM     56  C   UNL A   1      44.789  24.347  29.155  1.00  0.00     0.031 C 
ATOM     57  C   UNL A   1      45.612  28.287  33.693  1.00  0.00     0.029 A 
ATOM     58  C   UNL A   1      45.068  27.600  32.621  1.00  0.00     0.049 A 
ATOM     59  H   UNL A   1      43.314  28.018  31.525  1.00  0.00     0.167 HD
ATOM     60  C   UNL A   1      44.983  25.823  30.898  1.00  0.00     0.074 A 
ATOM     61  C   UNL A   1      45.526  24.670  30.209  1.00  0.00     0.031 C 
ATOM     62  C   UNL A   1      45.571  26.421  31.963  1.00  0.00     0.034 A 
BRANCH  49  63
ATOM     63  C   UNL A   1      42.609  31.469  33.947  1.00  0.00     0.023 A 
ATOM     64  C   UNL A   1      43.163  32.701  33.543  1.00  0.00     0.012 A 
ATOM     65  C   UNL A   1      41.992  31.371  35.210  1.00  0.00     0.148 A 
ATOM     66  C   UNL A   1      43.138  33.806  34.394  1.00  0.00     0.002 A 
ATOM     67  C   UNL A   1      41.929  32.489  36.033  1.00  0.00     0.091 A 
ATOM     68  F   UNL A   1      41.487  30.187  35.586  1.00  0.00    -0.205 F 
ATOM     69  C   UNL A   1      42.513  33.703  35.632  1.00  0.00     0.022 A 
BRANCH  67  70
ATOM     70  S   UNL A   1      41.075  32.485  37.614  1.00  0.00     0.127 S 
ATOM     71  O   UNL A   1      39.768  31.948  37.243  1.00  0.00    -0.237 OA
ATOM     72  O   UNL A   1      41.903  31.579  38.410  1.00  0.00    -0.237 OA
ATOM     73  O   UNL A   1      41.075  33.869  38.073  1.00  0.00    -0.744 OA
ENDBRANCH  67  70
ENDBRANCH  49  63
BRANCH  50  74
ATOM     74  C   UNL A   1      42.580  24.075  27.245  1.00  0.00     0.023 A 
ATOM     75  C   UNL A   1      43.158  24.327  25.985  1.00  0.00     0.012 A 
ATOM     76  C   UNL A   1      42.057  22.796  27.517  1.00  0.00     0.148 A 
ATOM     77  C   UNL A   1      43.186  23.335  25.004  1.00  0.00     0.002 A 
ATOM     78  C   UNL A   1      42.141  21.795  26.556  1.00  0.00     0.091 A 
ATOM     79  F   UNL A   1      41.501  22.579  28.717  1.00  0.00    -0.205 F 
ATOM     80  C   UNL A   1      42.689  22.067  25.292  1.00  0.00     0.022 A 
BRANCH  78  81
ATOM     81  S   UNL A   1      41.651  20.099  26.886  1.00  0.00     0.127 S 
ATOM     82  O   UNL A   1      40.402  20.285  27.620  1.00  0.00    -0.237 OA
ATOM     83  O   UNL A   1      41.497  19.560  25.534  1.00  0.00    -0.237 OA
ATOM     84  O   UNL A   1      42.748  19.512  27.643  1.00  0.00    -0.744 OA
ENDBRANCH  78  81
ENDBRANCH  50  74
BRANCH  62  85
ATOM     85  C   UNL A   1      46.853  25.825  32.485  1.00  0.00     0.023 A 
ATOM     86  C   UNL A   1      48.094  26.301  32.016  1.00  0.00     0.012 A 
ATOM     87  C   UNL A   1      46.828  24.842  33.495  1.00  0.00     0.148 A 
ATOM     88  C   UNL A   1      49.287  25.788  32.521  1.00  0.00     0.002 A 
ATOM     89  C   UNL A   1      48.021  24.370  34.029  1.00  0.00     0.091 A 
ATOM     90  F   UNL A   1      45.638  24.387  33.915  1.00  0.00    -0.205 F 
ATOM     91  C   UNL A   1      49.251  24.832  33.535  1.00  0.00     0.022 A 
BRANCH  89  92
ATOM     92  S   UNL A   1      48.071  23.214  35.403  1.00  0.00     0.127 S 
ATOM     93  O   UNL A   1      47.343  23.947  36.436  1.00  0.00    -0.237 OA
ATOM     94  O   UNL A   1      47.360  22.056  34.859  1.00  0.00    -0.237 OA
ATOM     95  O   UNL A   1      49.482  22.980  35.679  1.00  0.00    -0.744 OA
ENDBRANCH  89  92
ENDBRANCH  62  85
ENDBRANCH  36  37
ENDBRANCH  28  31
ENDBRANCH  26  27
ENDBRANCH   1  26
TORSDOF 16
ENDMDL
MODEL 3
REMARK VINA RESULT:     -11.9      1.936      3.152
REMARK SMILES C[N@@H+]1CCC[C@@H](C(=O)N[C@H](C(=O)NCCCNC(=O)c2ccc(-c3c4nc(c(-c5cccc(S(=O)(=O)[O-])c5F)c5ccc([nH]5)c(-c5cccc(S(=O)(=O)[O-])c5F)c5nc(c(-c6cccc(S(=O)(=O)[O-])c6F)c6ccc3[nH]6)C=C5)C=C4)cc2)c2ccccc2)C1
REMARK SMILES IDX 15 1 14 2 13 3 11 4 12 5 10 7 9 8 7 9 8 10 6 12 1 13 2 14
REMARK SMILES IDX 3 15 89 16 4 18 5 19 83 20 84 21 88 22 85 23 87 24 86 25
REMARK SMILES IDX 16 26 17 27 18 28 19 30 20 31 21 32 82 33 22 34 81 35 23 36
REMARK SMILES IDX 24 37 25 38 75 39 26 40 80 41 74 42 76 43 27 44 79 45 73 46
REMARK SMILES IDX 72 47 28 49 60 50 40 51 59 52 41 53 44 54 58 55 77 56 42 57
REMARK SMILES IDX 43 58 57 60 78 61 45 62 29 63 30 64 38 65 31 66 33 67 39 68
REMARK SMILES IDX 32 69 34 70 35 71 36 72 37 73 61 74 62 75 70 76 63 77 65 78
REMARK SMILES IDX 71 79 64 80 66 81 67 82 68 83 69 84 46 85 47 86 55 87 48 88
REMARK SMILES IDX 50 89 56 90 49 91 51 92 52 93 53 94 54 95
REMARK H PARENT 13 6 9 11 2 17 17 29 76 48 44 59
REMARK Flexibility Score: inf
ROOT
ATOM      1  C   UNL A   1      31.806  28.317  24.704  1.00  0.00     0.042 C 
ENDROOT
BRANCH   1   2
ATOM      2  C   UNL A   1      32.312  26.893  24.486  1.00  0.00     0.117 C 
BRANCH   2   3
ATOM      3  N   UNL A   1      32.764  26.641  23.120  1.00  0.00    -0.354 N 
ATOM      4  C   UNL A   1      33.308  25.506  22.564  1.00  0.00     0.247 C 
ATOM      5  O   UNL A   1      33.652  25.558  21.380  1.00  0.00    -0.272 OA
ATOM      6  H   UNL A   1      32.664  27.401  22.502  1.00  0.00     0.163 HD
BRANCH   4   7
ATOM      7  C   UNL A   1      33.466  24.225  23.421  1.00  0.00     0.202 C 
BRANCH   7   8
ATOM      8  N   UNL A   1      32.920  23.064  22.726  1.00  0.00    -0.340 N 
ATOM      9  C   UNL A   1      32.161  22.020  23.133  1.00  0.00     0.229 C 
ATOM     10  O   UNL A   1      31.836  21.211  22.251  1.00  0.00    -0.275 OA
ATOM     11  H   UNL A   1      33.149  23.035  21.768  1.00  0.00     0.164 HD
BRANCH   9  12
ATOM     12  C   UNL A   1      31.636  21.775  24.561  1.00  0.00     0.133 C 
ATOM     13  C   UNL A   1      34.353  21.463  27.208  1.00  0.00     0.332 C 
ATOM     14  N   UNL A   1      33.383  22.096  26.321  1.00  0.00    -0.337 N 
ATOM     15  C   UNL A   1      32.574  23.102  27.009  1.00  0.00     0.262 C 
ATOM     16  C   UNL A   1      32.570  21.126  25.587  1.00  0.00     0.275 C 
ATOM     17  H   UNL A   1      33.926  22.596  25.617  1.00  0.00     0.347 HD
ATOM     18  C   UNL A   1      31.678  23.867  26.031  1.00  0.00     0.062 C 
ATOM     19  C   UNL A   1      30.846  22.947  25.147  1.00  0.00     0.025 C 
ENDBRANCH   9  12
ENDBRANCH   7   8
BRANCH   7  20
ATOM     20  C   UNL A   1      34.868  23.966  23.962  1.00  0.00    -0.016 A 
ATOM     21  C   UNL A   1      35.366  24.568  25.124  1.00  0.00     0.006 A 
ATOM     22  C   UNL A   1      35.649  22.960  23.369  1.00  0.00     0.006 A 
ATOM     23  C   UNL A   1      36.511  24.069  25.754  1.00  0.00     0.000 A 
ATOM     24  C   UNL A   1      36.800  22.469  23.986  1.00  0.00     0.000 A 
ATOM     25  C   UNL A   1      37.210  23.000  25.202  1.00  0.00     0.000 A 
ENDBRANCH   7  20
ENDBRANCH   4   7
ENDBRANCH   2   3
ENDBRANCH   1   2
BRANCH   1  26
ATOM     26  C   UNL A   1      32.895  29.344  24.984  1.00  0.00     0.118 C 
BRANCH  26  27
ATOM     27  N   UNL A   1      32.377  30.543  25.623  1.00  0.00    -0.352 N 
ATOM     28  C   UNL A   1      32.798  31.170  26.773  1.00  0.00     0.251 C 
ATOM     29  H   UNL A   1      31.616  30.969  25.165  1.00  0.00     0.163 HD
ATOM     30  O   UNL A   1      32.108  32.066  27.254  1.00  0.00    -0.269 OA
BRANCH  28  31
ATOM     31  C   UNL A   1      34.057  30.763  27.447  1.00  0.00     0.039 A 
ATOM     32  C   UNL A   1      35.028  31.735  27.705  1.00  0.00     0.014 A 
ATOM     33  C   UNL A   1      34.299  29.434  27.806  1.00  0.00     0.014 A 
ATOM     34  C   UNL A   1      36.210  31.386  28.368  1.00  0.00     0.010 A 
ATOM     35  C   UNL A   1      35.436  29.105  28.544  1.00  0.00     0.010 A 
ATOM     36  C   UNL A   1      36.413  30.073  28.823  1.00  0.00    -0.014 A 
BRANCH  36  37
ATOM     37  C   UNL A   1      37.638  29.694  29.581  1.00  0.00     0.031 A 
ATOM     38  C   UNL A   1      37.892  30.261  30.955  1.00  0.00     0.074 A 
ATOM     39  C   UNL A   1      38.562  28.897  29.008  1.00  0.00     0.049 A 
ATOM     40  N   UNL A   1      38.921  30.082  31.744  1.00  0.00    -0.248 NA
ATOM     41  C   UNL A   1      36.871  31.169  31.503  1.00  0.00     0.031 C 
ATOM     42  C   UNL A   1      38.480  28.341  27.656  1.00  0.00     0.029 A 
ATOM     43  N   UNL A   1      39.767  28.434  29.481  1.00  0.00    -0.354 N 
ATOM     44  C   UNL A   1      38.690  30.881  32.858  1.00  0.00     0.074 A 
ATOM     45  C   UNL A   1      37.442  31.574  32.628  1.00  0.00     0.031 C 
ATOM     46  C   UNL A   1      39.578  27.608  27.412  1.00  0.00     0.029 A 
ATOM     47  C   UNL A   1      40.459  27.665  28.574  1.00  0.00     0.049 A 
ATOM     48  H   UNL A   1      40.103  28.635  30.385  1.00  0.00     0.167 HD
ATOM     49  C   UNL A   1      39.431  31.004  33.986  1.00  0.00     0.034 A 
ATOM     50  C   UNL A   1      41.669  27.077  28.663  1.00  0.00     0.034 A 
ATOM     51  C   UNL A   1      40.648  30.281  34.238  1.00  0.00     0.049 A 
ATOM     52  C   UNL A   1      42.454  27.200  29.942  1.00  0.00     0.074 A 
ATOM     53  C   UNL A   1      41.420  30.269  35.385  1.00  0.00     0.029 A 
ATOM     54  N   UNL A   1      41.276  29.447  33.326  1.00  0.00    -0.354 N 
ATOM     55  N   UNL A   1      42.140  27.832  31.046  1.00  0.00    -0.248 NA
ATOM     56  C   UNL A   1      43.745  26.497  30.000  1.00  0.00     0.031 C 
ATOM     57  C   UNL A   1      42.529  29.447  35.159  1.00  0.00     0.029 A 
ATOM     58  C   UNL A   1      42.432  28.923  33.881  1.00  0.00     0.049 A 
ATOM     59  H   UNL A   1      40.948  29.254  32.418  1.00  0.00     0.167 HD
ATOM     60  C   UNL A   1      43.171  27.573  31.942  1.00  0.00     0.074 A 
ATOM     61  C   UNL A   1      44.112  26.709  31.257  1.00  0.00     0.031 C 
ATOM     62  C   UNL A   1      43.333  28.021  33.210  1.00  0.00     0.034 A 
BRANCH  49  63
ATOM     63  C   UNL A   1      38.914  31.923  35.066  1.00  0.00     0.023 A 
ATOM     64  C   UNL A   1      38.922  33.317  34.856  1.00  0.00     0.012 A 
ATOM     65  C   UNL A   1      38.369  31.407  36.259  1.00  0.00     0.148 A 
ATOM     66  C   UNL A   1      38.433  34.186  35.831  1.00  0.00     0.002 A 
ATOM     67  C   UNL A   1      37.840  32.278  37.205  1.00  0.00     0.091 A 
ATOM     68  F   UNL A   1      38.386  30.081  36.450  1.00  0.00    -0.205 F 
ATOM     69  C   UNL A   1      37.883  33.667  36.998  1.00  0.00     0.022 A 
BRANCH  67  70
ATOM     70  S   UNL A   1      37.035  31.707  38.707  1.00  0.00     0.127 S 
ATOM     71  O   UNL A   1      35.861  32.575  38.761  1.00  0.00    -0.237 OA
ATOM     72  O   UNL A   1      36.746  30.309  38.389  1.00  0.00    -0.237 OA
ATOM     73  O   UNL A   1      38.005  31.898  39.778  1.00  0.00    -0.744 OA
ENDBRANCH  67  70
ENDBRANCH  49  63
BRANCH  50  74
ATOM     74  C   UNL A   1      42.186  26.261  27.527  1.00  0.00     0.023 A 
ATOM     75  C   UNL A   1      43.035  26.860  26.575  1.00  0.00     0.012 A 
ATOM     76  C   UNL A   1      41.862  24.897  27.396  1.00  0.00     0.148 A 
ATOM     77  C   UNL A   1      43.526  26.123  25.496  1.00  0.00     0.002 A 
ATOM     78  C   UNL A   1      42.401  24.155  26.351  1.00  0.00     0.091 A 
ATOM     79  F   UNL A   1      41.043  24.348  28.304  1.00  0.00    -0.205 F 
ATOM     80  C   UNL A   1      43.219  24.770  25.390  1.00  0.00     0.022 A 
BRANCH  78  81
ATOM     81  S   UNL A   1      42.170  22.379  26.212  1.00  0.00     0.127 S 
ATOM     82  O   UNL A   1      42.925  22.072  25.000  1.00  0.00    -0.237 OA
ATOM     83  O   UNL A   1      42.775  21.897  27.454  1.00  0.00    -0.237 OA
ATOM     84  O   UNL A   1      40.730  22.176  26.129  1.00  0.00    -0.744 OA
ENDBRANCH  78  81
ENDBRANCH  50  74
BRANCH  62  85
ATOM     85  C   UNL A   1      44.550  27.560  33.969  1.00  0.00     0.023 A 
ATOM     86  C   UNL A   1      45.729  28.332  33.945  1.00  0.00     0.012 A 
ATOM     87  C   UNL A   1      44.502  26.399  34.766  1.00  0.00     0.148 A 
ATOM     88  C   UNL A   1      46.849  27.939  34.676  1.00  0.00     0.002 A 
ATOM     89  C   UNL A   1      45.605  26.039  35.531  1.00  0.00     0.091 A 
ATOM     90  F   UNL A   1      43.378  25.666  34.762  1.00  0.00    -0.205 F 
ATOM     91  C   UNL A   1      46.783  26.801  35.478  1.00  0.00     0.022 A 
BRANCH  89  92
ATOM     92  S   UNL A   1      45.579  24.648  36.667  1.00  0.00     0.127 S 
ATOM     93  O   UNL A   1      44.232  24.745  37.226  1.00  0.00    -0.237 OA
ATOM     94  O   UNL A   1      45.785  23.511  35.768  1.00  0.00    -0.237 OA
ATOM     95  O   UNL A   1      46.666  24.878  37.609  1.00  0.00    -0.744 OA
ENDBRANCH  89  92
ENDBRANCH  62  85
ENDBRANCH  36  37
ENDBRANCH  28  31
ENDBRANCH  26  27
ENDBRANCH   1  26
TORSDOF 16
ENDMDL
