MODEL 1
REMARK VINA RESULT:     -13.6      0.000      0.000
REMARK SMILES Cc1cc2c(=O)c3ccccc3oc2c(C(=O)NCCCNC(=O)c2ccc(-c3c4nc(c(-c5cccc(S(=O)(=O)[O-])c5F)c5ccc([nH]5)c(-c5cccc(S(=O)(=O)[O-])c5F)c5nc(c(-c6cccc(S(=O)(=O)[O-])c6F)c6ccc3[nH]6)C=C5)C=C4)cc2)c1C
REMARK SMILES IDX 22 1 23 2 24 3 21 5 20 6 19 7 18 8 16 9 17 10 15 12 1 13
REMARK SMILES IDX 2 14 3 15 88 16 4 17 89 18 5 19 14 20 6 21 7 22 13 23 8 24
REMARK SMILES IDX 12 25 9 26 11 27 10 28 25 29 26 30 87 31 27 32 86 33 28 34
REMARK SMILES IDX 29 35 30 36 80 37 31 38 85 39 79 40 81 41 32 42 84 43 78 44
REMARK SMILES IDX 77 45 33 47 65 48 45 49 64 50 46 51 49 52 63 53 82 54 47 55
REMARK SMILES IDX 48 56 62 58 83 59 50 60 34 61 35 62 43 63 36 64 38 65 44 66
REMARK SMILES IDX 37 67 39 68 40 69 41 70 42 71 66 72 67 73 75 74 68 75 70 76
REMARK SMILES IDX 76 77 69 78 71 79 72 80 73 81 74 82 51 83 52 84 60 85 53 86
REMARK SMILES IDX 55 87 61 88 54 89 56 90 57 91 58 92 59 93
REMARK H PARENT 22 4 18 11 81 46 49 57
REMARK Flexibility Score: inf
ROOT
ATOM      1  N   UNL A   1      37.449  20.933  25.550  1.00  0.00    -0.352 N 
ATOM      2  C   UNL A   1      38.782  21.017  25.902  1.00  0.00     0.251 C 
ATOM      3  O   UNL A   1      39.495  20.033  25.757  1.00  0.00    -0.269 OA
ATOM      4  H   UNL A   1      37.129  20.022  25.354  1.00  0.00     0.163 HD
ENDROOT
BRANCH   1   5
ATOM      5  C   UNL A   1      36.444  21.976  25.424  1.00  0.00     0.118 C 
BRANCH   5   6
ATOM      6  C   UNL A   1      35.238  21.737  26.322  1.00  0.00     0.042 C 
BRANCH   6   7
ATOM      7  C   UNL A   1      34.776  22.953  27.138  1.00  0.00     0.118 C 
BRANCH   7   8
ATOM      8  N   UNL A   1      33.332  22.922  27.296  1.00  0.00    -0.352 N 
ATOM      9  C   UNL A   1      32.241  23.016  26.467  1.00  0.00     0.255 C 
ATOM     10  O   UNL A   1      31.174  23.189  27.064  1.00  0.00    -0.269 OA
ATOM     11  H   UNL A   1      33.068  22.803  28.236  1.00  0.00     0.163 HD
BRANCH   9  12
ATOM     12  C   UNL A   1      32.207  22.879  24.962  1.00  0.00     0.086 A 
ATOM     13  C   UNL A   1      31.973  20.458  21.948  1.00  0.00     0.044 C 
ATOM     14  C   UNL A   1      32.152  21.695  22.796  1.00  0.00    -0.046 A 
ATOM     15  C   UNL A   1      32.451  22.883  22.133  1.00  0.00     0.019 A 
ATOM     16  C   UNL A   1      32.142  21.664  24.220  1.00  0.00    -0.032 A 
ATOM     17  C   UNL A   1      32.631  24.056  22.854  1.00  0.00     0.066 A 
ATOM     18  C   UNL A   1      32.169  20.305  24.854  1.00  0.00     0.045 C 
ATOM     19  C   UNL A   1      33.070  25.267  22.143  1.00  0.00     0.200 A 
ATOM     20  C   UNL A   1      32.446  24.084  24.238  1.00  0.00     0.151 A 
ATOM     21  O   UNL A   1      33.278  25.270  20.937  1.00  0.00    -0.288 OA
ATOM     22  C   UNL A   1      33.274  26.470  22.952  1.00  0.00     0.065 A 
ATOM     23  O   UNL A   1      32.494  25.282  24.932  1.00  0.00    -0.455 OA
ATOM     24  C   UNL A   1      33.761  27.648  22.375  1.00  0.00     0.016 A 
ATOM     25  C   UNL A   1      32.958  26.409  24.303  1.00  0.00     0.138 A 
ATOM     26  C   UNL A   1      33.915  28.786  23.164  1.00  0.00     0.001 A 
ATOM     27  C   UNL A   1      33.111  27.553  25.089  1.00  0.00     0.048 A 
ATOM     28  C   UNL A   1      33.585  28.740  24.520  1.00  0.00     0.004 A 
ENDBRANCH   9  12
ENDBRANCH   7   8
ENDBRANCH   6   7
ENDBRANCH   5   6
ENDBRANCH   1   5
BRANCH   2  29
ATOM     29  C   UNL A   1      39.358  22.288  26.416  1.00  0.00     0.039 A 
ATOM     30  C   UNL A   1      38.817  23.526  26.072  1.00  0.00     0.014 A 
ATOM     31  C   UNL A   1      40.458  22.238  27.281  1.00  0.00     0.014 A 
ATOM     32  C   UNL A   1      39.479  24.699  26.424  1.00  0.00     0.010 A 
ATOM     33  C   UNL A   1      41.061  23.424  27.723  1.00  0.00     0.010 A 
ATOM     34  C   UNL A   1      40.609  24.668  27.257  1.00  0.00    -0.014 A 
BRANCH  34  35
ATOM     35  C   UNL A   1      41.278  25.943  27.633  1.00  0.00     0.031 A 
ATOM     36  C   UNL A   1      42.672  26.265  27.155  1.00  0.00     0.074 A 
ATOM     37  C   UNL A   1      40.606  26.844  28.380  1.00  0.00     0.049 A 
ATOM     38  N   UNL A   1      43.387  27.338  27.377  1.00  0.00    -0.248 NA
ATOM     39  C   UNL A   1      43.354  25.258  26.325  1.00  0.00     0.031 C 
ATOM     40  C   UNL A   1      39.261  26.646  28.927  1.00  0.00     0.029 A 
ATOM     41  N   UNL A   1      40.947  28.108  28.794  1.00  0.00    -0.354 N 
ATOM     42  C   UNL A   1      44.613  27.118  26.758  1.00  0.00     0.074 A 
ATOM     43  C   UNL A   1      44.548  25.809  26.149  1.00  0.00     0.031 C 
ATOM     44  C   UNL A   1      38.870  27.765  29.553  1.00  0.00     0.029 A 
ATOM     45  C   UNL A   1      39.955  28.738  29.509  1.00  0.00     0.049 A 
ATOM     46  H   UNL A   1      41.817  28.523  28.597  1.00  0.00     0.167 HD
ATOM     47  C   UNL A   1      45.687  27.940  26.688  1.00  0.00     0.034 A 
ATOM     48  C   UNL A   1      39.919  29.958  30.080  1.00  0.00     0.034 A 
ATOM     49  C   UNL A   1      45.730  29.268  27.237  1.00  0.00     0.049 A 
ATOM     50  C   UNL A   1      41.114  30.857  29.967  1.00  0.00     0.074 A 
ATOM     51  C   UNL A   1      46.760  30.190  27.167  1.00  0.00     0.029 A 
ATOM     52  N   UNL A   1      44.701  29.868  27.945  1.00  0.00    -0.354 N 
ATOM     53  N   UNL A   1      42.236  30.651  29.323  1.00  0.00    -0.248 NA
ATOM     54  C   UNL A   1      41.041  32.155  30.652  1.00  0.00     0.031 C 
ATOM     55  C   UNL A   1      46.356  31.347  27.838  1.00  0.00     0.029 A 
ATOM     56  C   UNL A   1      45.072  31.147  28.319  1.00  0.00     0.049 A 
ATOM     57  H   UNL A   1      43.836  29.447  28.151  1.00  0.00     0.167 HD
ATOM     58  C   UNL A   1      43.000  31.793  29.515  1.00  0.00     0.074 A 
ATOM     59  C   UNL A   1      42.206  32.699  30.320  1.00  0.00     0.031 C 
ATOM     60  C   UNL A   1      44.256  32.055  29.081  1.00  0.00     0.034 A 
BRANCH  47  61
ATOM     61  C   UNL A   1      46.904  27.460  25.944  1.00  0.00     0.023 A 
ATOM     62  C   UNL A   1      47.792  26.570  26.578  1.00  0.00     0.012 A 
ATOM     63  C   UNL A   1      47.102  27.795  24.590  1.00  0.00     0.148 A 
ATOM     64  C   UNL A   1      48.867  26.024  25.879  1.00  0.00     0.002 A 
ATOM     65  C   UNL A   1      48.161  27.226  23.892  1.00  0.00     0.091 A 
ATOM     66  F   UNL A   1      46.249  28.651  24.013  1.00  0.00    -0.205 F 
ATOM     67  C   UNL A   1      49.046  26.344  24.534  1.00  0.00     0.022 A 
BRANCH  65  68
ATOM     68  S   UNL A   1      48.451  27.526  22.144  1.00  0.00     0.127 S 
ATOM     69  O   UNL A   1      49.658  28.350  22.183  1.00  0.00    -0.237 OA
ATOM     70  O   UNL A   1      48.653  26.172  21.629  1.00  0.00    -0.237 OA
ATOM     71  O   UNL A   1      47.259  28.200  21.646  1.00  0.00    -0.744 OA
ENDBRANCH  65  68
ENDBRANCH  47  61
BRANCH  48  72
ATOM     72  C   UNL A   1      38.677  30.400  30.771  1.00  0.00     0.023 A 
ATOM     73  C   UNL A   1      38.565  30.227  32.163  1.00  0.00     0.012 A 
ATOM     74  C   UNL A   1      37.656  31.073  30.072  1.00  0.00     0.148 A 
ATOM     75  C   UNL A   1      37.454  30.718  32.849  1.00  0.00     0.002 A 
ATOM     76  C   UNL A   1      36.576  31.600  30.768  1.00  0.00     0.091 A 
ATOM     77  F   UNL A   1      37.786  31.217  28.746  1.00  0.00    -0.205 F 
ATOM     78  C   UNL A   1      36.468  31.416  32.156  1.00  0.00     0.022 A 
BRANCH  76  79
ATOM     79  S   UNL A   1      35.322  32.618  29.982  1.00  0.00     0.127 S 
ATOM     80  O   UNL A   1      34.405  32.871  31.092  1.00  0.00    -0.237 OA
ATOM     81  O   UNL A   1      36.105  33.777  29.552  1.00  0.00    -0.237 OA
ATOM     82  O   UNL A   1      34.784  31.814  28.895  1.00  0.00    -0.744 OA
ENDBRANCH  76  79
ENDBRANCH  48  72
BRANCH  60  83
ATOM     83  C   UNL A   1      44.869  33.374  29.454  1.00  0.00     0.023 A 
ATOM     84  C   UNL A   1      45.682  33.454  30.600  1.00  0.00     0.012 A 
ATOM     85  C   UNL A   1      44.747  34.491  28.605  1.00  0.00     0.148 A 
ATOM     86  C   UNL A   1      46.365  34.631  30.901  1.00  0.00     0.002 A 
ATOM     87  C   UNL A   1      45.455  35.650  28.893  1.00  0.00     0.091 A 
ATOM     88  F   UNL A   1      43.958  34.387  27.526  1.00  0.00    -0.205 F 
ATOM     89  C   UNL A   1      46.261  35.724  30.041  1.00  0.00     0.022 A 
BRANCH  87  90
ATOM     90  S   UNL A   1      45.448  37.084  27.810  1.00  0.00     0.127 S 
ATOM     91  O   UNL A   1      46.327  38.004  28.531  1.00  0.00    -0.237 OA
ATOM     92  O   UNL A   1      46.012  36.541  26.575  1.00  0.00    -0.237 OA
ATOM     93  O   UNL A   1      44.058  37.509  27.711  1.00  0.00    -0.744 OA
ENDBRANCH  87  90
ENDBRANCH  60  83
ENDBRANCH  34  35
ENDBRANCH   2  29
TORSDOF 13
ENDMDL
MODEL 2
REMARK VINA RESULT:     -13.6      5.145      9.985
REMARK SMILES Cc1cc2c(=O)c3ccccc3oc2c(C(=O)NCCCNC(=O)c2ccc(-c3c4nc(c(-c5cccc(S(=O)(=O)[O-])c5F)c5ccc([nH]5)c(-c5cccc(S(=O)(=O)[O-])c5F)c5nc(c(-c6cccc(S(=O)(=O)[O-])c6F)c6ccc3[nH]6)C=C5)C=C4)cc2)c1C
REMARK SMILES IDX 22 1 23 2 24 3 21 5 20 6 19 7 18 8 16 9 17 10 15 12 1 13
REMARK SMILES IDX 2 14 3 15 88 16 4 17 89 18 5 19 14 20 6 21 7 22 13 23 8 24
REMARK SMILES IDX 12 25 9 26 11 27 10 28 25 29 26 30 87 31 27 32 86 33 28 34
REMARK SMILES IDX 29 35 30 36 80 37 31 38 85 39 79 40 81 41 32 42 84 43 78 44
REMARK SMILES IDX 77 45 33 47 65 48 45 49 64 50 46 51 49 52 63 53 82 54 47 55
REMARK SMILES IDX 48 56 62 58 83 59 50 60 34 61 35 62 43 63 36 64 38 65 44 66
REMARK SMILES IDX 37 67 39 68 40 69 41 70 42 71 66 72 67 73 75 74 68 75 70 76
REMARK SMILES IDX 76 77 69 78 71 79 72 80 73 81 74 82 51 83 52 84 60 85 53 86
REMARK SMILES IDX 55 87 61 88 54 89 56 90 57 91 58 92 59 93
REMARK H PARENT 22 4 18 11 81 46 49 57
REMARK Flexibility Score: inf
ROOT
ATOM      1  N   UNL A   1      32.318  30.774  26.075  1.00  0.00    -0.352 N 
ATOM      2  C   UNL A   1      32.969  31.582  26.987  1.00  0.00     0.251 C 
ATOM      3  O   UNL A   1      32.441  32.632  27.329  1.00  0.00    -0.269 OA
ATOM      4  H   UNL A   1      31.537  31.188  25.639  1.00  0.00     0.163 HD
ENDROOT
BRANCH   1   5
ATOM      5  C   UNL A   1      32.602  29.411  25.657  1.00  0.00     0.118 C 
BRANCH   5   6
ATOM      6  C   UNL A   1      33.218  29.343  24.266  1.00  0.00     0.042 C 
BRANCH   6   7
ATOM      7  C   UNL A   1      34.245  28.221  24.057  1.00  0.00     0.118 C 
BRANCH   7   8
ATOM      8  N   UNL A   1      33.911  27.460  22.865  1.00  0.00    -0.352 N 
ATOM      9  C   UNL A   1      32.980  26.510  22.524  1.00  0.00     0.255 C 
ATOM     10  O   UNL A   1      33.214  25.944  21.451  1.00  0.00    -0.269 OA
ATOM     11  H   UNL A   1      34.501  27.683  22.110  1.00  0.00     0.163 HD
BRANCH   9  12
ATOM     12  C   UNL A   1      31.718  26.140  23.268  1.00  0.00     0.086 A 
ATOM     13  C   UNL A   1      27.979  26.944  23.880  1.00  0.00     0.044 C 
ATOM     14  C   UNL A   1      29.366  26.358  23.990  1.00  0.00    -0.046 A 
ATOM     15  C   UNL A   1      29.583  25.420  24.997  1.00  0.00     0.019 A 
ATOM     16  C   UNL A   1      30.460  26.806  23.196  1.00  0.00    -0.032 A 
ATOM     17  C   UNL A   1      30.836  24.844  25.154  1.00  0.00     0.066 A 
ATOM     18  C   UNL A   1      30.230  28.052  22.392  1.00  0.00     0.045 C 
ATOM     19  C   UNL A   1      31.072  23.954  26.302  1.00  0.00     0.200 A 
ATOM     20  C   UNL A   1      31.878  25.137  24.269  1.00  0.00     0.151 A 
ATOM     21  O   UNL A   1      30.194  23.706  27.118  1.00  0.00    -0.288 OA
ATOM     22  C   UNL A   1      32.418  23.396  26.440  1.00  0.00     0.065 A 
ATOM     23  O   UNL A   1      33.083  24.459  24.350  1.00  0.00    -0.455 OA
ATOM     24  C   UNL A   1      32.754  22.600  27.540  1.00  0.00     0.016 A 
ATOM     25  C   UNL A   1      33.344  23.672  25.443  1.00  0.00     0.138 A 
ATOM     26  C   UNL A   1      34.035  22.057  27.628  1.00  0.00     0.001 A 
ATOM     27  C   UNL A   1      34.624  23.123  25.534  1.00  0.00     0.048 A 
ATOM     28  C   UNL A   1      34.968  22.314  26.622  1.00  0.00     0.004 A 
ENDBRANCH   9  12
ENDBRANCH   7   8
ENDBRANCH   6   7
ENDBRANCH   5   6
ENDBRANCH   1   5
BRANCH   2  29
ATOM     29  C   UNL A   1      34.273  31.174  27.575  1.00  0.00     0.039 A 
ATOM     30  C   UNL A   1      34.544  29.845  27.893  1.00  0.00     0.014 A 
ATOM     31  C   UNL A   1      35.256  32.147  27.796  1.00  0.00     0.014 A 
ATOM     32  C   UNL A   1      35.699  29.519  28.601  1.00  0.00     0.010 A 
ATOM     33  C   UNL A   1      36.465  31.798  28.413  1.00  0.00     0.010 A 
ATOM     34  C   UNL A   1      36.678  30.489  28.869  1.00  0.00    -0.014 A 
BRANCH  34  35
ATOM     35  C   UNL A   1      37.912  30.100  29.607  1.00  0.00     0.031 A 
ATOM     36  C   UNL A   1      38.154  30.563  31.022  1.00  0.00     0.074 A 
ATOM     37  C   UNL A   1      38.806  29.285  29.011  1.00  0.00     0.049 A 
ATOM     38  N   UNL A   1      39.165  30.298  31.809  1.00  0.00    -0.248 NA
ATOM     39  C   UNL A   1      37.137  31.434  31.635  1.00  0.00     0.031 C 
ATOM     40  C   UNL A   1      38.703  28.785  27.637  1.00  0.00     0.029 A 
ATOM     41  N   UNL A   1      39.964  28.717  29.481  1.00  0.00    -0.354 N 
ATOM     42  C   UNL A   1      38.933  31.003  32.985  1.00  0.00     0.074 A 
ATOM     43  C   UNL A   1      37.683  31.708  32.813  1.00  0.00     0.031 C 
ATOM     44  C   UNL A   1      39.718  27.944  27.396  1.00  0.00     0.029 A 
ATOM     45  C   UNL A   1      40.581  27.890  28.571  1.00  0.00     0.049 A 
ATOM     46  H   UNL A   1      40.318  28.884  30.385  1.00  0.00     0.167 HD
ATOM     47  C   UNL A   1      39.683  31.043  34.112  1.00  0.00     0.034 A 
ATOM     48  C   UNL A   1      41.719  27.175  28.659  1.00  0.00     0.034 A 
ATOM     49  C   UNL A   1      40.891  30.291  34.310  1.00  0.00     0.049 A 
ATOM     50  C   UNL A   1      42.518  27.220  29.927  1.00  0.00     0.074 A 
ATOM     51  C   UNL A   1      41.688  30.232  35.440  1.00  0.00     0.029 A 
ATOM     52  N   UNL A   1      41.474  29.462  33.364  1.00  0.00    -0.354 N 
ATOM     53  N   UNL A   1      42.243  27.843  31.047  1.00  0.00    -0.248 NA
ATOM     54  C   UNL A   1      43.778  26.463  29.951  1.00  0.00     0.031 C 
ATOM     55  C   UNL A   1      42.756  29.370  35.178  1.00  0.00     0.029 A 
ATOM     56  C   UNL A   1      42.620  28.888  33.885  1.00  0.00     0.049 A 
ATOM     57  H   UNL A   1      41.125  29.305  32.458  1.00  0.00     0.167 HD
ATOM     58  C   UNL A   1      43.288  27.549  31.911  1.00  0.00     0.074 A 
ATOM     59  C   UNL A   1      44.193  26.673  31.194  1.00  0.00     0.031 C 
ATOM     60  C   UNL A   1      43.487  27.984  33.178  1.00  0.00     0.034 A 
BRANCH  47  61
ATOM     61  C   UNL A   1      39.199  31.889  35.259  1.00  0.00     0.023 A 
ATOM     62  C   UNL A   1      38.320  31.327  36.205  1.00  0.00     0.012 A 
ATOM     63  C   UNL A   1      39.702  33.189  35.460  1.00  0.00     0.148 A 
ATOM     64  C   UNL A   1      37.941  32.051  37.335  1.00  0.00     0.002 A 
ATOM     65  C   UNL A   1      39.340  33.894  36.603  1.00  0.00     0.091 A 
ATOM     66  F   UNL A   1      40.528  33.704  34.540  1.00  0.00    -0.205 F 
ATOM     67  C   UNL A   1      38.458  33.329  37.539  1.00  0.00     0.022 A 
BRANCH  65  68
ATOM     68  S   UNL A   1      39.990  35.524  36.991  1.00  0.00     0.127 S 
ATOM     69  O   UNL A   1      39.282  35.835  38.232  1.00  0.00    -0.237 OA
ATOM     70  O   UNL A   1      41.419  35.253  37.155  1.00  0.00    -0.237 OA
ATOM     71  O   UNL A   1      39.653  36.374  35.858  1.00  0.00    -0.744 OA
ENDBRANCH  65  68
ENDBRANCH  47  61
BRANCH  48  72
ATOM     72  C   UNL A   1      42.132  26.324  27.510  1.00  0.00     0.023 A 
ATOM     73  C   UNL A   1      42.982  26.862  26.525  1.00  0.00     0.012 A 
ATOM     74  C   UNL A   1      41.767  24.965  27.442  1.00  0.00     0.148 A 
ATOM     75  C   UNL A   1      43.462  26.059  25.490  1.00  0.00     0.002 A 
ATOM     76  C   UNL A   1      42.286  24.161  26.436  1.00  0.00     0.091 A 
ATOM     77  F   UNL A   1      40.951  24.482  28.390  1.00  0.00    -0.205 F 
ATOM     78  C   UNL A   1      43.126  24.708  25.452  1.00  0.00     0.022 A 
BRANCH  76  79
ATOM     79  S   UNL A   1      42.011  22.387  26.377  1.00  0.00     0.127 S 
ATOM     80  O   UNL A   1      40.557  22.315  26.247  1.00  0.00    -0.237 OA
ATOM     81  O   UNL A   1      42.757  22.009  25.176  1.00  0.00    -0.237 OA
ATOM     82  O   UNL A   1      42.556  21.860  27.619  1.00  0.00    -0.744 OA
ENDBRANCH  76  79
ENDBRANCH  48  72
BRANCH  60  83
ATOM     83  C   UNL A   1      44.728  27.529  33.892  1.00  0.00     0.023 A 
ATOM     84  C   UNL A   1      45.871  28.349  33.872  1.00  0.00     0.012 A 
ATOM     85  C   UNL A   1      44.716  26.365  34.683  1.00  0.00     0.148 A 
ATOM     86  C   UNL A   1      46.993  28.014  34.629  1.00  0.00     0.002 A 
ATOM     87  C   UNL A   1      45.825  26.054  35.460  1.00  0.00     0.091 A 
ATOM     88  F   UNL A   1      43.616  25.599  34.675  1.00  0.00    -0.205 F 
ATOM     89  C   UNL A   1      46.966  26.874  35.431  1.00  0.00     0.022 A 
BRANCH  87  90
ATOM     90  S   UNL A   1      45.860  24.651  36.582  1.00  0.00     0.127 S 
ATOM     91  O   UNL A   1      45.756  23.526  35.654  1.00  0.00    -0.237 OA
ATOM     92  O   UNL A   1      47.168  24.799  37.220  1.00  0.00    -0.237 OA
ATOM     93  O   UNL A   1      44.723  24.821  37.477  1.00  0.00    -0.744 OA
ENDBRANCH  87  90
ENDBRANCH  60  83
ENDBRANCH  34  35
ENDBRANCH   2  29
TORSDOF 13
ENDMDL
MODEL 3
REMARK VINA RESULT:     -13.5      5.241     10.138
REMARK SMILES Cc1cc2c(=O)c3ccccc3oc2c(C(=O)NCCCNC(=O)c2ccc(-c3c4nc(c(-c5cccc(S(=O)(=O)[O-])c5F)c5ccc([nH]5)c(-c5cccc(S(=O)(=O)[O-])c5F)c5nc(c(-c6cccc(S(=O)(=O)[O-])c6F)c6ccc3[nH]6)C=C5)C=C4)cc2)c1C
REMARK SMILES IDX 22 1 23 2 24 3 21 5 20 6 19 7 18 8 16 9 17 10 15 12 1 13
REMARK SMILES IDX 2 14 3 15 88 16 4 17 89 18 5 19 14 20 6 21 7 22 13 23 8 24
REMARK SMILES IDX 12 25 9 26 11 27 10 28 25 29 26 30 87 31 27 32 86 33 28 34
REMARK SMILES IDX 29 35 30 36 80 37 31 38 85 39 79 40 81 41 32 42 84 43 78 44
REMARK SMILES IDX 77 45 33 47 65 48 45 49 64 50 46 51 49 52 63 53 82 54 47 55
REMARK SMILES IDX 48 56 62 58 83 59 50 60 34 61 35 62 43 63 36 64 38 65 44 66
REMARK SMILES IDX 37 67 39 68 40 69 41 70 42 71 66 72 67 73 75 74 68 75 70 76
REMARK SMILES IDX 76 77 69 78 71 79 72 80 73 81 74 82 51 83 52 84 60 85 53 86
REMARK SMILES IDX 55 87 61 88 54 89 56 90 57 91 58 92 59 93
REMARK H PARENT 22 4 18 11 81 46 49 57
REMARK Flexibility Score: inf
ROOT
ATOM      1  N   UNL A   1      32.463  31.043  26.427  1.00  0.00    -0.352 N 
ATOM      2  C   UNL A   1      33.209  31.851  27.262  1.00  0.00     0.251 C 
ATOM      3  O   UNL A   1      32.764  32.947  27.577  1.00  0.00    -0.269 OA
ATOM      4  H   UNL A   1      31.686  31.483  26.011  1.00  0.00     0.163 HD
ENDROOT
BRANCH   1   5
ATOM      5  C   UNL A   1      32.644  29.647  26.064  1.00  0.00     0.118 C 
BRANCH   5   6
ATOM      6  C   UNL A   1      32.866  29.455  24.570  1.00  0.00     0.042 C 
BRANCH   6   7
ATOM      7  C   UNL A   1      34.048  28.550  24.194  1.00  0.00     0.118 C 
BRANCH   7   8
ATOM      8  N   UNL A   1      33.746  27.826  22.971  1.00  0.00    -0.352 N 
ATOM      9  C   UNL A   1      32.848  26.861  22.586  1.00  0.00     0.255 C 
ATOM     10  O   UNL A   1      33.108  26.345  21.493  1.00  0.00    -0.269 OA
ATOM     11  H   UNL A   1      34.334  28.097  22.230  1.00  0.00     0.163 HD
BRANCH   9  12
ATOM     12  C   UNL A   1      31.594  26.422  23.305  1.00  0.00     0.086 A 
ATOM     13  C   UNL A   1      27.815  27.050  23.876  1.00  0.00     0.044 C 
ATOM     14  C   UNL A   1      29.225  26.524  23.996  1.00  0.00    -0.046 A 
ATOM     15  C   UNL A   1      29.469  25.578  24.990  1.00  0.00     0.019 A 
ATOM     16  C   UNL A   1      30.309  27.034  23.226  1.00  0.00    -0.032 A 
ATOM     17  C   UNL A   1      30.744  25.055  25.154  1.00  0.00     0.066 A 
ATOM     18  C   UNL A   1      30.035  28.283  22.441  1.00  0.00     0.045 C 
ATOM     19  C   UNL A   1      31.003  24.156  26.290  1.00  0.00     0.200 A 
ATOM     20  C   UNL A   1      31.784  25.409  24.291  1.00  0.00     0.151 A 
ATOM     21  O   UNL A   1      30.126  23.854  27.089  1.00  0.00    -0.288 OA
ATOM     22  C   UNL A   1      32.370  23.655  26.438  1.00  0.00     0.065 A 
ATOM     23  O   UNL A   1      33.016  24.784  24.376  1.00  0.00    -0.455 OA
ATOM     24  C   UNL A   1      32.726  22.854  27.529  1.00  0.00     0.016 A 
ATOM     25  C   UNL A   1      33.297  23.989  25.459  1.00  0.00     0.138 A 
ATOM     26  C   UNL A   1      34.028  22.366  27.626  1.00  0.00     0.001 A 
ATOM     27  C   UNL A   1      34.599  23.495  25.559  1.00  0.00     0.048 A 
ATOM     28  C   UNL A   1      34.963  22.683  26.638  1.00  0.00     0.004 A 
ENDBRANCH   9  12
ENDBRANCH   7   8
ENDBRANCH   6   7
ENDBRANCH   5   6
ENDBRANCH   1   5
BRANCH   2  29
ATOM     29  C   UNL A   1      34.517  31.393  27.802  1.00  0.00     0.039 A 
ATOM     30  C   UNL A   1      34.728  30.064  28.167  1.00  0.00     0.014 A 
ATOM     31  C   UNL A   1      35.564  32.314  27.930  1.00  0.00     0.014 A 
ATOM     32  C   UNL A   1      35.898  29.701  28.830  1.00  0.00     0.010 A 
ATOM     33  C   UNL A   1      36.782  31.921  28.500  1.00  0.00     0.010 A 
ATOM     34  C   UNL A   1      36.944  30.621  29.005  1.00  0.00    -0.014 A 
BRANCH  34  35
ATOM     35  C   UNL A   1      38.190  30.193  29.697  1.00  0.00     0.031 A 
ATOM     36  C   UNL A   1      38.502  30.652  31.100  1.00  0.00     0.074 A 
ATOM     37  C   UNL A   1      39.032  29.343  29.072  1.00  0.00     0.049 A 
ATOM     38  N   UNL A   1      39.533  30.355  31.849  1.00  0.00    -0.248 NA
ATOM     39  C   UNL A   1      37.542  31.561  31.746  1.00  0.00     0.031 C 
ATOM     40  C   UNL A   1      38.858  28.841  27.706  1.00  0.00     0.029 A 
ATOM     41  N   UNL A   1      40.186  28.736  29.501  1.00  0.00    -0.354 N 
ATOM     42  C   UNL A   1      39.371  31.073  33.029  1.00  0.00     0.074 A 
ATOM     43  C   UNL A   1      38.142  31.821  32.901  1.00  0.00     0.031 C 
ATOM     44  C   UNL A   1      39.833  27.964  27.431  1.00  0.00     0.029 A 
ATOM     45  C   UNL A   1      40.738  27.884  28.573  1.00  0.00     0.049 A 
ATOM     46  H   UNL A   1      40.580  28.894  30.389  1.00  0.00     0.167 HD
ATOM     47  C   UNL A   1      40.165  31.090  34.126  1.00  0.00     0.034 A 
ATOM     48  C   UNL A   1      41.852  27.129  28.621  1.00  0.00     0.034 A 
ATOM     49  C   UNL A   1      41.353  30.296  34.282  1.00  0.00     0.049 A 
ATOM     50  C   UNL A   1      42.700  27.151  29.858  1.00  0.00     0.074 A 
ATOM     51  C   UNL A   1      42.189  30.214  35.382  1.00  0.00     0.029 A 
ATOM     52  N   UNL A   1      41.869  29.443  33.320  1.00  0.00    -0.354 N 
ATOM     53  N   UNL A   1      42.491  27.788  30.983  1.00  0.00    -0.248 NA
ATOM     54  C   UNL A   1      43.932  26.350  29.837  1.00  0.00     0.031 C 
ATOM     55  C   UNL A   1      43.215  29.313  35.084  1.00  0.00     0.029 A 
ATOM     56  C   UNL A   1      43.013  28.831  33.800  1.00  0.00     0.049 A 
ATOM     57  H   UNL A   1      41.480  29.295  32.428  1.00  0.00     0.167 HD
ATOM     58  C   UNL A   1      43.557  27.460  31.809  1.00  0.00     0.074 A 
ATOM     59  C   UNL A   1      44.402  26.550  31.063  1.00  0.00     0.031 C 
ATOM     60  C   UNL A   1      43.820  27.894  33.065  1.00  0.00     0.034 A 
BRANCH  47  61
ATOM     61  C   UNL A   1      39.756  31.958  35.286  1.00  0.00     0.023 A 
ATOM     62  C   UNL A   1      40.127  33.316  35.294  1.00  0.00     0.012 A 
ATOM     63  C   UNL A   1      38.913  31.459  36.300  1.00  0.00     0.148 A 
ATOM     64  C   UNL A   1      39.672  34.168  36.300  1.00  0.00     0.002 A 
ATOM     65  C   UNL A   1      38.442  32.321  37.284  1.00  0.00     0.091 A 
ATOM     66  F   UNL A   1      38.583  30.161  36.275  1.00  0.00    -0.205 F 
ATOM     67  C   UNL A   1      38.823  33.673  37.288  1.00  0.00     0.022 A 
BRANCH  65  68
ATOM     68  S   UNL A   1      37.300  31.802  38.571  1.00  0.00     0.127 S 
ATOM     69  O   UNL A   1      37.028  30.419  38.181  1.00  0.00    -0.237 OA
ATOM     70  O   UNL A   1      38.113  31.947  39.778  1.00  0.00    -0.237 OA
ATOM     71  O   UNL A   1      36.160  32.703  38.487  1.00  0.00    -0.744 OA
ENDBRANCH  65  68
ENDBRANCH  47  61
BRANCH  48  72
ATOM     72  C   UNL A   1      42.190  26.259  27.462  1.00  0.00     0.023 A 
ATOM     73  C   UNL A   1      43.016  26.764  26.440  1.00  0.00     0.012 A 
ATOM     74  C   UNL A   1      41.779  24.913  27.418  1.00  0.00     0.148 A 
ATOM     75  C   UNL A   1      43.427  25.941  25.391  1.00  0.00     0.002 A 
ATOM     76  C   UNL A   1      42.230  24.087  26.397  1.00  0.00     0.091 A 
ATOM     77  F   UNL A   1      40.987  24.461  28.401  1.00  0.00    -0.205 F 
ATOM     78  C   UNL A   1      43.047  24.601  25.376  1.00  0.00     0.022 A 
BRANCH  76  79
ATOM     79  S   UNL A   1      41.896  22.323  26.360  1.00  0.00     0.127 S 
ATOM     80  O   UNL A   1      40.443  22.298  26.197  1.00  0.00    -0.237 OA
ATOM     81  O   UNL A   1      42.656  21.899  25.184  1.00  0.00    -0.237 OA
ATOM     82  O   UNL A   1      42.393  21.799  27.624  1.00  0.00    -0.744 OA
ENDBRANCH  76  79
ENDBRANCH  48  72
BRANCH  60  83
ATOM     83  C   UNL A   1      45.070  27.398  33.734  1.00  0.00     0.023 A 
ATOM     84  C   UNL A   1      46.241  28.175  33.664  1.00  0.00     0.012 A 
ATOM     85  C   UNL A   1      45.047  26.238  34.533  1.00  0.00     0.148 A 
ATOM     86  C   UNL A   1      47.378  27.803  34.379  1.00  0.00     0.002 A 
ATOM     87  C   UNL A   1      46.173  25.892  35.268  1.00  0.00     0.091 A 
ATOM     88  F   UNL A   1      43.920  25.514  34.572  1.00  0.00    -0.205 F 
ATOM     89  C   UNL A   1      47.340  26.670  35.189  1.00  0.00     0.022 A 
BRANCH  87  90
ATOM     90  S   UNL A   1      46.201  24.495  36.397  1.00  0.00     0.127 S 
ATOM     91  O   UNL A   1      45.924  23.378  35.495  1.00  0.00    -0.237 OA
ATOM     92  O   UNL A   1      47.569  24.541  36.911  1.00  0.00    -0.237 OA
ATOM     93  O   UNL A   1      45.168  24.757  37.391  1.00  0.00    -0.744 OA
ENDBRANCH  87  90
ENDBRANCH  60  83
ENDBRANCH  34  35
ENDBRANCH   2  29
TORSDOF 13
ENDMDL
