MODEL 1
REMARK VINA RESULT:     -12.2      0.000      0.000
REMARK SMILES O=C(NCCCNC(=O)[C@H]1Cc2cc(O)ccc2C[NH2+]1)c1ccc(-c2c3nc(c(-c4cccc(S(=O)(=O)[O-])c4F)c4ccc([nH]4)c(-c4cccc(S(=O)(=O)[O-])c4F)c4nc(c(-c5cccc(S(=O)(=O)[O-])c5F)c5ccc2[nH]5)C=C4)C=C3)cc1
REMARK SMILES IDX 4 1 3 2 1 3 2 4 21 6 22 7 83 8 23 9 82 10 24 11 25 12 26 13
REMARK SMILES IDX 76 14 27 15 81 16 75 17 77 18 28 19 80 20 74 21 73 22 29 24
REMARK SMILES IDX 61 25 41 26 60 27 42 28 45 29 59 30 78 31 43 32 44 33 58 35
REMARK SMILES IDX 79 36 46 37 30 38 31 39 39 40 32 41 34 42 40 43 33 44 35 45
REMARK SMILES IDX 36 46 37 47 38 48 62 49 63 50 71 51 64 52 66 53 72 54 65 55
REMARK SMILES IDX 67 56 68 57 69 58 70 59 47 60 48 61 56 62 49 63 51 64 57 65
REMARK SMILES IDX 50 66 52 67 53 68 54 69 55 70 5 71 6 72 7 73 8 74 9 76 10 77
REMARK SMILES IDX 11 78 20 79 12 80 19 81 13 84 18 85 14 86 17 87 16 88 15 89
REMARK H PARENT 3 5 77 23 45 34 7 75 20 82 20 83 15 90
REMARK Flexibility Score: inf
ROOT
ATOM      1  C   UNL A   1      32.275  29.839  26.383  1.00  0.00     0.118 C 
ENDROOT
BRANCH   1   2
ATOM      2  N   UNL A   1      32.235  31.278  26.582  1.00  0.00    -0.352 N 
ATOM      3  O   UNL A   1      32.722  33.258  27.504  1.00  0.00    -0.269 OA
ATOM      4  C   UNL A   1      33.075  32.101  27.289  1.00  0.00     0.251 C 
ATOM      5  H   UNL A   1      31.486  31.735  26.137  1.00  0.00     0.163 HD
BRANCH   4   6
ATOM      6  C   UNL A   1      34.388  31.625  27.788  1.00  0.00     0.039 A 
ATOM      7  C   UNL A   1      34.519  30.275  28.132  1.00  0.00     0.014 A 
ATOM      8  C   UNL A   1      35.455  32.498  28.011  1.00  0.00     0.014 A 
ATOM      9  C   UNL A   1      35.709  29.809  28.697  1.00  0.00     0.010 A 
ATOM     10  C   UNL A   1      36.674  32.015  28.481  1.00  0.00     0.010 A 
ATOM     11  C   UNL A   1      36.797  30.678  28.882  1.00  0.00    -0.014 A 
BRANCH  11  12
ATOM     12  C   UNL A   1      38.022  30.227  29.592  1.00  0.00     0.031 A 
ATOM     13  C   UNL A   1      38.255  30.651  31.020  1.00  0.00     0.074 A 
ATOM     14  C   UNL A   1      38.929  29.457  28.962  1.00  0.00     0.049 A 
ATOM     15  N   UNL A   1      39.250  30.350  31.814  1.00  0.00    -0.248 NA
ATOM     16  C   UNL A   1      37.260  31.550  31.633  1.00  0.00     0.031 C 
ATOM     17  C   UNL A   1      38.851  29.026  27.565  1.00  0.00     0.029 A 
ATOM     18  N   UNL A   1      40.097  28.898  29.417  1.00  0.00    -0.354 N 
ATOM     19  C   UNL A   1      39.025  31.057  32.989  1.00  0.00     0.074 A 
ATOM     20  C   UNL A   1      37.818  31.826  32.802  1.00  0.00     0.031 C 
ATOM     21  C   UNL A   1      39.903  28.239  27.289  1.00  0.00     0.029 A 
ATOM     22  C   UNL A   1      40.742  28.126  28.480  1.00  0.00     0.049 A 
ATOM     23  H   UNL A   1      40.441  29.036  30.330  1.00  0.00     0.167 HD
ATOM     24  C   UNL A   1      39.736  31.038  34.138  1.00  0.00     0.034 A 
ATOM     25  C   UNL A   1      41.871  27.395  28.573  1.00  0.00     0.034 A 
ATOM     26  C   UNL A   1      40.874  30.197  34.364  1.00  0.00     0.049 A 
ATOM     27  C   UNL A   1      42.614  27.342  29.879  1.00  0.00     0.074 A 
ATOM     28  C   UNL A   1      41.578  30.008  35.538  1.00  0.00     0.029 A 
ATOM     29  N   UNL A   1      41.470  29.402  33.400  1.00  0.00    -0.354 N 
ATOM     30  N   UNL A   1      42.302  27.904  31.022  1.00  0.00    -0.248 NA
ATOM     31  C   UNL A   1      43.847  26.543  29.920  1.00  0.00     0.031 C 
ATOM     32  C   UNL A   1      42.613  29.107  35.282  1.00  0.00     0.029 A 
ATOM     33  C   UNL A   1      42.545  28.731  33.948  1.00  0.00     0.049 A 
ATOM     34  H   UNL A   1      41.172  29.325  32.464  1.00  0.00     0.167 HD
ATOM     35  C   UNL A   1      43.287  27.513  31.921  1.00  0.00     0.074 A 
ATOM     36  C   UNL A   1      44.202  26.657  31.196  1.00  0.00     0.031 C 
ATOM     37  C   UNL A   1      43.421  27.844  33.228  1.00  0.00     0.034 A 
BRANCH  24  38
ATOM     38  C   UNL A   1      39.262  31.896  35.278  1.00  0.00     0.023 A 
ATOM     39  C   UNL A   1      38.390  31.348  36.240  1.00  0.00     0.012 A 
ATOM     40  C   UNL A   1      39.750  33.206  35.444  1.00  0.00     0.148 A 
ATOM     41  C   UNL A   1      37.995  32.099  37.345  1.00  0.00     0.002 A 
ATOM     42  C   UNL A   1      39.377  33.938  36.565  1.00  0.00     0.091 A 
ATOM     43  F   UNL A   1      40.565  33.707  34.506  1.00  0.00    -0.205 F 
ATOM     44  C   UNL A   1      38.496  33.388  37.513  1.00  0.00     0.022 A 
BRANCH  42  45
ATOM     45  S   UNL A   1      40.008  35.583  36.907  1.00  0.00     0.127 S 
ATOM     46  O   UNL A   1      39.375  35.881  38.192  1.00  0.00    -0.237 OA
ATOM     47  O   UNL A   1      41.450  35.350  36.977  1.00  0.00    -0.237 OA
ATOM     48  O   UNL A   1      39.577  36.421  35.796  1.00  0.00    -0.744 OA
ENDBRANCH  42  45
ENDBRANCH  24  38
BRANCH  25  49
ATOM     49  C   UNL A   1      42.297  26.570  27.409  1.00  0.00     0.023 A 
ATOM     50  C   UNL A   1      43.095  27.164  26.413  1.00  0.00     0.012 A 
ATOM     51  C   UNL A   1      41.997  25.197  27.329  1.00  0.00     0.148 A 
ATOM     52  C   UNL A   1      43.589  26.404  25.353  1.00  0.00     0.002 A 
ATOM     53  C   UNL A   1      42.520  24.438  26.288  1.00  0.00     0.091 A 
ATOM     54  F   UNL A   1      41.238  24.658  28.293  1.00  0.00    -0.205 F 
ATOM     55  C   UNL A   1      43.309  25.040  25.295  1.00  0.00     0.022 A 
BRANCH  53  56
ATOM     56  S   UNL A   1      42.298  22.659  26.175  1.00  0.00     0.127 S 
ATOM     57  O   UNL A   1      42.947  22.357  24.898  1.00  0.00    -0.237 OA
ATOM     58  O   UNL A   1      43.025  22.194  27.357  1.00  0.00    -0.237 OA
ATOM     59  O   UNL A   1      40.863  22.432  26.211  1.00  0.00    -0.744 OA
ENDBRANCH  53  56
ENDBRANCH  25  49
BRANCH  37  60
ATOM     60  C   UNL A   1      44.592  27.302  33.996  1.00  0.00     0.023 A 
ATOM     61  C   UNL A   1      45.762  28.078  34.091  1.00  0.00     0.012 A 
ATOM     62  C   UNL A   1      44.457  26.139  34.780  1.00  0.00     0.148 A 
ATOM     63  C   UNL A   1      46.781  27.709  34.968  1.00  0.00     0.002 A 
ATOM     64  C   UNL A   1      45.462  25.797  35.675  1.00  0.00     0.091 A 
ATOM     65  F   UNL A   1      43.328  25.425  34.670  1.00  0.00    -0.205 F 
ATOM     66  C   UNL A   1      46.625  26.580  35.769  1.00  0.00     0.022 A 
BRANCH  64  67
ATOM     67  S   UNL A   1      45.319  24.415  36.815  1.00  0.00     0.127 S 
ATOM     68  O   UNL A   1      46.629  24.429  37.465  1.00  0.00    -0.237 OA
ATOM     69  O   UNL A   1      44.209  24.834  37.668  1.00  0.00    -0.237 OA
ATOM     70  O   UNL A   1      45.054  23.239  35.997  1.00  0.00    -0.744 OA
ENDBRANCH  64  67
ENDBRANCH  37  60
ENDBRANCH  11  12
ENDBRANCH   4   6
ENDBRANCH   1   2
BRANCH   1  71
ATOM     71  C   UNL A   1      32.576  29.462  24.939  1.00  0.00     0.042 C 
BRANCH  71  72
ATOM     72  C   UNL A   1      31.590  28.468  24.333  1.00  0.00     0.118 C 
BRANCH  72  73
ATOM     73  N   UNL A   1      31.163  27.460  25.291  1.00  0.00    -0.351 N 
ATOM     74  C   UNL A   1      31.706  26.245  25.591  1.00  0.00     0.278 C 
ATOM     75  H   UNL A   1      30.355  27.691  25.803  1.00  0.00     0.163 HD
ATOM     76  O   UNL A   1      31.160  25.581  26.479  1.00  0.00    -0.268 OA
BRANCH  74  77
ATOM     77  C   UNL A   1      32.969  25.715  24.890  1.00  0.00     0.277 C 
ATOM     78  C   UNL A   1      33.961  25.100  25.886  1.00  0.00     0.111 C 
ATOM     79  N   UNL A   1      32.584  24.796  23.793  1.00  0.00    -0.332 N 
ATOM     80  C   UNL A   1      35.000  24.224  25.233  1.00  0.00    -0.029 A 
ATOM     81  C   UNL A   1      33.770  24.417  23.024  1.00  0.00     0.298 C 
ATOM     82  H   UNL A   1      31.917  25.264  23.178  1.00  0.00     0.347 HD
ATOM     83  H   UNL A   1      32.158  23.959  24.189  1.00  0.00     0.347 HD
ATOM     84  C   UNL A   1      36.055  23.711  26.002  1.00  0.00     0.050 A 
ATOM     85  C   UNL A   1      34.884  23.864  23.878  1.00  0.00     0.010 A 
ATOM     86  C   UNL A   1      36.993  22.869  25.420  1.00  0.00     0.115 A 
ATOM     87  C   UNL A   1      35.856  23.029  23.306  1.00  0.00     0.013 A 
ATOM     88  C   UNL A   1      36.908  22.527  24.076  1.00  0.00     0.046 A 
BRANCH  86  89
ATOM     89  O   UNL A   1      37.994  22.393  26.214  1.00  0.00    -0.508 OA
ATOM     90  H   UNL A   1      37.924  21.540  26.594  1.00  0.00     0.293 HD
ENDBRANCH  86  89
ENDBRANCH  74  77
ENDBRANCH  72  73
ENDBRANCH  71  72
ENDBRANCH   1  71
TORSDOF 14
ENDMDL
MODEL 2
REMARK VINA RESULT:     -11.9      5.140     10.342
REMARK SMILES O=C(NCCCNC(=O)[C@H]1Cc2cc(O)ccc2C[NH2+]1)c1ccc(-c2c3nc(c(-c4cccc(S(=O)(=O)[O-])c4F)c4ccc([nH]4)c(-c4cccc(S(=O)(=O)[O-])c4F)c4nc(c(-c5cccc(S(=O)(=O)[O-])c5F)c5ccc2[nH]5)C=C4)C=C3)cc1
REMARK SMILES IDX 4 1 3 2 1 3 2 4 21 6 22 7 83 8 23 9 82 10 24 11 25 12 26 13
REMARK SMILES IDX 76 14 27 15 81 16 75 17 77 18 28 19 80 20 74 21 73 22 29 24
REMARK SMILES IDX 61 25 41 26 60 27 42 28 45 29 59 30 78 31 43 32 44 33 58 35
REMARK SMILES IDX 79 36 46 37 30 38 31 39 39 40 32 41 34 42 40 43 33 44 35 45
REMARK SMILES IDX 36 46 37 47 38 48 62 49 63 50 71 51 64 52 66 53 72 54 65 55
REMARK SMILES IDX 67 56 68 57 69 58 70 59 47 60 48 61 56 62 49 63 51 64 57 65
REMARK SMILES IDX 50 66 52 67 53 68 54 69 55 70 5 71 6 72 7 73 8 74 9 76 10 77
REMARK SMILES IDX 11 78 20 79 12 80 19 81 13 84 18 85 14 86 17 87 16 88 15 89
REMARK H PARENT 3 5 77 23 45 34 7 75 20 82 20 83 15 90
REMARK Flexibility Score: inf
ROOT
ATOM      1  C   UNL A   1      37.041  21.914  24.959  1.00  0.00     0.118 C 
ENDROOT
BRANCH   1   2
ATOM      2  N   UNL A   1      37.955  20.879  25.410  1.00  0.00    -0.352 N 
ATOM      3  O   UNL A   1      39.876  19.972  26.114  1.00  0.00    -0.269 OA
ATOM      4  C   UNL A   1      39.178  20.979  26.023  1.00  0.00     0.251 C 
ATOM      5  H   UNL A   1      37.646  19.958  25.252  1.00  0.00     0.163 HD
BRANCH   4   6
ATOM      6  C   UNL A   1      39.666  22.267  26.575  1.00  0.00     0.039 A 
ATOM      7  C   UNL A   1      39.122  23.454  26.073  1.00  0.00     0.014 A 
ATOM      8  C   UNL A   1      40.708  22.326  27.504  1.00  0.00     0.014 A 
ATOM      9  C   UNL A   1      39.624  24.688  26.496  1.00  0.00     0.010 A 
ATOM     10  C   UNL A   1      41.139  23.555  28.000  1.00  0.00     0.010 A 
ATOM     11  C   UNL A   1      40.642  24.748  27.461  1.00  0.00    -0.014 A 
BRANCH  11  12
ATOM     12  C   UNL A   1      41.267  26.044  27.830  1.00  0.00     0.031 A 
ATOM     13  C   UNL A   1      42.662  26.362  27.353  1.00  0.00     0.074 A 
ATOM     14  C   UNL A   1      40.603  26.927  28.600  1.00  0.00     0.049 A 
ATOM     15  N   UNL A   1      43.373  27.441  27.554  1.00  0.00    -0.248 NA
ATOM     16  C   UNL A   1      43.365  25.328  26.571  1.00  0.00     0.031 C 
ATOM     17  C   UNL A   1      39.273  26.716  29.174  1.00  0.00     0.029 A 
ATOM     18  N   UNL A   1      40.956  28.181  29.032  1.00  0.00    -0.354 N 
ATOM     19  C   UNL A   1      44.610  27.195  26.971  1.00  0.00     0.074 A 
ATOM     20  C   UNL A   1      44.571  25.857  26.433  1.00  0.00     0.031 C 
ATOM     21  C   UNL A   1      38.907  27.818  29.849  1.00  0.00     0.029 A 
ATOM     22  C   UNL A   1      39.982  28.805  29.775  1.00  0.00     0.049 A 
ATOM     23  H   UNL A   1      41.825  28.596  28.827  1.00  0.00     0.167 HD
ATOM     24  C   UNL A   1      45.672  28.024  26.856  1.00  0.00     0.034 A 
ATOM     25  C   UNL A   1      39.950  30.037  30.321  1.00  0.00     0.034 A 
ATOM     26  C   UNL A   1      45.678  29.387  27.296  1.00  0.00     0.049 A 
ATOM     27  C   UNL A   1      41.120  30.962  30.131  1.00  0.00     0.074 A 
ATOM     28  C   UNL A   1      46.657  30.344  27.103  1.00  0.00     0.029 A 
ATOM     29  N   UNL A   1      44.656  29.989  28.010  1.00  0.00    -0.354 N 
ATOM     30  N   UNL A   1      42.222  30.759  29.450  1.00  0.00    -0.248 NA
ATOM     31  C   UNL A   1      41.038  32.288  30.760  1.00  0.00     0.031 C 
ATOM     32  C   UNL A   1      46.233  31.525  27.715  1.00  0.00     0.029 A 
ATOM     33  C   UNL A   1      44.986  31.302  28.281  1.00  0.00     0.049 A 
ATOM     34  H   UNL A   1      43.818  29.548  28.282  1.00  0.00     0.167 HD
ATOM     35  C   UNL A   1      42.955  31.935  29.553  1.00  0.00     0.074 A 
ATOM     36  C   UNL A   1      42.171  32.852  30.353  1.00  0.00     0.031 C 
ATOM     37  C   UNL A   1      44.175  32.220  29.037  1.00  0.00     0.034 A 
BRANCH  24  38
ATOM     38  C   UNL A   1      46.899  27.508  26.158  1.00  0.00     0.023 A 
ATOM     39  C   UNL A   1      47.781  26.654  26.850  1.00  0.00     0.012 A 
ATOM     40  C   UNL A   1      47.129  27.795  24.799  1.00  0.00     0.148 A 
ATOM     41  C   UNL A   1      48.886  26.105  26.202  1.00  0.00     0.002 A 
ATOM     42  C   UNL A   1      48.214  27.217  24.151  1.00  0.00     0.091 A 
ATOM     43  F   UNL A   1      46.283  28.623  24.170  1.00  0.00    -0.205 F 
ATOM     44  C   UNL A   1      49.096  26.377  24.853  1.00  0.00     0.022 A 
BRANCH  42  45
ATOM     45  S   UNL A   1      48.544  27.457  22.403  1.00  0.00     0.127 S 
ATOM     46  O   UNL A   1      49.809  28.193  22.440  1.00  0.00    -0.237 OA
ATOM     47  O   UNL A   1      48.653  26.082  21.920  1.00  0.00    -0.237 OA
ATOM     48  O   UNL A   1      47.411  28.204  21.875  1.00  0.00    -0.744 OA
ENDBRANCH  42  45
ENDBRANCH  24  38
BRANCH  25  49
ATOM     49  C   UNL A   1      38.710  30.491  31.008  1.00  0.00     0.023 A 
ATOM     50  C   UNL A   1      38.592  30.293  32.397  1.00  0.00     0.012 A 
ATOM     51  C   UNL A   1      37.700  31.191  30.321  1.00  0.00     0.148 A 
ATOM     52  C   UNL A   1      37.488  30.783  33.093  1.00  0.00     0.002 A 
ATOM     53  C   UNL A   1      36.618  31.707  31.026  1.00  0.00     0.091 A 
ATOM     54  F   UNL A   1      37.840  31.368  29.000  1.00  0.00    -0.205 F 
ATOM     55  C   UNL A   1      36.506  31.497  32.410  1.00  0.00     0.022 A 
BRANCH  53  56
ATOM     56  S   UNL A   1      35.350  32.720  30.257  1.00  0.00     0.127 S 
ATOM     57  O   UNL A   1      34.963  31.897  29.111  1.00  0.00    -0.237 OA
ATOM     58  O   UNL A   1      34.349  32.799  31.321  1.00  0.00    -0.237 OA
ATOM     59  O   UNL A   1      35.992  33.982  29.927  1.00  0.00    -0.744 OA
ENDBRANCH  53  56
ENDBRANCH  25  49
BRANCH  37  60
ATOM     60  C   UNL A   1      44.775  33.571  29.301  1.00  0.00     0.023 A 
ATOM     61  C   UNL A   1      45.540  33.760  30.467  1.00  0.00     0.012 A 
ATOM     62  C   UNL A   1      44.754  34.571  28.309  1.00  0.00     0.148 A 
ATOM     63  C   UNL A   1      46.287  34.925  30.638  1.00  0.00     0.002 A 
ATOM     64  C   UNL A   1      45.526  35.713  28.471  1.00  0.00     0.091 A 
ATOM     65  F   UNL A   1      44.019  34.358  27.207  1.00  0.00    -0.205 F 
ATOM     66  C   UNL A   1      46.292  35.892  29.635  1.00  0.00     0.022 A 
BRANCH  64  67
ATOM     67  S   UNL A   1      45.672  36.976  27.200  1.00  0.00     0.127 S 
ATOM     68  O   UNL A   1      46.743  37.815  27.736  1.00  0.00    -0.237 OA
ATOM     69  O   UNL A   1      46.042  36.188  26.026  1.00  0.00    -0.237 OA
ATOM     70  O   UNL A   1      44.370  37.623  27.119  1.00  0.00    -0.744 OA
ENDBRANCH  64  67
ENDBRANCH  37  60
ENDBRANCH  11  12
ENDBRANCH   4   6
ENDBRANCH   1   2
BRANCH   1  71
ATOM     71  C   UNL A   1      35.686  21.831  25.648  1.00  0.00     0.042 C 
BRANCH  71  72
ATOM     72  C   UNL A   1      34.514  21.599  24.699  1.00  0.00     0.118 C 
BRANCH  72  73
ATOM     73  N   UNL A   1      34.524  22.521  23.574  1.00  0.00    -0.351 N 
ATOM     74  C   UNL A   1      34.046  23.794  23.474  1.00  0.00     0.278 C 
ATOM     75  H   UNL A   1      34.942  22.170  22.755  1.00  0.00     0.163 HD
ATOM     76  O   UNL A   1      34.209  24.382  22.399  1.00  0.00    -0.268 OA
BRANCH  74  77
ATOM     77  C   UNL A   1      33.359  24.507  24.653  1.00  0.00     0.277 C 
ATOM     78  C   UNL A   1      34.112  25.778  25.070  1.00  0.00     0.111 C 
ATOM     79  N   UNL A   1      31.932  24.742  24.330  1.00  0.00    -0.332 N 
ATOM     80  C   UNL A   1      33.287  26.709  25.923  1.00  0.00    -0.029 A 
ATOM     81  C   UNL A   1      31.239  25.273  25.506  1.00  0.00     0.298 C 
ATOM     82  H   UNL A   1      31.498  23.862  24.051  1.00  0.00     0.347 HD
ATOM     83  H   UNL A   1      31.865  25.416  23.568  1.00  0.00     0.347 HD
ATOM     84  C   UNL A   1      33.890  27.838  26.495  1.00  0.00     0.050 A 
ATOM     85  C   UNL A   1      31.908  26.491  26.095  1.00  0.00     0.010 A 
ATOM     86  C   UNL A   1      33.131  28.725  27.247  1.00  0.00     0.115 A 
ATOM     87  C   UNL A   1      31.165  27.388  26.876  1.00  0.00     0.013 A 
ATOM     88  C   UNL A   1      31.773  28.508  27.449  1.00  0.00     0.046 A 
BRANCH  86  89
ATOM     89  O   UNL A   1      33.764  29.811  27.774  1.00  0.00    -0.508 OA
ATOM     90  H   UNL A   1      33.921  30.566  27.242  1.00  0.00     0.293 HD
ENDBRANCH  86  89
ENDBRANCH  74  77
ENDBRANCH  72  73
ENDBRANCH  71  72
ENDBRANCH   1  71
TORSDOF 14
ENDMDL
MODEL 3
REMARK VINA RESULT:     -11.7      4.855     10.258
REMARK SMILES O=C(NCCCNC(=O)[C@H]1Cc2cc(O)ccc2C[NH2+]1)c1ccc(-c2c3nc(c(-c4cccc(S(=O)(=O)[O-])c4F)c4ccc([nH]4)c(-c4cccc(S(=O)(=O)[O-])c4F)c4nc(c(-c5cccc(S(=O)(=O)[O-])c5F)c5ccc2[nH]5)C=C4)C=C3)cc1
REMARK SMILES IDX 4 1 3 2 1 3 2 4 21 6 22 7 83 8 23 9 82 10 24 11 25 12 26 13
REMARK SMILES IDX 76 14 27 15 81 16 75 17 77 18 28 19 80 20 74 21 73 22 29 24
REMARK SMILES IDX 61 25 41 26 60 27 42 28 45 29 59 30 78 31 43 32 44 33 58 35
REMARK SMILES IDX 79 36 46 37 30 38 31 39 39 40 32 41 34 42 40 43 33 44 35 45
REMARK SMILES IDX 36 46 37 47 38 48 62 49 63 50 71 51 64 52 66 53 72 54 65 55
REMARK SMILES IDX 67 56 68 57 69 58 70 59 47 60 48 61 56 62 49 63 51 64 57 65
REMARK SMILES IDX 50 66 52 67 53 68 54 69 55 70 5 71 6 72 7 73 8 74 9 76 10 77
REMARK SMILES IDX 11 78 20 79 12 80 19 81 13 84 18 85 14 86 17 87 16 88 15 89
REMARK H PARENT 3 5 77 23 45 34 7 75 20 82 20 83 15 90
REMARK Flexibility Score: inf
ROOT
ATOM      1  C   UNL A   1      37.201  21.361  24.934  1.00  0.00     0.118 C 
ENDROOT
BRANCH   1   2
ATOM      2  N   UNL A   1      38.154  20.355  25.372  1.00  0.00    -0.352 N 
ATOM      3  O   UNL A   1      40.112  19.508  26.048  1.00  0.00    -0.269 OA
ATOM      4  C   UNL A   1      39.382  20.493  25.968  1.00  0.00     0.251 C 
ATOM      5  H   UNL A   1      37.872  19.425  25.217  1.00  0.00     0.163 HD
BRANCH   4   6
ATOM      6  C   UNL A   1      39.836  21.795  26.514  1.00  0.00     0.039 A 
ATOM      7  C   UNL A   1      39.266  22.966  26.004  1.00  0.00     0.014 A 
ATOM      8  C   UNL A   1      40.873  21.884  27.447  1.00  0.00     0.014 A 
ATOM      9  C   UNL A   1      39.737  24.213  26.423  1.00  0.00     0.010 A 
ATOM     10  C   UNL A   1      41.273  23.125  27.938  1.00  0.00     0.010 A 
ATOM     11  C   UNL A   1      40.749  24.303  27.391  1.00  0.00    -0.014 A 
BRANCH  11  12
ATOM     12  C   UNL A   1      41.342  25.616  27.755  1.00  0.00     0.031 A 
ATOM     13  C   UNL A   1      42.744  25.951  27.311  1.00  0.00     0.074 A 
ATOM     14  C   UNL A   1      40.642  26.499  28.492  1.00  0.00     0.049 A 
ATOM     15  N   UNL A   1      43.430  27.046  27.512  1.00  0.00    -0.248 NA
ATOM     16  C   UNL A   1      43.485  24.917  26.564  1.00  0.00     0.031 C 
ATOM     17  C   UNL A   1      39.301  26.274  29.034  1.00  0.00     0.029 A 
ATOM     18  N   UNL A   1      40.962  27.766  28.913  1.00  0.00    -0.354 N 
ATOM     19  C   UNL A   1      44.687  26.812  26.967  1.00  0.00     0.074 A 
ATOM     20  C   UNL A   1      44.685  25.465  26.450  1.00  0.00     0.031 C 
ATOM     21  C   UNL A   1      38.898  27.380  29.681  1.00  0.00     0.029 A 
ATOM     22  C   UNL A   1      39.957  28.384  29.620  1.00  0.00     0.049 A 
ATOM     23  H   UNL A   1      41.829  28.192  28.725  1.00  0.00     0.167 HD
ATOM     24  C   UNL A   1      45.737  27.657  26.867  1.00  0.00     0.034 A 
ATOM     25  C   UNL A   1      39.889  29.624  30.144  1.00  0.00     0.034 A 
ATOM     26  C   UNL A   1      45.707  29.028  27.284  1.00  0.00     0.049 A 
ATOM     27  C   UNL A   1      41.048  30.566  29.970  1.00  0.00     0.074 A 
ATOM     28  C   UNL A   1      46.675  29.998  27.102  1.00  0.00     0.029 A 
ATOM     29  N   UNL A   1      44.656  29.623  27.960  1.00  0.00    -0.354 N 
ATOM     30  N   UNL A   1      42.171  30.372  29.322  1.00  0.00    -0.248 NA
ATOM     31  C   UNL A   1      40.926  31.901  30.575  1.00  0.00     0.031 C 
ATOM     32  C   UNL A   1      46.214  31.182  27.683  1.00  0.00     0.029 A 
ATOM     33  C   UNL A   1      44.957  30.945  28.218  1.00  0.00     0.049 A 
ATOM     34  H   UNL A   1      43.819  29.171  28.218  1.00  0.00     0.167 HD
ATOM     35  C   UNL A   1      42.881  31.562  29.426  1.00  0.00     0.074 A 
ATOM     36  C   UNL A   1      42.060  32.478  30.189  1.00  0.00     0.031 C 
ATOM     37  C   UNL A   1      44.110  31.861  28.938  1.00  0.00     0.034 A 
BRANCH  24  38
ATOM     38  C   UNL A   1      46.991  27.152  26.210  1.00  0.00     0.023 A 
ATOM     39  C   UNL A   1      47.213  27.420  24.844  1.00  0.00     0.012 A 
ATOM     40  C   UNL A   1      47.984  26.497  26.963  1.00  0.00     0.148 A 
ATOM     41  C   UNL A   1      48.400  27.027  24.231  1.00  0.00     0.002 A 
ATOM     42  C   UNL A   1      49.179  26.136  26.352  1.00  0.00     0.091 A 
ATOM     43  F   UNL A   1      47.740  26.240  28.255  1.00  0.00    -0.205 F 
ATOM     44  C   UNL A   1      49.386  26.396  24.986  1.00  0.00     0.022 A 
BRANCH  42  45
ATOM     45  S   UNL A   1      50.536  25.370  27.244  1.00  0.00     0.127 S 
ATOM     46  O   UNL A   1      49.869  24.227  27.868  1.00  0.00    -0.237 OA
ATOM     47  O   UNL A   1      51.457  25.024  26.163  1.00  0.00    -0.237 OA
ATOM     48  O   UNL A   1      51.031  26.378  28.172  1.00  0.00    -0.744 OA
ENDBRANCH  42  45
ENDBRANCH  24  38
BRANCH  25  49
ATOM     49  C   UNL A   1      38.624  30.068  30.790  1.00  0.00     0.023 A 
ATOM     50  C   UNL A   1      38.429  29.796  32.157  1.00  0.00     0.012 A 
ATOM     51  C   UNL A   1      37.665  30.826  30.091  1.00  0.00     0.148 A 
ATOM     52  C   UNL A   1      37.299  30.272  32.821  1.00  0.00     0.002 A 
ATOM     53  C   UNL A   1      36.557  31.326  30.767  1.00  0.00     0.091 A 
ATOM     54  F   UNL A   1      37.878  31.072  28.791  1.00  0.00    -0.205 F 
ATOM     55  C   UNL A   1      36.368  31.044  32.129  1.00  0.00     0.022 A 
BRANCH  53  56
ATOM     56  S   UNL A   1      35.352  32.407  29.991  1.00  0.00     0.127 S 
ATOM     57  O   UNL A   1      36.191  33.519  29.543  1.00  0.00    -0.237 OA
ATOM     58  O   UNL A   1      34.837  31.555  28.918  1.00  0.00    -0.237 OA
ATOM     59  O   UNL A   1      34.385  32.737  31.026  1.00  0.00    -0.744 OA
ENDBRANCH  53  56
ENDBRANCH  25  49
BRANCH  37  60
ATOM     60  C   UNL A   1      44.679  33.227  29.196  1.00  0.00     0.023 A 
ATOM     61  C   UNL A   1      45.452  33.434  30.353  1.00  0.00     0.012 A 
ATOM     62  C   UNL A   1      44.621  34.225  28.204  1.00  0.00     0.148 A 
ATOM     63  C   UNL A   1      46.172  34.617  30.515  1.00  0.00     0.002 A 
ATOM     64  C   UNL A   1      45.367  35.387  28.357  1.00  0.00     0.091 A 
ATOM     65  F   UNL A   1      43.879  33.994  27.111  1.00  0.00    -0.205 F 
ATOM     66  C   UNL A   1      46.142  35.584  29.513  1.00  0.00     0.022 A 
BRANCH  64  67
ATOM     67  S   UNL A   1      45.467  36.652  27.086  1.00  0.00     0.127 S 
ATOM     68  O   UNL A   1      44.060  37.015  26.916  1.00  0.00    -0.237 OA
ATOM     69  O   UNL A   1      46.287  37.674  27.735  1.00  0.00    -0.237 OA
ATOM     70  O   UNL A   1      46.080  36.018  25.928  1.00  0.00    -0.744 OA
ENDBRANCH  64  67
ENDBRANCH  37  60
ENDBRANCH  11  12
ENDBRANCH   4   6
ENDBRANCH   1   2
BRANCH   1  71
ATOM     71  C   UNL A   1      35.766  20.857  24.978  1.00  0.00     0.042 C 
BRANCH  71  72
ATOM     72  C   UNL A   1      34.729  21.944  25.247  1.00  0.00     0.118 C 
BRANCH  72  73
ATOM     73  N   UNL A   1      34.124  22.444  24.023  1.00  0.00    -0.351 N 
ATOM     74  C   UNL A   1      33.366  23.557  23.805  1.00  0.00     0.278 C 
ATOM     75  H   UNL A   1      34.287  21.892  23.224  1.00  0.00     0.163 HD
ATOM     76  O   UNL A   1      32.992  23.775  22.647  1.00  0.00    -0.268 OA
BRANCH  74  77
ATOM     77  C   UNL A   1      33.006  24.537  24.936  1.00  0.00     0.277 C 
ATOM     78  C   UNL A   1      33.801  25.846  24.833  1.00  0.00     0.111 C 
ATOM     79  N   UNL A   1      31.538  24.738  24.974  1.00  0.00    -0.332 N 
ATOM     80  C   UNL A   1      33.213  26.970  25.648  1.00  0.00    -0.029 A 
ATOM     81  C   UNL A   1      31.178  25.541  26.144  1.00  0.00     0.298 C 
ATOM     82  H   UNL A   1      31.074  23.831  25.030  1.00  0.00     0.347 HD
ATOM     83  H   UNL A   1      31.242  25.224  24.128  1.00  0.00     0.347 HD
ATOM     84  C   UNL A   1      33.911  28.180  25.763  1.00  0.00     0.050 A 
ATOM     85  C   UNL A   1      31.942  26.838  26.237  1.00  0.00     0.010 A 
ATOM     86  C   UNL A   1      33.359  29.236  26.475  1.00  0.00     0.115 A 
ATOM     87  C   UNL A   1      31.412  27.911  26.970  1.00  0.00     0.013 A 
ATOM     88  C   UNL A   1      32.117  29.112  27.086  1.00  0.00     0.046 A 
BRANCH  86  89
ATOM     89  O   UNL A   1      34.076  30.393  26.550  1.00  0.00    -0.508 OA
ATOM     90  H   UNL A   1      33.963  30.967  27.281  1.00  0.00     0.293 HD
ENDBRANCH  86  89
ENDBRANCH  74  77
ENDBRANCH  72  73
ENDBRANCH  71  72
ENDBRANCH   1  71
TORSDOF 14
ENDMDL
