MODEL 1
REMARK VINA RESULT:     -11.6      0.000      0.000
REMARK SMILES CC(C)(C[S@](=O)c1cccc(Cl)c1)C(=O)NCCCNC(=O)c1ccc(-c2c3nc(c(-c4cccc(S(=O)(=O)[O-])c4F)c4ccc([nH]4)c(-c4cccc(S(=O)(=O)[O-])c4F)c4nc(c(-c5cccc(S(=O)(=O)[O-])c5F)c5ccc2[nH]5)C=C4)C=C3)cc1
REMARK SMILES IDX 18 1 17 2 16 3 14 4 15 5 2 7 1 8 3 9 4 10 5 11 6 12 7 13
REMARK SMILES IDX 8 14 13 15 9 16 11 17 10 18 12 19 19 20 20 21 21 22 22 24
REMARK SMILES IDX 23 25 24 26 85 27 25 28 84 29 26 30 27 31 28 32 78 33 29 34
REMARK SMILES IDX 83 35 77 36 79 37 30 38 82 39 76 40 75 41 31 43 63 44 43 45
REMARK SMILES IDX 62 46 44 47 47 48 61 49 80 50 45 51 46 52 60 54 81 55 48 56
REMARK SMILES IDX 32 57 33 58 41 59 34 60 36 61 42 62 35 63 37 64 38 65 39 66
REMARK SMILES IDX 40 67 64 68 65 69 73 70 66 71 68 72 74 73 67 74 69 75 70 76
REMARK SMILES IDX 71 77 72 78 49 79 50 80 58 81 51 82 53 83 59 84 52 85 54 86
REMARK SMILES IDX 55 87 56 88 57 89
REMARK H PARENT 16 6 20 23 79 42 47 53
REMARK Flexibility Score: inf
ROOT
ATOM      1  C   UNL A   1      31.558  31.680  26.759  1.00  0.00     0.042 C 
ENDROOT
BRANCH   1   2
ATOM      2  C   UNL A   1      31.808  30.489  25.851  1.00  0.00     0.117 C 
BRANCH   2   3
ATOM      3  N   UNL A   1      30.920  30.431  24.705  1.00  0.00    -0.356 N 
ATOM      4  C   UNL A   1      30.610  29.441  23.827  1.00  0.00     0.226 C 
ATOM      5  O   UNL A   1      29.662  29.663  23.066  1.00  0.00    -0.274 OA
ATOM      6  H   UNL A   1      30.448  31.276  24.528  1.00  0.00     0.163 HD
BRANCH   4   7
ATOM      7  C   UNL A   1      31.350  28.089  23.798  1.00  0.00     0.055 C 
ATOM      8  C   UNL A   1      32.750  28.299  23.174  1.00  0.00     0.022 C 
ATOM      9  C   UNL A   1      30.648  27.138  22.796  1.00  0.00     0.022 C 
BRANCH   7  10
ATOM     10  C   UNL A   1      31.462  27.415  25.187  1.00  0.00     0.126 C 
BRANCH  10  11
ATOM     11  S   UNL A   1      30.872  25.694  25.401  1.00  0.00     0.054 S 
ATOM     12  O   UNL A   1      30.117  25.574  26.687  1.00  0.00    -0.254 OA
BRANCH  11  13
ATOM     13  C   UNL A   1      32.436  24.835  25.635  1.00  0.00     0.040 A 
ATOM     14  C   UNL A   1      33.614  25.392  25.123  1.00  0.00     0.018 A 
ATOM     15  C   UNL A   1      32.492  23.616  26.315  1.00  0.00     0.038 A 
ATOM     16  C   UNL A   1      34.844  24.774  25.356  1.00  0.00     0.003 A 
ATOM     17  C   UNL A   1      33.725  23.028  26.588  1.00  0.00     0.042 A 
ATOM     18  C   UNL A   1      34.902  23.605  26.114  1.00  0.00     0.020 A 
ATOM     19  Cl  UNL A   1      33.804  21.610  27.559  1.00  0.00    -0.084 Cl
ENDBRANCH  11  13
ENDBRANCH  10  11
ENDBRANCH   7  10
ENDBRANCH   4   7
ENDBRANCH   2   3
ENDBRANCH   1   2
BRANCH   1  20
ATOM     20  C   UNL A   1      32.817  32.404  27.210  1.00  0.00     0.118 C 
BRANCH  20  21
ATOM     21  N   UNL A   1      32.575  33.802  27.549  1.00  0.00    -0.352 N 
ATOM     22  C   UNL A   1      33.130  34.596  28.524  1.00  0.00     0.251 C 
ATOM     23  H   UNL A   1      31.903  34.252  26.988  1.00  0.00     0.163 HD
ATOM     24  O   UNL A   1      32.634  35.698  28.757  1.00  0.00    -0.269 OA
BRANCH  22  25
ATOM     25  C   UNL A   1      34.298  34.134  29.305  1.00  0.00     0.039 A 
ATOM     26  C   UNL A   1      34.087  33.467  30.516  1.00  0.00     0.014 A 
ATOM     27  C   UNL A   1      35.602  34.368  28.861  1.00  0.00     0.014 A 
ATOM     28  C   UNL A   1      35.177  32.973  31.237  1.00  0.00     0.010 A 
ATOM     29  C   UNL A   1      36.676  33.787  29.525  1.00  0.00     0.010 A 
ATOM     30  C   UNL A   1      36.480  33.091  30.726  1.00  0.00    -0.014 A 
BRANCH  30  31
ATOM     31  C   UNL A   1      37.646  32.492  31.424  1.00  0.00     0.031 A 
ATOM     32  C   UNL A   1      38.402  31.349  30.798  1.00  0.00     0.074 A 
ATOM     33  C   UNL A   1      37.969  32.913  32.664  1.00  0.00     0.049 A 
ATOM     34  N   UNL A   1      39.401  30.657  31.284  1.00  0.00    -0.248 NA
ATOM     35  C   UNL A   1      37.961  30.905  29.465  1.00  0.00     0.031 C 
ATOM     36  C   UNL A   1      37.264  33.955  33.413  1.00  0.00     0.029 A 
ATOM     37  N   UNL A   1      38.954  32.497  33.525  1.00  0.00    -0.354 N 
ATOM     38  C   UNL A   1      39.680  29.677  30.339  1.00  0.00     0.074 A 
ATOM     39  C   UNL A   1      38.722  29.839  29.267  1.00  0.00     0.031 C 
ATOM     40  C   UNL A   1      37.841  34.102  34.615  1.00  0.00     0.029 A 
ATOM     41  C   UNL A   1      38.932  33.142  34.740  1.00  0.00     0.049 A 
ATOM     42  H   UNL A   1      39.614  31.804  33.294  1.00  0.00     0.167 HD
ATOM     43  C   UNL A   1      40.661  28.744  30.346  1.00  0.00     0.034 A 
ATOM     44  C   UNL A   1      39.695  32.970  35.838  1.00  0.00     0.034 A 
ATOM     45  C   UNL A   1      41.635  28.609  31.396  1.00  0.00     0.049 A 
ATOM     46  C   UNL A   1      40.800  31.947  35.807  1.00  0.00     0.074 A 
ATOM     47  C   UNL A   1      42.723  27.757  31.455  1.00  0.00     0.029 A 
ATOM     48  N   UNL A   1      41.631  29.335  32.576  1.00  0.00    -0.354 N 
ATOM     49  N   UNL A   1      41.149  31.139  34.836  1.00  0.00    -0.248 NA
ATOM     50  C   UNL A   1      41.639  31.840  37.009  1.00  0.00     0.031 C 
ATOM     51  C   UNL A   1      43.357  27.943  32.687  1.00  0.00     0.029 A 
ATOM     52  C   UNL A   1      42.689  28.942  33.378  1.00  0.00     0.049 A 
ATOM     53  H   UNL A   1      40.973  30.029  32.810  1.00  0.00     0.167 HD
ATOM     54  C   UNL A   1      42.268  30.454  35.294  1.00  0.00     0.074 A 
ATOM     55  C   UNL A   1      42.551  30.959  36.622  1.00  0.00     0.031 C 
ATOM     56  C   UNL A   1      42.990  29.486  34.677  1.00  0.00     0.034 A 
BRANCH  43  57
ATOM     57  C   UNL A   1      40.759  27.818  29.160  1.00  0.00     0.023 A 
ATOM     58  C   UNL A   1      39.923  26.684  29.087  1.00  0.00     0.012 A 
ATOM     59  C   UNL A   1      41.634  28.100  28.093  1.00  0.00     0.148 A 
ATOM     60  C   UNL A   1      39.984  25.825  27.990  1.00  0.00     0.002 A 
ATOM     61  C   UNL A   1      41.652  27.267  26.980  1.00  0.00     0.091 A 
ATOM     62  F   UNL A   1      42.435  29.171  28.187  1.00  0.00    -0.205 F 
ATOM     63  C   UNL A   1      40.839  26.123  26.933  1.00  0.00     0.022 A 
BRANCH  61  64
ATOM     64  S   UNL A   1      42.654  27.607  25.529  1.00  0.00     0.127 S 
ATOM     65  O   UNL A   1      42.381  26.434  24.699  1.00  0.00    -0.237 OA
ATOM     66  O   UNL A   1      42.066  28.853  25.035  1.00  0.00    -0.237 OA
ATOM     67  O   UNL A   1      44.025  27.729  26.004  1.00  0.00    -0.744 OA
ENDBRANCH  61  64
ENDBRANCH  43  57
BRANCH  44  68
ATOM     68  C   UNL A   1      39.476  33.823  37.040  1.00  0.00     0.023 A 
ATOM     69  C   UNL A   1      39.896  35.168  37.022  1.00  0.00     0.012 A 
ATOM     70  C   UNL A   1      38.834  33.321  38.188  1.00  0.00     0.148 A 
ATOM     71  C   UNL A   1      39.716  35.985  38.139  1.00  0.00     0.002 A 
ATOM     72  C   UNL A   1      38.604  34.156  39.275  1.00  0.00     0.091 A 
ATOM     73  F   UNL A   1      38.448  32.037  38.189  1.00  0.00    -0.205 F 
ATOM     74  C   UNL A   1      39.062  35.483  39.261  1.00  0.00     0.022 A 
BRANCH  72  75
ATOM     75  S   UNL A   1      37.653  33.636  40.707  1.00  0.00     0.127 S 
ATOM     76  O   UNL A   1      37.513  34.889  41.446  1.00  0.00    -0.237 OA
ATOM     77  O   UNL A   1      36.422  33.145  40.089  1.00  0.00    -0.237 OA
ATOM     78  O   UNL A   1      38.449  32.605  41.358  1.00  0.00    -0.744 OA
ENDBRANCH  72  75
ENDBRANCH  44  68
BRANCH  56  79
ATOM     79  C   UNL A   1      44.186  28.932  35.406  1.00  0.00     0.023 A 
ATOM     80  C   UNL A   1      45.459  29.503  35.211  1.00  0.00     0.012 A 
ATOM     81  C   UNL A   1      44.032  27.890  36.342  1.00  0.00     0.148 A 
ATOM     82  C   UNL A   1      46.565  29.022  35.909  1.00  0.00     0.002 A 
ATOM     83  C   UNL A   1      45.130  27.452  37.073  1.00  0.00     0.091 A 
ATOM     84  F   UNL A   1      42.816  27.348  36.501  1.00  0.00    -0.205 F 
ATOM     85  C   UNL A   1      46.400  28.006  36.847  1.00  0.00     0.022 A 
BRANCH  83  86
ATOM     86  S   UNL A   1      44.992  26.219  38.372  1.00  0.00     0.127 S 
ATOM     87  O   UNL A   1      44.798  24.992  37.599  1.00  0.00    -0.237 OA
ATOM     88  O   UNL A   1      46.294  26.322  39.034  1.00  0.00    -0.237 OA
ATOM     89  O   UNL A   1      43.861  26.623  39.195  1.00  0.00    -0.744 OA
ENDBRANCH  83  86
ENDBRANCH  56  79
ENDBRANCH  30  31
ENDBRANCH  22  25
ENDBRANCH  20  21
ENDBRANCH   1  20
TORSDOF 16
ENDMDL
MODEL 2
REMARK VINA RESULT:     -11.6      1.796      2.916
REMARK SMILES CC(C)(C[S@](=O)c1cccc(Cl)c1)C(=O)NCCCNC(=O)c1ccc(-c2c3nc(c(-c4cccc(S(=O)(=O)[O-])c4F)c4ccc([nH]4)c(-c4cccc(S(=O)(=O)[O-])c4F)c4nc(c(-c5cccc(S(=O)(=O)[O-])c5F)c5ccc2[nH]5)C=C4)C=C3)cc1
REMARK SMILES IDX 18 1 17 2 16 3 14 4 15 5 2 7 1 8 3 9 4 10 5 11 6 12 7 13
REMARK SMILES IDX 8 14 13 15 9 16 11 17 10 18 12 19 19 20 20 21 21 22 22 24
REMARK SMILES IDX 23 25 24 26 85 27 25 28 84 29 26 30 27 31 28 32 78 33 29 34
REMARK SMILES IDX 83 35 77 36 79 37 30 38 82 39 76 40 75 41 31 43 63 44 43 45
REMARK SMILES IDX 62 46 44 47 47 48 61 49 80 50 45 51 46 52 60 54 81 55 48 56
REMARK SMILES IDX 32 57 33 58 41 59 34 60 36 61 42 62 35 63 37 64 38 65 39 66
REMARK SMILES IDX 40 67 64 68 65 69 73 70 66 71 68 72 74 73 67 74 69 75 70 76
REMARK SMILES IDX 71 77 72 78 49 79 50 80 58 81 51 82 53 83 59 84 52 85 54 86
REMARK SMILES IDX 55 87 56 88 57 89
REMARK H PARENT 16 6 20 23 79 42 47 53
REMARK Flexibility Score: inf
ROOT
ATOM      1  C   UNL A   1      31.598  32.207  26.506  1.00  0.00     0.042 C 
ENDROOT
BRANCH   1   2
ATOM      2  C   UNL A   1      31.609  30.695  26.363  1.00  0.00     0.117 C 
BRANCH   2   3
ATOM      3  N   UNL A   1      32.859  30.079  26.767  1.00  0.00    -0.356 N 
ATOM      4  C   UNL A   1      33.420  28.868  26.503  1.00  0.00     0.226 C 
ATOM      5  O   UNL A   1      34.595  28.723  26.854  1.00  0.00    -0.274 OA
ATOM      6  H   UNL A   1      33.410  30.650  27.349  1.00  0.00     0.163 HD
BRANCH   4   7
ATOM      7  C   UNL A   1      32.668  27.744  25.763  1.00  0.00     0.055 C 
ATOM      8  C   UNL A   1      31.421  27.349  26.589  1.00  0.00     0.022 C 
ATOM      9  C   UNL A   1      33.529  26.456  25.772  1.00  0.00     0.022 C 
BRANCH   7  10
ATOM     10  C   UNL A   1      32.274  28.114  24.313  1.00  0.00     0.126 C 
BRANCH  10  11
ATOM     11  S   UNL A   1      31.272  26.940  23.327  1.00  0.00     0.054 S 
ATOM     12  O   UNL A   1      31.909  26.728  21.990  1.00  0.00    -0.254 OA
BRANCH  11  13
ATOM     13  C   UNL A   1      29.791  27.922  23.047  1.00  0.00     0.040 A 
ATOM     14  C   UNL A   1      28.556  27.458  23.515  1.00  0.00     0.018 A 
ATOM     15  C   UNL A   1      29.852  29.139  22.363  1.00  0.00     0.038 A 
ATOM     16  C   UNL A   1      27.408  28.240  23.368  1.00  0.00     0.003 A 
ATOM     17  C   UNL A   1      28.716  29.938  22.261  1.00  0.00     0.042 A 
ATOM     18  C   UNL A   1      27.494  29.494  22.764  1.00  0.00     0.020 A 
ATOM     19  Cl  UNL A   1      28.829  31.504  21.556  1.00  0.00    -0.084 Cl
ENDBRANCH  11  13
ENDBRANCH  10  11
ENDBRANCH   7  10
ENDBRANCH   4   7
ENDBRANCH   2   3
ENDBRANCH   1   2
BRANCH   1  20
ATOM     20  C   UNL A   1      32.734  32.767  27.348  1.00  0.00     0.118 C 
BRANCH  20  21
ATOM     21  N   UNL A   1      32.548  34.176  27.682  1.00  0.00    -0.352 N 
ATOM     22  C   UNL A   1      33.127  34.947  28.660  1.00  0.00     0.251 C 
ATOM     23  H   UNL A   1      31.901  34.652  27.113  1.00  0.00     0.163 HD
ATOM     24  O   UNL A   1      32.676  36.070  28.886  1.00  0.00    -0.269 OA
BRANCH  22  25
ATOM     25  C   UNL A   1      34.267  34.438  29.452  1.00  0.00     0.039 A 
ATOM     26  C   UNL A   1      34.017  33.607  30.549  1.00  0.00     0.014 A 
ATOM     27  C   UNL A   1      35.581  34.789  29.134  1.00  0.00     0.014 A 
ATOM     28  C   UNL A   1      35.086  33.071  31.273  1.00  0.00     0.010 A 
ATOM     29  C   UNL A   1      36.642  34.173  29.789  1.00  0.00     0.010 A 
ATOM     30  C   UNL A   1      36.409  33.314  30.872  1.00  0.00    -0.014 A 
BRANCH  30  31
ATOM     31  C   UNL A   1      37.561  32.680  31.565  1.00  0.00     0.031 A 
ATOM     32  C   UNL A   1      38.289  31.526  30.928  1.00  0.00     0.074 A 
ATOM     33  C   UNL A   1      37.892  33.081  32.809  1.00  0.00     0.049 A 
ATOM     34  N   UNL A   1      39.272  30.806  31.407  1.00  0.00    -0.248 NA
ATOM     35  C   UNL A   1      37.839  31.107  29.589  1.00  0.00     0.031 C 
ATOM     36  C   UNL A   1      37.211  34.132  33.569  1.00  0.00     0.029 A 
ATOM     37  N   UNL A   1      38.866  32.633  33.666  1.00  0.00    -0.354 N 
ATOM     38  C   UNL A   1      39.528  29.830  30.452  1.00  0.00     0.074 A 
ATOM     39  C   UNL A   1      38.575  30.026  29.381  1.00  0.00     0.031 C 
ATOM     40  C   UNL A   1      37.791  34.253  34.773  1.00  0.00     0.029 A 
ATOM     41  C   UNL A   1      38.858  33.265  34.889  1.00  0.00     0.049 A 
ATOM     42  H   UNL A   1      39.509  31.927  33.429  1.00  0.00     0.167 HD
ATOM     43  C   UNL A   1      40.486  28.874  30.450  1.00  0.00     0.034 A 
ATOM     44  C   UNL A   1      39.616  33.063  35.985  1.00  0.00     0.034 A 
ATOM     45  C   UNL A   1      41.456  28.705  31.499  1.00  0.00     0.049 A 
ATOM     46  C   UNL A   1      40.696  32.016  35.944  1.00  0.00     0.074 A 
ATOM     47  C   UNL A   1      42.524  27.827  31.550  1.00  0.00     0.029 A 
ATOM     48  N   UNL A   1      41.468  29.419  32.687  1.00  0.00    -0.354 N 
ATOM     49  N   UNL A   1      41.027  31.209  34.965  1.00  0.00    -0.248 NA
ATOM     50  C   UNL A   1      41.532  31.876  37.145  1.00  0.00     0.031 C 
ATOM     51  C   UNL A   1      43.161  27.985  32.784  1.00  0.00     0.029 A 
ATOM     52  C   UNL A   1      42.516  28.992  33.485  1.00  0.00     0.049 A 
ATOM     53  H   UNL A   1      40.827  30.126  32.928  1.00  0.00     0.167 HD
ATOM     54  C   UNL A   1      42.129  30.494  35.417  1.00  0.00     0.074 A 
ATOM     55  C   UNL A   1      42.423  30.977  36.750  1.00  0.00     0.031 C 
ATOM     56  C   UNL A   1      42.828  29.515  34.790  1.00  0.00     0.034 A 
BRANCH  43  57
ATOM     57  C   UNL A   1      40.564  27.958  29.254  1.00  0.00     0.023 A 
ATOM     58  C   UNL A   1      39.709  26.839  29.174  1.00  0.00     0.012 A 
ATOM     59  C   UNL A   1      41.439  28.236  28.186  1.00  0.00     0.148 A 
ATOM     60  C   UNL A   1      39.750  25.991  28.068  1.00  0.00     0.002 A 
ATOM     61  C   UNL A   1      41.438  27.414  27.064  1.00  0.00     0.091 A 
ATOM     62  F   UNL A   1      42.257  29.292  28.287  1.00  0.00    -0.205 F 
ATOM     63  C   UNL A   1      40.605  26.284  27.010  1.00  0.00     0.022 A 
BRANCH  61  64
ATOM     64  S   UNL A   1      42.439  27.752  25.612  1.00  0.00     0.127 S 
ATOM     65  O   UNL A   1      41.898  29.040  25.174  1.00  0.00    -0.237 OA
ATOM     66  O   UNL A   1      43.787  27.819  26.178  1.00  0.00    -0.237 OA
ATOM     67  O   UNL A   1      42.215  26.640  24.700  1.00  0.00    -0.744 OA
ENDBRANCH  61  64
ENDBRANCH  43  57
BRANCH  44  68
ATOM     68  C   UNL A   1      39.416  33.909  37.196  1.00  0.00     0.023 A 
ATOM     69  C   UNL A   1      39.865  35.244  37.191  1.00  0.00     0.012 A 
ATOM     70  C   UNL A   1      38.764  33.409  38.340  1.00  0.00     0.148 A 
ATOM     71  C   UNL A   1      39.703  36.054  38.316  1.00  0.00     0.002 A 
ATOM     72  C   UNL A   1      38.553  34.238  39.435  1.00  0.00     0.091 A 
ATOM     73  F   UNL A   1      38.351  32.134  38.328  1.00  0.00    -0.205 F 
ATOM     74  C   UNL A   1      39.039  35.555  39.434  1.00  0.00     0.022 A 
BRANCH  72  75
ATOM     75  S   UNL A   1      37.592  33.724  40.863  1.00  0.00     0.127 S 
ATOM     76  O   UNL A   1      38.432  32.671  41.427  1.00  0.00    -0.237 OA
ATOM     77  O   UNL A   1      37.537  34.957  41.648  1.00  0.00    -0.237 OA
ATOM     78  O   UNL A   1      36.304  33.292  40.338  1.00  0.00    -0.744 OA
ENDBRANCH  72  75
ENDBRANCH  44  68
BRANCH  56  79
ATOM     79  C   UNL A   1      44.010  28.925  35.514  1.00  0.00     0.023 A 
ATOM     80  C   UNL A   1      45.293  29.484  35.345  1.00  0.00     0.012 A 
ATOM     81  C   UNL A   1      43.834  27.861  36.420  1.00  0.00     0.148 A 
ATOM     82  C   UNL A   1      46.386  28.969  36.039  1.00  0.00     0.002 A 
ATOM     83  C   UNL A   1      44.919  27.388  37.148  1.00  0.00     0.091 A 
ATOM     84  F   UNL A   1      42.609  27.332  36.555  1.00  0.00    -0.205 F 
ATOM     85  C   UNL A   1      46.198  27.931  36.948  1.00  0.00     0.022 A 
BRANCH  83  86
ATOM     86  S   UNL A   1      44.754  26.123  38.413  1.00  0.00     0.127 S 
ATOM     87  O   UNL A   1      46.151  25.850  38.746  1.00  0.00    -0.237 OA
ATOM     88  O   UNL A   1      44.005  26.826  39.456  1.00  0.00    -0.237 OA
ATOM     89  O   UNL A   1      44.034  25.021  37.790  1.00  0.00    -0.744 OA
ENDBRANCH  83  86
ENDBRANCH  56  79
ENDBRANCH  30  31
ENDBRANCH  22  25
ENDBRANCH  20  21
ENDBRANCH   1  20
TORSDOF 16
ENDMDL
MODEL 3
REMARK VINA RESULT:     -11.5      2.494      8.343
REMARK SMILES CC(C)(C[S@](=O)c1cccc(Cl)c1)C(=O)NCCCNC(=O)c1ccc(-c2c3nc(c(-c4cccc(S(=O)(=O)[O-])c4F)c4ccc([nH]4)c(-c4cccc(S(=O)(=O)[O-])c4F)c4nc(c(-c5cccc(S(=O)(=O)[O-])c5F)c5ccc2[nH]5)C=C4)C=C3)cc1
REMARK SMILES IDX 18 1 17 2 16 3 14 4 15 5 2 7 1 8 3 9 4 10 5 11 6 12 7 13
REMARK SMILES IDX 8 14 13 15 9 16 11 17 10 18 12 19 19 20 20 21 21 22 22 24
REMARK SMILES IDX 23 25 24 26 85 27 25 28 84 29 26 30 27 31 28 32 78 33 29 34
REMARK SMILES IDX 83 35 77 36 79 37 30 38 82 39 76 40 75 41 31 43 63 44 43 45
REMARK SMILES IDX 62 46 44 47 47 48 61 49 80 50 45 51 46 52 60 54 81 55 48 56
REMARK SMILES IDX 32 57 33 58 41 59 34 60 36 61 42 62 35 63 37 64 38 65 39 66
REMARK SMILES IDX 40 67 64 68 65 69 73 70 66 71 68 72 74 73 67 74 69 75 70 76
REMARK SMILES IDX 71 77 72 78 49 79 50 80 58 81 51 82 53 83 59 84 52 85 54 86
REMARK SMILES IDX 55 87 56 88 57 89
REMARK H PARENT 16 6 20 23 79 42 47 53
REMARK Flexibility Score: inf
ROOT
ATOM      1  C   UNL A   1      32.408  29.690  25.359  1.00  0.00     0.042 C 
ENDROOT
BRANCH   1   2
ATOM      2  C   UNL A   1      31.419  28.545  25.224  1.00  0.00     0.117 C 
BRANCH   2   3
ATOM      3  N   UNL A   1      30.959  28.327  23.866  1.00  0.00    -0.356 N 
ATOM      4  C   UNL A   1      31.474  27.632  22.817  1.00  0.00     0.226 C 
ATOM      5  O   UNL A   1      30.732  27.490  21.839  1.00  0.00    -0.274 OA
ATOM      6  H   UNL A   1      30.105  28.772  23.662  1.00  0.00     0.163 HD
BRANCH   4   7
ATOM      7  C   UNL A   1      32.880  27.002  22.843  1.00  0.00     0.055 C 
ATOM      8  C   UNL A   1      33.919  28.083  22.463  1.00  0.00     0.022 C 
ATOM      9  C   UNL A   1      33.003  25.965  21.699  1.00  0.00     0.022 C 
BRANCH   7  10
ATOM     10  C   UNL A   1      33.239  26.347  24.199  1.00  0.00     0.126 C 
BRANCH  10  11
ATOM     11  S   UNL A   1      32.933  24.557  24.441  1.00  0.00     0.054 S 
ATOM     12  O   UNL A   1      32.410  24.315  25.822  1.00  0.00    -0.254 OA
BRANCH  11  13
ATOM     13  C   UNL A   1      34.617  23.925  24.406  1.00  0.00     0.040 A 
ATOM     14  C   UNL A   1      35.055  23.187  23.301  1.00  0.00     0.018 A 
ATOM     15  C   UNL A   1      35.495  24.155  25.469  1.00  0.00     0.038 A 
ATOM     16  C   UNL A   1      36.379  22.748  23.226  1.00  0.00     0.003 A 
ATOM     17  C   UNL A   1      36.826  23.759  25.370  1.00  0.00     0.042 A 
ATOM     18  C   UNL A   1      37.273  23.059  24.250  1.00  0.00     0.020 A 
ATOM     19  Cl  UNL A   1      37.942  24.179  26.611  1.00  0.00    -0.084 Cl
ENDBRANCH  11  13
ENDBRANCH  10  11
ENDBRANCH   7  10
ENDBRANCH   4   7
ENDBRANCH   2   3
ENDBRANCH   1   2
BRANCH   1  20
ATOM     20  C   UNL A   1      32.747  30.063  26.794  1.00  0.00     0.118 C 
BRANCH  20  21
ATOM     21  N   UNL A   1      32.857  31.505  26.993  1.00  0.00    -0.352 N 
ATOM     22  C   UNL A   1      33.787  32.244  27.682  1.00  0.00     0.251 C 
ATOM     23  H   UNL A   1      32.149  32.035  26.562  1.00  0.00     0.163 HD
ATOM     24  O   UNL A   1      33.576  33.441  27.882  1.00  0.00    -0.269 OA
BRANCH  22  25
ATOM     25  C   UNL A   1      35.022  31.618  28.201  1.00  0.00     0.039 A 
ATOM     26  C   UNL A   1      36.205  32.364  28.228  1.00  0.00     0.014 A 
ATOM     27  C   UNL A   1      35.029  30.294  28.645  1.00  0.00     0.014 A 
ATOM     28  C   UNL A   1      37.367  31.807  28.768  1.00  0.00     0.010 A 
ATOM     29  C   UNL A   1      36.156  29.779  29.276  1.00  0.00     0.010 A 
ATOM     30  C   UNL A   1      37.342  30.523  29.336  1.00  0.00    -0.014 A 
BRANCH  30  31
ATOM     31  C   UNL A   1      38.537  29.945  30.003  1.00  0.00     0.031 A 
ATOM     32  C   UNL A   1      38.975  30.451  31.352  1.00  0.00     0.074 A 
ATOM     33  C   UNL A   1      39.284  29.029  29.353  1.00  0.00     0.049 A 
ATOM     34  N   UNL A   1      40.025  30.115  32.058  1.00  0.00    -0.248 NA
ATOM     35  C   UNL A   1      38.140  31.490  31.981  1.00  0.00     0.031 C 
ATOM     36  C   UNL A   1      39.013  28.518  28.007  1.00  0.00     0.029 A 
ATOM     37  N   UNL A   1      40.439  28.387  29.724  1.00  0.00    -0.354 N 
ATOM     38  C   UNL A   1      39.999  30.925  33.187  1.00  0.00     0.074 A 
ATOM     39  C   UNL A   1      38.850  31.795  33.057  1.00  0.00     0.031 C 
ATOM     40  C   UNL A   1      39.968  27.638  27.669  1.00  0.00     0.029 A 
ATOM     41  C   UNL A   1      40.940  27.549  28.754  1.00  0.00     0.049 A 
ATOM     42  H   UNL A   1      40.868  28.513  30.600  1.00  0.00     0.167 HD
ATOM     43  C   UNL A   1      40.837  30.929  34.250  1.00  0.00     0.034 A 
ATOM     44  C   UNL A   1      42.062  26.803  28.733  1.00  0.00     0.034 A 
ATOM     45  C   UNL A   1      41.956  30.037  34.394  1.00  0.00     0.049 A 
ATOM     46  C   UNL A   1      42.959  26.800  29.942  1.00  0.00     0.074 A 
ATOM     47  C   UNL A   1      42.812  29.898  35.472  1.00  0.00     0.029 A 
ATOM     48  N   UNL A   1      42.386  29.144  33.425  1.00  0.00    -0.354 N 
ATOM     49  N   UNL A   1      42.827  27.457  31.069  1.00  0.00    -0.248 NA
ATOM     50  C   UNL A   1      44.140  25.926  29.891  1.00  0.00     0.031 C 
ATOM     51  C   UNL A   1      43.780  28.944  35.142  1.00  0.00     0.029 A 
ATOM     52  C   UNL A   1      43.503  28.459  33.874  1.00  0.00     0.049 A 
ATOM     53  H   UNL A   1      41.959  29.014  32.547  1.00  0.00     0.167 HD
ATOM     54  C   UNL A   1      43.884  27.048  31.874  1.00  0.00     0.074 A 
ATOM     55  C   UNL A   1      44.635  26.071  31.112  1.00  0.00     0.031 C 
ATOM     56  C   UNL A   1      44.212  27.453  33.126  1.00  0.00     0.034 A 
BRANCH  43  57
ATOM     57  C   UNL A   1      40.552  31.899  35.368  1.00  0.00     0.023 A 
ATOM     58  C   UNL A   1      41.373  33.034  35.535  1.00  0.00     0.012 A 
ATOM     59  C   UNL A   1      39.439  31.723  36.213  1.00  0.00     0.148 A 
ATOM     60  C   UNL A   1      41.116  33.955  36.550  1.00  0.00     0.002 A 
ATOM     61  C   UNL A   1      39.160  32.672  37.190  1.00  0.00     0.091 A 
ATOM     62  F   UNL A   1      38.680  30.630  36.052  1.00  0.00    -0.205 F 
ATOM     63  C   UNL A   1      40.004  33.780  37.368  1.00  0.00     0.022 A 
BRANCH  61  64
ATOM     64  S   UNL A   1      37.705  32.585  38.240  1.00  0.00     0.127 S 
ATOM     65  O   UNL A   1      36.637  32.904  37.292  1.00  0.00    -0.237 OA
ATOM     66  O   UNL A   1      37.730  31.191  38.683  1.00  0.00    -0.237 OA
ATOM     67  O   UNL A   1      37.912  33.564  39.297  1.00  0.00    -0.744 OA
ENDBRANCH  61  64
ENDBRANCH  43  57
BRANCH  44  68
ATOM     68  C   UNL A   1      42.372  25.954  27.548  1.00  0.00     0.023 A 
ATOM     69  C   UNL A   1      43.106  26.501  26.477  1.00  0.00     0.012 A 
ATOM     70  C   UNL A   1      41.967  24.607  27.485  1.00  0.00     0.148 A 
ATOM     71  C   UNL A   1      43.398  25.733  25.349  1.00  0.00     0.002 A 
ATOM     72  C   UNL A   1      42.312  23.831  26.384  1.00  0.00     0.091 A 
ATOM     73  F   UNL A   1      41.262  24.108  28.510  1.00  0.00    -0.205 F 
ATOM     74  C   UNL A   1      43.010  24.397  25.306  1.00  0.00     0.022 A 
BRANCH  72  75
ATOM     75  S   UNL A   1      41.972  22.069  26.302  1.00  0.00     0.127 S 
ATOM     76  O   UNL A   1      40.531  22.052  26.060  1.00  0.00    -0.237 OA
ATOM     77  O   UNL A   1      42.794  21.657  25.165  1.00  0.00    -0.237 OA
ATOM     78  O   UNL A   1      42.402  21.523  27.582  1.00  0.00    -0.744 OA
ENDBRANCH  72  75
ENDBRANCH  44  68
BRANCH  56  79
ATOM     79  C   UNL A   1      45.410  26.814  33.778  1.00  0.00     0.023 A 
ATOM     80  C   UNL A   1      46.678  27.420  33.677  1.00  0.00     0.012 A 
ATOM     81  C   UNL A   1      45.261  25.647  34.554  1.00  0.00     0.148 A 
ATOM     82  C   UNL A   1      47.785  26.855  34.308  1.00  0.00     0.002 A 
ATOM     83  C   UNL A   1      46.359  25.121  35.224  1.00  0.00     0.091 A 
ATOM     84  F   UNL A   1      44.050  25.076  34.625  1.00  0.00    -0.205 F 
ATOM     85  C   UNL A   1      47.624  25.715  35.090  1.00  0.00     0.022 A 
BRANCH  83  86
ATOM     86  S   UNL A   1      46.227  23.714  36.333  1.00  0.00     0.127 S 
ATOM     87  O   UNL A   1      47.613  23.546  36.768  1.00  0.00    -0.237 OA
ATOM     88  O   UNL A   1      45.322  24.220  37.367  1.00  0.00    -0.237 OA
ATOM     89  O   UNL A   1      45.685  22.621  35.538  1.00  0.00    -0.744 OA
ENDBRANCH  83  86
ENDBRANCH  56  79
ENDBRANCH  30  31
ENDBRANCH  22  25
ENDBRANCH  20  21
ENDBRANCH   1  20
TORSDOF 16
ENDMDL
