MODEL 1
REMARK VINA RESULT:     -12.4      0.000      0.000
REMARK SMILES COc1ccc(-c2cc(C(=O)NCCCNC(=O)c3ccc(-c4c5nc(c(-c6cccc(S(=O)(=O)[O-])c6F)c6ccc([nH]6)c(-c6cccc(S(=O)(=O)[O-])c6F)c6nc(c(-c7cccc(S(=O)(=O)[O-])c7F)c7ccc4[nH]7)C=C6)C=C5)cc3)nc(=O)n2C)cc1
REMARK SMILES IDX 14 1 13 2 12 3 10 4 11 5 9 7 7 8 8 9 85 10 83 11 86 12 82 13
REMARK SMILES IDX 84 14 6 15 3 16 4 17 88 18 5 19 87 20 2 21 1 22 15 23 16 24
REMARK SMILES IDX 17 25 18 27 19 28 20 29 81 30 21 31 80 32 22 33 23 34 24 35
REMARK SMILES IDX 74 36 25 37 79 38 73 39 75 40 26 41 78 42 72 43 71 44 27 46
REMARK SMILES IDX 59 47 39 48 58 49 40 50 43 51 57 52 76 53 41 54 42 55 56 57
REMARK SMILES IDX 77 58 44 59 28 60 29 61 37 62 30 63 32 64 38 65 31 66 33 67
REMARK SMILES IDX 34 68 35 69 36 70 60 71 61 72 69 73 62 74 64 75 70 76 63 77
REMARK SMILES IDX 65 78 66 79 67 80 68 81 45 82 46 83 54 84 47 85 49 86 55 87
REMARK SMILES IDX 48 88 50 89 51 90 52 91 53 92
REMARK H PARENT 12 6 16 26 75 45 43 56
REMARK Flexibility Score: inf
ROOT
ATOM      1  C   UNL A   1      31.731  31.577  26.502  1.00  0.00     0.042 C 
ENDROOT
BRANCH   1   2
ATOM      2  C   UNL A   1      32.086  30.158  26.070  1.00  0.00     0.118 C 
BRANCH   2   3
ATOM      3  N   UNL A   1      31.753  29.922  24.675  1.00  0.00    -0.351 N 
ATOM      4  C   UNL A   1      31.547  28.755  23.983  1.00  0.00     0.270 C 
ATOM      5  O   UNL A   1      31.308  28.811  22.777  1.00  0.00    -0.268 OA
ATOM      6  H   UNL A   1      31.660  30.739  24.134  1.00  0.00     0.163 HD
BRANCH   4   7
ATOM      7  C   UNL A   1      31.558  27.384  24.666  1.00  0.00     0.136 A 
ATOM      8  C   UNL A   1      32.783  25.373  25.014  1.00  0.00     0.055 A 
ATOM      9  C   UNL A   1      32.762  26.571  24.423  1.00  0.00     0.061 A 
ATOM     10  N   UNL A   1      31.712  24.953  25.785  1.00  0.00    -0.295 N 
ATOM     11  C   UNL A   1      30.569  25.749  25.940  1.00  0.00     0.348 A 
ATOM     12  C   UNL A   1      31.681  23.669  26.466  1.00  0.00     0.155 C 
ATOM     13  N   UNL A   1      30.559  26.997  25.382  1.00  0.00    -0.188 NA
ATOM     14  O   UNL A   1      29.580  25.332  26.539  1.00  0.00    -0.246 OA
BRANCH   8  15
ATOM     15  C   UNL A   1      33.968  24.531  24.774  1.00  0.00    -0.001 A 
ATOM     16  C   UNL A   1      36.272  23.003  24.267  1.00  0.00     0.118 A 
ATOM     17  C   UNL A   1      36.169  23.755  25.438  1.00  0.00     0.047 A 
ATOM     18  C   UNL A   1      35.213  22.995  23.358  1.00  0.00     0.047 A 
ATOM     19  C   UNL A   1      35.028  24.519  25.690  1.00  0.00     0.014 A 
ATOM     20  C   UNL A   1      34.072  23.764  23.605  1.00  0.00     0.014 A 
BRANCH  16  21
ATOM     21  O   UNL A   1      37.428  22.283  24.131  1.00  0.00    -0.497 OA
ATOM     22  C   UNL A   1      37.979  21.789  25.347  1.00  0.00     0.278 C 
ENDBRANCH  16  21
ENDBRANCH   8  15
ENDBRANCH   4   7
ENDBRANCH   2   3
ENDBRANCH   1   2
BRANCH   1  23
ATOM     23  C   UNL A   1      32.806  32.227  27.372  1.00  0.00     0.118 C 
BRANCH  23  24
ATOM     24  N   UNL A   1      32.557  33.648  27.599  1.00  0.00    -0.352 N 
ATOM     25  C   UNL A   1      33.088  34.504  28.533  1.00  0.00     0.251 C 
ATOM     26  H   UNL A   1      31.906  34.057  26.986  1.00  0.00     0.163 HD
ATOM     27  O   UNL A   1      32.580  35.608  28.704  1.00  0.00    -0.269 OA
BRANCH  25  28
ATOM     28  C   UNL A   1      34.260  34.094  29.331  1.00  0.00     0.039 A 
ATOM     29  C   UNL A   1      34.060  33.418  30.538  1.00  0.00     0.014 A 
ATOM     30  C   UNL A   1      35.554  34.385  28.892  1.00  0.00     0.014 A 
ATOM     31  C   UNL A   1      35.162  32.960  31.263  1.00  0.00     0.010 A 
ATOM     32  C   UNL A   1      36.645  33.860  29.572  1.00  0.00     0.010 A 
ATOM     33  C   UNL A   1      36.462  33.137  30.760  1.00  0.00    -0.014 A 
BRANCH  33  34
ATOM     34  C   UNL A   1      37.643  32.538  31.432  1.00  0.00     0.031 A 
ATOM     35  C   UNL A   1      38.373  31.385  30.802  1.00  0.00     0.074 A 
ATOM     36  C   UNL A   1      37.988  32.967  32.663  1.00  0.00     0.049 A 
ATOM     37  N   UNL A   1      39.365  30.679  31.278  1.00  0.00    -0.248 NA
ATOM     38  C   UNL A   1      37.910  30.952  29.474  1.00  0.00     0.031 C 
ATOM     39  C   UNL A   1      37.315  34.036  33.405  1.00  0.00     0.029 A 
ATOM     40  N   UNL A   1      38.971  32.538  33.518  1.00  0.00    -0.354 N 
ATOM     41  C   UNL A   1      39.626  29.701  30.326  1.00  0.00     0.074 A 
ATOM     42  C   UNL A   1      38.660  29.880  29.264  1.00  0.00     0.031 C 
ATOM     43  C   UNL A   1      37.912  34.186  34.598  1.00  0.00     0.029 A 
ATOM     44  C   UNL A   1      38.978  33.199  34.724  1.00  0.00     0.049 A 
ATOM     45  H   UNL A   1      39.610  31.824  33.290  1.00  0.00     0.167 HD
ATOM     46  C   UNL A   1      40.596  28.756  30.323  1.00  0.00     0.034 A 
ATOM     47  C   UNL A   1      39.748  33.020  35.815  1.00  0.00     0.034 A 
ATOM     48  C   UNL A   1      41.563  28.594  31.376  1.00  0.00     0.049 A 
ATOM     49  C   UNL A   1      40.809  31.955  35.794  1.00  0.00     0.074 A 
ATOM     50  C   UNL A   1      42.630  27.716  31.437  1.00  0.00     0.029 A 
ATOM     51  N   UNL A   1      41.570  29.314  32.562  1.00  0.00    -0.354 N 
ATOM     52  N   UNL A   1      41.135  31.134  34.825  1.00  0.00    -0.248 NA
ATOM     53  C   UNL A   1      41.627  31.809  37.006  1.00  0.00     0.031 C 
ATOM     54  C   UNL A   1      43.260  27.879  32.676  1.00  0.00     0.029 A 
ATOM     55  C   UNL A   1      42.610  28.887  33.371  1.00  0.00     0.049 A 
ATOM     56  H   UNL A   1      40.930  30.025  32.795  1.00  0.00     0.167 HD
ATOM     57  C   UNL A   1      42.218  30.400  35.296  1.00  0.00     0.074 A 
ATOM     58  C   UNL A   1      42.502  30.887  36.631  1.00  0.00     0.031 C 
ATOM     59  C   UNL A   1      42.908  29.407  34.681  1.00  0.00     0.034 A 
BRANCH  46  60
ATOM     60  C   UNL A   1      40.677  27.847  29.122  1.00  0.00     0.023 A 
ATOM     61  C   UNL A   1      39.843  26.711  29.049  1.00  0.00     0.012 A 
ATOM     62  C   UNL A   1      41.552  28.127  28.054  1.00  0.00     0.148 A 
ATOM     63  C   UNL A   1      39.916  25.840  27.963  1.00  0.00     0.002 A 
ATOM     64  C   UNL A   1      41.584  27.282  26.950  1.00  0.00     0.091 A 
ATOM     65  F   UNL A   1      42.351  29.200  28.144  1.00  0.00    -0.205 F 
ATOM     66  C   UNL A   1      40.780  26.131  26.910  1.00  0.00     0.022 A 
BRANCH  64  67
ATOM     67  S   UNL A   1      42.601  27.612  25.506  1.00  0.00     0.127 S 
ATOM     68  O   UNL A   1      42.309  26.449  24.669  1.00  0.00    -0.237 OA
ATOM     69  O   UNL A   1      42.040  28.871  25.017  1.00  0.00    -0.237 OA
ATOM     70  O   UNL A   1      43.969  27.706  25.993  1.00  0.00    -0.744 OA
ENDBRANCH  64  67
ENDBRANCH  46  60
BRANCH  47  71
ATOM     71  C   UNL A   1      39.584  33.916  36.994  1.00  0.00     0.023 A 
ATOM     72  C   UNL A   1      40.020  35.253  36.905  1.00  0.00     0.012 A 
ATOM     73  C   UNL A   1      38.973  33.471  38.182  1.00  0.00     0.148 A 
ATOM     74  C   UNL A   1      39.878  36.122  37.987  1.00  0.00     0.002 A 
ATOM     75  C   UNL A   1      38.786  34.355  39.238  1.00  0.00     0.091 A 
ATOM     76  F   UNL A   1      38.570  32.194  38.247  1.00  0.00    -0.205 F 
ATOM     77  C   UNL A   1      39.253  35.677  39.149  1.00  0.00     0.022 A 
BRANCH  75  78
ATOM     78  S   UNL A   1      37.888  33.911  40.729  1.00  0.00     0.127 S 
ATOM     79  O   UNL A   1      38.830  33.010  41.388  1.00  0.00    -0.237 OA
ATOM     80  O   UNL A   1      37.722  35.212  41.376  1.00  0.00    -0.237 OA
ATOM     81  O   UNL A   1      36.647  33.299  40.275  1.00  0.00    -0.744 OA
ENDBRANCH  75  78
ENDBRANCH  47  71
BRANCH  59  82
ATOM     82  C   UNL A   1      44.067  28.796  35.428  1.00  0.00     0.023 A 
ATOM     83  C   UNL A   1      45.360  29.333  35.283  1.00  0.00     0.012 A 
ATOM     84  C   UNL A   1      43.854  27.738  36.335  1.00  0.00     0.148 A 
ATOM     85  C   UNL A   1      46.431  28.808  36.005  1.00  0.00     0.002 A 
ATOM     86  C   UNL A   1      44.915  27.254  37.091  1.00  0.00     0.091 A 
ATOM     87  F   UNL A   1      42.618  27.231  36.447  1.00  0.00    -0.205 F 
ATOM     88  C   UNL A   1      46.206  27.779  36.918  1.00  0.00     0.022 A 
BRANCH  86  89
ATOM     89  S   UNL A   1      44.707  26.001  38.361  1.00  0.00     0.127 S 
ATOM     90  O   UNL A   1      46.078  25.838  38.844  1.00  0.00    -0.237 OA
ATOM     91  O   UNL A   1      43.804  26.662  39.301  1.00  0.00    -0.237 OA
ATOM     92  O   UNL A   1      44.143  24.836  37.691  1.00  0.00    -0.744 OA
ENDBRANCH  86  89
ENDBRANCH  59  82
ENDBRANCH  33  34
ENDBRANCH  25  28
ENDBRANCH  23  24
ENDBRANCH   1  23
TORSDOF 15
ENDMDL
MODEL 2
REMARK VINA RESULT:     -12.2      5.805      9.297
REMARK SMILES COc1ccc(-c2cc(C(=O)NCCCNC(=O)c3ccc(-c4c5nc(c(-c6cccc(S(=O)(=O)[O-])c6F)c6ccc([nH]6)c(-c6cccc(S(=O)(=O)[O-])c6F)c6nc(c(-c7cccc(S(=O)(=O)[O-])c7F)c7ccc4[nH]7)C=C6)C=C5)cc3)nc(=O)n2C)cc1
REMARK SMILES IDX 14 1 13 2 12 3 10 4 11 5 9 7 7 8 8 9 85 10 83 11 86 12 82 13
REMARK SMILES IDX 84 14 6 15 3 16 4 17 88 18 5 19 87 20 2 21 1 22 15 23 16 24
REMARK SMILES IDX 17 25 18 27 19 28 20 29 81 30 21 31 80 32 22 33 23 34 24 35
REMARK SMILES IDX 74 36 25 37 79 38 73 39 75 40 26 41 78 42 72 43 71 44 27 46
REMARK SMILES IDX 59 47 39 48 58 49 40 50 43 51 57 52 76 53 41 54 42 55 56 57
REMARK SMILES IDX 77 58 44 59 28 60 29 61 37 62 30 63 32 64 38 65 31 66 33 67
REMARK SMILES IDX 34 68 35 69 36 70 60 71 61 72 69 73 62 74 64 75 70 76 63 77
REMARK SMILES IDX 65 78 66 79 67 80 68 81 45 82 46 83 54 84 47 85 49 86 55 87
REMARK SMILES IDX 48 88 50 89 51 90 52 91 53 92
REMARK H PARENT 12 6 16 26 75 45 43 56
REMARK Flexibility Score: inf
ROOT
ATOM      1  C   UNL A   1      36.346  20.644  24.981  1.00  0.00     0.042 C 
ENDROOT
BRANCH   1   2
ATOM      2  C   UNL A   1      35.435  21.359  25.973  1.00  0.00     0.118 C 
BRANCH   2   3
ATOM      3  N   UNL A   1      34.059  20.901  25.866  1.00  0.00    -0.351 N 
ATOM      4  C   UNL A   1      32.967  21.464  25.255  1.00  0.00     0.270 C 
ATOM      5  O   UNL A   1      31.879  20.894  25.335  1.00  0.00    -0.268 OA
ATOM      6  H   UNL A   1      33.880  20.041  26.309  1.00  0.00     0.163 HD
BRANCH   4   7
ATOM      7  C   UNL A   1      33.061  22.755  24.437  1.00  0.00     0.136 A 
ATOM      8  C   UNL A   1      33.031  25.135  24.512  1.00  0.00     0.055 A 
ATOM      9  C   UNL A   1      32.951  24.001  25.215  1.00  0.00     0.061 A 
ATOM     10  N   UNL A   1      33.191  25.096  23.137  1.00  0.00    -0.295 N 
ATOM     11  C   UNL A   1      33.240  23.879  22.442  1.00  0.00     0.348 A 
ATOM     12  C   UNL A   1      33.301  26.292  22.317  1.00  0.00     0.155 C 
ATOM     13  N   UNL A   1      33.210  22.714  23.157  1.00  0.00    -0.188 NA
ATOM     14  O   UNL A   1      33.279  23.849  21.214  1.00  0.00    -0.246 OA
BRANCH   8  15
ATOM     15  C   UNL A   1      32.906  26.396  25.262  1.00  0.00    -0.001 A 
ATOM     16  C   UNL A   1      32.688  28.853  26.609  1.00  0.00     0.118 A 
ATOM     17  C   UNL A   1      31.564  28.268  26.025  1.00  0.00     0.047 A 
ATOM     18  C   UNL A   1      33.919  28.200  26.542  1.00  0.00     0.047 A 
ATOM     19  C   UNL A   1      31.670  27.050  25.351  1.00  0.00     0.014 A 
ATOM     20  C   UNL A   1      34.029  26.983  25.863  1.00  0.00     0.014 A 
BRANCH  16  21
ATOM     21  O   UNL A   1      32.463  30.039  27.254  1.00  0.00    -0.497 OA
ATOM     22  C   UNL A   1      31.769  31.020  26.492  1.00  0.00     0.278 C 
ENDBRANCH  16  21
ENDBRANCH   8  15
ENDBRANCH   4   7
ENDBRANCH   2   3
ENDBRANCH   1   2
BRANCH   1  23
ATOM     23  C   UNL A   1      37.788  21.147  25.018  1.00  0.00     0.118 C 
BRANCH  23  24
ATOM     24  N   UNL A   1      38.687  20.219  25.699  1.00  0.00    -0.352 N 
ATOM     25  C   UNL A   1      39.844  20.457  26.399  1.00  0.00     0.251 C 
ATOM     26  H   UNL A   1      38.422  19.273  25.646  1.00  0.00     0.163 HD
ATOM     27  O   UNL A   1      40.575  19.518  26.702  1.00  0.00    -0.269 OA
BRANCH  25  28
ATOM     28  C   UNL A   1      40.208  21.835  26.782  1.00  0.00     0.039 A 
ATOM     29  C   UNL A   1      41.156  22.034  27.789  1.00  0.00     0.014 A 
ATOM     30  C   UNL A   1      39.608  22.928  26.154  1.00  0.00     0.014 A 
ATOM     31  C   UNL A   1      41.563  23.331  28.107  1.00  0.00     0.010 A 
ATOM     32  C   UNL A   1      40.071  24.212  26.414  1.00  0.00     0.010 A 
ATOM     33  C   UNL A   1      41.057  24.427  27.388  1.00  0.00    -0.014 A 
BRANCH  33  34
ATOM     34  C   UNL A   1      41.574  25.802  27.602  1.00  0.00     0.031 A 
ATOM     35  C   UNL A   1      42.968  26.166  27.174  1.00  0.00     0.074 A 
ATOM     36  C   UNL A   1      40.821  26.690  28.281  1.00  0.00     0.049 A 
ATOM     37  N   UNL A   1      43.621  27.284  27.356  1.00  0.00    -0.248 NA
ATOM     38  C   UNL A   1      43.740  25.127  26.473  1.00  0.00     0.031 C 
ATOM     39  C   UNL A   1      39.477  26.434  28.804  1.00  0.00     0.029 A 
ATOM     40  N   UNL A   1      41.089  27.978  28.673  1.00  0.00    -0.354 N 
ATOM     41  C   UNL A   1      44.887  27.076  26.822  1.00  0.00     0.074 A 
ATOM     42  C   UNL A   1      44.923  25.710  26.345  1.00  0.00     0.031 C 
ATOM     43  C   UNL A   1      39.034  27.531  29.437  1.00  0.00     0.029 A 
ATOM     44  C   UNL A   1      40.076  28.552  29.404  1.00  0.00     0.049 A 
ATOM     45  H   UNL A   1      41.927  28.445  28.452  1.00  0.00     0.167 HD
ATOM     46  C   UNL A   1      45.917  27.949  26.713  1.00  0.00     0.034 A 
ATOM     47  C   UNL A   1      40.000  29.761  29.994  1.00  0.00     0.034 A 
ATOM     48  C   UNL A   1      45.868  29.311  27.176  1.00  0.00     0.049 A 
ATOM     49  C   UNL A   1      41.161  30.707  29.873  1.00  0.00     0.074 A 
ATOM     50  C   UNL A   1      46.830  30.297  27.050  1.00  0.00     0.029 A 
ATOM     51  N   UNL A   1      44.807  29.873  27.869  1.00  0.00    -0.354 N 
ATOM     52  N   UNL A   1      42.296  30.544  29.238  1.00  0.00    -0.248 NA
ATOM     53  C   UNL A   1      41.022  32.015  30.527  1.00  0.00     0.031 C 
ATOM     54  C   UNL A   1      46.365  31.446  27.700  1.00  0.00     0.029 A 
ATOM     55  C   UNL A   1      45.097  31.187  28.197  1.00  0.00     0.049 A 
ATOM     56  H   UNL A   1      43.970  29.408  28.095  1.00  0.00     0.167 HD
ATOM     57  C   UNL A   1      42.990  31.740  29.383  1.00  0.00     0.074 A 
ATOM     58  C   UNL A   1      42.139  32.624  30.154  1.00  0.00     0.031 C 
ATOM     59  C   UNL A   1      44.224  32.071  28.929  1.00  0.00     0.034 A 
BRANCH  46  60
ATOM     60  C   UNL A   1      47.173  27.460  26.036  1.00  0.00     0.023 A 
ATOM     61  C   UNL A   1      47.366  27.711  24.660  1.00  0.00     0.012 A 
ATOM     62  C   UNL A   1      48.174  26.780  26.758  1.00  0.00     0.148 A 
ATOM     63  C   UNL A   1      48.505  27.247  24.003  1.00  0.00     0.002 A 
ATOM     64  C   UNL A   1      49.331  26.366  26.107  1.00  0.00     0.091 A 
ATOM     65  F   UNL A   1      47.970  26.534  28.059  1.00  0.00    -0.205 F 
ATOM     66  C   UNL A   1      49.490  26.584  24.729  1.00  0.00     0.022 A 
BRANCH  64  67
ATOM     67  S   UNL A   1      50.695  25.575  26.968  1.00  0.00     0.127 S 
ATOM     68  O   UNL A   1      50.020  24.454  27.620  1.00  0.00    -0.237 OA
ATOM     69  O   UNL A   1      51.576  25.195  25.864  1.00  0.00    -0.237 OA
ATOM     70  O   UNL A   1      51.243  26.583  27.862  1.00  0.00    -0.744 OA
ENDBRANCH  64  67
ENDBRANCH  46  60
BRANCH  47  71
ATOM     71  C   UNL A   1      38.750  30.166  30.698  1.00  0.00     0.023 A 
ATOM     72  C   UNL A   1      38.591  29.835  32.057  1.00  0.00     0.012 A 
ATOM     73  C   UNL A   1      37.741  30.903  30.047  1.00  0.00     0.148 A 
ATOM     74  C   UNL A   1      37.436  30.202  32.749  1.00  0.00     0.002 A 
ATOM     75  C   UNL A   1      36.617  31.312  30.755  1.00  0.00     0.091 A 
ATOM     76  F   UNL A   1      37.911  31.203  28.752  1.00  0.00    -0.205 F 
ATOM     77  C   UNL A   1      36.455  30.949  32.102  1.00  0.00     0.022 A 
BRANCH  75  78
ATOM     78  S   UNL A   1      35.356  32.375  30.044  1.00  0.00     0.127 S 
ATOM     79  O   UNL A   1      34.894  31.575  28.913  1.00  0.00    -0.237 OA
ATOM     80  O   UNL A   1      34.404  32.490  31.149  1.00  0.00    -0.237 OA
ATOM     81  O   UNL A   1      36.034  33.617  29.699  1.00  0.00    -0.744 OA
ENDBRANCH  75  78
ENDBRANCH  47  71
BRANCH  59  82
ATOM     82  C   UNL A   1      44.725  33.464  29.218  1.00  0.00     0.023 A 
ATOM     83  C   UNL A   1      45.376  33.739  30.436  1.00  0.00     0.012 A 
ATOM     84  C   UNL A   1      44.618  34.479  28.246  1.00  0.00     0.148 A 
ATOM     85  C   UNL A   1      45.887  35.010  30.695  1.00  0.00     0.002 A 
ATOM     86  C   UNL A   1      45.176  35.728  28.489  1.00  0.00     0.091 A 
ATOM     87  F   UNL A   1      43.981  34.201  27.099  1.00  0.00    -0.205 F 
ATOM     88  C   UNL A   1      45.799  35.999  29.718  1.00  0.00     0.022 A 
BRANCH  86  89
ATOM     89  S   UNL A   1      45.200  37.034  27.256  1.00  0.00     0.127 S 
ATOM     90  O   UNL A   1      45.839  38.124  27.992  1.00  0.00    -0.237 OA
ATOM     91  O   UNL A   1      46.024  36.446  26.201  1.00  0.00    -0.237 OA
ATOM     92  O   UNL A   1      43.810  37.267  26.885  1.00  0.00    -0.744 OA
ENDBRANCH  86  89
ENDBRANCH  59  82
ENDBRANCH  33  34
ENDBRANCH  25  28
ENDBRANCH  23  24
ENDBRANCH   1  23
TORSDOF 15
ENDMDL
MODEL 3
REMARK VINA RESULT:     -12.2      5.819      9.098
REMARK SMILES COc1ccc(-c2cc(C(=O)NCCCNC(=O)c3ccc(-c4c5nc(c(-c6cccc(S(=O)(=O)[O-])c6F)c6ccc([nH]6)c(-c6cccc(S(=O)(=O)[O-])c6F)c6nc(c(-c7cccc(S(=O)(=O)[O-])c7F)c7ccc4[nH]7)C=C6)C=C5)cc3)nc(=O)n2C)cc1
REMARK SMILES IDX 14 1 13 2 12 3 10 4 11 5 9 7 7 8 8 9 85 10 83 11 86 12 82 13
REMARK SMILES IDX 84 14 6 15 3 16 4 17 88 18 5 19 87 20 2 21 1 22 15 23 16 24
REMARK SMILES IDX 17 25 18 27 19 28 20 29 81 30 21 31 80 32 22 33 23 34 24 35
REMARK SMILES IDX 74 36 25 37 79 38 73 39 75 40 26 41 78 42 72 43 71 44 27 46
REMARK SMILES IDX 59 47 39 48 58 49 40 50 43 51 57 52 76 53 41 54 42 55 56 57
REMARK SMILES IDX 77 58 44 59 28 60 29 61 37 62 30 63 32 64 38 65 31 66 33 67
REMARK SMILES IDX 34 68 35 69 36 70 60 71 61 72 69 73 62 74 64 75 70 76 63 77
REMARK SMILES IDX 65 78 66 79 67 80 68 81 45 82 46 83 54 84 47 85 49 86 55 87
REMARK SMILES IDX 48 88 50 89 51 90 52 91 53 92
REMARK H PARENT 12 6 16 26 75 45 43 56
REMARK Flexibility Score: inf
ROOT
ATOM      1  C   UNL A   1      36.234  20.662  25.084  1.00  0.00     0.042 C 
ENDROOT
BRANCH   1   2
ATOM      2  C   UNL A   1      35.254  21.292  26.067  1.00  0.00     0.118 C 
BRANCH   2   3
ATOM      3  N   UNL A   1      33.896  20.818  25.851  1.00  0.00    -0.351 N 
ATOM      4  C   UNL A   1      32.857  21.356  25.135  1.00  0.00     0.270 C 
ATOM      5  O   UNL A   1      31.771  20.777  25.132  1.00  0.00    -0.268 OA
ATOM      6  H   UNL A   1      33.687  19.965  26.296  1.00  0.00     0.163 HD
BRANCH   4   7
ATOM      7  C   UNL A   1      33.011  22.630  24.299  1.00  0.00     0.136 A 
ATOM      8  C   UNL A   1      33.015  25.010  24.330  1.00  0.00     0.055 A 
ATOM      9  C   UNL A   1      32.882  23.891  25.048  1.00  0.00     0.061 A 
ATOM     10  N   UNL A   1      33.241  24.944  22.965  1.00  0.00    -0.295 N 
ATOM     11  C   UNL A   1      33.304  23.714  22.296  1.00  0.00     0.348 A 
ATOM     12  C   UNL A   1      33.410  26.122  22.131  1.00  0.00     0.155 C 
ATOM     13  N   UNL A   1      33.221  22.563  23.029  1.00  0.00    -0.188 NA
ATOM     14  O   UNL A   1      33.402  23.660  21.071  1.00  0.00    -0.246 OA
BRANCH   8  15
ATOM     15  C   UNL A   1      32.873  26.287  25.051  1.00  0.00    -0.001 A 
ATOM     16  C   UNL A   1      32.575  28.672  26.509  1.00  0.00     0.118 A 
ATOM     17  C   UNL A   1      33.806  28.015  26.477  1.00  0.00     0.047 A 
ATOM     18  C   UNL A   1      31.497  28.151  25.792  1.00  0.00     0.047 A 
ATOM     19  C   UNL A   1      33.956  26.827  25.758  1.00  0.00     0.014 A 
ATOM     20  C   UNL A   1      31.642  26.959  25.076  1.00  0.00     0.014 A 
BRANCH  16  21
ATOM     21  O   UNL A   1      32.548  29.832  27.233  1.00  0.00    -0.497 OA
ATOM     22  C   UNL A   1      31.915  30.933  26.589  1.00  0.00     0.278 C 
ENDBRANCH  16  21
ENDBRANCH   8  15
ENDBRANCH   4   7
ENDBRANCH   2   3
ENDBRANCH   1   2
BRANCH   1  23
ATOM     23  C   UNL A   1      37.624  21.294  25.134  1.00  0.00     0.118 C 
BRANCH  23  24
ATOM     24  N   UNL A   1      38.637  20.376  25.650  1.00  0.00    -0.352 N 
ATOM     25  C   UNL A   1      39.854  20.633  26.230  1.00  0.00     0.251 C 
ATOM     26  H   UNL A   1      38.411  19.422  25.568  1.00  0.00     0.163 HD
ATOM     27  O   UNL A   1      40.658  19.718  26.390  1.00  0.00    -0.269 OA
BRANCH  25  28
ATOM     28  C   UNL A   1      40.198  22.005  26.656  1.00  0.00     0.039 A 
ATOM     29  C   UNL A   1      41.115  22.186  27.694  1.00  0.00     0.014 A 
ATOM     30  C   UNL A   1      39.609  23.108  26.035  1.00  0.00     0.014 A 
ATOM     31  C   UNL A   1      41.503  23.478  28.054  1.00  0.00     0.010 A 
ATOM     32  C   UNL A   1      40.055  24.388  26.338  1.00  0.00     0.010 A 
ATOM     33  C   UNL A   1      41.010  24.587  27.346  1.00  0.00    -0.014 A 
BRANCH  33  34
ATOM     34  C   UNL A   1      41.511  25.960  27.607  1.00  0.00     0.031 A 
ATOM     35  C   UNL A   1      42.900  26.355  27.189  1.00  0.00     0.074 A 
ATOM     36  C   UNL A   1      40.750  26.814  28.319  1.00  0.00     0.049 A 
ATOM     37  N   UNL A   1      43.539  27.475  27.409  1.00  0.00    -0.248 NA
ATOM     38  C   UNL A   1      43.682  25.351  26.449  1.00  0.00     0.031 C 
ATOM     39  C   UNL A   1      39.410  26.523  28.835  1.00  0.00     0.029 A 
ATOM     40  N   UNL A   1      41.003  28.090  28.755  1.00  0.00    -0.354 N 
ATOM     41  C   UNL A   1      44.806  27.301  26.864  1.00  0.00     0.074 A 
ATOM     42  C   UNL A   1      44.857  25.953  26.339  1.00  0.00     0.031 C 
ATOM     43  C   UNL A   1      38.956  27.592  29.508  1.00  0.00     0.029 A 
ATOM     44  C   UNL A   1      39.985  28.626  29.509  1.00  0.00     0.049 A 
ATOM     45  H   UNL A   1      41.835  28.576  28.549  1.00  0.00     0.167 HD
ATOM     46  C   UNL A   1      45.825  28.189  26.784  1.00  0.00     0.034 A 
ATOM     47  C   UNL A   1      39.896  29.813  30.141  1.00  0.00     0.034 A 
ATOM     48  C   UNL A   1      45.761  29.534  27.294  1.00  0.00     0.049 A 
ATOM     49  C   UNL A   1      41.046  30.777  30.051  1.00  0.00     0.074 A 
ATOM     50  C   UNL A   1      46.710  30.536  27.200  1.00  0.00     0.029 A 
ATOM     51  N   UNL A   1      44.695  30.059  28.009  1.00  0.00    -0.354 N 
ATOM     52  N   UNL A   1      42.180  30.650  29.407  1.00  0.00    -0.248 NA
ATOM     53  C   UNL A   1      40.892  32.059  30.751  1.00  0.00     0.031 C 
ATOM     54  C   UNL A   1      46.233  31.655  27.892  1.00  0.00     0.029 A 
ATOM     55  C   UNL A   1      44.970  31.364  28.382  1.00  0.00     0.049 A 
ATOM     56  H   UNL A   1      43.864  29.575  28.221  1.00  0.00     0.167 HD
ATOM     57  C   UNL A   1      42.860  31.848  29.593  1.00  0.00     0.074 A 
ATOM     58  C   UNL A   1      42.001  32.694  30.396  1.00  0.00     0.031 C 
ATOM     59  C   UNL A   1      44.089  32.211  29.147  1.00  0.00     0.034 A 
BRANCH  46  60
ATOM     60  C   UNL A   1      47.085  27.741  26.086  1.00  0.00     0.023 A 
ATOM     61  C   UNL A   1      48.129  27.160  26.837  1.00  0.00     0.012 A 
ATOM     62  C   UNL A   1      47.229  27.866  24.690  1.00  0.00     0.148 A 
ATOM     63  C   UNL A   1      49.315  26.761  26.220  1.00  0.00     0.002 A 
ATOM     64  C   UNL A   1      48.394  27.419  24.075  1.00  0.00     0.091 A 
ATOM     65  F   UNL A   1      46.237  28.435  23.991  1.00  0.00    -0.205 F 
ATOM     66  C   UNL A   1      49.442  26.882  24.840  1.00  0.00     0.022 A 
BRANCH  64  67
ATOM     67  S   UNL A   1      48.623  27.455  22.294  1.00  0.00     0.127 S 
ATOM     68  O   UNL A   1      47.374  28.071  21.849  1.00  0.00    -0.237 OA
ATOM     69  O   UNL A   1      49.805  28.306  22.154  1.00  0.00    -0.237 OA
ATOM     70  O   UNL A   1      48.820  26.072  21.886  1.00  0.00    -0.744 OA
ENDBRANCH  64  67
ENDBRANCH  46  60
BRANCH  47  71
ATOM     71  C   UNL A   1      38.643  30.178  30.862  1.00  0.00     0.023 A 
ATOM     72  C   UNL A   1      38.468  29.748  32.191  1.00  0.00     0.012 A 
ATOM     73  C   UNL A   1      37.648  30.970  30.259  1.00  0.00     0.148 A 
ATOM     74  C   UNL A   1      37.310  30.075  32.898  1.00  0.00     0.002 A 
ATOM     75  C   UNL A   1      36.521  31.338  30.985  1.00  0.00     0.091 A 
ATOM     76  F   UNL A   1      37.834  31.365  28.991  1.00  0.00    -0.205 F 
ATOM     77  C   UNL A   1      36.343  30.878  32.300  1.00  0.00     0.022 A 
BRANCH  75  78
ATOM     78  S   UNL A   1      35.278  32.464  30.344  1.00  0.00     0.127 S 
ATOM     79  O   UNL A   1      34.315  32.501  31.441  1.00  0.00    -0.237 OA
ATOM     80  O   UNL A   1      36.053  33.691  30.160  1.00  0.00    -0.237 OA
ATOM     81  O   UNL A   1      34.798  31.861  29.107  1.00  0.00    -0.744 OA
ENDBRANCH  75  78
ENDBRANCH  47  71
BRANCH  59  82
ATOM     82  C   UNL A   1      44.573  33.598  29.484  1.00  0.00     0.023 A 
ATOM     83  C   UNL A   1      45.305  33.820  30.667  1.00  0.00     0.012 A 
ATOM     84  C   UNL A   1      44.370  34.665  28.585  1.00  0.00     0.148 A 
ATOM     85  C   UNL A   1      45.800  35.089  30.966  1.00  0.00     0.002 A 
ATOM     86  C   UNL A   1      44.912  35.914  28.864  1.00  0.00     0.091 A 
ATOM     87  F   UNL A   1      43.658  34.435  27.473  1.00  0.00    -0.205 F 
ATOM     88  C   UNL A   1      45.616  36.131  30.059  1.00  0.00     0.022 A 
BRANCH  86  89
ATOM     89  S   UNL A   1      44.812  37.290  27.714  1.00  0.00     0.127 S 
ATOM     90  O   UNL A   1      45.520  38.339  28.446  1.00  0.00    -0.237 OA
ATOM     91  O   UNL A   1      45.527  36.770  26.549  1.00  0.00    -0.237 OA
ATOM     92  O   UNL A   1      43.392  37.535  27.497  1.00  0.00    -0.744 OA
ENDBRANCH  86  89
ENDBRANCH  59  82
ENDBRANCH  33  34
ENDBRANCH  25  28
ENDBRANCH  23  24
ENDBRANCH   1  23
TORSDOF 15
ENDMDL
