MODEL 1
REMARK VINA RESULT:     -12.5      0.000      0.000
REMARK SMILES Cc1ccc(-c2c[nH]c(=O)cc2C(=O)NCCCNC(=O)c2ccc(-c3c4nc(c(-c5cccc(S(=O)(=O)[O-])c5F)c5ccc([nH]5)c(-c5cccc(S(=O)(=O)[O-])c5F)c5nc(c(-c6cccc(S(=O)(=O)[O-])c6F)c6ccc3[nH]6)C=C5)C=C4)cc2)cc1Cl
REMARK SMILES IDX 18 1 17 2 16 3 15 4 13 5 14 6 12 8 6 9 7 10 8 11 11 12 9 13
REMARK SMILES IDX 10 15 5 16 1 17 2 18 3 19 86 20 4 21 85 22 87 23 19 24 20 25
REMARK SMILES IDX 21 27 22 28 23 29 84 30 24 31 83 32 25 33 26 34 27 35 77 36
REMARK SMILES IDX 28 37 82 38 76 39 78 40 29 41 81 42 75 43 74 44 30 46 62 47
REMARK SMILES IDX 42 48 61 49 43 50 46 51 60 52 79 53 44 54 45 55 59 57 80 58
REMARK SMILES IDX 47 59 31 60 32 61 40 62 33 63 35 64 41 65 34 66 36 67 37 68
REMARK SMILES IDX 38 69 39 70 63 71 64 72 72 73 65 74 67 75 73 76 66 77 68 78
REMARK SMILES IDX 69 79 70 80 71 81 48 82 49 83 57 84 50 85 52 86 58 87 51 88
REMARK SMILES IDX 53 89 54 90 55 91 56 92
REMARK H PARENT 15 7 8 14 19 26 78 45 46 56
REMARK Flexibility Score: inf
ROOT
ATOM      1  C   UNL A   1      33.979  28.983  26.138  1.00  0.00     0.118 C 
ENDROOT
BRANCH   1   2
ATOM      2  C   UNL A   1      33.351  27.939  27.065  1.00  0.00     0.042 C 
BRANCH   2   3
ATOM      3  C   UNL A   1      31.859  28.164  27.301  1.00  0.00     0.118 C 
BRANCH   3   4
ATOM      4  N   UNL A   1      31.107  26.945  27.080  1.00  0.00    -0.352 N 
ATOM      5  C   UNL A   1      30.662  26.249  26.004  1.00  0.00     0.252 C 
ATOM      6  O   UNL A   1      30.040  25.227  26.307  1.00  0.00    -0.269 OA
ATOM      7  H   UNL A   1      30.854  26.512  27.928  1.00  0.00     0.163 HD
BRANCH   5   8
ATOM      8  C   UNL A   1      30.930  26.605  24.559  1.00  0.00     0.054 A 
ATOM      9  C   UNL A   1      32.111  26.031  23.857  1.00  0.00     0.011 A 
ATOM     10  C   UNL A   1      32.393  26.452  22.607  1.00  0.00     0.095 A 
ATOM     11  N   UNL A   1      31.613  27.379  21.975  1.00  0.00    -0.328 N 
ATOM     12  C   UNL A   1      30.108  27.411  23.862  1.00  0.00     0.086 A 
ATOM     13  C   UNL A   1      30.470  27.900  22.511  1.00  0.00     0.248 A 
ATOM     14  H   UNL A   1      31.891  27.689  21.083  1.00  0.00     0.169 HD
ATOM     15  O   UNL A   1      29.793  28.740  21.938  1.00  0.00    -0.270 OA
BRANCH   9  16
ATOM     16  C   UNL A   1      32.985  24.946  24.358  1.00  0.00    -0.015 A 
ATOM     17  C   UNL A   1      35.639  21.833  25.772  1.00  0.00     0.046 C 
ATOM     18  C   UNL A   1      34.693  22.896  25.295  1.00  0.00    -0.032 A 
ATOM     19  C   UNL A   1      35.015  24.245  25.499  1.00  0.00     0.005 A 
ATOM     20  C   UNL A   1      33.489  22.587  24.643  1.00  0.00     0.044 A 
ATOM     21  C   UNL A   1      34.162  25.257  25.052  1.00  0.00     0.009 A 
ATOM     22  C   UNL A   1      32.647  23.601  24.170  1.00  0.00     0.029 A 
ATOM     23  Cl  UNL A   1      32.991  20.950  24.399  1.00  0.00    -0.084 Cl
ENDBRANCH   9  16
ENDBRANCH   5   8
ENDBRANCH   3   4
ENDBRANCH   2   3
ENDBRANCH   1   2
BRANCH   1  24
ATOM     24  N   UNL A   1      33.880  30.331  26.687  1.00  0.00    -0.352 N 
ATOM     25  C   UNL A   1      34.594  30.936  27.689  1.00  0.00     0.251 C 
ATOM     26  H   UNL A   1      33.190  30.897  26.271  1.00  0.00     0.163 HD
ATOM     27  O   UNL A   1      34.171  31.977  28.184  1.00  0.00    -0.269 OA
BRANCH  25  28
ATOM     28  C   UNL A   1      35.863  30.349  28.167  1.00  0.00     0.039 A 
ATOM     29  C   UNL A   1      37.000  30.440  27.358  1.00  0.00     0.014 A 
ATOM     30  C   UNL A   1      35.923  29.666  29.384  1.00  0.00     0.014 A 
ATOM     31  C   UNL A   1      38.206  29.888  27.794  1.00  0.00     0.010 A 
ATOM     32  C   UNL A   1      37.142  29.187  29.852  1.00  0.00     0.010 A 
ATOM     33  C   UNL A   1      38.295  29.283  29.059  1.00  0.00    -0.014 A 
BRANCH  33  34
ATOM     34  C   UNL A   1      39.586  28.757  29.574  1.00  0.00     0.031 A 
ATOM     35  C   UNL A   1      40.295  29.455  30.705  1.00  0.00     0.074 A 
ATOM     36  C   UNL A   1      40.160  27.701  28.962  1.00  0.00     0.049 A 
ATOM     37  N   UNL A   1      41.450  29.175  31.248  1.00  0.00    -0.248 NA
ATOM     38  C   UNL A   1      39.633  30.636  31.287  1.00  0.00     0.031 C 
ATOM     39  C   UNL A   1      39.607  26.987  27.809  1.00  0.00     0.029 A 
ATOM     40  N   UNL A   1      41.350  27.061  29.206  1.00  0.00    -0.354 N 
ATOM     41  C   UNL A   1      41.676  30.165  32.197  1.00  0.00     0.074 A 
ATOM     42  C   UNL A   1      40.546  31.067  32.145  1.00  0.00     0.031 C 
ATOM     43  C   UNL A   1      40.448  26.004  27.453  1.00  0.00     0.029 A 
ATOM     44  C   UNL A   1      41.619  26.041  28.323  1.00  0.00     0.049 A 
ATOM     45  H   UNL A   1      41.954  27.309  29.943  1.00  0.00     0.167 HD
ATOM     46  C   UNL A   1      42.720  30.300  33.048  1.00  0.00     0.034 A 
ATOM     47  C   UNL A   1      42.693  25.234  28.219  1.00  0.00     0.034 A 
ATOM     48  C   UNL A   1      43.815  29.373  33.130  1.00  0.00     0.049 A 
ATOM     49  C   UNL A   1      43.819  25.391  29.205  1.00  0.00     0.074 A 
ATOM     50  C   UNL A   1      44.864  29.361  34.033  1.00  0.00     0.029 A 
ATOM     51  N   UNL A   1      44.015  28.305  32.271  1.00  0.00    -0.354 N 
ATOM     52  N   UNL A   1      43.929  26.227  30.207  1.00  0.00    -0.248 NA
ATOM     53  C   UNL A   1      44.956  24.469  29.066  1.00  0.00     0.031 C 
ATOM     54  C   UNL A   1      45.721  28.311  33.693  1.00  0.00     0.029 A 
ATOM     55  C   UNL A   1      45.182  27.641  32.607  1.00  0.00     0.049 A 
ATOM     56  H   UNL A   1      43.416  28.055  31.531  1.00  0.00     0.167 HD
ATOM     57  C   UNL A   1      45.120  25.902  30.845  1.00  0.00     0.074 A 
ATOM     58  C   UNL A   1      45.687  24.779  30.128  1.00  0.00     0.031 C 
ATOM     59  C   UNL A   1      45.702  26.488  31.921  1.00  0.00     0.034 A 
BRANCH  46  60
ATOM     60  C   UNL A   1      42.724  31.475  33.992  1.00  0.00     0.023 A 
ATOM     61  C   UNL A   1      43.247  32.713  33.572  1.00  0.00     0.012 A 
ATOM     62  C   UNL A   1      42.117  31.375  35.260  1.00  0.00     0.148 A 
ATOM     63  C   UNL A   1      43.189  33.829  34.407  1.00  0.00     0.002 A 
ATOM     64  C   UNL A   1      42.019  32.502  36.067  1.00  0.00     0.091 A 
ATOM     65  F   UNL A   1      41.641  30.183  35.649  1.00  0.00    -0.205 F 
ATOM     66  C   UNL A   1      42.564  33.727  35.646  1.00  0.00     0.022 A 
BRANCH  64  67
ATOM     67  S   UNL A   1      41.158  32.497  37.644  1.00  0.00     0.127 S 
ATOM     68  O   UNL A   1      42.009  31.615  38.442  1.00  0.00    -0.237 OA
ATOM     69  O   UNL A   1      41.213  33.907  38.026  1.00  0.00    -0.237 OA
ATOM     70  O   UNL A   1      39.820  31.987  37.373  1.00  0.00    -0.744 OA
ENDBRANCH  64  67
ENDBRANCH  46  60
BRANCH  47  71
ATOM     71  C   UNL A   1      42.744  24.170  27.175  1.00  0.00     0.023 A 
ATOM     72  C   UNL A   1      43.422  24.420  25.965  1.00  0.00     0.012 A 
ATOM     73  C   UNL A   1      42.116  22.925  27.362  1.00  0.00     0.148 A 
ATOM     74  C   UNL A   1      43.430  23.471  24.942  1.00  0.00     0.002 A 
ATOM     75  C   UNL A   1      42.176  21.960  26.363  1.00  0.00     0.091 A 
ATOM     76  F   UNL A   1      41.466  22.707  28.514  1.00  0.00    -0.205 F 
ATOM     77  C   UNL A   1      42.814  22.239  25.144  1.00  0.00     0.022 A 
BRANCH  75  78
ATOM     78  S   UNL A   1      41.521  20.303  26.586  1.00  0.00     0.127 S 
ATOM     79  O   UNL A   1      40.082  20.548  26.582  1.00  0.00    -0.237 OA
ATOM     80  O   UNL A   1      42.034  19.614  25.401  1.00  0.00    -0.237 OA
ATOM     81  O   UNL A   1      42.081  19.828  27.844  1.00  0.00    -0.744 OA
ENDBRANCH  75  78
ENDBRANCH  47  71
BRANCH  59  82
ATOM     82  C   UNL A   1      46.990  25.895  32.431  1.00  0.00     0.023 A 
ATOM     83  C   UNL A   1      48.226  26.349  31.930  1.00  0.00     0.012 A 
ATOM     84  C   UNL A   1      46.971  24.935  33.461  1.00  0.00     0.148 A 
ATOM     85  C   UNL A   1      49.422  25.828  32.420  1.00  0.00     0.002 A 
ATOM     86  C   UNL A   1      48.167  24.463  33.985  1.00  0.00     0.091 A 
ATOM     87  F   UNL A   1      45.785  24.504  33.913  1.00  0.00    -0.205 F 
ATOM     88  C   UNL A   1      49.394  24.895  33.455  1.00  0.00     0.022 A 
BRANCH  86  89
ATOM     89  S   UNL A   1      48.230  23.340  35.386  1.00  0.00     0.127 S 
ATOM     90  O   UNL A   1      47.529  24.107  36.414  1.00  0.00    -0.237 OA
ATOM     91  O   UNL A   1      47.495  22.179  34.883  1.00  0.00    -0.237 OA
ATOM     92  O   UNL A   1      49.642  23.096  35.643  1.00  0.00    -0.744 OA
ENDBRANCH  86  89
ENDBRANCH  59  82
ENDBRANCH  33  34
ENDBRANCH  25  28
ENDBRANCH   1  24
TORSDOF 14
ENDMDL
MODEL 2
REMARK VINA RESULT:     -12.2      1.774      2.291
REMARK SMILES Cc1ccc(-c2c[nH]c(=O)cc2C(=O)NCCCNC(=O)c2ccc(-c3c4nc(c(-c5cccc(S(=O)(=O)[O-])c5F)c5ccc([nH]5)c(-c5cccc(S(=O)(=O)[O-])c5F)c5nc(c(-c6cccc(S(=O)(=O)[O-])c6F)c6ccc3[nH]6)C=C5)C=C4)cc2)cc1Cl
REMARK SMILES IDX 18 1 17 2 16 3 15 4 13 5 14 6 12 8 6 9 7 10 8 11 11 12 9 13
REMARK SMILES IDX 10 15 5 16 1 17 2 18 3 19 86 20 4 21 85 22 87 23 19 24 20 25
REMARK SMILES IDX 21 27 22 28 23 29 84 30 24 31 83 32 25 33 26 34 27 35 77 36
REMARK SMILES IDX 28 37 82 38 76 39 78 40 29 41 81 42 75 43 74 44 30 46 62 47
REMARK SMILES IDX 42 48 61 49 43 50 46 51 60 52 79 53 44 54 45 55 59 57 80 58
REMARK SMILES IDX 47 59 31 60 32 61 40 62 33 63 35 64 41 65 34 66 36 67 37 68
REMARK SMILES IDX 38 69 39 70 63 71 64 72 72 73 65 74 67 75 73 76 66 77 68 78
REMARK SMILES IDX 69 79 70 80 71 81 48 82 49 83 57 84 50 85 52 86 58 87 51 88
REMARK SMILES IDX 53 89 54 90 55 91 56 92
REMARK H PARENT 15 7 8 14 19 26 78 45 46 56
REMARK Flexibility Score: inf
ROOT
ATOM      1  C   UNL A   1      33.000  30.019  26.181  1.00  0.00     0.118 C 
ENDROOT
BRANCH   1   2
ATOM      2  C   UNL A   1      31.899  29.211  26.872  1.00  0.00     0.042 C 
BRANCH   2   3
ATOM      3  C   UNL A   1      32.358  27.823  27.314  1.00  0.00     0.118 C 
BRANCH   3   4
ATOM      4  N   UNL A   1      31.318  26.837  27.097  1.00  0.00    -0.352 N 
ATOM      5  C   UNL A   1      30.646  26.340  26.029  1.00  0.00     0.252 C 
ATOM      6  O   UNL A   1      29.813  25.480  26.332  1.00  0.00    -0.269 OA
ATOM      7  H   UNL A   1      31.023  26.423  27.941  1.00  0.00     0.163 HD
BRANCH   5   8
ATOM      8  C   UNL A   1      30.896  26.714  24.585  1.00  0.00     0.054 A 
ATOM      9  C   UNL A   1      32.087  26.176  23.872  1.00  0.00     0.011 A 
ATOM     10  C   UNL A   1      32.351  26.613  22.624  1.00  0.00     0.095 A 
ATOM     11  N   UNL A   1      31.544  27.524  22.003  1.00  0.00    -0.328 N 
ATOM     12  C   UNL A   1      30.050  27.503  23.898  1.00  0.00     0.086 A 
ATOM     13  C   UNL A   1      30.392  28.013  22.550  1.00  0.00     0.248 A 
ATOM     14  H   UNL A   1      31.809  27.848  21.112  1.00  0.00     0.169 HD
ATOM     15  O   UNL A   1      29.690  28.839  21.987  1.00  0.00    -0.270 OA
BRANCH   9  16
ATOM     16  C   UNL A   1      32.991  25.109  24.360  1.00  0.00    -0.015 A 
ATOM     17  C   UNL A   1      35.733  22.058  25.741  1.00  0.00     0.046 C 
ATOM     18  C   UNL A   1      34.756  23.098  25.273  1.00  0.00    -0.032 A 
ATOM     19  C   UNL A   1      35.010  24.449  25.543  1.00  0.00     0.005 A 
ATOM     20  C   UNL A   1      33.591  22.765  24.567  1.00  0.00     0.044 A 
ATOM     21  C   UNL A   1      34.130  25.441  25.107  1.00  0.00     0.009 A 
ATOM     22  C   UNL A   1      32.721  23.760  24.106  1.00  0.00     0.029 A 
ATOM     23  Cl  UNL A   1      33.174  21.118  24.240  1.00  0.00    -0.084 Cl
ENDBRANCH   9  16
ENDBRANCH   5   8
ENDBRANCH   3   4
ENDBRANCH   2   3
ENDBRANCH   1   2
BRANCH   1  24
ATOM     24  N   UNL A   1      32.953  31.432  26.546  1.00  0.00    -0.352 N 
ATOM     25  C   UNL A   1      33.650  32.124  27.502  1.00  0.00     0.251 C 
ATOM     26  H   UNL A   1      32.320  31.973  26.022  1.00  0.00     0.163 HD
ATOM     27  O   UNL A   1      33.265  33.241  27.835  1.00  0.00    -0.269 OA
BRANCH  25  28
ATOM     28  C   UNL A   1      34.856  31.540  28.124  1.00  0.00     0.039 A 
ATOM     29  C   UNL A   1      36.033  32.293  28.162  1.00  0.00     0.014 A 
ATOM     30  C   UNL A   1      34.844  30.234  28.622  1.00  0.00     0.014 A 
ATOM     31  C   UNL A   1      37.182  31.753  28.743  1.00  0.00     0.010 A 
ATOM     32  C   UNL A   1      35.966  29.728  29.271  1.00  0.00     0.010 A 
ATOM     33  C   UNL A   1      37.151  30.477  29.330  1.00  0.00    -0.014 A 
BRANCH  33  34
ATOM     34  C   UNL A   1      38.340  29.916  30.021  1.00  0.00     0.031 A 
ATOM     35  C   UNL A   1      38.718  30.395  31.398  1.00  0.00     0.074 A 
ATOM     36  C   UNL A   1      39.129  29.037  29.369  1.00  0.00     0.049 A 
ATOM     37  N   UNL A   1      39.747  30.062  32.131  1.00  0.00    -0.248 NA
ATOM     38  C   UNL A   1      37.840  31.399  32.024  1.00  0.00     0.031 C 
ATOM     39  C   UNL A   1      38.909  28.552  28.004  1.00  0.00     0.029 A 
ATOM     40  N   UNL A   1      40.290  28.415  29.756  1.00  0.00    -0.354 N 
ATOM     41  C   UNL A   1      39.669  30.844  33.277  1.00  0.00     0.074 A 
ATOM     42  C   UNL A   1      38.500  31.685  33.137  1.00  0.00     0.031 C 
ATOM     43  C   UNL A   1      39.894  27.703  27.672  1.00  0.00     0.029 A 
ATOM     44  C   UNL A   1      40.837  27.613  28.781  1.00  0.00     0.049 A 
ATOM     45  H   UNL A   1      40.693  28.532  30.647  1.00  0.00     0.167 HD
ATOM     46  C   UNL A   1      40.485  30.847  34.358  1.00  0.00     0.034 A 
ATOM     47  C   UNL A   1      41.978  26.894  28.777  1.00  0.00     0.034 A 
ATOM     48  C   UNL A   1      41.616  29.974  34.513  1.00  0.00     0.049 A 
ATOM     49  C   UNL A   1      42.842  26.895  30.010  1.00  0.00     0.074 A 
ATOM     50  C   UNL A   1      42.438  29.823  35.616  1.00  0.00     0.029 A 
ATOM     51  N   UNL A   1      42.096  29.118  33.537  1.00  0.00    -0.354 N 
ATOM     52  N   UNL A   1      42.653  27.510  31.151  1.00  0.00    -0.248 NA
ATOM     53  C   UNL A   1      44.061  26.074  29.966  1.00  0.00     0.031 C 
ATOM     54  C   UNL A   1      43.441  28.907  35.291  1.00  0.00     0.029 A 
ATOM     55  C   UNL A   1      43.216  28.452  34.002  1.00  0.00     0.049 A 
ATOM     56  H   UNL A   1      41.698  28.999  32.643  1.00  0.00     0.167 HD
ATOM     57  C   UNL A   1      43.701  27.114  31.975  1.00  0.00     0.074 A 
ATOM     58  C   UNL A   1      44.511  26.191  31.207  1.00  0.00     0.031 C 
ATOM     59  C   UNL A   1      43.977  27.490  33.248  1.00  0.00     0.034 A 
BRANCH  46  60
ATOM     60  C   UNL A   1      40.175  31.800  35.484  1.00  0.00     0.023 A 
ATOM     61  C   UNL A   1      40.902  33.000  35.610  1.00  0.00     0.012 A 
ATOM     62  C   UNL A   1      39.095  31.550  36.354  1.00  0.00     0.148 A 
ATOM     63  C   UNL A   1      40.576  33.927  36.600  1.00  0.00     0.002 A 
ATOM     64  C   UNL A   1      38.745  32.500  37.307  1.00  0.00     0.091 A 
ATOM     65  F   UNL A   1      38.427  30.395  36.229  1.00  0.00    -0.205 F 
ATOM     66  C   UNL A   1      39.492  33.683  37.438  1.00  0.00     0.022 A 
BRANCH  64  67
ATOM     67  S   UNL A   1      37.314  32.321  38.377  1.00  0.00     0.127 S 
ATOM     68  O   UNL A   1      36.303  33.087  37.648  1.00  0.00    -0.237 OA
ATOM     69  O   UNL A   1      37.106  30.873  38.369  1.00  0.00    -0.237 OA
ATOM     70  O   UNL A   1      37.701  32.877  39.667  1.00  0.00    -0.744 OA
ENDBRANCH  64  67
ENDBRANCH  46  60
BRANCH  47  71
ATOM     71  C   UNL A   1      42.353  26.073  27.591  1.00  0.00     0.023 A 
ATOM     72  C   UNL A   1      43.071  26.670  26.535  1.00  0.00     0.012 A 
ATOM     73  C   UNL A   1      41.991  24.717  27.491  1.00  0.00     0.148 A 
ATOM     74  C   UNL A   1      43.377  25.947  25.382  1.00  0.00     0.002 A 
ATOM     75  C   UNL A   1      42.351  23.985  26.365  1.00  0.00     0.091 A 
ATOM     76  F   UNL A   1      41.300  24.166  28.499  1.00  0.00    -0.205 F 
ATOM     77  C   UNL A   1      43.024  24.603  25.300  1.00  0.00     0.022 A 
BRANCH  75  78
ATOM     78  S   UNL A   1      42.048  22.220  26.230  1.00  0.00     0.127 S 
ATOM     79  O   UNL A   1      40.593  22.172  26.125  1.00  0.00    -0.237 OA
ATOM     80  O   UNL A   1      42.768  21.883  25.000  1.00  0.00    -0.237 OA
ATOM     81  O   UNL A   1      42.618  21.633  27.435  1.00  0.00    -0.744 OA
ENDBRANCH  75  78
ENDBRANCH  47  71
BRANCH  59  82
ATOM     82  C   UNL A   1      45.171  26.864  33.920  1.00  0.00     0.023 A 
ATOM     83  C   UNL A   1      46.428  27.499  33.867  1.00  0.00     0.012 A 
ATOM     84  C   UNL A   1      45.026  25.678  34.665  1.00  0.00     0.148 A 
ATOM     85  C   UNL A   1      47.529  26.942  34.514  1.00  0.00     0.002 A 
ATOM     86  C   UNL A   1      46.114  25.160  35.355  1.00  0.00     0.091 A 
ATOM     87  F   UNL A   1      43.826  25.081  34.690  1.00  0.00    -0.205 F 
ATOM     88  C   UNL A   1      47.370  25.780  35.267  1.00  0.00     0.022 A 
BRANCH  86  89
ATOM     89  S   UNL A   1      45.979  23.728  36.432  1.00  0.00     0.127 S 
ATOM     90  O   UNL A   1      45.672  22.665  35.478  1.00  0.00    -0.237 OA
ATOM     91  O   UNL A   1      47.318  23.657  37.017  1.00  0.00    -0.237 OA
ATOM     92  O   UNL A   1      44.920  24.039  37.382  1.00  0.00    -0.744 OA
ENDBRANCH  86  89
ENDBRANCH  59  82
ENDBRANCH  33  34
ENDBRANCH  25  28
ENDBRANCH   1  24
TORSDOF 14
ENDMDL
MODEL 3
REMARK VINA RESULT:     -12.1      2.579      3.875
REMARK SMILES Cc1ccc(-c2c[nH]c(=O)cc2C(=O)NCCCNC(=O)c2ccc(-c3c4nc(c(-c5cccc(S(=O)(=O)[O-])c5F)c5ccc([nH]5)c(-c5cccc(S(=O)(=O)[O-])c5F)c5nc(c(-c6cccc(S(=O)(=O)[O-])c6F)c6ccc3[nH]6)C=C5)C=C4)cc2)cc1Cl
REMARK SMILES IDX 18 1 17 2 16 3 15 4 13 5 14 6 12 8 6 9 7 10 8 11 11 12 9 13
REMARK SMILES IDX 10 15 5 16 1 17 2 18 3 19 86 20 4 21 85 22 87 23 19 24 20 25
REMARK SMILES IDX 21 27 22 28 23 29 84 30 24 31 83 32 25 33 26 34 27 35 77 36
REMARK SMILES IDX 28 37 82 38 76 39 78 40 29 41 81 42 75 43 74 44 30 46 62 47
REMARK SMILES IDX 42 48 61 49 43 50 46 51 60 52 79 53 44 54 45 55 59 57 80 58
REMARK SMILES IDX 47 59 31 60 32 61 40 62 33 63 35 64 41 65 34 66 36 67 37 68
REMARK SMILES IDX 38 69 39 70 63 71 64 72 72 73 65 74 67 75 73 76 66 77 68 78
REMARK SMILES IDX 69 79 70 80 71 81 48 82 49 83 57 84 50 85 52 86 58 87 51 88
REMARK SMILES IDX 53 89 54 90 55 91 56 92
REMARK H PARENT 15 7 8 14 19 26 78 45 46 56
REMARK Flexibility Score: inf
ROOT
ATOM      1  C   UNL A   1      32.665  29.859  25.690  1.00  0.00     0.118 C 
ENDROOT
BRANCH   1   2
ATOM      2  C   UNL A   1      31.640  28.942  26.362  1.00  0.00     0.042 C 
BRANCH   2   3
ATOM      3  C   UNL A   1      32.129  27.503  26.515  1.00  0.00     0.118 C 
BRANCH   3   4
ATOM      4  N   UNL A   1      31.018  26.596  26.724  1.00  0.00    -0.352 N 
ATOM      5  C   UNL A   1      30.521  25.495  26.107  1.00  0.00     0.252 C 
ATOM      6  O   UNL A   1      29.519  25.034  26.661  1.00  0.00    -0.269 OA
ATOM      7  H   UNL A   1      30.489  26.842  27.518  1.00  0.00     0.163 HD
BRANCH   5   8
ATOM      8  C   UNL A   1      31.130  24.819  24.898  1.00  0.00     0.054 A 
ATOM      9  C   UNL A   1      30.988  25.434  23.550  1.00  0.00     0.011 A 
ATOM     10  C   UNL A   1      31.438  24.757  22.475  1.00  0.00     0.095 A 
ATOM     11  N   UNL A   1      32.030  23.532  22.602  1.00  0.00    -0.328 N 
ATOM     12  C   UNL A   1      31.836  23.678  25.003  1.00  0.00     0.086 A 
ATOM     13  C   UNL A   1      32.272  22.927  23.802  1.00  0.00     0.248 A 
ATOM     14  H   UNL A   1      32.297  23.058  21.781  1.00  0.00     0.169 HD
ATOM     15  O   UNL A   1      32.788  21.824  23.897  1.00  0.00    -0.270 OA
BRANCH   9  16
ATOM     16  C   UNL A   1      30.474  26.792  23.257  1.00  0.00    -0.015 A 
ATOM     17  C   UNL A   1      29.065  30.808  22.468  1.00  0.00     0.046 C 
ATOM     18  C   UNL A   1      29.528  29.403  22.724  1.00  0.00    -0.032 A 
ATOM     19  C   UNL A   1      30.882  29.084  22.555  1.00  0.00     0.005 A 
ATOM     20  C   UNL A   1      28.648  28.389  23.134  1.00  0.00     0.044 A 
ATOM     21  C   UNL A   1      31.346  27.790  22.801  1.00  0.00     0.009 A 
ATOM     22  C   UNL A   1      29.116  27.099  23.407  1.00  0.00     0.029 A 
ATOM     23  Cl  UNL A   1      26.954  28.685  23.313  1.00  0.00    -0.084 Cl
ENDBRANCH   9  16
ENDBRANCH   5   8
ENDBRANCH   3   4
ENDBRANCH   2   3
ENDBRANCH   1   2
BRANCH   1  24
ATOM     24  N   UNL A   1      32.483  31.256  26.072  1.00  0.00    -0.352 N 
ATOM     25  C   UNL A   1      33.066  31.983  27.078  1.00  0.00     0.251 C 
ATOM     26  H   UNL A   1      31.839  31.755  25.520  1.00  0.00     0.163 HD
ATOM     27  O   UNL A   1      32.573  33.060  27.404  1.00  0.00    -0.269 OA
BRANCH  25  28
ATOM     28  C   UNL A   1      34.278  31.485  27.761  1.00  0.00     0.039 A 
ATOM     29  C   UNL A   1      35.340  32.366  27.987  1.00  0.00     0.014 A 
ATOM     30  C   UNL A   1      34.392  30.142  28.130  1.00  0.00     0.014 A 
ATOM     31  C   UNL A   1      36.493  31.910  28.629  1.00  0.00     0.010 A 
ATOM     32  C   UNL A   1      35.508  29.709  28.838  1.00  0.00     0.010 A 
ATOM     33  C   UNL A   1      36.575  30.584  29.087  1.00  0.00    -0.014 A 
BRANCH  33  34
ATOM     34  C   UNL A   1      37.762  30.099  29.838  1.00  0.00     0.031 A 
ATOM     35  C   UNL A   1      38.021  30.577  31.243  1.00  0.00     0.074 A 
ATOM     36  C   UNL A   1      38.652  29.296  29.220  1.00  0.00     0.049 A 
ATOM     37  N   UNL A   1      39.028  30.307  32.030  1.00  0.00    -0.248 NA
ATOM     38  C   UNL A   1      37.034  31.499  31.832  1.00  0.00     0.031 C 
ATOM     39  C   UNL A   1      38.549  28.824  27.837  1.00  0.00     0.029 A 
ATOM     40  N   UNL A   1      39.832  28.755  29.666  1.00  0.00    -0.354 N 
ATOM     41  C   UNL A   1      38.824  31.057  33.183  1.00  0.00     0.074 A 
ATOM     42  C   UNL A   1      37.605  31.810  32.987  1.00  0.00     0.031 C 
ATOM     43  C   UNL A   1      39.614  28.059  27.551  1.00  0.00     0.029 A 
ATOM     44  C   UNL A   1      40.495  28.016  28.713  1.00  0.00     0.049 A 
ATOM     45  H   UNL A   1      40.172  28.883  30.581  1.00  0.00     0.167 HD
ATOM     46  C   UNL A   1      39.573  31.099  34.310  1.00  0.00     0.034 A 
ATOM     47  C   UNL A   1      41.685  27.386  28.765  1.00  0.00     0.034 A 
ATOM     48  C   UNL A   1      40.756  30.311  34.518  1.00  0.00     0.049 A 
ATOM     49  C   UNL A   1      42.474  27.426  30.047  1.00  0.00     0.074 A 
ATOM     50  C   UNL A   1      41.521  30.199  35.666  1.00  0.00     0.029 A 
ATOM     51  N   UNL A   1      41.356  29.513  33.558  1.00  0.00    -0.354 N 
ATOM     52  N   UNL A   1      42.172  28.001  31.185  1.00  0.00    -0.248 NA
ATOM     53  C   UNL A   1      43.752  26.700  30.062  1.00  0.00     0.031 C 
ATOM     54  C   UNL A   1      42.609  29.367  35.386  1.00  0.00     0.029 A 
ATOM     55  C   UNL A   1      42.495  28.924  34.079  1.00  0.00     0.049 A 
ATOM     56  H   UNL A   1      41.021  29.384  32.641  1.00  0.00     0.167 HD
ATOM     57  C   UNL A   1      43.197  27.669  32.063  1.00  0.00     0.074 A 
ATOM     58  C   UNL A   1      44.119  26.825  31.330  1.00  0.00     0.031 C 
ATOM     59  C   UNL A   1      43.369  28.038  33.356  1.00  0.00     0.034 A 
BRANCH  46  60
ATOM     60  C   UNL A   1      39.126  32.003  35.431  1.00  0.00     0.023 A 
ATOM     61  C   UNL A   1      38.269  31.508  36.433  1.00  0.00     0.012 A 
ATOM     62  C   UNL A   1      39.638  33.311  35.541  1.00  0.00     0.148 A 
ATOM     63  C   UNL A   1      37.907  32.309  37.516  1.00  0.00     0.002 A 
ATOM     64  C   UNL A   1      39.312  34.086  36.648  1.00  0.00     0.091 A 
ATOM     65  F   UNL A   1      40.438  33.769  34.567  1.00  0.00    -0.205 F 
ATOM     66  C   UNL A   1      38.439  33.590  37.630  1.00  0.00     0.022 A 
BRANCH  64  67
ATOM     67  S   UNL A   1      40.011  35.716  36.932  1.00  0.00     0.127 S 
ATOM     68  O   UNL A   1      39.354  36.105  38.180  1.00  0.00    -0.237 OA
ATOM     69  O   UNL A   1      41.438  35.418  37.061  1.00  0.00    -0.237 OA
ATOM     70  O   UNL A   1      39.656  36.517  35.769  1.00  0.00    -0.744 OA
ENDBRANCH  64  67
ENDBRANCH  46  60
BRANCH  47  71
ATOM     71  C   UNL A   1      42.191  26.620  27.590  1.00  0.00     0.023 A 
ATOM     72  C   UNL A   1      42.916  27.292  26.586  1.00  0.00     0.012 A 
ATOM     73  C   UNL A   1      41.945  25.242  27.450  1.00  0.00     0.148 A 
ATOM     74  C   UNL A   1      43.343  26.618  25.442  1.00  0.00     0.002 A 
ATOM     75  C   UNL A   1      42.424  24.562  26.335  1.00  0.00     0.091 A 
ATOM     76  F   UNL A   1      41.245  24.619  28.408  1.00  0.00    -0.205 F 
ATOM     77  C   UNL A   1      43.104  25.252  25.320  1.00  0.00     0.022 A 
BRANCH  75  78
ATOM     78  S   UNL A   1      42.272  22.782  26.157  1.00  0.00     0.127 S 
ATOM     79  O   UNL A   1      42.929  22.552  24.874  1.00  0.00    -0.237 OA
ATOM     80  O   UNL A   1      43.010  22.297  27.324  1.00  0.00    -0.237 OA
ATOM     81  O   UNL A   1      40.842  22.507  26.197  1.00  0.00    -0.744 OA
ENDBRANCH  75  78
ENDBRANCH  47  71
BRANCH  59  82
ATOM     82  C   UNL A   1      44.566  27.490  34.088  1.00  0.00     0.023 A 
ATOM     83  C   UNL A   1      45.788  28.190  34.073  1.00  0.00     0.012 A 
ATOM     84  C   UNL A   1      44.454  26.311  34.851  1.00  0.00     0.148 A 
ATOM     85  C   UNL A   1      46.890  27.705  34.775  1.00  0.00     0.002 A 
ATOM     86  C   UNL A   1      45.539  25.865  35.594  1.00  0.00     0.091 A 
ATOM     87  F   UNL A   1      43.287  25.650  34.839  1.00  0.00    -0.205 F 
ATOM     88  C   UNL A   1      46.763  26.551  35.544  1.00  0.00     0.022 A 
BRANCH  86  89
ATOM     89  S   UNL A   1      45.437  24.448  36.694  1.00  0.00     0.127 S 
ATOM     90  O   UNL A   1      46.794  24.389  37.231  1.00  0.00    -0.237 OA
ATOM     91  O   UNL A   1      44.417  24.876  37.652  1.00  0.00    -0.237 OA
ATOM     92  O   UNL A   1      45.047  23.319  35.860  1.00  0.00    -0.744 OA
ENDBRANCH  86  89
ENDBRANCH  59  82
ENDBRANCH  33  34
ENDBRANCH  25  28
ENDBRANCH   1  24
TORSDOF 14
ENDMDL
