MODEL 1
REMARK VINA RESULT:     -11.3      0.000      0.000
REMARK SMILES O=C(Cn1cccc1C(=O)NCCC(=O)NC1CC1)NCCCNC(=O)c1ccc(-c2c3nc(c(-c4cccc(S(=O)(=O)[O-])c4F)c4ccc([nH]4)c(-c4cccc(S(=O)(=O)[O-])c4F)c4nc(c(-c5cccc(S(=O)(=O)[O-])c5F)c5ccc2[nH]5)C=C4)C=C3)cc1
REMARK SMILES IDX 1 1 2 2 20 3 3 5 4 6 5 7 8 8 6 9 7 10 9 11 10 12 11 13 12 15
REMARK SMILES IDX 13 16 14 17 15 18 16 19 17 21 18 22 19 23 21 24 22 25 23 26
REMARK SMILES IDX 24 27 25 28 26 30 27 31 28 32 89 33 29 34 88 35 30 36 31 37
REMARK SMILES IDX 32 38 82 39 33 40 87 41 81 42 83 43 34 44 86 45 80 46 79 47
REMARK SMILES IDX 35 49 67 50 47 51 66 52 48 53 51 54 65 55 84 56 49 57 50 58
REMARK SMILES IDX 64 60 85 61 52 62 36 63 37 64 45 65 38 66 40 67 46 68 39 69
REMARK SMILES IDX 41 70 42 71 43 72 44 73 68 74 69 75 77 76 70 77 72 78 78 79
REMARK SMILES IDX 71 80 73 81 74 82 75 83 76 84 53 85 54 86 62 87 55 88 57 89
REMARK SMILES IDX 63 90 56 91 58 92 59 93 60 94 61 95
REMARK H PARENT 20 4 11 14 16 20 24 29 83 48 51 59
REMARK Flexibility Score: inf
ROOT
ATOM      1  O   UNL A   1      44.585  40.921  25.332  1.00  0.00    -0.273 OA
ATOM      2  C   UNL A   1      43.506  41.505  25.387  1.00  0.00     0.239 C 
ATOM      3  N   UNL A   1      42.735  41.579  26.527  1.00  0.00    -0.354 N 
ATOM      4  H   UNL A   1      41.800  41.873  26.438  1.00  0.00     0.163 HD
ENDROOT
BRANCH   2   5
ATOM      5  C   UNL A   1      42.948  42.308  24.234  1.00  0.00     0.222 C 
BRANCH   5   6
ATOM      6  N   UNL A   1      43.783  43.363  23.693  1.00  0.00    -0.334 N 
ATOM      7  C   UNL A   1      44.152  44.487  24.405  1.00  0.00     0.087 A 
ATOM      8  C   UNL A   1      44.382  43.370  22.438  1.00  0.00     0.107 A 
ATOM      9  C   UNL A   1      45.042  45.210  23.658  1.00  0.00     0.020 A 
ATOM     10  C   UNL A   1      45.178  44.525  22.441  1.00  0.00     0.033 A 
BRANCH   8  11
ATOM     11  C   UNL A   1      44.391  42.474  21.278  1.00  0.00     0.267 C 
ATOM     12  O   UNL A   1      45.356  41.712  21.131  1.00  0.00    -0.268 OA
ATOM     13  N   UNL A   1      43.496  42.377  20.253  1.00  0.00    -0.350 N 
ATOM     14  H   UNL A   1      43.750  41.622  19.675  1.00  0.00     0.163 HD
BRANCH  13  15
ATOM     15  C   UNL A   1      42.297  43.003  19.718  1.00  0.00     0.126 C 
BRANCH  15  16
ATOM     16  C   UNL A   1      42.532  44.290  18.942  1.00  0.00     0.121 C 
BRANCH  16  17
ATOM     17  C   UNL A   1      41.243  44.934  18.495  1.00  0.00     0.221 C 
ATOM     18  O   UNL A   1      40.159  44.404  18.759  1.00  0.00    -0.275 OA
ATOM     19  N   UNL A   1      41.222  46.118  17.827  1.00  0.00    -0.353 N 
ATOM     20  H   UNL A   1      40.313  46.427  17.612  1.00  0.00     0.163 HD
BRANCH  19  21
ATOM     21  C   UNL A   1      42.240  47.002  17.372  1.00  0.00     0.082 C 
ATOM     22  C   UNL A   1      41.892  47.895  16.199  1.00  0.00     0.027 C 
ATOM     23  C   UNL A   1      42.353  48.491  17.484  1.00  0.00     0.027 C 
ENDBRANCH  19  21
ENDBRANCH  16  17
ENDBRANCH  15  16
ENDBRANCH  13  15
ENDBRANCH   8  11
ENDBRANCH   5   6
ENDBRANCH   2   5
BRANCH   3  24
ATOM     24  C   UNL A   1      43.229  41.247  27.844  1.00  0.00     0.117 C 
BRANCH  24  25
ATOM     25  C   UNL A   1      42.442  40.076  28.447  1.00  0.00     0.042 C 
BRANCH  25  26
ATOM     26  C   UNL A   1      43.177  39.385  29.600  1.00  0.00     0.118 C 
BRANCH  26  27
ATOM     27  N   UNL A   1      44.520  38.989  29.204  1.00  0.00    -0.352 N 
ATOM     28  C   UNL A   1      45.132  37.760  29.204  1.00  0.00     0.251 C 
ATOM     29  H   UNL A   1      45.085  39.727  28.881  1.00  0.00     0.163 HD
ATOM     30  O   UNL A   1      46.353  37.727  29.118  1.00  0.00    -0.269 OA
BRANCH  28  31
ATOM     31  C   UNL A   1      44.371  36.494  29.307  1.00  0.00     0.039 A 
ATOM     32  C   UNL A   1      44.428  35.797  30.526  1.00  0.00     0.014 A 
ATOM     33  C   UNL A   1      43.703  35.934  28.217  1.00  0.00     0.014 A 
ATOM     34  C   UNL A   1      43.770  34.579  30.668  1.00  0.00     0.010 A 
ATOM     35  C   UNL A   1      43.035  34.726  28.359  1.00  0.00     0.010 A 
ATOM     36  C   UNL A   1      43.051  34.061  29.587  1.00  0.00    -0.014 A 
BRANCH  36  37
ATOM     37  C   UNL A   1      42.174  32.886  29.772  1.00  0.00     0.031 A 
ATOM     38  C   UNL A   1      42.902  31.570  29.363  1.00  0.00     0.074 A 
ATOM     39  C   UNL A   1      40.931  33.157  30.286  1.00  0.00     0.049 A 
ATOM     40  N   UNL A   1      42.431  30.436  28.932  1.00  0.00    -0.248 NA
ATOM     41  C   UNL A   1      44.395  31.548  29.340  1.00  0.00     0.031 C 
ATOM     42  C   UNL A   1      40.440  34.509  30.661  1.00  0.00     0.029 A 
ATOM     43  N   UNL A   1      39.834  32.387  30.617  1.00  0.00    -0.354 N 
ATOM     44  C   UNL A   1      43.523  29.525  28.831  1.00  0.00     0.074 A 
ATOM     45  C   UNL A   1      44.710  30.306  28.961  1.00  0.00     0.031 C 
ATOM     46  C   UNL A   1      39.154  34.468  31.075  1.00  0.00     0.029 A 
ATOM     47  C   UNL A   1      38.680  33.098  31.043  1.00  0.00     0.049 A 
ATOM     48  H   UNL A   1      39.851  31.404  30.560  1.00  0.00     0.167 HD
ATOM     49  C   UNL A   1      43.372  28.165  28.798  1.00  0.00     0.034 A 
ATOM     50  C   UNL A   1      37.422  32.618  31.309  1.00  0.00     0.034 A 
ATOM     51  C   UNL A   1      41.986  27.856  28.908  1.00  0.00     0.049 A 
ATOM     52  C   UNL A   1      37.555  31.157  31.248  1.00  0.00     0.074 A 
ATOM     53  C   UNL A   1      40.940  27.934  28.030  1.00  0.00     0.029 A 
ATOM     54  N   UNL A   1      41.513  27.752  30.193  1.00  0.00    -0.354 N 
ATOM     55  N   UNL A   1      38.170  30.436  32.139  1.00  0.00    -0.248 NA
ATOM     56  C   UNL A   1      37.106  30.462  30.036  1.00  0.00     0.031 C 
ATOM     57  C   UNL A   1      39.878  28.366  28.850  1.00  0.00     0.029 A 
ATOM     58  C   UNL A   1      40.261  28.304  30.197  1.00  0.00     0.049 A 
ATOM     59  H   UNL A   1      41.983  27.357  30.963  1.00  0.00     0.167 HD
ATOM     60  C   UNL A   1      38.492  29.314  31.419  1.00  0.00     0.074 A 
ATOM     61  C   UNL A   1      37.556  29.244  30.319  1.00  0.00     0.031 C 
ATOM     62  C   UNL A   1      39.761  28.831  31.442  1.00  0.00     0.034 A 
BRANCH  49  63
ATOM     63  C   UNL A   1      44.299  26.969  28.914  1.00  0.00     0.023 A 
ATOM     64  C   UNL A   1      44.901  26.794  30.198  1.00  0.00     0.012 A 
ATOM     65  C   UNL A   1      44.851  26.240  27.848  1.00  0.00     0.148 A 
ATOM     66  C   UNL A   1      46.070  26.063  30.392  1.00  0.00     0.002 A 
ATOM     67  C   UNL A   1      45.999  25.461  28.060  1.00  0.00     0.091 A 
ATOM     68  F   UNL A   1      44.320  26.361  26.627  1.00  0.00    -0.205 F 
ATOM     69  C   UNL A   1      46.632  25.409  29.312  1.00  0.00     0.022 A 
BRANCH  67  70
ATOM     70  S   UNL A   1      46.775  24.478  26.769  1.00  0.00     0.127 S 
ATOM     71  O   UNL A   1      46.831  25.423  25.658  1.00  0.00    -0.237 OA
ATOM     72  O   UNL A   1      48.078  24.171  27.366  1.00  0.00    -0.237 OA
ATOM     73  O   UNL A   1      45.916  23.315  26.593  1.00  0.00    -0.744 OA
ENDBRANCH  67  70
ENDBRANCH  49  63
BRANCH  50  74
ATOM     74  C   UNL A   1      36.025  33.181  31.483  1.00  0.00     0.023 A 
ATOM     75  C   UNL A   1      35.435  33.486  32.717  1.00  0.00     0.012 A 
ATOM     76  C   UNL A   1      35.257  33.542  30.330  1.00  0.00     0.148 A 
ATOM     77  C   UNL A   1      34.224  34.209  32.793  1.00  0.00     0.002 A 
ATOM     78  C   UNL A   1      34.143  34.371  30.402  1.00  0.00     0.091 A 
ATOM     79  F   UNL A   1      35.582  33.044  29.132  1.00  0.00    -0.205 F 
ATOM     80  C   UNL A   1      33.609  34.699  31.642  1.00  0.00     0.022 A 
BRANCH  78  81
ATOM     81  S   UNL A   1      33.469  35.184  28.937  1.00  0.00     0.127 S 
ATOM     82  O   UNL A   1      32.745  34.098  28.280  1.00  0.00    -0.237 OA
ATOM     83  O   UNL A   1      32.621  36.213  29.539  1.00  0.00    -0.237 OA
ATOM     84  O   UNL A   1      34.611  35.706  28.196  1.00  0.00    -0.744 OA
ENDBRANCH  78  81
ENDBRANCH  50  74
BRANCH  62  85
ATOM     85  C   UNL A   1      40.575  29.166  32.693  1.00  0.00     0.023 A 
ATOM     86  C   UNL A   1      41.149  30.451  32.742  1.00  0.00     0.012 A 
ATOM     87  C   UNL A   1      40.867  28.291  33.773  1.00  0.00     0.148 A 
ATOM     88  C   UNL A   1      41.975  30.851  33.797  1.00  0.00     0.002 A 
ATOM     89  C   UNL A   1      41.699  28.689  34.830  1.00  0.00     0.091 A 
ATOM     90  F   UNL A   1      40.334  27.073  33.773  1.00  0.00    -0.205 F 
ATOM     91  C   UNL A   1      42.250  29.975  34.840  1.00  0.00     0.022 A 
BRANCH  89  92
ATOM     92  S   UNL A   1      42.171  27.616  36.208  1.00  0.00     0.127 S 
ATOM     93  O   UNL A   1      43.104  28.452  36.966  1.00  0.00    -0.237 OA
ATOM     94  O   UNL A   1      40.899  27.392  36.888  1.00  0.00    -0.237 OA
ATOM     95  O   UNL A   1      42.784  26.429  35.625  1.00  0.00    -0.744 OA
ENDBRANCH  89  92
ENDBRANCH  62  85
ENDBRANCH  36  37
ENDBRANCH  28  31
ENDBRANCH  26  27
ENDBRANCH  25  26
ENDBRANCH  24  25
ENDBRANCH   3  24
TORSDOF 19
ENDMDL
MODEL 2
REMARK VINA RESULT:     -11.2      7.975     11.498
REMARK SMILES O=C(Cn1cccc1C(=O)NCCC(=O)NC1CC1)NCCCNC(=O)c1ccc(-c2c3nc(c(-c4cccc(S(=O)(=O)[O-])c4F)c4ccc([nH]4)c(-c4cccc(S(=O)(=O)[O-])c4F)c4nc(c(-c5cccc(S(=O)(=O)[O-])c5F)c5ccc2[nH]5)C=C4)C=C3)cc1
REMARK SMILES IDX 1 1 2 2 20 3 3 5 4 6 5 7 8 8 6 9 7 10 9 11 10 12 11 13 12 15
REMARK SMILES IDX 13 16 14 17 15 18 16 19 17 21 18 22 19 23 21 24 22 25 23 26
REMARK SMILES IDX 24 27 25 28 26 30 27 31 28 32 89 33 29 34 88 35 30 36 31 37
REMARK SMILES IDX 32 38 82 39 33 40 87 41 81 42 83 43 34 44 86 45 80 46 79 47
REMARK SMILES IDX 35 49 67 50 47 51 66 52 48 53 51 54 65 55 84 56 49 57 50 58
REMARK SMILES IDX 64 60 85 61 52 62 36 63 37 64 45 65 38 66 40 67 46 68 39 69
REMARK SMILES IDX 41 70 42 71 43 72 44 73 68 74 69 75 77 76 70 77 72 78 78 79
REMARK SMILES IDX 71 80 73 81 74 82 75 83 76 84 53 85 54 86 62 87 55 88 57 89
REMARK SMILES IDX 63 90 56 91 58 92 59 93 60 94 61 95
REMARK H PARENT 20 4 11 14 16 20 24 29 83 48 51 59
REMARK Flexibility Score: inf
ROOT
ATOM      1  O   UNL A   1      38.259  30.170  35.174  1.00  0.00    -0.273 OA
ATOM      2  C   UNL A   1      38.479  30.951  34.252  1.00  0.00     0.239 C 
ATOM      3  N   UNL A   1      38.076  30.732  32.953  1.00  0.00    -0.354 N 
ATOM      4  H   UNL A   1      38.470  31.288  32.242  1.00  0.00     0.163 HD
ENDROOT
BRANCH   2   5
ATOM      5  C   UNL A   1      39.126  32.302  34.457  1.00  0.00     0.222 C 
BRANCH   5   6
ATOM      6  N   UNL A   1      38.859  33.324  33.463  1.00  0.00    -0.334 N 
ATOM      7  C   UNL A   1      39.805  33.787  32.571  1.00  0.00     0.087 A 
ATOM      8  C   UNL A   1      37.630  33.924  33.216  1.00  0.00     0.107 A 
ATOM      9  C   UNL A   1      39.200  34.643  31.690  1.00  0.00     0.020 A 
ATOM     10  C   UNL A   1      37.859  34.733  32.094  1.00  0.00     0.033 A 
BRANCH   8  11
ATOM     11  C   UNL A   1      36.285  33.831  33.794  1.00  0.00     0.267 C 
ATOM     12  O   UNL A   1      35.995  32.821  34.450  1.00  0.00    -0.268 OA
ATOM     13  N   UNL A   1      35.231  34.688  33.673  1.00  0.00    -0.350 N 
ATOM     14  H   UNL A   1      34.496  34.376  34.248  1.00  0.00     0.163 HD
BRANCH  13  15
ATOM     15  C   UNL A   1      34.817  35.903  32.989  1.00  0.00     0.126 C 
BRANCH  15  16
ATOM     16  C   UNL A   1      33.343  35.964  32.618  1.00  0.00     0.121 C 
BRANCH  16  17
ATOM     17  C   UNL A   1      33.042  37.074  31.642  1.00  0.00     0.221 C 
ATOM     18  O   UNL A   1      32.940  38.240  32.038  1.00  0.00    -0.275 OA
ATOM     19  N   UNL A   1      32.906  36.845  30.309  1.00  0.00    -0.353 N 
ATOM     20  H   UNL A   1      32.727  37.662  29.791  1.00  0.00     0.163 HD
BRANCH  19  21
ATOM     21  C   UNL A   1      32.969  35.671  29.507  1.00  0.00     0.082 C 
ATOM     22  C   UNL A   1      34.169  35.533  28.594  1.00  0.00     0.027 C 
ATOM     23  C   UNL A   1      33.868  34.478  29.602  1.00  0.00     0.027 C 
ENDBRANCH  19  21
ENDBRANCH  16  17
ENDBRANCH  15  16
ENDBRANCH  13  15
ENDBRANCH   8  11
ENDBRANCH   5   6
ENDBRANCH   2   5
BRANCH   3  24
ATOM     24  C   UNL A   1      37.106  29.726  32.580  1.00  0.00     0.117 C 
BRANCH  24  25
ATOM     25  C   UNL A   1      35.887  30.364  31.901  1.00  0.00     0.042 C 
BRANCH  25  26
ATOM     26  C   UNL A   1      36.262  31.379  30.817  1.00  0.00     0.118 C 
BRANCH  26  27
ATOM     27  N   UNL A   1      35.735  30.982  29.521  1.00  0.00    -0.352 N 
ATOM     28  C   UNL A   1      36.324  30.312  28.477  1.00  0.00     0.251 C 
ATOM     29  H   UNL A   1      34.797  31.237  29.365  1.00  0.00     0.163 HD
ATOM     30  O   UNL A   1      35.780  30.364  27.381  1.00  0.00    -0.269 OA
BRANCH  28  31
ATOM     31  C   UNL A   1      37.579  29.543  28.635  1.00  0.00     0.039 A 
ATOM     32  C   UNL A   1      38.598  29.758  27.692  1.00  0.00     0.014 A 
ATOM     33  C   UNL A   1      37.732  28.555  29.609  1.00  0.00     0.014 A 
ATOM     34  C   UNL A   1      39.783  29.031  27.762  1.00  0.00     0.010 A 
ATOM     35  C   UNL A   1      38.916  27.838  29.691  1.00  0.00     0.010 A 
ATOM     36  C   UNL A   1      39.947  28.090  28.782  1.00  0.00    -0.014 A 
BRANCH  36  37
ATOM     37  C   UNL A   1      41.266  27.462  29.009  1.00  0.00     0.031 A 
ATOM     38  C   UNL A   1      41.277  25.984  28.514  1.00  0.00     0.074 A 
ATOM     39  C   UNL A   1      42.217  28.280  29.564  1.00  0.00     0.049 A 
ATOM     40  N   UNL A   1      41.989  24.964  28.899  1.00  0.00    -0.248 NA
ATOM     41  C   UNL A   1      40.270  25.554  27.499  1.00  0.00     0.031 C 
ATOM     42  C   UNL A   1      42.009  29.706  29.926  1.00  0.00     0.029 A 
ATOM     43  N   UNL A   1      43.539  28.115  29.926  1.00  0.00    -0.354 N 
ATOM     44  C   UNL A   1      41.691  23.877  28.025  1.00  0.00     0.074 A 
ATOM     45  C   UNL A   1      40.535  24.262  27.283  1.00  0.00     0.031 C 
ATOM     46  C   UNL A   1      43.108  30.229  30.515  1.00  0.00     0.029 A 
ATOM     47  C   UNL A   1      44.150  29.223  30.573  1.00  0.00     0.049 A 
ATOM     48  H   UNL A   1      44.029  27.280  29.746  1.00  0.00     0.167 HD
ATOM     49  C   UNL A   1      42.510  22.791  27.864  1.00  0.00     0.034 A 
ATOM     50  C   UNL A   1      45.392  29.305  31.153  1.00  0.00     0.034 A 
ATOM     51  C   UNL A   1      43.667  22.967  28.676  1.00  0.00     0.049 A 
ATOM     52  C   UNL A   1      46.059  28.047  30.795  1.00  0.00     0.074 A 
ATOM     53  C   UNL A   1      43.888  22.861  30.021  1.00  0.00     0.029 A 
ATOM     54  N   UNL A   1      44.691  23.668  28.087  1.00  0.00    -0.354 N 
ATOM     55  N   UNL A   1      46.480  27.751  29.601  1.00  0.00    -0.248 NA
ATOM     56  C   UNL A   1      46.125  26.978  31.799  1.00  0.00     0.031 C 
ATOM     57  C   UNL A   1      44.786  23.917  30.273  1.00  0.00     0.029 A 
ATOM     58  C   UNL A   1      45.240  24.456  29.062  1.00  0.00     0.049 A 
ATOM     59  H   UNL A   1      44.974  23.616  27.146  1.00  0.00     0.167 HD
ATOM     60  C   UNL A   1      46.506  26.380  29.642  1.00  0.00     0.074 A 
ATOM     61  C   UNL A   1      46.620  26.009  31.036  1.00  0.00     0.031 C 
ATOM     62  C   UNL A   1      45.921  25.658  28.652  1.00  0.00     0.034 A 
BRANCH  49  63
ATOM     63  C   UNL A   1      42.587  21.627  26.893  1.00  0.00     0.023 A 
ATOM     64  C   UNL A   1      41.684  20.554  27.165  1.00  0.00     0.012 A 
ATOM     65  C   UNL A   1      43.631  21.368  25.990  1.00  0.00     0.148 A 
ATOM     66  C   UNL A   1      41.884  19.259  26.693  1.00  0.00     0.002 A 
ATOM     67  C   UNL A   1      43.797  20.073  25.474  1.00  0.00     0.091 A 
ATOM     68  F   UNL A   1      44.499  22.340  25.695  1.00  0.00    -0.205 F 
ATOM     69  C   UNL A   1      42.957  19.015  25.858  1.00  0.00     0.022 A 
BRANCH  67  70
ATOM     70  S   UNL A   1      45.088  19.639  24.300  1.00  0.00     0.127 S 
ATOM     71  O   UNL A   1      45.128  18.184  24.416  1.00  0.00    -0.237 OA
ATOM     72  O   UNL A   1      44.524  20.128  23.038  1.00  0.00    -0.237 OA
ATOM     73  O   UNL A   1      46.274  20.362  24.737  1.00  0.00    -0.744 OA
ENDBRANCH  67  70
ENDBRANCH  49  63
BRANCH  50  74
ATOM     74  C   UNL A   1      46.119  30.227  32.111  1.00  0.00     0.023 A 
ATOM     75  C   UNL A   1      47.444  30.657  31.955  1.00  0.00     0.012 A 
ATOM     76  C   UNL A   1      45.410  30.810  33.210  1.00  0.00     0.148 A 
ATOM     77  C   UNL A   1      47.982  31.684  32.762  1.00  0.00     0.002 A 
ATOM     78  C   UNL A   1      45.889  31.912  33.909  1.00  0.00     0.091 A 
ATOM     79  F   UNL A   1      44.260  30.267  33.622  1.00  0.00    -0.205 F 
ATOM     80  C   UNL A   1      47.190  32.349  33.698  1.00  0.00     0.022 A 
BRANCH  78  81
ATOM     81  S   UNL A   1      44.811  32.909  34.960  1.00  0.00     0.127 S 
ATOM     82  O   UNL A   1      45.572  34.148  35.106  1.00  0.00    -0.237 OA
ATOM     83  O   UNL A   1      43.613  33.019  34.128  1.00  0.00    -0.237 OA
ATOM     84  O   UNL A   1      44.620  32.150  36.189  1.00  0.00    -0.744 OA
ENDBRANCH  78  81
ENDBRANCH  50  74
BRANCH  62  85
ATOM     85  C   UNL A   1      45.822  26.355  27.293  1.00  0.00     0.023 A 
ATOM     86  C   UNL A   1      44.539  26.781  26.899  1.00  0.00     0.012 A 
ATOM     87  C   UNL A   1      46.877  26.552  26.364  1.00  0.00     0.148 A 
ATOM     88  C   UNL A   1      44.305  27.364  25.650  1.00  0.00     0.002 A 
ATOM     89  C   UNL A   1      46.644  27.133  25.108  1.00  0.00     0.091 A 
ATOM     90  F   UNL A   1      48.107  26.177  26.701  1.00  0.00    -0.205 F 
ATOM     91  C   UNL A   1      45.354  27.541  24.755  1.00  0.00     0.022 A 
BRANCH  89  92
ATOM     92  S   UNL A   1      47.918  27.360  23.844  1.00  0.00     0.127 S 
ATOM     93  O   UNL A   1      48.981  28.053  24.575  1.00  0.00    -0.237 OA
ATOM     94  O   UNL A   1      48.256  25.987  23.480  1.00  0.00    -0.237 OA
ATOM     95  O   UNL A   1      47.318  28.157  22.781  1.00  0.00    -0.744 OA
ENDBRANCH  89  92
ENDBRANCH  62  85
ENDBRANCH  36  37
ENDBRANCH  28  31
ENDBRANCH  26  27
ENDBRANCH  25  26
ENDBRANCH  24  25
ENDBRANCH   3  24
TORSDOF 19
ENDMDL
MODEL 3
REMARK VINA RESULT:     -10.9      7.791     12.264
REMARK SMILES O=C(Cn1cccc1C(=O)NCCC(=O)NC1CC1)NCCCNC(=O)c1ccc(-c2c3nc(c(-c4cccc(S(=O)(=O)[O-])c4F)c4ccc([nH]4)c(-c4cccc(S(=O)(=O)[O-])c4F)c4nc(c(-c5cccc(S(=O)(=O)[O-])c5F)c5ccc2[nH]5)C=C4)C=C3)cc1
REMARK SMILES IDX 1 1 2 2 20 3 3 5 4 6 5 7 8 8 6 9 7 10 9 11 10 12 11 13 12 15
REMARK SMILES IDX 13 16 14 17 15 18 16 19 17 21 18 22 19 23 21 24 22 25 23 26
REMARK SMILES IDX 24 27 25 28 26 30 27 31 28 32 89 33 29 34 88 35 30 36 31 37
REMARK SMILES IDX 32 38 82 39 33 40 87 41 81 42 83 43 34 44 86 45 80 46 79 47
REMARK SMILES IDX 35 49 67 50 47 51 66 52 48 53 51 54 65 55 84 56 49 57 50 58
REMARK SMILES IDX 64 60 85 61 52 62 36 63 37 64 45 65 38 66 40 67 46 68 39 69
REMARK SMILES IDX 41 70 42 71 43 72 44 73 68 74 69 75 77 76 70 77 72 78 78 79
REMARK SMILES IDX 71 80 73 81 74 82 75 83 76 84 53 85 54 86 62 87 55 88 57 89
REMARK SMILES IDX 63 90 56 91 58 92 59 93 60 94 61 95
REMARK H PARENT 20 4 11 14 16 20 24 29 83 48 51 59
REMARK Flexibility Score: inf
ROOT
ATOM      1  O   UNL A   1      34.924  24.631  25.375  1.00  0.00    -0.273 OA
ATOM      2  C   UNL A   1      35.221  23.777  24.544  1.00  0.00     0.239 C 
ATOM      3  N   UNL A   1      36.233  22.858  24.723  1.00  0.00    -0.354 N 
ATOM      4  H   UNL A   1      36.549  22.354  23.939  1.00  0.00     0.163 HD
ENDROOT
BRANCH   2   5
ATOM      5  C   UNL A   1      34.438  23.563  23.269  1.00  0.00     0.222 C 
BRANCH   5   6
ATOM      6  N   UNL A   1      32.995  23.691  23.346  1.00  0.00    -0.334 N 
ATOM      7  C   UNL A   1      32.194  22.860  24.102  1.00  0.00     0.087 A 
ATOM      8  C   UNL A   1      32.229  24.684  22.747  1.00  0.00     0.107 A 
ATOM      9  C   UNL A   1      30.909  23.329  24.062  1.00  0.00     0.020 A 
ATOM     10  C   UNL A   1      30.929  24.451  23.220  1.00  0.00     0.033 A 
BRANCH   8  11
ATOM     11  C   UNL A   1      32.499  25.830  21.874  1.00  0.00     0.267 C 
ATOM     12  O   UNL A   1      33.410  25.734  21.040  1.00  0.00    -0.268 OA
ATOM     13  N   UNL A   1      31.924  27.067  21.869  1.00  0.00    -0.350 N 
ATOM     14  H   UNL A   1      32.276  27.582  21.106  1.00  0.00     0.163 HD
BRANCH  13  15
ATOM     15  C   UNL A   1      30.972  27.890  22.598  1.00  0.00     0.126 C 
BRANCH  15  16
ATOM     16  C   UNL A   1      31.476  28.439  23.924  1.00  0.00     0.121 C 
BRANCH  16  17
ATOM     17  C   UNL A   1      32.781  29.180  23.780  1.00  0.00     0.221 C 
ATOM     18  O   UNL A   1      33.274  29.360  22.662  1.00  0.00    -0.275 OA
ATOM     19  N   UNL A   1      33.438  29.700  24.851  1.00  0.00    -0.353 N 
ATOM     20  H   UNL A   1      34.267  30.171  24.607  1.00  0.00     0.163 HD
BRANCH  19  21
ATOM     21  C   UNL A   1      33.177  29.706  26.250  1.00  0.00     0.082 C 
ATOM     22  C   UNL A   1      34.085  28.858  27.115  1.00  0.00     0.027 C 
ATOM     23  C   UNL A   1      33.948  30.318  27.378  1.00  0.00     0.027 C 
ENDBRANCH  19  21
ENDBRANCH  16  17
ENDBRANCH  15  16
ENDBRANCH  13  15
ENDBRANCH   8  11
ENDBRANCH   5   6
ENDBRANCH   2   5
BRANCH   3  24
ATOM     24  C   UNL A   1      36.853  22.597  26.003  1.00  0.00     0.117 C 
BRANCH  24  25
ATOM     25  C   UNL A   1      38.360  22.878  25.951  1.00  0.00     0.042 C 
BRANCH  25  26
ATOM     26  C   UNL A   1      38.738  24.251  26.515  1.00  0.00     0.118 C 
BRANCH  26  27
ATOM     27  N   UNL A   1      40.026  24.692  26.002  1.00  0.00    -0.352 N 
ATOM     28  C   UNL A   1      40.696  25.881  26.155  1.00  0.00     0.251 C 
ATOM     29  H   UNL A   1      40.497  24.025  25.453  1.00  0.00     0.163 HD
ATOM     30  O   UNL A   1      41.615  26.126  25.383  1.00  0.00    -0.269 OA
BRANCH  28  31
ATOM     31  C   UNL A   1      40.344  26.861  27.207  1.00  0.00     0.039 A 
ATOM     32  C   UNL A   1      39.559  26.409  28.281  1.00  0.00     0.014 A 
ATOM     33  C   UNL A   1      40.673  28.213  27.108  1.00  0.00     0.014 A 
ATOM     34  C   UNL A   1      39.158  27.295  29.278  1.00  0.00     0.010 A 
ATOM     35  C   UNL A   1      40.287  29.097  28.106  1.00  0.00     0.010 A 
ATOM     36  C   UNL A   1      39.549  28.634  29.198  1.00  0.00    -0.014 A 
BRANCH  36  37
ATOM     37  C   UNL A   1      39.322  29.544  30.341  1.00  0.00     0.031 A 
ATOM     38  C   UNL A   1      40.152  29.104  31.584  1.00  0.00     0.074 A 
ATOM     39  C   UNL A   1      38.474  30.594  30.095  1.00  0.00     0.049 A 
ATOM     40  N   UNL A   1      39.941  29.285  32.856  1.00  0.00    -0.248 NA
ATOM     41  C   UNL A   1      41.356  28.244  31.381  1.00  0.00     0.031 C 
ATOM     42  C   UNL A   1      37.808  30.865  28.794  1.00  0.00     0.029 A 
ATOM     43  N   UNL A   1      38.005  31.652  30.847  1.00  0.00    -0.354 N 
ATOM     44  C   UNL A   1      41.080  28.791  33.557  1.00  0.00     0.074 A 
ATOM     45  C   UNL A   1      41.842  28.044  32.609  1.00  0.00     0.031 C 
ATOM     46  C   UNL A   1      36.981  31.932  28.878  1.00  0.00     0.029 A 
ATOM     47  C   UNL A   1      37.040  32.484  30.217  1.00  0.00     0.049 A 
ATOM     48  H   UNL A   1      38.320  31.819  31.765  1.00  0.00     0.167 HD
ATOM     49  C   UNL A   1      41.397  29.158  34.838  1.00  0.00     0.034 A 
ATOM     50  C   UNL A   1      36.311  33.517  30.753  1.00  0.00     0.034 A 
ATOM     51  C   UNL A   1      40.432  30.100  35.294  1.00  0.00     0.049 A 
ATOM     52  C   UNL A   1      36.878  33.723  32.092  1.00  0.00     0.074 A 
ATOM     53  C   UNL A   1      39.135  29.981  35.712  1.00  0.00     0.029 A 
ATOM     54  N   UNL A   1      40.706  31.411  34.985  1.00  0.00    -0.354 N 
ATOM     55  N   UNL A   1      38.047  34.241  32.324  1.00  0.00    -0.248 NA
ATOM     56  C   UNL A   1      36.160  33.175  33.248  1.00  0.00     0.031 C 
ATOM     57  C   UNL A   1      38.529  31.135  35.177  1.00  0.00     0.029 A 
ATOM     58  C   UNL A   1      39.511  31.999  34.673  1.00  0.00     0.049 A 
ATOM     59  H   UNL A   1      41.590  31.843  34.987  1.00  0.00     0.167 HD
ATOM     60  C   UNL A   1      38.334  33.743  33.569  1.00  0.00     0.074 A 
ATOM     61  C   UNL A   1      37.068  33.417  34.188  1.00  0.00     0.031 C 
ATOM     62  C   UNL A   1      39.533  33.150  33.805  1.00  0.00     0.034 A 
BRANCH  49  63
ATOM     63  C   UNL A   1      42.602  28.994  35.745  1.00  0.00     0.023 A 
ATOM     64  C   UNL A   1      43.707  29.845  35.439  1.00  0.00     0.012 A 
ATOM     65  C   UNL A   1      42.849  27.914  36.609  1.00  0.00     0.148 A 
ATOM     66  C   UNL A   1      45.012  29.565  35.840  1.00  0.00     0.002 A 
ATOM     67  C   UNL A   1      44.158  27.666  37.053  1.00  0.00     0.091 A 
ATOM     68  F   UNL A   1      41.848  27.091  36.933  1.00  0.00    -0.205 F 
ATOM     69  C   UNL A   1      45.239  28.459  36.635  1.00  0.00     0.022 A 
BRANCH  67  70
ATOM     70  S   UNL A   1      44.580  26.324  38.172  1.00  0.00     0.127 S 
ATOM     71  O   UNL A   1      46.029  26.240  38.015  1.00  0.00    -0.237 OA
ATOM     72  O   UNL A   1      44.144  26.860  39.465  1.00  0.00    -0.237 OA
ATOM     73  O   UNL A   1      43.807  25.176  37.717  1.00  0.00    -0.744 OA
ENDBRANCH  67  70
ENDBRANCH  49  63
BRANCH  50  74
ATOM     74  C   UNL A   1      35.078  34.320  30.390  1.00  0.00     0.023 A 
ATOM     75  C   UNL A   1      34.243  34.050  29.298  1.00  0.00     0.012 A 
ATOM     76  C   UNL A   1      34.636  35.370  31.256  1.00  0.00     0.148 A 
ATOM     77  C   UNL A   1      32.996  34.699  29.149  1.00  0.00     0.002 A 
ATOM     78  C   UNL A   1      33.354  35.906  31.189  1.00  0.00     0.091 A 
ATOM     79  F   UNL A   1      35.482  35.899  32.145  1.00  0.00    -0.205 F 
ATOM     80  C   UNL A   1      32.528  35.582  30.121  1.00  0.00     0.022 A 
BRANCH  78  81
ATOM     81  S   UNL A   1      32.660  36.876  32.545  1.00  0.00     0.127 S 
ATOM     82  O   UNL A   1      32.872  38.248  32.091  1.00  0.00    -0.237 OA
ATOM     83  O   UNL A   1      31.266  36.434  32.535  1.00  0.00    -0.237 OA
ATOM     84  O   UNL A   1      33.401  36.497  33.742  1.00  0.00    -0.744 OA
ENDBRANCH  78  81
ENDBRANCH  50  74
BRANCH  62  85
ATOM     85  C   UNL A   1      40.685  33.604  32.907  1.00  0.00     0.023 A 
ATOM     86  C   UNL A   1      40.832  32.923  31.683  1.00  0.00     0.012 A 
ATOM     87  C   UNL A   1      41.660  34.590  33.213  1.00  0.00     0.148 A 
ATOM     88  C   UNL A   1      41.888  33.194  30.808  1.00  0.00     0.002 A 
ATOM     89  C   UNL A   1      42.723  34.861  32.339  1.00  0.00     0.091 A 
ATOM     90  F   UNL A   1      41.551  35.267  34.352  1.00  0.00    -0.205 F 
ATOM     91  C   UNL A   1      42.832  34.160  31.133  1.00  0.00     0.022 A 
BRANCH  89  92
ATOM     92  S   UNL A   1      44.039  36.054  32.682  1.00  0.00     0.127 S 
ATOM     93  O   UNL A   1      44.724  35.461  33.832  1.00  0.00    -0.237 OA
ATOM     94  O   UNL A   1      44.825  36.025  31.451  1.00  0.00    -0.237 OA
ATOM     95  O   UNL A   1      43.387  37.325  32.975  1.00  0.00    -0.744 OA
ENDBRANCH  89  92
ENDBRANCH  62  85
ENDBRANCH  36  37
ENDBRANCH  28  31
ENDBRANCH  26  27
ENDBRANCH  25  26
ENDBRANCH  24  25
ENDBRANCH   3  24
TORSDOF 19
ENDMDL
