MODEL 1
REMARK VINA RESULT:     -11.5      0.000      0.000
REMARK SMILES C[C@H]1C[NH+](CC[C@@H]2CCC[C@]2([NH3+])C(=O)NCCCNC(=O)c2ccc(-c3c4nc(c(-c5cccc(S(=O)(=O)[O-])c5F)c5ccc([nH]5)c(-c5cccc(S(=O)(=O)[O-])c5F)c5nc(c(-c6cccc(S(=O)(=O)[O-])c6F)c6ccc3[nH]6)C=C5)C=C4)cc2)C[C@H](C)O1
REMARK SMILES IDX 17 1 16 2 15 3 13 4 14 5 11 7 7 8 8 9 9 10 10 11 6 12 5 13
REMARK SMILES IDX 4 14 1 15 2 16 3 17 88 18 86 19 85 20 87 22 12 23 18 27
REMARK SMILES IDX 19 28 20 29 21 31 22 32 23 33 84 34 24 35 83 36 25 37 26 38
REMARK SMILES IDX 27 39 77 40 28 41 82 42 76 43 78 44 29 45 81 46 75 47 74 48
REMARK SMILES IDX 30 50 62 51 42 52 61 53 43 54 46 55 60 56 79 57 44 58 45 59
REMARK SMILES IDX 59 61 80 62 47 63 31 64 32 65 40 66 33 67 35 68 41 69 34 70
REMARK SMILES IDX 36 71 37 72 38 73 39 74 63 75 64 76 72 77 65 78 67 79 73 80
REMARK SMILES IDX 66 81 68 82 69 83 70 84 71 85 48 86 49 87 57 88 50 89 52 90
REMARK SMILES IDX 58 91 51 92 53 93 54 94 55 95 56 96
REMARK H PARENT 15 6 4 21 12 24 12 25 12 26 19 30 78 49 46 60
REMARK Flexibility Score: inf
ROOT
ATOM      1  C   UNL A   1      33.421  27.729  26.631  1.00  0.00     0.042 C 
ENDROOT
BRANCH   1   2
ATOM      2  C   UNL A   1      31.966  27.900  27.091  1.00  0.00     0.118 C 
BRANCH   2   3
ATOM      3  N   UNL A   1      31.060  26.754  26.840  1.00  0.00    -0.351 N 
ATOM      4  C   UNL A   1      30.731  25.765  25.976  1.00  0.00     0.281 C 
ATOM      5  O   UNL A   1      30.290  24.806  26.648  1.00  0.00    -0.268 OA
ATOM      6  H   UNL A   1      30.455  26.684  27.612  1.00  0.00     0.163 HD
BRANCH   4   7
ATOM      7  C   UNL A   1      30.825  25.548  24.365  1.00  0.00     0.177 C 
ATOM      8  C   UNL A   1      31.800  26.310  23.418  1.00  0.00     0.066 C 
ATOM      9  C   UNL A   1      31.313  27.772  23.538  1.00  0.00     0.011 C 
ATOM     10  C   UNL A   1      29.791  27.676  23.637  1.00  0.00     0.008 C 
ATOM     11  C   UNL A   1      29.496  26.193  23.804  1.00  0.00     0.079 C 
BRANCH   8  12
ATOM     12  C   UNL A   1      33.335  26.163  23.305  1.00  0.00     0.072 C 
BRANCH  12  13
ATOM     13  C   UNL A   1      33.948  24.824  22.950  1.00  0.00     0.262 C 
BRANCH  13  14
ATOM     14  N   UNL A   1      34.623  23.923  23.887  1.00  0.00    -0.331 N 
ATOM     15  C   UNL A   1      34.502  20.278  24.950  1.00  0.00     0.045 C 
ATOM     16  C   UNL A   1      35.070  21.674  24.766  1.00  0.00     0.170 C 
ATOM     17  C   UNL A   1      34.064  22.580  24.009  1.00  0.00     0.294 C 
ATOM     18  O   UNL A   1      35.361  22.166  26.087  1.00  0.00    -0.364 OA
ATOM     19  C   UNL A   1      35.856  23.506  26.080  1.00  0.00     0.170 C 
ATOM     20  C   UNL A   1      34.979  24.427  25.201  1.00  0.00     0.294 C 
ATOM     21  H   UNL A   1      35.502  23.862  23.374  1.00  0.00     0.348 HD
ATOM     22  C   UNL A   1      37.352  23.557  25.752  1.00  0.00     0.045 C 
ENDBRANCH  13  14
ENDBRANCH  12  13
ENDBRANCH   8  12
BRANCH   7  23
ATOM     23  N   UNL A   1      30.558  24.149  23.969  1.00  0.00    -0.345 N 
ATOM     24  H   UNL A   1      29.658  23.854  24.348  1.00  0.00     0.345 HD
ATOM     25  H   UNL A   1      31.295  23.544  24.333  1.00  0.00     0.345 HD
ATOM     26  H   UNL A   1      30.536  24.081  22.951  1.00  0.00     0.345 HD
ENDBRANCH   7  23
ENDBRANCH   4   7
ENDBRANCH   2   3
ENDBRANCH   1   2
BRANCH   1  27
ATOM     27  C   UNL A   1      34.078  28.934  25.973  1.00  0.00     0.118 C 
BRANCH  27  28
ATOM     28  N   UNL A   1      33.798  30.208  26.630  1.00  0.00    -0.352 N 
ATOM     29  C   UNL A   1      34.492  30.873  27.627  1.00  0.00     0.251 C 
ATOM     30  H   UNL A   1      32.987  30.666  26.314  1.00  0.00     0.163 HD
ATOM     31  O   UNL A   1      34.015  31.896  28.103  1.00  0.00    -0.269 OA
BRANCH  29  32
ATOM     32  C   UNL A   1      35.788  30.355  28.144  1.00  0.00     0.039 A 
ATOM     33  C   UNL A   1      35.814  29.628  29.343  1.00  0.00     0.014 A 
ATOM     34  C   UNL A   1      36.985  30.593  27.472  1.00  0.00     0.014 A 
ATOM     35  C   UNL A   1      37.022  29.103  29.822  1.00  0.00     0.010 A 
ATOM     36  C   UNL A   1      38.155  29.959  27.874  1.00  0.00     0.010 A 
ATOM     37  C   UNL A   1      38.202  29.240  29.076  1.00  0.00    -0.014 A 
BRANCH  37  38
ATOM     38  C   UNL A   1      39.514  28.715  29.546  1.00  0.00     0.031 A 
ATOM     39  C   UNL A   1      40.235  29.416  30.674  1.00  0.00     0.074 A 
ATOM     40  C   UNL A   1      40.105  27.684  28.907  1.00  0.00     0.049 A 
ATOM     41  N   UNL A   1      41.431  29.198  31.156  1.00  0.00    -0.248 NA
ATOM     42  C   UNL A   1      39.537  30.546  31.314  1.00  0.00     0.031 C 
ATOM     43  C   UNL A   1      39.556  26.976  27.748  1.00  0.00     0.029 A 
ATOM     44  N   UNL A   1      41.314  27.070  29.125  1.00  0.00    -0.354 N 
ATOM     45  C   UNL A   1      41.647  30.194  32.103  1.00  0.00     0.074 A 
ATOM     46  C   UNL A   1      40.483  31.050  32.090  1.00  0.00     0.031 C 
ATOM     47  C   UNL A   1      40.416  26.017  27.369  1.00  0.00     0.029 A 
ATOM     48  C   UNL A   1      41.592  26.062  28.230  1.00  0.00     0.049 A 
ATOM     49  H   UNL A   1      41.924  27.327  29.853  1.00  0.00     0.167 HD
ATOM     50  C   UNL A   1      42.697  30.363  32.942  1.00  0.00     0.034 A 
ATOM     51  C   UNL A   1      42.675  25.267  28.116  1.00  0.00     0.034 A 
ATOM     52  C   UNL A   1      43.817  29.467  33.001  1.00  0.00     0.049 A 
ATOM     53  C   UNL A   1      43.799  25.427  29.106  1.00  0.00     0.074 A 
ATOM     54  C   UNL A   1      44.888  29.482  33.877  1.00  0.00     0.029 A 
ATOM     55  N   UNL A   1      44.009  28.390  32.149  1.00  0.00    -0.354 N 
ATOM     56  N   UNL A   1      43.918  26.287  30.088  1.00  0.00    -0.248 NA
ATOM     57  C   UNL A   1      44.917  24.478  29.001  1.00  0.00     0.031 C 
ATOM     58  C   UNL A   1      45.742  28.428  33.535  1.00  0.00     0.029 A 
ATOM     59  C   UNL A   1      45.181  27.733  32.475  1.00  0.00     0.049 A 
ATOM     60  H   UNL A   1      43.400  28.131  31.419  1.00  0.00     0.167 HD
ATOM     61  C   UNL A   1      45.098  25.957  30.744  1.00  0.00     0.074 A 
ATOM     62  C   UNL A   1      45.649  24.807  30.057  1.00  0.00     0.031 C 
ATOM     63  C   UNL A   1      45.680  26.556  31.813  1.00  0.00     0.034 A 
BRANCH  50  64
ATOM     64  C   UNL A   1      42.655  31.530  33.897  1.00  0.00     0.023 A 
ATOM     65  C   UNL A   1      43.167  32.784  33.498  1.00  0.00     0.012 A 
ATOM     66  C   UNL A   1      42.076  31.400  35.174  1.00  0.00     0.148 A 
ATOM     67  C   UNL A   1      43.149  33.873  34.369  1.00  0.00     0.002 A 
ATOM     68  C   UNL A   1      42.011  32.504  36.017  1.00  0.00     0.091 A 
ATOM     69  F   UNL A   1      41.610  30.200  35.546  1.00  0.00    -0.205 F 
ATOM     70  C   UNL A   1      42.563  33.736  35.624  1.00  0.00     0.022 A 
BRANCH  68  71
ATOM     71  S   UNL A   1      41.200  32.458  37.619  1.00  0.00     0.127 S 
ATOM     72  O   UNL A   1      39.903  31.878  37.276  1.00  0.00    -0.237 OA
ATOM     73  O   UNL A   1      42.081  31.575  38.383  1.00  0.00    -0.237 OA
ATOM     74  O   UNL A   1      41.162  33.835  38.090  1.00  0.00    -0.744 OA
ENDBRANCH  68  71
ENDBRANCH  50  64
BRANCH  51  75
ATOM     75  C   UNL A   1      42.717  24.202  27.074  1.00  0.00     0.023 A 
ATOM     76  C   UNL A   1      43.475  24.407  25.902  1.00  0.00     0.012 A 
ATOM     77  C   UNL A   1      42.035  22.981  27.242  1.00  0.00     0.148 A 
ATOM     78  C   UNL A   1      43.521  23.434  24.902  1.00  0.00     0.002 A 
ATOM     79  C   UNL A   1      42.132  21.993  26.268  1.00  0.00     0.091 A 
ATOM     80  F   UNL A   1      41.315  22.807  28.358  1.00  0.00    -0.205 F 
ATOM     81  C   UNL A   1      42.858  22.225  25.090  1.00  0.00     0.022 A 
BRANCH  79  82
ATOM     82  S   UNL A   1      41.422  20.357  26.479  1.00  0.00     0.127 S 
ATOM     83  O   UNL A   1      41.829  20.027  27.842  1.00  0.00    -0.237 OA
ATOM     84  O   UNL A   1      39.995  20.623  26.309  1.00  0.00    -0.237 OA
ATOM     85  O   UNL A   1      42.009  19.535  25.428  1.00  0.00    -0.744 OA
ENDBRANCH  79  82
ENDBRANCH  51  75
BRANCH  63  86
ATOM     86  C   UNL A   1      46.946  25.944  32.353  1.00  0.00     0.023 A 
ATOM     87  C   UNL A   1      48.202  26.392  31.898  1.00  0.00     0.012 A 
ATOM     88  C   UNL A   1      46.884  24.975  33.374  1.00  0.00     0.148 A 
ATOM     89  C   UNL A   1      49.375  25.854  32.423  1.00  0.00     0.002 A 
ATOM     90  C   UNL A   1      48.057  24.486  33.932  1.00  0.00     0.091 A 
ATOM     91  F   UNL A   1      45.678  24.551  33.780  1.00  0.00    -0.205 F 
ATOM     92  C   UNL A   1      49.304  24.913  33.448  1.00  0.00     0.022 A 
BRANCH  90  93
ATOM     93  S   UNL A   1      48.057  23.354  35.325  1.00  0.00     0.127 S 
ATOM     94  O   UNL A   1      47.307  24.111  36.325  1.00  0.00    -0.237 OA
ATOM     95  O   UNL A   1      47.348  22.194  34.781  1.00  0.00    -0.237 OA
ATOM     96  O   UNL A   1      49.456  23.109  35.645  1.00  0.00    -0.744 OA
ENDBRANCH  90  93
ENDBRANCH  63  86
ENDBRANCH  37  38
ENDBRANCH  29  32
ENDBRANCH  27  28
ENDBRANCH   1  27
TORSDOF 17
ENDMDL
MODEL 2
REMARK VINA RESULT:     -11.4      1.897      2.611
REMARK SMILES C[C@H]1C[NH+](CC[C@@H]2CCC[C@]2([NH3+])C(=O)NCCCNC(=O)c2ccc(-c3c4nc(c(-c5cccc(S(=O)(=O)[O-])c5F)c5ccc([nH]5)c(-c5cccc(S(=O)(=O)[O-])c5F)c5nc(c(-c6cccc(S(=O)(=O)[O-])c6F)c6ccc3[nH]6)C=C5)C=C4)cc2)C[C@H](C)O1
REMARK SMILES IDX 17 1 16 2 15 3 13 4 14 5 11 7 7 8 8 9 9 10 10 11 6 12 5 13
REMARK SMILES IDX 4 14 1 15 2 16 3 17 88 18 86 19 85 20 87 22 12 23 18 27
REMARK SMILES IDX 19 28 20 29 21 31 22 32 23 33 84 34 24 35 83 36 25 37 26 38
REMARK SMILES IDX 27 39 77 40 28 41 82 42 76 43 78 44 29 45 81 46 75 47 74 48
REMARK SMILES IDX 30 50 62 51 42 52 61 53 43 54 46 55 60 56 79 57 44 58 45 59
REMARK SMILES IDX 59 61 80 62 47 63 31 64 32 65 40 66 33 67 35 68 41 69 34 70
REMARK SMILES IDX 36 71 37 72 38 73 39 74 63 75 64 76 72 77 65 78 67 79 73 80
REMARK SMILES IDX 66 81 68 82 69 83 70 84 71 85 48 86 49 87 57 88 50 89 52 90
REMARK SMILES IDX 58 91 51 92 53 93 54 94 55 95 56 96
REMARK H PARENT 15 6 4 21 12 24 12 25 12 26 19 30 78 49 46 60
REMARK Flexibility Score: inf
ROOT
ATOM      1  C   UNL A   1      31.852  29.125  26.857  1.00  0.00     0.042 C 
ENDROOT
BRANCH   1   2
ATOM      2  C   UNL A   1      32.201  27.636  26.993  1.00  0.00     0.118 C 
BRANCH   2   3
ATOM      3  N   UNL A   1      31.098  26.679  26.744  1.00  0.00    -0.351 N 
ATOM      4  C   UNL A   1      30.571  25.791  25.867  1.00  0.00     0.281 C 
ATOM      5  O   UNL A   1      29.985  24.906  26.529  1.00  0.00    -0.268 OA
ATOM      6  H   UNL A   1      30.512  26.694  27.534  1.00  0.00     0.163 HD
BRANCH   4   7
ATOM      7  C   UNL A   1      30.579  25.612  24.248  1.00  0.00     0.177 C 
ATOM      8  C   UNL A   1      31.516  26.379  23.270  1.00  0.00     0.066 C 
ATOM      9  C   UNL A   1      31.062  27.846  23.448  1.00  0.00     0.011 C 
ATOM     10  C   UNL A   1      29.546  27.773  23.624  1.00  0.00     0.008 C 
ATOM     11  C   UNL A   1      29.234  26.292  23.772  1.00  0.00     0.079 C 
BRANCH   8  12
ATOM     12  C   UNL A   1      33.041  26.209  23.074  1.00  0.00     0.072 C 
BRANCH  12  13
ATOM     13  C   UNL A   1      33.868  25.495  24.122  1.00  0.00     0.262 C 
BRANCH  13  14
ATOM     14  N   UNL A   1      33.624  24.137  24.617  1.00  0.00    -0.331 N 
ATOM     15  C   UNL A   1      33.231  22.322  27.930  1.00  0.00     0.045 C 
ATOM     16  C   UNL A   1      33.114  22.569  26.438  1.00  0.00     0.170 C 
ATOM     17  C   UNL A   1      33.714  23.949  26.062  1.00  0.00     0.294 C 
ATOM     18  O   UNL A   1      33.802  21.481  25.795  1.00  0.00    -0.364 OA
ATOM     19  C   UNL A   1      33.826  21.607  24.372  1.00  0.00     0.170 C 
ATOM     20  C   UNL A   1      34.263  23.025  23.938  1.00  0.00     0.294 C 
ATOM     21  H   UNL A   1      32.642  24.091  24.346  1.00  0.00     0.348 HD
ATOM     22  C   UNL A   1      32.516  21.127  23.738  1.00  0.00     0.045 C 
ENDBRANCH  13  14
ENDBRANCH  12  13
ENDBRANCH   8  12
BRANCH   7  23
ATOM     23  N   UNL A   1      30.267  24.226  23.835  1.00  0.00    -0.345 N 
ATOM     24  H   UNL A   1      29.346  24.202  23.395  1.00  0.00     0.345 HD
ATOM     25  H   UNL A   1      30.269  23.617  24.653  1.00  0.00     0.345 HD
ATOM     26  H   UNL A   1      30.969  23.904  23.169  1.00  0.00     0.345 HD
ENDBRANCH   7  23
ENDBRANCH   4   7
ENDBRANCH   2   3
ENDBRANCH   1   2
BRANCH   1  27
ATOM     27  C   UNL A   1      32.914  30.026  26.243  1.00  0.00     0.118 C 
BRANCH  27  28
ATOM     28  N   UNL A   1      32.809  31.431  26.626  1.00  0.00    -0.352 N 
ATOM     29  C   UNL A   1      33.600  32.190  27.473  1.00  0.00     0.251 C 
ATOM     30  H   UNL A   1      32.056  31.915  26.218  1.00  0.00     0.163 HD
ATOM     31  O   UNL A   1      33.264  33.340  27.728  1.00  0.00    -0.269 OA
BRANCH  29  32
ATOM     32  C   UNL A   1      34.830  31.626  28.092  1.00  0.00     0.039 A 
ATOM     33  C   UNL A   1      35.995  32.406  28.149  1.00  0.00     0.014 A 
ATOM     34  C   UNL A   1      34.859  30.330  28.601  1.00  0.00     0.014 A 
ATOM     35  C   UNL A   1      37.150  31.901  28.762  1.00  0.00     0.010 A 
ATOM     36  C   UNL A   1      35.957  29.883  29.326  1.00  0.00     0.010 A 
ATOM     37  C   UNL A   1      37.134  30.643  29.383  1.00  0.00    -0.014 A 
BRANCH  37  38
ATOM     38  C   UNL A   1      38.336  30.054  30.035  1.00  0.00     0.031 A 
ATOM     39  C   UNL A   1      38.725  30.506  31.424  1.00  0.00     0.074 A 
ATOM     40  C   UNL A   1      39.132  29.201  29.358  1.00  0.00     0.049 A 
ATOM     41  N   UNL A   1      39.790  30.213  32.124  1.00  0.00    -0.248 NA
ATOM     42  C   UNL A   1      37.818  31.455  32.097  1.00  0.00     0.031 C 
ATOM     43  C   UNL A   1      38.917  28.753  27.980  1.00  0.00     0.029 A 
ATOM     44  N   UNL A   1      40.298  28.579  29.729  1.00  0.00    -0.354 N 
ATOM     45  C   UNL A   1      39.708  30.982  33.281  1.00  0.00     0.074 A 
ATOM     46  C   UNL A   1      38.520  31.796  33.166  1.00  0.00     0.031 C 
ATOM     47  C   UNL A   1      39.908  27.917  27.629  1.00  0.00     0.029 A 
ATOM     48  C   UNL A   1      40.847  27.797  28.739  1.00  0.00     0.049 A 
ATOM     49  H   UNL A   1      40.704  28.683  30.620  1.00  0.00     0.167 HD
ATOM     50  C   UNL A   1      40.522  30.985  34.364  1.00  0.00     0.034 A 
ATOM     51  C   UNL A   1      41.983  27.068  28.726  1.00  0.00     0.034 A 
ATOM     52  C   UNL A   1      41.659  30.120  34.505  1.00  0.00     0.049 A 
ATOM     53  C   UNL A   1      42.832  27.031  29.969  1.00  0.00     0.074 A 
ATOM     54  C   UNL A   1      42.495  29.965  35.596  1.00  0.00     0.029 A 
ATOM     55  N   UNL A   1      42.120  29.260  33.519  1.00  0.00    -0.354 N 
ATOM     56  N   UNL A   1      42.659  27.658  31.107  1.00  0.00    -0.248 NA
ATOM     57  C   UNL A   1      44.010  26.151  29.942  1.00  0.00     0.031 C 
ATOM     58  C   UNL A   1      43.479  29.029  35.259  1.00  0.00     0.029 A 
ATOM     59  C   UNL A   1      43.229  28.572  33.974  1.00  0.00     0.049 A 
ATOM     60  H   UNL A   1      41.716  29.155  32.627  1.00  0.00     0.167 HD
ATOM     61  C   UNL A   1      43.677  27.217  31.945  1.00  0.00     0.074 A 
ATOM     62  C   UNL A   1      44.453  26.256  31.188  1.00  0.00     0.031 C 
ATOM     63  C   UNL A   1      43.951  27.579  33.223  1.00  0.00     0.034 A 
BRANCH  50  64
ATOM     64  C   UNL A   1      40.176  31.914  35.502  1.00  0.00     0.023 A 
ATOM     65  C   UNL A   1      40.895  33.117  35.670  1.00  0.00     0.012 A 
ATOM     66  C   UNL A   1      39.117  31.618  36.381  1.00  0.00     0.148 A 
ATOM     67  C   UNL A   1      40.600  33.984  36.722  1.00  0.00     0.002 A 
ATOM     68  C   UNL A   1      38.792  32.513  37.395  1.00  0.00     0.091 A 
ATOM     69  F   UNL A   1      38.454  30.464  36.220  1.00  0.00    -0.205 F 
ATOM     70  C   UNL A   1      39.543  33.687  37.578  1.00  0.00     0.022 A 
BRANCH  68  71
ATOM     71  S   UNL A   1      37.394  32.270  38.496  1.00  0.00     0.127 S 
ATOM     72  O   UNL A   1      37.869  32.911  39.721  1.00  0.00    -0.237 OA
ATOM     73  O   UNL A   1      36.328  32.992  37.803  1.00  0.00    -0.237 OA
ATOM     74  O   UNL A   1      37.196  30.830  38.583  1.00  0.00    -0.744 OA
ENDBRANCH  68  71
ENDBRANCH  50  64
BRANCH  51  75
ATOM     75  C   UNL A   1      42.341  26.258  27.527  1.00  0.00     0.023 A 
ATOM     76  C   UNL A   1      43.064  26.857  26.475  1.00  0.00     0.012 A 
ATOM     77  C   UNL A   1      41.994  24.897  27.429  1.00  0.00     0.148 A 
ATOM     78  C   UNL A   1      43.401  26.129  25.334  1.00  0.00     0.002 A 
ATOM     79  C   UNL A   1      42.382  24.161  26.315  1.00  0.00     0.091 A 
ATOM     80  F   UNL A   1      41.301  24.346  28.435  1.00  0.00    -0.205 F 
ATOM     81  C   UNL A   1      43.069  24.779  25.258  1.00  0.00     0.022 A 
BRANCH  79  82
ATOM     82  S   UNL A   1      42.115  22.390  26.187  1.00  0.00     0.127 S 
ATOM     83  O   UNL A   1      42.805  22.071  24.941  1.00  0.00    -0.237 OA
ATOM     84  O   UNL A   1      42.770  21.898  27.398  1.00  0.00    -0.237 OA
ATOM     85  O   UNL A   1      40.668  22.209  26.172  1.00  0.00    -0.744 OA
ENDBRANCH  79  82
ENDBRANCH  51  75
BRANCH  63  86
ATOM     86  C   UNL A   1      45.099  26.889  33.913  1.00  0.00     0.023 A 
ATOM     87  C   UNL A   1      46.408  27.394  33.788  1.00  0.00     0.012 A 
ATOM     88  C   UNL A   1      44.859  25.783  34.752  1.00  0.00     0.148 A 
ATOM     89  C   UNL A   1      47.467  26.780  34.456  1.00  0.00     0.002 A 
ATOM     90  C   UNL A   1      45.908  25.213  35.458  1.00  0.00     0.091 A 
ATOM     91  F   UNL A   1      43.607  25.309  34.842  1.00  0.00    -0.205 F 
ATOM     92  C   UNL A   1      47.216  25.700  35.300  1.00  0.00     0.022 A 
BRANCH  90  93
ATOM     93  S   UNL A   1      45.659  23.891  36.646  1.00  0.00     0.127 S 
ATOM     94  O   UNL A   1      45.150  22.817  35.795  1.00  0.00    -0.237 OA
ATOM     95  O   UNL A   1      47.014  23.674  37.157  1.00  0.00    -0.237 OA
ATOM     96  O   UNL A   1      44.719  24.406  37.631  1.00  0.00    -0.744 OA
ENDBRANCH  90  93
ENDBRANCH  63  86
ENDBRANCH  37  38
ENDBRANCH  29  32
ENDBRANCH  27  28
ENDBRANCH   1  27
TORSDOF 17
ENDMDL
MODEL 3
REMARK VINA RESULT:     -11.3      1.233      1.727
REMARK SMILES C[C@H]1C[NH+](CC[C@@H]2CCC[C@]2([NH3+])C(=O)NCCCNC(=O)c2ccc(-c3c4nc(c(-c5cccc(S(=O)(=O)[O-])c5F)c5ccc([nH]5)c(-c5cccc(S(=O)(=O)[O-])c5F)c5nc(c(-c6cccc(S(=O)(=O)[O-])c6F)c6ccc3[nH]6)C=C5)C=C4)cc2)C[C@H](C)O1
REMARK SMILES IDX 17 1 16 2 15 3 13 4 14 5 11 7 7 8 8 9 9 10 10 11 6 12 5 13
REMARK SMILES IDX 4 14 1 15 2 16 3 17 88 18 86 19 85 20 87 22 12 23 18 27
REMARK SMILES IDX 19 28 20 29 21 31 22 32 23 33 84 34 24 35 83 36 25 37 26 38
REMARK SMILES IDX 27 39 77 40 28 41 82 42 76 43 78 44 29 45 81 46 75 47 74 48
REMARK SMILES IDX 30 50 62 51 42 52 61 53 43 54 46 55 60 56 79 57 44 58 45 59
REMARK SMILES IDX 59 61 80 62 47 63 31 64 32 65 40 66 33 67 35 68 41 69 34 70
REMARK SMILES IDX 36 71 37 72 38 73 39 74 63 75 64 76 72 77 65 78 67 79 73 80
REMARK SMILES IDX 66 81 68 82 69 83 70 84 71 85 48 86 49 87 57 88 50 89 52 90
REMARK SMILES IDX 58 91 51 92 53 93 54 94 55 95 56 96
REMARK H PARENT 15 6 4 21 12 24 12 25 12 26 19 30 78 49 46 60
REMARK Flexibility Score: inf
ROOT
ATOM      1  C   UNL A   1      33.362  27.775  26.548  1.00  0.00     0.042 C 
ENDROOT
BRANCH   1   2
ATOM      2  C   UNL A   1      31.912  27.948  27.022  1.00  0.00     0.118 C 
BRANCH   2   3
ATOM      3  N   UNL A   1      31.028  26.767  26.874  1.00  0.00    -0.351 N 
ATOM      4  C   UNL A   1      30.733  25.688  26.112  1.00  0.00     0.281 C 
ATOM      5  O   UNL A   1      30.290  24.797  26.872  1.00  0.00    -0.268 OA
ATOM      6  H   UNL A   1      30.407  26.769  27.637  1.00  0.00     0.163 HD
BRANCH   4   7
ATOM      7  C   UNL A   1      30.866  25.305  24.535  1.00  0.00     0.177 C 
ATOM      8  C   UNL A   1      31.878  25.952  23.543  1.00  0.00     0.066 C 
ATOM      9  C   UNL A   1      31.412  27.425  23.498  1.00  0.00     0.011 C 
ATOM     10  C   UNL A   1      29.886  27.360  23.564  1.00  0.00     0.008 C 
ATOM     11  C   UNL A   1      29.563  25.906  23.874  1.00  0.00     0.079 C 
BRANCH   8  12
ATOM     12  C   UNL A   1      33.413  25.773  23.489  1.00  0.00     0.072 C 
BRANCH  12  13
ATOM     13  C   UNL A   1      34.015  24.388  23.375  1.00  0.00     0.262 C 
BRANCH  13  14
ATOM     14  N   UNL A   1      34.635  23.638  24.471  1.00  0.00    -0.331 N 
ATOM     15  C   UNL A   1      38.049  23.210  26.080  1.00  0.00     0.045 C 
ATOM     16  C   UNL A   1      36.537  23.169  25.952  1.00  0.00     0.170 C 
ATOM     17  C   UNL A   1      36.088  23.731  24.578  1.00  0.00     0.294 C 
ATOM     18  O   UNL A   1      36.156  21.792  26.130  1.00  0.00    -0.364 OA
ATOM     19  C   UNL A   1      34.751  21.586  25.979  1.00  0.00     0.170 C 
ATOM     20  C   UNL A   1      34.213  22.268  24.701  1.00  0.00     0.294 C 
ATOM     21  H   UNL A   1      34.220  24.180  25.229  1.00  0.00     0.348 HD
ATOM     22  C   UNL A   1      33.984  21.943  27.257  1.00  0.00     0.045 C 
ENDBRANCH  13  14
ENDBRANCH  12  13
ENDBRANCH   8  12
BRANCH   7  23
ATOM     23  N   UNL A   1      30.587  23.875  24.278  1.00  0.00    -0.345 N 
ATOM     24  H   UNL A   1      30.993  23.310  25.024  1.00  0.00     0.345 HD
ATOM     25  H   UNL A   1      30.997  23.603  23.384  1.00  0.00     0.345 HD
ATOM     26  H   UNL A   1      29.579  23.726  24.248  1.00  0.00     0.345 HD
ENDBRANCH   7  23
ENDBRANCH   4   7
ENDBRANCH   2   3
ENDBRANCH   1   2
BRANCH   1  27
ATOM     27  C   UNL A   1      33.978  28.939  25.787  1.00  0.00     0.118 C 
BRANCH  27  28
ATOM     28  N   UNL A   1      33.738  30.248  26.389  1.00  0.00    -0.352 N 
ATOM     29  C   UNL A   1      34.417  30.907  27.400  1.00  0.00     0.251 C 
ATOM     30  H   UNL A   1      32.971  30.740  26.017  1.00  0.00     0.163 HD
ATOM     31  O   UNL A   1      33.975  31.970  27.818  1.00  0.00    -0.269 OA
BRANCH  29  32
ATOM     32  C   UNL A   1      35.654  30.336  27.999  1.00  0.00     0.039 A 
ATOM     33  C   UNL A   1      35.591  29.719  29.257  1.00  0.00     0.014 A 
ATOM     34  C   UNL A   1      36.882  30.419  27.347  1.00  0.00     0.014 A 
ATOM     35  C   UNL A   1      36.741  29.145  29.817  1.00  0.00     0.010 A 
ATOM     36  C   UNL A   1      37.986  29.733  27.839  1.00  0.00     0.010 A 
ATOM     37  C   UNL A   1      37.946  29.122  29.100  1.00  0.00    -0.014 A 
BRANCH  37  38
ATOM     38  C   UNL A   1      39.199  28.538  29.654  1.00  0.00     0.031 A 
ATOM     39  C   UNL A   1      39.826  29.153  30.883  1.00  0.00     0.074 A 
ATOM     40  C   UNL A   1      39.828  27.533  29.009  1.00  0.00     0.049 A 
ATOM     41  N   UNL A   1      40.968  28.879  31.458  1.00  0.00    -0.248 NA
ATOM     42  C   UNL A   1      39.093  30.260  31.525  1.00  0.00     0.031 C 
ATOM     43  C   UNL A   1      39.375  26.909  27.764  1.00  0.00     0.029 A 
ATOM     44  N   UNL A   1      40.999  26.879  29.298  1.00  0.00    -0.354 N 
ATOM     45  C   UNL A   1      41.114  29.812  32.480  1.00  0.00     0.074 A 
ATOM     46  C   UNL A   1      39.972  30.695  32.414  1.00  0.00     0.031 C 
ATOM     47  C   UNL A   1      40.248  25.953  27.406  1.00  0.00     0.029 A 
ATOM     48  C   UNL A   1      41.340  25.919  28.373  1.00  0.00     0.049 A 
ATOM     49  H   UNL A   1      41.545  27.078  30.094  1.00  0.00     0.167 HD
ATOM     50  C   UNL A   1      42.085  29.906  33.420  1.00  0.00     0.034 A 
ATOM     51  C   UNL A   1      42.415  25.106  28.309  1.00  0.00     0.034 A 
ATOM     52  C   UNL A   1      43.178  28.980  33.526  1.00  0.00     0.049 A 
ATOM     53  C   UNL A   1      43.445  25.180  29.405  1.00  0.00     0.074 A 
ATOM     54  C   UNL A   1      44.163  28.918  34.494  1.00  0.00     0.029 A 
ATOM     55  N   UNL A   1      43.428  27.952  32.630  1.00  0.00    -0.354 N 
ATOM     56  N   UNL A   1      43.489  25.978  30.444  1.00  0.00    -0.248 NA
ATOM     57  C   UNL A   1      44.550  24.213  29.344  1.00  0.00     0.031 C 
ATOM     58  C   UNL A   1      45.026  27.866  34.168  1.00  0.00     0.029 A 
ATOM     59  C   UNL A   1      44.552  27.249  33.020  1.00  0.00     0.049 A 
ATOM     60  H   UNL A   1      42.884  27.751  31.834  1.00  0.00     0.167 HD
ATOM     61  C   UNL A   1      44.597  25.582  31.183  1.00  0.00     0.074 A 
ATOM     62  C   UNL A   1      45.188  24.461  30.480  1.00  0.00     0.031 C 
ATOM     63  C   UNL A   1      45.089  26.102  32.336  1.00  0.00     0.034 A 
BRANCH  50  64
ATOM     64  C   UNL A   1      41.977  31.015  34.437  1.00  0.00     0.023 A 
ATOM     65  C   UNL A   1      41.347  30.772  35.677  1.00  0.00     0.012 A 
ATOM     66  C   UNL A   1      42.530  32.285  34.184  1.00  0.00     0.148 A 
ATOM     67  C   UNL A   1      41.225  31.787  36.625  1.00  0.00     0.002 A 
ATOM     68  C   UNL A   1      42.454  33.276  35.157  1.00  0.00     0.091 A 
ATOM     69  F   UNL A   1      43.110  32.506  32.996  1.00  0.00    -0.205 F 
ATOM     70  C   UNL A   1      41.787  33.035  36.370  1.00  0.00     0.022 A 
BRANCH  68  71
ATOM     71  S   UNL A   1      43.220  34.889  34.964  1.00  0.00     0.127 S 
ATOM     72  O   UNL A   1      42.515  35.413  33.796  1.00  0.00    -0.237 OA
ATOM     73  O   UNL A   1      42.880  35.542  36.228  1.00  0.00    -0.237 OA
ATOM     74  O   UNL A   1      44.642  34.638  34.773  1.00  0.00    -0.744 OA
ENDBRANCH  68  71
ENDBRANCH  50  64
BRANCH  51  75
ATOM     75  C   UNL A   1      42.533  24.104  27.211  1.00  0.00     0.023 A 
ATOM     76  C   UNL A   1      43.264  24.429  26.050  1.00  0.00     0.012 A 
ATOM     77  C   UNL A   1      41.950  22.827  27.316  1.00  0.00     0.148 A 
ATOM     78  C   UNL A   1      43.380  23.518  25.000  1.00  0.00     0.002 A 
ATOM     79  C   UNL A   1      42.117  21.902  26.291  1.00  0.00     0.091 A 
ATOM     80  F   UNL A   1      41.254  22.537  28.424  1.00  0.00    -0.205 F 
ATOM     81  C   UNL A   1      42.815  22.252  25.125  1.00  0.00     0.022 A 
BRANCH  79  82
ATOM     82  S   UNL A   1      41.540  20.206  26.417  1.00  0.00     0.127 S 
ATOM     83  O   UNL A   1      40.095  20.370  26.288  1.00  0.00    -0.237 OA
ATOM     84  O   UNL A   1      42.195  19.579  25.270  1.00  0.00    -0.237 OA
ATOM     85  O   UNL A   1      42.008  19.726  27.712  1.00  0.00    -0.744 OA
ENDBRANCH  79  82
ENDBRANCH  51  75
BRANCH  63  86
ATOM     86  C   UNL A   1      46.288  25.429  32.950  1.00  0.00     0.023 A 
ATOM     87  C   UNL A   1      47.587  25.895  32.667  1.00  0.00     0.012 A 
ATOM     88  C   UNL A   1      46.114  24.379  33.873  1.00  0.00     0.148 A 
ATOM     89  C   UNL A   1      48.696  25.298  33.264  1.00  0.00     0.002 A 
ATOM     90  C   UNL A   1      47.220  23.828  34.506  1.00  0.00     0.091 A 
ATOM     91  F   UNL A   1      44.870  23.939  34.115  1.00  0.00    -0.205 F 
ATOM     92  C   UNL A   1      48.513  24.276  34.192  1.00  0.00     0.022 A 
BRANCH  90  93
ATOM     93  S   UNL A   1      47.068  22.583  35.791  1.00  0.00     0.127 S 
ATOM     94  O   UNL A   1      45.949  21.783  35.300  1.00  0.00    -0.237 OA
ATOM     95  O   UNL A   1      48.369  21.915  35.730  1.00  0.00    -0.237 OA
ATOM     96  O   UNL A   1      46.821  23.310  37.029  1.00  0.00    -0.744 OA
ENDBRANCH  90  93
ENDBRANCH  63  86
ENDBRANCH  37  38
ENDBRANCH  29  32
ENDBRANCH  27  28
ENDBRANCH   1  27
TORSDOF 17
ENDMDL
