MODEL 1
REMARK VINA RESULT:     -12.1      0.000      0.000
REMARK SMILES CCC(CC)(NC(=O)c1ccc(NC(C)=O)cc1)C(=O)NCCCNC(=O)c1ccc(-c2c3nc(c(-c4cccc(S(=O)(=O)[O-])c4F)c4ccc([nH]4)c(-c4cccc(S(=O)(=O)[O-])c4F)c4nc(c(-c5cccc(S(=O)(=O)[O-])c5F)c5ccc2[nH]5)C=C4)C=C3)cc1
REMARK SMILES IDX 23 1 22 2 21 3 19 4 20 5 3 7 2 8 1 9 4 10 5 11 6 12 7 13
REMARK SMILES IDX 8 15 9 16 10 17 18 18 11 19 17 20 12 21 13 22 14 23 15 25
REMARK SMILES IDX 16 26 24 27 25 28 26 29 27 31 28 32 29 33 90 34 30 35 89 36
REMARK SMILES IDX 31 37 32 38 33 39 83 40 34 41 88 42 82 43 84 44 35 45 87 46
REMARK SMILES IDX 81 47 80 48 36 50 68 51 48 52 67 53 49 54 52 55 66 56 85 57
REMARK SMILES IDX 50 58 51 59 65 61 86 62 53 63 37 64 38 65 46 66 39 67 41 68
REMARK SMILES IDX 47 69 40 70 42 71 43 72 44 73 45 74 69 75 70 76 78 77 71 78
REMARK SMILES IDX 73 79 79 80 72 81 74 82 75 83 76 84 77 85 54 86 55 87 63 88
REMARK SMILES IDX 56 89 58 90 64 91 57 92 59 93 60 94 61 95 62 96
REMARK H PARENT 21 6 6 14 13 24 25 30 84 49 52 60
REMARK Flexibility Score: inf
ROOT
ATOM      1  C   UNL A   1      36.674  22.473  23.730  1.00  0.00     0.042 C 
ENDROOT
BRANCH   1   2
ATOM      2  C   UNL A   1      35.416  23.283  23.396  1.00  0.00     0.117 C 
BRANCH   2   3
ATOM      3  N   UNL A   1      34.107  22.632  23.425  1.00  0.00    -0.354 N 
ATOM      4  C   UNL A   1      32.829  23.035  23.751  1.00  0.00     0.245 C 
ATOM      5  O   UNL A   1      31.944  22.207  23.507  1.00  0.00    -0.272 OA
ATOM      6  H   UNL A   1      34.147  21.688  23.149  1.00  0.00     0.163 HD
BRANCH   4   7
ATOM      7  C   UNL A   1      32.491  24.462  24.314  1.00  0.00     0.118 C 
BRANCH   7   8
ATOM      8  C   UNL A   1      32.653  25.610  23.265  1.00  0.00     0.035 C 
ATOM      9  C   UNL A   1      32.309  25.327  21.807  1.00  0.00     0.007 C 
ENDBRANCH   7   8
BRANCH   7  10
ATOM     10  C   UNL A   1      33.583  24.600  25.435  1.00  0.00     0.035 C 
ATOM     11  C   UNL A   1      34.147  25.974  25.743  1.00  0.00     0.007 C 
ENDBRANCH   7  10
BRANCH   7  12
ATOM     12  N   UNL A   1      31.097  24.618  24.878  1.00  0.00    -0.338 N 
ATOM     13  C   UNL A   1      30.358  25.737  25.294  1.00  0.00     0.252 C 
ATOM     14  H   UNL A   1      30.611  23.767  24.972  1.00  0.00     0.164 HD
ATOM     15  O   UNL A   1      29.639  25.586  26.282  1.00  0.00    -0.269 OA
BRANCH  13  16
ATOM     16  C   UNL A   1      30.299  27.059  24.575  1.00  0.00     0.039 A 
ATOM     17  C   UNL A   1      30.994  28.209  24.980  1.00  0.00     0.016 A 
ATOM     18  C   UNL A   1      29.384  27.254  23.570  1.00  0.00     0.016 A 
ATOM     19  C   UNL A   1      30.753  29.473  24.359  1.00  0.00     0.027 A 
ATOM     20  C   UNL A   1      29.166  28.449  22.912  1.00  0.00     0.027 A 
ATOM     21  C   UNL A   1      29.829  29.586  23.317  1.00  0.00     0.041 A 
BRANCH  21  22
ATOM     22  N   UNL A   1      29.418  30.736  22.631  1.00  0.00    -0.326 N 
ATOM     23  C   UNL A   1      28.298  31.506  22.796  1.00  0.00     0.221 C 
ATOM     24  H   UNL A   1      30.029  31.037  21.920  1.00  0.00     0.169 HD
ATOM     25  C   UNL A   1      28.260  32.651  21.805  1.00  0.00     0.114 C 
ATOM     26  O   UNL A   1      27.420  31.339  23.639  1.00  0.00    -0.275 OA
ENDBRANCH  21  22
ENDBRANCH  13  16
ENDBRANCH   7  12
ENDBRANCH   4   7
ENDBRANCH   2   3
ENDBRANCH   1   2
BRANCH   1  27
ATOM     27  C   UNL A   1      37.253  22.513  25.144  1.00  0.00     0.118 C 
BRANCH  27  28
ATOM     28  N   UNL A   1      38.110  21.400  25.486  1.00  0.00    -0.352 N 
ATOM     29  C   UNL A   1      39.300  21.389  26.171  1.00  0.00     0.251 C 
ATOM     30  H   UNL A   1      37.792  20.519  25.184  1.00  0.00     0.163 HD
ATOM     31  O   UNL A   1      39.868  20.309  26.337  1.00  0.00    -0.269 OA
BRANCH  29  32
ATOM     32  C   UNL A   1      39.929  22.633  26.682  1.00  0.00     0.039 A 
ATOM     33  C   UNL A   1      39.704  23.809  25.961  1.00  0.00     0.014 A 
ATOM     34  C   UNL A   1      40.773  22.661  27.797  1.00  0.00     0.014 A 
ATOM     35  C   UNL A   1      40.295  25.009  26.367  1.00  0.00     0.010 A 
ATOM     36  C   UNL A   1      41.323  23.876  28.234  1.00  0.00     0.010 A 
ATOM     37  C   UNL A   1      41.098  25.063  27.518  1.00  0.00    -0.014 A 
BRANCH  37  38
ATOM     38  C   UNL A   1      41.662  26.371  27.961  1.00  0.00     0.031 A 
ATOM     39  C   UNL A   1      43.083  26.763  27.647  1.00  0.00     0.074 A 
ATOM     40  C   UNL A   1      40.880  27.226  28.651  1.00  0.00     0.049 A 
ATOM     41  N   UNL A   1      43.682  27.911  27.843  1.00  0.00    -0.248 NA
ATOM     42  C   UNL A   1      43.948  25.733  27.052  1.00  0.00     0.031 C 
ATOM     43  C   UNL A   1      39.514  26.942  29.097  1.00  0.00     0.029 A 
ATOM     44  N   UNL A   1      41.116  28.503  29.097  1.00  0.00    -0.354 N 
ATOM     45  C   UNL A   1      44.994  27.741  27.414  1.00  0.00     0.074 A 
ATOM     46  C   UNL A   1      45.112  26.366  26.977  1.00  0.00     0.031 C 
ATOM     47  C   UNL A   1      39.027  28.020  29.733  1.00  0.00     0.029 A 
ATOM     48  C   UNL A   1      40.046  29.065  29.754  1.00  0.00     0.049 A 
ATOM     49  H   UNL A   1      41.971  28.972  28.960  1.00  0.00     0.167 HD
ATOM     50  C   UNL A   1      46.000  28.649  27.359  1.00  0.00     0.034 A 
ATOM     51  C   UNL A   1      39.893  30.287  30.302  1.00  0.00     0.034 A 
ATOM     52  C   UNL A   1      45.878  30.022  27.778  1.00  0.00     0.049 A 
ATOM     53  C   UNL A   1      41.006  31.292  30.182  1.00  0.00     0.074 A 
ATOM     54  C   UNL A   1      46.817  31.037  27.687  1.00  0.00     0.029 A 
ATOM     55  N   UNL A   1      44.757  30.573  28.379  1.00  0.00    -0.354 N 
ATOM     56  N   UNL A   1      42.176  31.164  29.605  1.00  0.00    -0.248 NA
ATOM     57  C   UNL A   1      40.757  32.627  30.745  1.00  0.00     0.031 C 
ATOM     58  C   UNL A   1      46.273  32.192  28.261  1.00  0.00     0.029 A 
ATOM     59  C   UNL A   1      44.982  31.909  28.674  1.00  0.00     0.049 A 
ATOM     60  H   UNL A   1      43.922  30.087  28.568  1.00  0.00     0.167 HD
ATOM     61  C   UNL A   1      42.788  32.409  29.706  1.00  0.00     0.074 A 
ATOM     62  C   UNL A   1      41.845  33.285  30.369  1.00  0.00     0.031 C 
ATOM     63  C   UNL A   1      44.025  32.787  29.297  1.00  0.00     0.034 A 
BRANCH  50  64
ATOM     64  C   UNL A   1      47.320  28.201  26.779  1.00  0.00     0.023 A 
ATOM     65  C   UNL A   1      48.383  27.875  27.646  1.00  0.00     0.012 A 
ATOM     66  C   UNL A   1      47.489  28.033  25.390  1.00  0.00     0.148 A 
ATOM     67  C   UNL A   1      49.603  27.425  27.142  1.00  0.00     0.002 A 
ATOM     68  C   UNL A   1      48.693  27.540  24.897  1.00  0.00     0.091 A 
ATOM     69  F   UNL A   1      46.473  28.359  24.577  1.00  0.00    -0.205 F 
ATOM     70  C   UNL A   1      49.754  27.249  25.769  1.00  0.00     0.022 A 
BRANCH  68  71
ATOM     71  S   UNL A   1      48.963  27.196  23.153  1.00  0.00     0.127 S 
ATOM     72  O   UNL A   1      48.259  25.923  22.993  1.00  0.00    -0.237 OA
ATOM     73  O   UNL A   1      48.311  28.337  22.511  1.00  0.00    -0.237 OA
ATOM     74  O   UNL A   1      50.406  27.139  22.973  1.00  0.00    -0.744 OA
ENDBRANCH  68  71
ENDBRANCH  50  64
BRANCH  51  75
ATOM     75  C   UNL A   1      38.600  30.656  30.947  1.00  0.00     0.023 A 
ATOM     76  C   UNL A   1      38.385  30.347  32.305  1.00  0.00     0.012 A 
ATOM     77  C   UNL A   1      37.592  31.328  30.229  1.00  0.00     0.148 A 
ATOM     78  C   UNL A   1      37.178  30.667  32.926  1.00  0.00     0.002 A 
ATOM     79  C   UNL A   1      36.414  31.696  30.869  1.00  0.00     0.091 A 
ATOM     80  F   UNL A   1      37.809  31.601  28.935  1.00  0.00    -0.205 F 
ATOM     81  C   UNL A   1      36.197  31.350  32.212  1.00  0.00     0.022 A 
BRANCH  79  82
ATOM     82  S   UNL A   1      35.156  32.696  30.068  1.00  0.00     0.127 S 
ATOM     83  O   UNL A   1      35.929  33.856  29.629  1.00  0.00    -0.237 OA
ATOM     84  O   UNL A   1      34.706  31.811  28.994  1.00  0.00    -0.237 OA
ATOM     85  O   UNL A   1      34.151  32.954  31.091  1.00  0.00    -0.744 OA
ENDBRANCH  79  82
ENDBRANCH  51  75
BRANCH  63  86
ATOM     86  C   UNL A   1      44.421  34.226  29.526  1.00  0.00     0.023 A 
ATOM     87  C   UNL A   1      45.033  34.605  30.738  1.00  0.00     0.012 A 
ATOM     88  C   UNL A   1      44.214  35.198  28.527  1.00  0.00     0.148 A 
ATOM     89  C   UNL A   1      45.383  35.935  30.972  1.00  0.00     0.002 A 
ATOM     90  C   UNL A   1      44.614  36.511  28.747  1.00  0.00     0.091 A 
ATOM     91  F   UNL A   1      43.613  34.828  27.387  1.00  0.00    -0.205 F 
ATOM     92  C   UNL A   1      45.182  36.885  29.975  1.00  0.00     0.022 A 
BRANCH  90  93
ATOM     93  S   UNL A   1      44.481  37.777  27.479  1.00  0.00     0.127 S 
ATOM     94  O   UNL A   1      44.697  38.998  28.252  1.00  0.00    -0.237 OA
ATOM     95  O   UNL A   1      45.577  37.428  26.572  1.00  0.00    -0.237 OA
ATOM     96  O   UNL A   1      43.152  37.624  26.901  1.00  0.00    -0.744 OA
ENDBRANCH  90  93
ENDBRANCH  63  86
ENDBRANCH  37  38
ENDBRANCH  29  32
ENDBRANCH  27  28
ENDBRANCH   1  27
TORSDOF 18
ENDMDL
MODEL 2
REMARK VINA RESULT:     -12.0      5.146     10.410
REMARK SMILES CCC(CC)(NC(=O)c1ccc(NC(C)=O)cc1)C(=O)NCCCNC(=O)c1ccc(-c2c3nc(c(-c4cccc(S(=O)(=O)[O-])c4F)c4ccc([nH]4)c(-c4cccc(S(=O)(=O)[O-])c4F)c4nc(c(-c5cccc(S(=O)(=O)[O-])c5F)c5ccc2[nH]5)C=C4)C=C3)cc1
REMARK SMILES IDX 23 1 22 2 21 3 19 4 20 5 3 7 2 8 1 9 4 10 5 11 6 12 7 13
REMARK SMILES IDX 8 15 9 16 10 17 18 18 11 19 17 20 12 21 13 22 14 23 15 25
REMARK SMILES IDX 16 26 24 27 25 28 26 29 27 31 28 32 29 33 90 34 30 35 89 36
REMARK SMILES IDX 31 37 32 38 33 39 83 40 34 41 88 42 82 43 84 44 35 45 87 46
REMARK SMILES IDX 81 47 80 48 36 50 68 51 48 52 67 53 49 54 52 55 66 56 85 57
REMARK SMILES IDX 50 58 51 59 65 61 86 62 53 63 37 64 38 65 46 66 39 67 41 68
REMARK SMILES IDX 47 69 40 70 42 71 43 72 44 73 45 74 69 75 70 76 78 77 71 78
REMARK SMILES IDX 73 79 79 80 72 81 74 82 75 83 76 84 77 85 54 86 55 87 63 88
REMARK SMILES IDX 56 89 58 90 64 91 57 92 59 93 60 94 61 95 62 96
REMARK H PARENT 21 6 6 14 13 24 25 30 84 49 52 60
REMARK Flexibility Score: inf
ROOT
ATOM      1  C   UNL A   1      31.788  28.710  27.362  1.00  0.00     0.042 C 
ENDROOT
BRANCH   1   2
ATOM      2  C   UNL A   1      31.445  27.386  26.669  1.00  0.00     0.117 C 
BRANCH   2   3
ATOM      3  N   UNL A   1      31.021  27.389  25.271  1.00  0.00    -0.354 N 
ATOM      4  C   UNL A   1      31.067  26.475  24.239  1.00  0.00     0.245 C 
ATOM      5  O   UNL A   1      30.462  26.813  23.216  1.00  0.00    -0.272 OA
ATOM      6  H   UNL A   1      30.606  28.240  25.003  1.00  0.00     0.163 HD
BRANCH   4   7
ATOM      7  C   UNL A   1      31.761  25.071  24.361  1.00  0.00     0.118 C 
BRANCH   7   8
ATOM      8  C   UNL A   1      30.946  24.034  25.201  1.00  0.00     0.035 C 
ATOM      9  C   UNL A   1      31.516  23.556  26.532  1.00  0.00     0.007 C 
ENDBRANCH   7   8
BRANCH   7  10
ATOM     10  C   UNL A   1      33.080  25.461  25.120  1.00  0.00     0.035 C 
ATOM     11  C   UNL A   1      34.155  26.227  24.372  1.00  0.00     0.007 C 
ENDBRANCH   7  10
BRANCH   7  12
ATOM     12  N   UNL A   1      32.061  24.385  23.047  1.00  0.00    -0.338 N 
ATOM     13  C   UNL A   1      32.949  23.358  22.691  1.00  0.00     0.252 C 
ATOM     14  H   UNL A   1      31.529  24.725  22.292  1.00  0.00     0.164 HD
ATOM     15  O   UNL A   1      33.499  23.461  21.593  1.00  0.00    -0.269 OA
BRANCH  13  16
ATOM     16  C   UNL A   1      33.202  22.107  23.491  1.00  0.00     0.039 A 
ATOM     17  C   UNL A   1      34.372  21.863  24.226  1.00  0.00     0.016 A 
ATOM     18  C   UNL A   1      32.351  21.035  23.376  1.00  0.00     0.016 A 
ATOM     19  C   UNL A   1      34.621  20.584  24.813  1.00  0.00     0.027 A 
ATOM     20  C   UNL A   1      32.536  19.804  23.976  1.00  0.00     0.027 A 
ATOM     21  C   UNL A   1      33.690  19.551  24.682  1.00  0.00     0.041 A 
BRANCH  21  22
ATOM     22  N   UNL A   1      33.781  18.227  25.131  1.00  0.00    -0.326 N 
ATOM     23  C   UNL A   1      34.081  17.083  24.441  1.00  0.00     0.221 C 
ATOM     24  H   UNL A   1      33.601  18.100  26.090  1.00  0.00     0.169 HD
ATOM     25  C   UNL A   1      34.042  15.865  25.341  1.00  0.00     0.114 C 
ATOM     26  O   UNL A   1      34.370  17.008  23.249  1.00  0.00    -0.275 OA
ENDBRANCH  21  22
ENDBRANCH  13  16
ENDBRANCH   7  12
ENDBRANCH   4   7
ENDBRANCH   2   3
ENDBRANCH   1   2
BRANCH   1  27
ATOM     27  C   UNL A   1      33.185  29.311  27.208  1.00  0.00     0.118 C 
BRANCH  27  28
ATOM     28  N   UNL A   1      33.254  30.746  27.372  1.00  0.00    -0.352 N 
ATOM     29  C   UNL A   1      34.264  31.522  27.886  1.00  0.00     0.251 C 
ATOM     30  H   UNL A   1      32.459  31.241  27.069  1.00  0.00     0.163 HD
ATOM     31  O   UNL A   1      34.096  32.740  27.939  1.00  0.00    -0.269 OA
BRANCH  29  32
ATOM     32  C   UNL A   1      35.525  30.934  28.404  1.00  0.00     0.039 A 
ATOM     33  C   UNL A   1      36.726  31.484  27.948  1.00  0.00     0.014 A 
ATOM     34  C   UNL A   1      35.558  29.831  29.265  1.00  0.00     0.014 A 
ATOM     35  C   UNL A   1      37.950  30.955  28.369  1.00  0.00     0.010 A 
ATOM     36  C   UNL A   1      36.786  29.335  29.728  1.00  0.00     0.010 A 
ATOM     37  C   UNL A   1      37.997  29.885  29.278  1.00  0.00    -0.014 A 
BRANCH  37  38
ATOM     38  C   UNL A   1      39.318  29.385  29.757  1.00  0.00     0.031 A 
ATOM     39  C   UNL A   1      40.012  30.001  30.943  1.00  0.00     0.074 A 
ATOM     40  C   UNL A   1      39.901  28.350  29.116  1.00  0.00     0.049 A 
ATOM     41  N   UNL A   1      41.094  29.601  31.563  1.00  0.00    -0.248 NA
ATOM     42  C   UNL A   1      39.429  31.233  31.496  1.00  0.00     0.031 C 
ATOM     43  C   UNL A   1      39.385  27.713  27.903  1.00  0.00     0.029 A 
ATOM     44  N   UNL A   1      41.052  27.653  29.393  1.00  0.00    -0.354 N 
ATOM     45  C   UNL A   1      41.332  30.534  32.566  1.00  0.00     0.074 A 
ATOM     46  C   UNL A   1      40.299  31.542  32.449  1.00  0.00     0.031 C 
ATOM     47  C   UNL A   1      40.202  26.706  27.554  1.00  0.00     0.029 A 
ATOM     48  C   UNL A   1      41.307  26.634  28.505  1.00  0.00     0.049 A 
ATOM     49  H   UNL A   1      41.639  27.864  30.154  1.00  0.00     0.167 HD
ATOM     50  C   UNL A   1      42.302  30.541  33.515  1.00  0.00     0.034 A 
ATOM     51  C   UNL A   1      42.308  25.732  28.464  1.00  0.00     0.034 A 
ATOM     52  C   UNL A   1      43.320  29.530  33.643  1.00  0.00     0.049 A 
ATOM     53  C   UNL A   1      43.341  25.729  29.557  1.00  0.00     0.074 A 
ATOM     54  C   UNL A   1      44.296  29.408  34.618  1.00  0.00     0.029 A 
ATOM     55  N   UNL A   1      43.507  28.476  32.763  1.00  0.00    -0.354 N 
ATOM     56  N   UNL A   1      43.439  26.514  30.603  1.00  0.00    -0.248 NA
ATOM     57  C   UNL A   1      44.372  24.684  29.492  1.00  0.00     0.031 C 
ATOM     58  C   UNL A   1      45.090  28.298  34.310  1.00  0.00     0.029 A 
ATOM     59  C   UNL A   1      44.586  27.704  33.165  1.00  0.00     0.049 A 
ATOM     60  H   UNL A   1      42.954  28.299  31.967  1.00  0.00     0.167 HD
ATOM     61  C   UNL A   1      44.521  26.037  31.337  1.00  0.00     0.074 A 
ATOM     62  C   UNL A   1      45.022  24.876  30.631  1.00  0.00     0.031 C 
ATOM     63  C   UNL A   1      45.057  26.526  32.482  1.00  0.00     0.034 A 
BRANCH  50  64
ATOM     64  C   UNL A   1      42.282  31.657  34.532  1.00  0.00     0.023 A 
ATOM     65  C   UNL A   1      43.117  32.779  34.345  1.00  0.00     0.012 A 
ATOM     66  C   UNL A   1      41.395  31.634  35.626  1.00  0.00     0.148 A 
ATOM     67  C   UNL A   1      43.096  33.842  35.248  1.00  0.00     0.002 A 
ATOM     68  C   UNL A   1      41.347  32.719  36.497  1.00  0.00     0.091 A 
ATOM     69  F   UNL A   1      40.617  30.556  35.797  1.00  0.00    -0.205 F 
ATOM     70  C   UNL A   1      42.205  33.815  36.317  1.00  0.00     0.022 A 
BRANCH  68  71
ATOM     71  S   UNL A   1      40.176  32.824  37.857  1.00  0.00     0.127 S 
ATOM     72  O   UNL A   1      40.991  32.367  38.982  1.00  0.00    -0.237 OA
ATOM     73  O   UNL A   1      39.857  34.252  37.876  1.00  0.00    -0.237 OA
ATOM     74  O   UNL A   1      39.063  31.957  37.497  1.00  0.00    -0.744 OA
ENDBRANCH  68  71
ENDBRANCH  50  64
BRANCH  51  75
ATOM     75  C   UNL A   1      42.337  24.701  27.386  1.00  0.00     0.023 A 
ATOM     76  C   UNL A   1      43.217  24.856  26.297  1.00  0.00     0.012 A 
ATOM     77  C   UNL A   1      41.512  23.562  27.445  1.00  0.00     0.148 A 
ATOM     78  C   UNL A   1      43.250  23.914  25.269  1.00  0.00     0.002 A 
ATOM     79  C   UNL A   1      41.592  22.597  26.447  1.00  0.00     0.091 A 
ATOM     80  F   UNL A   1      40.672  23.439  28.482  1.00  0.00    -0.205 F 
ATOM     81  C   UNL A   1      42.446  22.781  25.348  1.00  0.00     0.022 A 
BRANCH  79  82
ATOM     82  S   UNL A   1      40.697  21.043  26.536  1.00  0.00     0.127 S 
ATOM     83  O   UNL A   1      41.450  20.210  25.602  1.00  0.00    -0.237 OA
ATOM     84  O   UNL A   1      40.855  20.685  27.946  1.00  0.00    -0.237 OA
ATOM     85  O   UNL A   1      39.329  21.355  26.147  1.00  0.00    -0.744 OA
ENDBRANCH  79  82
ENDBRANCH  51  75
BRANCH  63  86
ATOM     86  C   UNL A   1      46.233  25.784  33.069  1.00  0.00     0.023 A 
ATOM     87  C   UNL A   1      47.547  26.220  32.802  1.00  0.00     0.012 A 
ATOM     88  C   UNL A   1      46.036  24.671  33.911  1.00  0.00     0.148 A 
ATOM     89  C   UNL A   1      48.644  25.530  33.319  1.00  0.00     0.002 A 
ATOM     90  C   UNL A   1      47.133  24.020  34.464  1.00  0.00     0.091 A 
ATOM     91  F   UNL A   1      44.783  24.254  34.140  1.00  0.00    -0.205 F 
ATOM     92  C   UNL A   1      48.438  24.438  34.156  1.00  0.00     0.022 A 
BRANCH  90  93
ATOM     93  S   UNL A   1      46.954  22.665  35.631  1.00  0.00     0.127 S 
ATOM     94  O   UNL A   1      46.318  21.642  34.803  1.00  0.00    -0.237 OA
ATOM     95  O   UNL A   1      48.343  22.379  35.994  1.00  0.00    -0.237 OA
ATOM     96  O   UNL A   1      46.143  23.186  36.723  1.00  0.00    -0.744 OA
ENDBRANCH  90  93
ENDBRANCH  63  86
ENDBRANCH  37  38
ENDBRANCH  29  32
ENDBRANCH  27  28
ENDBRANCH   1  27
TORSDOF 18
ENDMDL
MODEL 3
REMARK VINA RESULT:     -11.9      1.638      2.195
REMARK SMILES CCC(CC)(NC(=O)c1ccc(NC(C)=O)cc1)C(=O)NCCCNC(=O)c1ccc(-c2c3nc(c(-c4cccc(S(=O)(=O)[O-])c4F)c4ccc([nH]4)c(-c4cccc(S(=O)(=O)[O-])c4F)c4nc(c(-c5cccc(S(=O)(=O)[O-])c5F)c5ccc2[nH]5)C=C4)C=C3)cc1
REMARK SMILES IDX 23 1 22 2 21 3 19 4 20 5 3 7 2 8 1 9 4 10 5 11 6 12 7 13
REMARK SMILES IDX 8 15 9 16 10 17 18 18 11 19 17 20 12 21 13 22 14 23 15 25
REMARK SMILES IDX 16 26 24 27 25 28 26 29 27 31 28 32 29 33 90 34 30 35 89 36
REMARK SMILES IDX 31 37 32 38 33 39 83 40 34 41 88 42 82 43 84 44 35 45 87 46
REMARK SMILES IDX 81 47 80 48 36 50 68 51 48 52 67 53 49 54 52 55 66 56 85 57
REMARK SMILES IDX 50 58 51 59 65 61 86 62 53 63 37 64 38 65 46 66 39 67 41 68
REMARK SMILES IDX 47 69 40 70 42 71 43 72 44 73 45 74 69 75 70 76 78 77 71 78
REMARK SMILES IDX 73 79 79 80 72 81 74 82 75 83 76 84 77 85 54 86 55 87 63 88
REMARK SMILES IDX 56 89 58 90 64 91 57 92 59 93 60 94 61 95 62 96
REMARK H PARENT 21 6 6 14 13 24 25 30 84 49 52 60
REMARK Flexibility Score: inf
ROOT
ATOM      1  C   UNL A   1      35.916  22.378  23.895  1.00  0.00     0.042 C 
ENDROOT
BRANCH   1   2
ATOM      2  C   UNL A   1      35.185  23.706  23.663  1.00  0.00     0.117 C 
BRANCH   2   3
ATOM      3  N   UNL A   1      33.850  23.704  23.068  1.00  0.00    -0.354 N 
ATOM      4  C   UNL A   1      32.568  23.839  23.558  1.00  0.00     0.245 C 
ATOM      5  O   UNL A   1      31.687  23.924  22.695  1.00  0.00    -0.272 OA
ATOM      6  H   UNL A   1      33.870  23.577  22.092  1.00  0.00     0.163 HD
BRANCH   4   7
ATOM      7  C   UNL A   1      32.238  23.960  25.089  1.00  0.00     0.118 C 
BRANCH   7   8
ATOM      8  C   UNL A   1      32.549  22.665  25.907  1.00  0.00     0.035 C 
ATOM      9  C   UNL A   1      32.319  21.308  25.252  1.00  0.00     0.007 C 
ENDBRANCH   7   8
BRANCH   7  10
ATOM     10  C   UNL A   1      30.687  24.203  25.034  1.00  0.00     0.035 C 
ATOM     11  C   UNL A   1      30.011  24.886  26.209  1.00  0.00     0.007 C 
ENDBRANCH   7  10
BRANCH   7  12
ATOM     12  N   UNL A   1      32.948  25.082  25.814  1.00  0.00    -0.338 N 
ATOM     13  C   UNL A   1      33.280  26.394  25.444  1.00  0.00     0.252 C 
ATOM     14  H   UNL A   1      33.233  24.845  26.726  1.00  0.00     0.164 HD
ATOM     15  O   UNL A   1      34.365  26.821  25.841  1.00  0.00    -0.269 OA
BRANCH  13  16
ATOM     16  C   UNL A   1      32.382  27.342  24.694  1.00  0.00     0.039 A 
ATOM     17  C   UNL A   1      32.439  27.554  23.308  1.00  0.00     0.016 A 
ATOM     18  C   UNL A   1      31.572  28.211  25.384  1.00  0.00     0.016 A 
ATOM     19  C   UNL A   1      31.683  28.597  22.689  1.00  0.00     0.027 A 
ATOM     20  C   UNL A   1      30.786  29.193  24.810  1.00  0.00     0.027 A 
ATOM     21  C   UNL A   1      30.852  29.419  23.454  1.00  0.00     0.041 A 
BRANCH  21  22
ATOM     22  N   UNL A   1      30.087  30.518  23.042  1.00  0.00    -0.326 N 
ATOM     23  C   UNL A   1      29.173  30.624  22.029  1.00  0.00     0.221 C 
ATOM     24  H   UNL A   1      30.230  31.342  23.562  1.00  0.00     0.169 HD
ATOM     25  C   UNL A   1      28.603  32.026  21.939  1.00  0.00     0.114 C 
ATOM     26  O   UNL A   1      28.814  29.721  21.277  1.00  0.00    -0.275 OA
ENDBRANCH  21  22
ENDBRANCH  13  16
ENDBRANCH   7  12
ENDBRANCH   4   7
ENDBRANCH   2   3
ENDBRANCH   1   2
BRANCH   1  27
ATOM     27  C   UNL A   1      36.254  21.932  25.317  1.00  0.00     0.118 C 
BRANCH  27  28
ATOM     28  N   UNL A   1      37.253  20.891  25.410  1.00  0.00    -0.352 N 
ATOM     29  C   UNL A   1      38.563  20.968  25.815  1.00  0.00     0.251 C 
ATOM     30  H   UNL A   1      36.948  19.994  25.145  1.00  0.00     0.163 HD
ATOM     31  O   UNL A   1      39.239  19.939  25.803  1.00  0.00    -0.269 OA
BRANCH  29  32
ATOM     32  C   UNL A   1      39.187  22.249  26.231  1.00  0.00     0.039 A 
ATOM     33  C   UNL A   1      40.240  22.183  27.148  1.00  0.00     0.014 A 
ATOM     34  C   UNL A   1      38.730  23.498  25.798  1.00  0.00     0.014 A 
ATOM     35  C   UNL A   1      40.849  23.355  27.607  1.00  0.00     0.010 A 
ATOM     36  C   UNL A   1      39.377  24.670  26.219  1.00  0.00     0.010 A 
ATOM     37  C   UNL A   1      40.438  24.612  27.137  1.00  0.00    -0.014 A 
BRANCH  37  38
ATOM     38  C   UNL A   1      41.151  25.839  27.599  1.00  0.00     0.031 A 
ATOM     39  C   UNL A   1      42.589  26.099  27.236  1.00  0.00     0.074 A 
ATOM     40  C   UNL A   1      40.488  26.740  28.353  1.00  0.00     0.049 A 
ATOM     41  N   UNL A   1      43.310  27.173  27.445  1.00  0.00    -0.248 NA
ATOM     42  C   UNL A   1      43.320  25.012  26.567  1.00  0.00     0.031 C 
ATOM     43  C   UNL A   1      39.121  26.577  28.850  1.00  0.00     0.029 A 
ATOM     44  N   UNL A   1      40.871  27.969  28.833  1.00  0.00    -0.354 N 
ATOM     45  C   UNL A   1      44.579  26.889  26.951  1.00  0.00     0.074 A 
ATOM     46  C   UNL A   1      44.539  25.527  26.462  1.00  0.00     0.031 C 
ATOM     47  C   UNL A   1      38.772  27.672  29.545  1.00  0.00     0.029 A 
ATOM     48  C   UNL A   1      39.892  28.608  29.557  1.00  0.00     0.049 A 
ATOM     49  H   UNL A   1      41.763  28.355  28.674  1.00  0.00     0.167 HD
ATOM     50  C   UNL A   1      45.669  27.694  26.883  1.00  0.00     0.034 A 
ATOM     51  C   UNL A   1      39.886  29.817  30.153  1.00  0.00     0.034 A 
ATOM     52  C   UNL A   1      45.705  29.054  27.354  1.00  0.00     0.049 A 
ATOM     53  C   UNL A   1      41.090  30.710  30.019  1.00  0.00     0.074 A 
ATOM     54  C   UNL A   1      46.737  29.972  27.258  1.00  0.00     0.029 A 
ATOM     55  N   UNL A   1      44.672  29.690  28.024  1.00  0.00    -0.354 N 
ATOM     56  N   UNL A   1      42.217  30.488  29.385  1.00  0.00    -0.248 NA
ATOM     57  C   UNL A   1      41.002  32.039  30.638  1.00  0.00     0.031 C 
ATOM     58  C   UNL A   1      46.338  31.153  27.896  1.00  0.00     0.029 A 
ATOM     59  C   UNL A   1      45.043  30.984  28.356  1.00  0.00     0.049 A 
ATOM     60  H   UNL A   1      43.800  29.283  28.234  1.00  0.00     0.167 HD
ATOM     61  C   UNL A   1      42.956  31.660  29.502  1.00  0.00     0.074 A 
ATOM     62  C   UNL A   1      42.134  32.599  30.237  1.00  0.00     0.031 C 
ATOM     63  C   UNL A   1      44.207  31.929  29.052  1.00  0.00     0.034 A 
BRANCH  50  64
ATOM     64  C   UNL A   1      46.911  27.139  26.228  1.00  0.00     0.023 A 
ATOM     65  C   UNL A   1      47.104  27.320  24.843  1.00  0.00     0.012 A 
ATOM     66  C   UNL A   1      47.916  26.504  26.986  1.00  0.00     0.148 A 
ATOM     67  C   UNL A   1      48.257  26.849  24.215  1.00  0.00     0.002 A 
ATOM     68  C   UNL A   1      49.084  26.078  26.361  1.00  0.00     0.091 A 
ATOM     69  F   UNL A   1      47.712  26.328  28.299  1.00  0.00    -0.205 F 
ATOM     70  C   UNL A   1      49.250  26.237  24.976  1.00  0.00     0.022 A 
BRANCH  68  71
ATOM     71  S   UNL A   1      50.461  25.355  27.262  1.00  0.00     0.127 S 
ATOM     72  O   UNL A   1      50.836  26.450  28.155  1.00  0.00    -0.237 OA
ATOM     73  O   UNL A   1      49.828  24.216  27.927  1.00  0.00    -0.237 OA
ATOM     74  O   UNL A   1      51.455  24.998  26.259  1.00  0.00    -0.744 OA
ENDBRANCH  68  71
ENDBRANCH  50  64
BRANCH  51  75
ATOM     75  C   UNL A   1      38.666  30.288  30.869  1.00  0.00     0.023 A 
ATOM     76  C   UNL A   1      38.530  30.045  32.250  1.00  0.00     0.012 A 
ATOM     77  C   UNL A   1      37.650  30.991  30.192  1.00  0.00     0.148 A 
ATOM     78  C   UNL A   1      37.389  30.461  32.937  1.00  0.00     0.002 A 
ATOM     79  C   UNL A   1      36.544  31.454  30.895  1.00  0.00     0.091 A 
ATOM     80  F   UNL A   1      37.791  31.200  28.876  1.00  0.00    -0.205 F 
ATOM     81  C   UNL A   1      36.402  31.173  32.263  1.00  0.00     0.022 A 
BRANCH  79  82
ATOM     82  S   UNL A   1      35.291  32.496  30.140  1.00  0.00     0.127 S 
ATOM     83  O   UNL A   1      34.339  32.663  31.236  1.00  0.00    -0.237 OA
ATOM     84  O   UNL A   1      36.060  33.695  29.803  1.00  0.00    -0.237 OA
ATOM     85  O   UNL A   1      34.805  31.752  28.985  1.00  0.00    -0.744 OA
ENDBRANCH  79  82
ENDBRANCH  51  75
BRANCH  63  86
ATOM     86  C   UNL A   1      44.757  33.310  29.313  1.00  0.00     0.023 A 
ATOM     87  C   UNL A   1      45.369  33.604  30.548  1.00  0.00     0.012 A 
ATOM     88  C   UNL A   1      44.692  34.310  28.322  1.00  0.00     0.148 A 
ATOM     89  C   UNL A   1      45.860  34.884  30.811  1.00  0.00     0.002 A 
ATOM     90  C   UNL A   1      45.231  35.567  28.572  1.00  0.00     0.091 A 
ATOM     91  F   UNL A   1      44.089  34.023  27.159  1.00  0.00    -0.205 F 
ATOM     92  C   UNL A   1      45.800  35.861  29.822  1.00  0.00     0.022 A 
BRANCH  90  93
ATOM     93  S   UNL A   1      45.283  36.853  27.319  1.00  0.00     0.127 S 
ATOM     94  O   UNL A   1      43.862  37.052  27.037  1.00  0.00    -0.237 OA
ATOM     95  O   UNL A   1      45.923  37.960  28.032  1.00  0.00    -0.237 OA
ATOM     96  O   UNL A   1      46.073  36.309  26.223  1.00  0.00    -0.744 OA
ENDBRANCH  90  93
ENDBRANCH  63  86
ENDBRANCH  37  38
ENDBRANCH  29  32
ENDBRANCH  27  28
ENDBRANCH   1  27
TORSDOF 18
ENDMDL
