MODEL 1
REMARK VINA RESULT:     -12.7      0.000      0.000
REMARK SMILES C[C@@]1(C(=O)c2ccccc2N)[C@H](C(=O)NCCCNC(=O)c2ccc(-c3c4nc(c(-c5cccc(S(=O)(=O)[O-])c5F)c5ccc([nH]5)c(-c5cccc(S(=O)(=O)[O-])c5F)c5nc(c(-c6cccc(S(=O)(=O)[O-])c6F)c6ccc3[nH]6)C=C5)C=C4)cc2)[C@@H]1C(=O)N1CCOCC1
REMARK SMILES IDX 17 1 16 2 15 3 13 4 14 5 12 7 1 8 2 9 85 10 3 11 4 12 5 13
REMARK SMILES IDX 6 14 10 15 7 16 9 17 8 18 11 19 86 22 87 23 88 24 89 25
REMARK SMILES IDX 93 26 90 27 92 28 91 29 18 30 19 31 20 32 21 34 22 35 23 36
REMARK SMILES IDX 84 37 24 38 83 39 25 40 26 41 27 42 77 43 28 44 82 45 76 46
REMARK SMILES IDX 78 47 29 48 81 49 75 50 74 51 30 53 62 54 42 55 61 56 43 57
REMARK SMILES IDX 46 58 60 59 79 60 44 61 45 62 59 64 80 65 47 66 31 67 32 68
REMARK SMILES IDX 40 69 33 70 35 71 41 72 34 73 36 74 37 75 38 76 39 77 63 78
REMARK SMILES IDX 64 79 72 80 65 81 67 82 73 83 66 84 68 85 69 86 70 87 71 88
REMARK SMILES IDX 48 89 49 90 57 91 50 92 52 93 58 94 51 95 53 96 54 97 55 98
REMARK SMILES IDX 56 99
REMARK H PARENT 15 6 11 20 11 21 19 33 78 52 46 63
REMARK Flexibility Score: inf
ROOT
ATOM      1  C   UNL A   1      31.669  28.646  26.484  1.00  0.00     0.042 C 
ENDROOT
BRANCH   1   2
ATOM      2  C   UNL A   1      31.115  27.624  25.503  1.00  0.00     0.117 C 
BRANCH   2   3
ATOM      3  N   UNL A   1      30.551  26.491  26.191  1.00  0.00    -0.356 N 
ATOM      4  C   UNL A   1      30.521  25.165  25.940  1.00  0.00     0.224 C 
ATOM      5  O   UNL A   1      29.990  24.475  26.813  1.00  0.00    -0.275 OA
ATOM      6  H   UNL A   1      30.087  26.738  27.024  1.00  0.00     0.163 HD
BRANCH   4   7
ATOM      7  C   UNL A   1      31.079  24.445  24.789  1.00  0.00     0.106 C 
ATOM      8  C   UNL A   1      32.671  24.932  22.874  1.00  0.00     0.022 C 
ATOM      9  C   UNL A   1      32.509  24.424  24.305  1.00  0.00     0.056 C 
ATOM     10  C   UNL A   1      31.664  23.109  24.526  1.00  0.00     0.106 C 
BRANCH   9  11
ATOM     11  C   UNL A   1      33.825  24.440  25.042  1.00  0.00     0.172 C 
ATOM     12  O   UNL A   1      33.885  25.134  26.058  1.00  0.00    -0.293 OA
BRANCH  11  13
ATOM     13  C   UNL A   1      34.993  23.586  24.738  1.00  0.00     0.041 A 
ATOM     14  C   UNL A   1      35.557  23.573  23.458  1.00  0.00     0.014 A 
ATOM     15  C   UNL A   1      35.484  22.722  25.751  1.00  0.00     0.042 A 
ATOM     16  C   UNL A   1      36.624  22.714  23.184  1.00  0.00     0.001 A 
ATOM     17  C   UNL A   1      36.571  21.892  25.457  1.00  0.00     0.026 A 
ATOM     18  C   UNL A   1      37.129  21.874  24.179  1.00  0.00     0.002 A 
BRANCH  15  19
ATOM     19  N   UNL A   1      35.086  22.842  27.088  1.00  0.00    -0.398 N 
ATOM     20  H   UNL A   1      35.312  23.652  27.599  1.00  0.00     0.156 HD
ATOM     21  H   UNL A   1      34.578  22.116  27.517  1.00  0.00     0.156 HD
ENDBRANCH  15  19
ENDBRANCH  11  13
ENDBRANCH   9  11
BRANCH  10  22
ATOM     22  C   UNL A   1      32.081  22.064  25.498  1.00  0.00     0.227 C 
ATOM     23  O   UNL A   1      32.092  22.344  26.690  1.00  0.00    -0.275 OA
ATOM     24  N   UNL A   1      32.568  20.844  25.046  1.00  0.00    -0.338 N 
ATOM     25  C   UNL A   1      32.867  20.465  23.665  1.00  0.00     0.148 C 
ATOM     26  C   UNL A   1      33.039  19.880  26.050  1.00  0.00     0.148 C 
ATOM     27  C   UNL A   1      32.516  18.993  23.381  1.00  0.00     0.181 C 
ATOM     28  C   UNL A   1      32.598  18.460  25.702  1.00  0.00     0.181 C 
ATOM     29  O   UNL A   1      33.028  18.099  24.380  1.00  0.00    -0.378 OA
ENDBRANCH  10  22
ENDBRANCH   4   7
ENDBRANCH   2   3
ENDBRANCH   1   2
BRANCH   1  30
ATOM     30  C   UNL A   1      32.599  29.625  25.772  1.00  0.00     0.118 C 
BRANCH  30  31
ATOM     31  N   UNL A   1      32.537  30.958  26.342  1.00  0.00    -0.352 N 
ATOM     32  C   UNL A   1      33.324  31.611  27.258  1.00  0.00     0.251 C 
ATOM     33  H   UNL A   1      31.785  31.498  26.007  1.00  0.00     0.163 HD
ATOM     34  O   UNL A   1      32.878  32.657  27.731  1.00  0.00    -0.269 OA
BRANCH  32  35
ATOM     35  C   UNL A   1      34.664  31.125  27.700  1.00  0.00     0.039 A 
ATOM     36  C   UNL A   1      34.839  29.740  27.863  1.00  0.00     0.014 A 
ATOM     37  C   UNL A   1      35.712  31.966  28.073  1.00  0.00     0.014 A 
ATOM     38  C   UNL A   1      36.008  29.226  28.440  1.00  0.00     0.010 A 
ATOM     39  C   UNL A   1      36.916  31.452  28.551  1.00  0.00     0.010 A 
ATOM     40  C   UNL A   1      37.051  30.085  28.811  1.00  0.00    -0.014 A 
BRANCH  40  41
ATOM     41  C   UNL A   1      38.239  29.619  29.573  1.00  0.00     0.031 A 
ATOM     42  C   UNL A   1      38.436  30.078  31.001  1.00  0.00     0.074 A 
ATOM     43  C   UNL A   1      39.183  28.872  28.971  1.00  0.00     0.049 A 
ATOM     44  N   UNL A   1      39.453  29.892  31.801  1.00  0.00    -0.248 NA
ATOM     45  C   UNL A   1      37.362  30.896  31.592  1.00  0.00     0.031 C 
ATOM     46  C   UNL A   1      39.150  28.425  27.578  1.00  0.00     0.029 A 
ATOM     47  N   UNL A   1      40.370  28.380  29.452  1.00  0.00    -0.354 N 
ATOM     48  C   UNL A   1      39.178  30.630  32.949  1.00  0.00     0.074 A 
ATOM     49  C   UNL A   1      37.913  31.292  32.730  1.00  0.00     0.031 C 
ATOM     50  C   UNL A   1      40.259  27.711  27.321  1.00  0.00     0.029 A 
ATOM     51  C   UNL A   1      41.091  27.672  28.520  1.00  0.00     0.049 A 
ATOM     52  H   UNL A   1      40.676  28.521  30.378  1.00  0.00     0.167 HD
ATOM     53  C   UNL A   1      39.893  30.723  34.096  1.00  0.00     0.034 A 
ATOM     54  C   UNL A   1      42.284  27.055  28.627  1.00  0.00     0.034 A 
ATOM     55  C   UNL A   1      41.096  29.976  34.348  1.00  0.00     0.049 A 
ATOM     56  C   UNL A   1      43.003  27.077  29.949  1.00  0.00     0.074 A 
ATOM     57  C   UNL A   1      41.834  29.896  35.515  1.00  0.00     0.029 A 
ATOM     58  N   UNL A   1      41.727  29.165  33.418  1.00  0.00    -0.354 N 
ATOM     59  N   UNL A   1      42.654  27.661  31.070  1.00  0.00    -0.248 NA
ATOM     60  C   UNL A   1      44.257  26.316  30.034  1.00  0.00     0.031 C 
ATOM     61  C   UNL A   1      42.917  29.040  35.288  1.00  0.00     0.029 A 
ATOM     62  C   UNL A   1      42.841  28.573  33.985  1.00  0.00     0.049 A 
ATOM     63  H   UNL A   1      41.425  29.027  32.491  1.00  0.00     0.167 HD
ATOM     64  C   UNL A   1      43.618  27.300  32.005  1.00  0.00     0.074 A 
ATOM     65  C   UNL A   1      44.557  26.434  31.320  1.00  0.00     0.031 C 
ATOM     66  C   UNL A   1      43.725  27.660  33.308  1.00  0.00     0.034 A 
BRANCH  53  67
ATOM     67  C   UNL A   1      39.360  31.616  35.190  1.00  0.00     0.023 A 
ATOM     68  C   UNL A   1      38.438  31.104  36.126  1.00  0.00     0.012 A 
ATOM     69  C   UNL A   1      39.802  32.948  35.319  1.00  0.00     0.148 A 
ATOM     70  C   UNL A   1      37.925  31.915  37.140  1.00  0.00     0.002 A 
ATOM     71  C   UNL A   1      39.324  33.736  36.363  1.00  0.00     0.091 A 
ATOM     72  F   UNL A   1      40.664  33.430  34.412  1.00  0.00    -0.205 F 
ATOM     73  C   UNL A   1      38.376  33.225  37.264  1.00  0.00     0.022 A 
BRANCH  71  74
ATOM     74  S   UNL A   1      39.911  35.408  36.657  1.00  0.00     0.127 S 
ATOM     75  O   UNL A   1      41.360  35.214  36.678  1.00  0.00    -0.237 OA
ATOM     76  O   UNL A   1      39.411  36.123  35.482  1.00  0.00    -0.237 OA
ATOM     77  O   UNL A   1      39.313  35.825  37.917  1.00  0.00    -0.744 OA
ENDBRANCH  71  74
ENDBRANCH  53  67
BRANCH  54  78
ATOM     78  C   UNL A   1      42.813  26.266  27.479  1.00  0.00     0.023 A 
ATOM     79  C   UNL A   1      43.730  26.875  26.600  1.00  0.00     0.012 A 
ATOM     80  C   UNL A   1      42.453  24.921  27.273  1.00  0.00     0.148 A 
ATOM     81  C   UNL A   1      44.259  26.169  25.520  1.00  0.00     0.002 A 
ATOM     82  C   UNL A   1      43.023  24.208  26.225  1.00  0.00     0.091 A 
ATOM     83  F   UNL A   1      41.573  24.362  28.116  1.00  0.00    -0.205 F 
ATOM     84  C   UNL A   1      43.914  24.833  25.338  1.00  0.00     0.022 A 
BRANCH  82  85
ATOM     85  S   UNL A   1      42.738  22.450  25.987  1.00  0.00     0.127 S 
ATOM     86  O   UNL A   1      43.456  22.197  24.740  1.00  0.00    -0.237 OA
ATOM     87  O   UNL A   1      43.357  21.878  27.182  1.00  0.00    -0.237 OA
ATOM     88  O   UNL A   1      41.291  22.294  25.926  1.00  0.00    -0.744 OA
ENDBRANCH  82  85
ENDBRANCH  54  78
BRANCH  66  89
ATOM     89  C   UNL A   1      44.866  27.079  34.100  1.00  0.00     0.023 A 
ATOM     90  C   UNL A   1      46.127  27.705  34.083  1.00  0.00     0.012 A 
ATOM     91  C   UNL A   1      44.666  25.947  34.915  1.00  0.00     0.148 A 
ATOM     92  C   UNL A   1      47.182  27.192  34.836  1.00  0.00     0.002 A 
ATOM     93  C   UNL A   1      45.709  25.471  35.701  1.00  0.00     0.091 A 
ATOM     94  F   UNL A   1      43.465  25.351  34.903  1.00  0.00    -0.205 F 
ATOM     95  C   UNL A   1      46.971  26.084  35.653  1.00  0.00     0.022 A 
BRANCH  93  96
ATOM     96  S   UNL A   1      45.486  24.111  36.853  1.00  0.00     0.127 S 
ATOM     97  O   UNL A   1      46.841  23.932  37.370  1.00  0.00    -0.237 OA
ATOM     98  O   UNL A   1      44.534  24.666  37.815  1.00  0.00    -0.237 OA
ATOM     99  O   UNL A   1      44.961  23.006  36.062  1.00  0.00    -0.744 OA
ENDBRANCH  93  96
ENDBRANCH  66  89
ENDBRANCH  40  41
ENDBRANCH  32  35
ENDBRANCH  30  31
ENDBRANCH   1  30
TORSDOF 17
ENDMDL
MODEL 2
REMARK VINA RESULT:     -12.6      4.739      7.789
REMARK SMILES C[C@@]1(C(=O)c2ccccc2N)[C@H](C(=O)NCCCNC(=O)c2ccc(-c3c4nc(c(-c5cccc(S(=O)(=O)[O-])c5F)c5ccc([nH]5)c(-c5cccc(S(=O)(=O)[O-])c5F)c5nc(c(-c6cccc(S(=O)(=O)[O-])c6F)c6ccc3[nH]6)C=C5)C=C4)cc2)[C@@H]1C(=O)N1CCOCC1
REMARK SMILES IDX 17 1 16 2 15 3 13 4 14 5 12 7 1 8 2 9 85 10 3 11 4 12 5 13
REMARK SMILES IDX 6 14 10 15 7 16 9 17 8 18 11 19 86 22 87 23 88 24 89 25
REMARK SMILES IDX 93 26 90 27 92 28 91 29 18 30 19 31 20 32 21 34 22 35 23 36
REMARK SMILES IDX 84 37 24 38 83 39 25 40 26 41 27 42 77 43 28 44 82 45 76 46
REMARK SMILES IDX 78 47 29 48 81 49 75 50 74 51 30 53 62 54 42 55 61 56 43 57
REMARK SMILES IDX 46 58 60 59 79 60 44 61 45 62 59 64 80 65 47 66 31 67 32 68
REMARK SMILES IDX 40 69 33 70 35 71 41 72 34 73 36 74 37 75 38 76 39 77 63 78
REMARK SMILES IDX 64 79 72 80 65 81 67 82 73 83 66 84 68 85 69 86 70 87 71 88
REMARK SMILES IDX 48 89 49 90 57 91 50 92 52 93 58 94 51 95 53 96 54 97 55 98
REMARK SMILES IDX 56 99
REMARK H PARENT 15 6 11 20 11 21 19 33 78 52 46 63
REMARK Flexibility Score: inf
ROOT
ATOM      1  C   UNL A   1      35.943  22.238  24.170  1.00  0.00     0.042 C 
ENDROOT
BRANCH   1   2
ATOM      2  C   UNL A   1      34.443  22.334  23.943  1.00  0.00     0.117 C 
BRANCH   2   3
ATOM      3  N   UNL A   1      34.144  22.988  22.694  1.00  0.00    -0.356 N 
ATOM      4  C   UNL A   1      33.165  23.825  22.289  1.00  0.00     0.224 C 
ATOM      5  O   UNL A   1      33.275  24.246  21.135  1.00  0.00    -0.275 OA
ATOM      6  H   UNL A   1      34.793  22.779  21.984  1.00  0.00     0.163 HD
BRANCH   4   7
ATOM      7  C   UNL A   1      32.021  24.328  23.059  1.00  0.00     0.106 C 
ATOM      8  C   UNL A   1      31.231  24.287  25.471  1.00  0.00     0.022 C 
ATOM      9  C   UNL A   1      32.032  25.024  24.400  1.00  0.00     0.056 C 
ATOM     10  C   UNL A   1      31.246  25.588  23.152  1.00  0.00     0.106 C 
BRANCH   9  11
ATOM     11  C   UNL A   1      32.993  26.009  25.018  1.00  0.00     0.172 C 
ATOM     12  O   UNL A   1      34.186  25.868  24.746  1.00  0.00    -0.293 OA
BRANCH  11  13
ATOM     13  C   UNL A   1      32.615  27.208  25.795  1.00  0.00     0.041 A 
ATOM     14  C   UNL A   1      31.791  27.103  26.921  1.00  0.00     0.014 A 
ATOM     15  C   UNL A   1      33.042  28.480  25.331  1.00  0.00     0.042 A 
ATOM     16  C   UNL A   1      31.403  28.259  27.602  1.00  0.00     0.001 A 
ATOM     17  C   UNL A   1      32.660  29.619  26.048  1.00  0.00     0.026 A 
ATOM     18  C   UNL A   1      31.834  29.513  27.167  1.00  0.00     0.002 A 
BRANCH  15  19
ATOM     19  N   UNL A   1      34.018  28.620  24.337  1.00  0.00    -0.398 N 
ATOM     20  H   UNL A   1      34.006  29.403  23.741  1.00  0.00     0.156 HD
ATOM     21  H   UNL A   1      34.717  27.935  24.235  1.00  0.00     0.156 HD
ENDBRANCH  15  19
ENDBRANCH  11  13
ENDBRANCH   9  11
BRANCH  10  22
ATOM     22  C   UNL A   1      31.556  26.920  22.568  1.00  0.00     0.227 C 
ATOM     23  O   UNL A   1      32.628  27.074  21.997  1.00  0.00    -0.275 OA
ATOM     24  N   UNL A   1      30.700  27.993  22.783  1.00  0.00    -0.338 N 
ATOM     25  C   UNL A   1      29.531  28.033  23.662  1.00  0.00     0.148 C 
ATOM     26  C   UNL A   1      31.096  29.303  22.249  1.00  0.00     0.148 C 
ATOM     27  C   UNL A   1      28.388  28.874  23.065  1.00  0.00     0.181 C 
ATOM     28  C   UNL A   1      29.903  30.034  21.638  1.00  0.00     0.181 C 
ATOM     29  O   UNL A   1      28.833  30.153  22.589  1.00  0.00    -0.378 OA
ENDBRANCH  10  22
ENDBRANCH   4   7
ENDBRANCH   2   3
ENDBRANCH   1   2
BRANCH   1  30
ATOM     30  C   UNL A   1      36.242  21.724  25.576  1.00  0.00     0.118 C 
BRANCH  30  31
ATOM     31  N   UNL A   1      37.381  20.827  25.605  1.00  0.00    -0.352 N 
ATOM     32  C   UNL A   1      38.711  21.028  25.879  1.00  0.00     0.251 C 
ATOM     33  H   UNL A   1      37.158  19.894  25.384  1.00  0.00     0.163 HD
ATOM     34  O   UNL A   1      39.486  20.117  25.583  1.00  0.00    -0.269 OA
BRANCH  32  35
ATOM     35  C   UNL A   1      39.254  22.270  26.504  1.00  0.00     0.039 A 
ATOM     36  C   UNL A   1      38.686  23.498  26.123  1.00  0.00     0.014 A 
ATOM     37  C   UNL A   1      40.362  22.295  27.350  1.00  0.00     0.014 A 
ATOM     38  C   UNL A   1      39.256  24.711  26.532  1.00  0.00     0.010 A 
ATOM     39  C   UNL A   1      40.868  23.496  27.842  1.00  0.00     0.010 A 
ATOM     40  C   UNL A   1      40.371  24.718  27.380  1.00  0.00    -0.014 A 
BRANCH  40  41
ATOM     41  C   UNL A   1      41.114  25.962  27.714  1.00  0.00     0.031 A 
ATOM     42  C   UNL A   1      40.423  27.055  28.500  1.00  0.00     0.074 A 
ATOM     43  C   UNL A   1      42.360  26.157  27.245  1.00  0.00     0.049 A 
ATOM     44  N   UNL A   1      40.841  28.259  28.792  1.00  0.00    -0.248 NA
ATOM     45  C   UNL A   1      39.058  26.770  28.979  1.00  0.00     0.031 C 
ATOM     46  C   UNL A   1      43.110  25.214  26.414  1.00  0.00     0.029 A 
ATOM     47  N   UNL A   1      43.203  27.230  27.377  1.00  0.00    -0.354 N 
ATOM     48  C   UNL A   1      39.770  28.895  29.414  1.00  0.00     0.074 A 
ATOM     49  C   UNL A   1      38.673  27.955  29.429  1.00  0.00     0.031 C 
ATOM     50  C   UNL A   1      44.310  25.744  26.124  1.00  0.00     0.029 A 
ATOM     51  C   UNL A   1      44.403  27.073  26.725  1.00  0.00     0.049 A 
ATOM     52  H   UNL A   1      42.972  28.038  27.892  1.00  0.00     0.167 HD
ATOM     53  C   UNL A   1      39.712  30.135  29.956  1.00  0.00     0.034 A 
ATOM     54  C   UNL A   1      45.460  27.903  26.631  1.00  0.00     0.034 A 
ATOM     55  C   UNL A   1      40.840  31.024  30.035  1.00  0.00     0.049 A 
ATOM     56  C   UNL A   1      45.413  29.229  27.341  1.00  0.00     0.074 A 
ATOM     57  C   UNL A   1      40.930  32.250  30.669  1.00  0.00     0.029 A 
ATOM     58  N   UNL A   1      42.081  30.771  29.472  1.00  0.00    -0.354 N 
ATOM     59  N   UNL A   1      44.442  29.754  28.049  1.00  0.00    -0.248 NA
ATOM     60  C   UNL A   1      46.625  30.058  27.278  1.00  0.00     0.031 C 
ATOM     61  C   UNL A   1      42.227  32.742  30.484  1.00  0.00     0.029 A 
ATOM     62  C   UNL A   1      42.948  31.813  29.750  1.00  0.00     0.049 A 
ATOM     63  H   UNL A   1      42.313  29.967  28.953  1.00  0.00     0.167 HD
ATOM     64  C   UNL A   1      44.941  30.949  28.555  1.00  0.00     0.074 A 
ATOM     65  C   UNL A   1      46.306  31.063  28.082  1.00  0.00     0.031 C 
ATOM     66  C   UNL A   1      44.323  31.876  29.329  1.00  0.00     0.034 A 
BRANCH  53  67
ATOM     67  C   UNL A   1      38.404  30.580  30.564  1.00  0.00     0.023 A 
ATOM     68  C   UNL A   1      38.123  30.288  31.915  1.00  0.00     0.012 A 
ATOM     69  C   UNL A   1      37.470  31.322  29.814  1.00  0.00     0.148 A 
ATOM     70  C   UNL A   1      36.916  30.682  32.495  1.00  0.00     0.002 A 
ATOM     71  C   UNL A   1      36.291  31.755  30.414  1.00  0.00     0.091 A 
ATOM     72  F   UNL A   1      37.739  31.577  28.525  1.00  0.00    -0.205 F 
ATOM     73  C   UNL A   1      36.006  31.422  31.748  1.00  0.00     0.022 A 
BRANCH  71  74
ATOM     74  S   UNL A   1      35.096  32.789  29.558  1.00  0.00     0.127 S 
ATOM     75  O   UNL A   1      34.462  31.826  28.659  1.00  0.00    -0.237 OA
ATOM     76  O   UNL A   1      34.243  33.250  30.653  1.00  0.00    -0.237 OA
ATOM     77  O   UNL A   1      35.869  33.840  28.912  1.00  0.00    -0.744 OA
ENDBRANCH  71  74
ENDBRANCH  53  67
BRANCH  54  78
ATOM     78  C   UNL A   1      46.696  27.451  25.932  1.00  0.00     0.023 A 
ATOM     79  C   UNL A   1      46.848  27.744  24.563  1.00  0.00     0.012 A 
ATOM     80  C   UNL A   1      47.729  26.776  26.610  1.00  0.00     0.148 A 
ATOM     81  C   UNL A   1      47.994  27.349  23.872  1.00  0.00     0.002 A 
ATOM     82  C   UNL A   1      48.890  26.431  25.927  1.00  0.00     0.091 A 
ATOM     83  F   UNL A   1      47.560  26.499  27.910  1.00  0.00    -0.205 F 
ATOM     84  C   UNL A   1      49.018  26.702  24.556  1.00  0.00     0.022 A 
BRANCH  82  85
ATOM     85  S   UNL A   1      50.314  25.710  26.752  1.00  0.00     0.127 S 
ATOM     86  O   UNL A   1      49.765  24.452  27.251  1.00  0.00    -0.237 OA
ATOM     87  O   UNL A   1      51.265  25.574  25.648  1.00  0.00    -0.237 OA
ATOM     88  O   UNL A   1      50.707  26.677  27.768  1.00  0.00    -0.744 OA
ENDBRANCH  82  85
ENDBRANCH  54  78
BRANCH  66  89
ATOM     89  C   UNL A   1      45.130  33.070  29.764  1.00  0.00     0.023 A 
ATOM     90  C   UNL A   1      45.895  33.011  30.945  1.00  0.00     0.012 A 
ATOM     91  C   UNL A   1      45.180  34.229  28.964  1.00  0.00     0.148 A 
ATOM     92  C   UNL A   1      46.668  34.101  31.342  1.00  0.00     0.002 A 
ATOM     93  C   UNL A   1      45.992  35.292  29.341  1.00  0.00     0.091 A 
ATOM     94  F   UNL A   1      44.428  34.276  27.854  1.00  0.00    -0.205 F 
ATOM     95  C   UNL A   1      46.727  35.235  30.536  1.00  0.00     0.022 A 
BRANCH  93  96
ATOM     96  S   UNL A   1      46.197  36.745  28.305  1.00  0.00     0.127 S 
ATOM     97  O   UNL A   1      47.224  37.488  29.031  1.00  0.00    -0.237 OA
ATOM     98  O   UNL A   1      46.643  36.167  27.037  1.00  0.00    -0.237 OA
ATOM     99  O   UNL A   1      44.884  37.375  28.246  1.00  0.00    -0.744 OA
ENDBRANCH  93  96
ENDBRANCH  66  89
ENDBRANCH  40  41
ENDBRANCH  32  35
ENDBRANCH  30  31
ENDBRANCH   1  30
TORSDOF 17
ENDMDL
MODEL 3
REMARK VINA RESULT:     -12.5      4.540     10.013
REMARK SMILES C[C@@]1(C(=O)c2ccccc2N)[C@H](C(=O)NCCCNC(=O)c2ccc(-c3c4nc(c(-c5cccc(S(=O)(=O)[O-])c5F)c5ccc([nH]5)c(-c5cccc(S(=O)(=O)[O-])c5F)c5nc(c(-c6cccc(S(=O)(=O)[O-])c6F)c6ccc3[nH]6)C=C5)C=C4)cc2)[C@@H]1C(=O)N1CCOCC1
REMARK SMILES IDX 17 1 16 2 15 3 13 4 14 5 12 7 1 8 2 9 85 10 3 11 4 12 5 13
REMARK SMILES IDX 6 14 10 15 7 16 9 17 8 18 11 19 86 22 87 23 88 24 89 25
REMARK SMILES IDX 93 26 90 27 92 28 91 29 18 30 19 31 20 32 21 34 22 35 23 36
REMARK SMILES IDX 84 37 24 38 83 39 25 40 26 41 27 42 77 43 28 44 82 45 76 46
REMARK SMILES IDX 78 47 29 48 81 49 75 50 74 51 30 53 62 54 42 55 61 56 43 57
REMARK SMILES IDX 46 58 60 59 79 60 44 61 45 62 59 64 80 65 47 66 31 67 32 68
REMARK SMILES IDX 40 69 33 70 35 71 41 72 34 73 36 74 37 75 38 76 39 77 63 78
REMARK SMILES IDX 64 79 72 80 65 81 67 82 73 83 66 84 68 85 69 86 70 87 71 88
REMARK SMILES IDX 48 89 49 90 57 91 50 92 52 93 58 94 51 95 53 96 54 97 55 98
REMARK SMILES IDX 56 99
REMARK H PARENT 15 6 11 20 11 21 19 33 78 52 46 63
REMARK Flexibility Score: inf
ROOT
ATOM      1  C   UNL A   1      36.200  19.354  24.971  1.00  0.00     0.042 C 
ENDROOT
BRANCH   1   2
ATOM      2  C   UNL A   1      34.904  20.140  24.844  1.00  0.00     0.117 C 
BRANCH   2   3
ATOM      3  N   UNL A   1      34.468  20.639  26.123  1.00  0.00    -0.356 N 
ATOM      4  C   UNL A   1      34.441  21.865  26.688  1.00  0.00     0.224 C 
ATOM      5  O   UNL A   1      33.920  21.920  27.804  1.00  0.00    -0.275 OA
ATOM      6  H   UNL A   1      34.113  19.934  26.711  1.00  0.00     0.163 HD
BRANCH   4   7
ATOM      7  C   UNL A   1      34.910  23.136  26.124  1.00  0.00     0.106 C 
ATOM      8  C   UNL A   1      35.940  23.950  23.953  1.00  0.00     0.022 C 
ATOM      9  C   UNL A   1      34.659  23.694  24.744  1.00  0.00     0.056 C 
ATOM     10  C   UNL A   1      34.427  24.537  26.059  1.00  0.00     0.106 C 
BRANCH   9  11
ATOM     11  C   UNL A   1      33.458  23.633  23.833  1.00  0.00     0.172 C 
ATOM     12  O   UNL A   1      32.911  22.537  23.706  1.00  0.00    -0.293 OA
BRANCH  11  13
ATOM     13  C   UNL A   1      32.797  24.794  23.201  1.00  0.00     0.041 A 
ATOM     14  C   UNL A   1      33.534  25.724  22.460  1.00  0.00     0.014 A 
ATOM     15  C   UNL A   1      31.409  24.989  23.425  1.00  0.00     0.042 A 
ATOM     16  C   UNL A   1      32.892  26.842  21.922  1.00  0.00     0.001 A 
ATOM     17  C   UNL A   1      30.786  26.104  22.852  1.00  0.00     0.026 A 
ATOM     18  C   UNL A   1      31.523  27.033  22.119  1.00  0.00     0.002 A 
BRANCH  15  19
ATOM     19  N   UNL A   1      30.599  23.994  23.986  1.00  0.00    -0.398 N 
ATOM     20  H   UNL A   1      30.498  23.934  24.963  1.00  0.00     0.156 HD
ATOM     21  H   UNL A   1      30.130  23.355  23.402  1.00  0.00     0.156 HD
ENDBRANCH  15  19
ENDBRANCH  11  13
ENDBRANCH   9  11
BRANCH  10  22
ATOM     22  C   UNL A   1      33.089  25.081  26.413  1.00  0.00     0.227 C 
ATOM     23  O   UNL A   1      32.186  24.295  26.669  1.00  0.00    -0.275 OA
ATOM     24  N   UNL A   1      32.846  26.446  26.328  1.00  0.00    -0.338 N 
ATOM     25  C   UNL A   1      33.734  27.473  25.784  1.00  0.00     0.148 C 
ATOM     26  C   UNL A   1      31.485  26.919  26.616  1.00  0.00     0.148 C 
ATOM     27  C   UNL A   1      33.647  28.791  26.575  1.00  0.00     0.181 C 
ATOM     28  C   UNL A   1      31.508  28.201  27.443  1.00  0.00     0.181 C 
ATOM     29  O   UNL A   1      32.294  29.215  26.797  1.00  0.00    -0.378 OA
ENDBRANCH  10  22
ENDBRANCH   4   7
ENDBRANCH   2   3
ENDBRANCH   1   2
BRANCH   1  30
ATOM     30  C   UNL A   1      37.375  20.294  25.229  1.00  0.00     0.118 C 
BRANCH  30  31
ATOM     31  N   UNL A   1      38.603  19.576  25.513  1.00  0.00    -0.352 N 
ATOM     32  C   UNL A   1      39.840  19.990  25.941  1.00  0.00     0.251 C 
ATOM     33  H   UNL A   1      38.537  18.604  25.371  1.00  0.00     0.163 HD
ATOM     34  O   UNL A   1      40.761  19.176  25.857  1.00  0.00    -0.269 OA
BRANCH  32  35
ATOM     35  C   UNL A   1      40.119  21.350  26.489  1.00  0.00     0.039 A 
ATOM     36  C   UNL A   1      39.532  22.451  25.842  1.00  0.00     0.014 A 
ATOM     37  C   UNL A   1      41.015  21.602  27.528  1.00  0.00     0.014 A 
ATOM     38  C   UNL A   1      39.886  23.762  26.190  1.00  0.00     0.010 A 
ATOM     39  C   UNL A   1      41.290  22.902  27.945  1.00  0.00     0.010 A 
ATOM     40  C   UNL A   1      40.790  23.997  27.234  1.00  0.00    -0.014 A 
BRANCH  40  41
ATOM     41  C   UNL A   1      41.326  25.349  27.540  1.00  0.00     0.031 A 
ATOM     42  C   UNL A   1      42.727  25.713  27.099  1.00  0.00     0.074 A 
ATOM     43  C   UNL A   1      40.610  26.214  28.282  1.00  0.00     0.049 A 
ATOM     44  N   UNL A   1      43.430  26.783  27.364  1.00  0.00    -0.248 NA
ATOM     45  C   UNL A   1      43.452  24.715  26.292  1.00  0.00     0.031 C 
ATOM     46  C   UNL A   1      39.277  25.958  28.831  1.00  0.00     0.029 A 
ATOM     47  N   UNL A   1      40.919  27.474  28.726  1.00  0.00    -0.354 N 
ATOM     48  C   UNL A   1      44.694  26.554  26.828  1.00  0.00     0.074 A 
ATOM     49  C   UNL A   1      44.671  25.230  26.249  1.00  0.00     0.031 C 
ATOM     50  C   UNL A   1      38.876  27.035  29.526  1.00  0.00     0.029 A 
ATOM     51  C   UNL A   1      39.931  28.045  29.494  1.00  0.00     0.049 A 
ATOM     52  H   UNL A   1      41.767  27.927  28.515  1.00  0.00     0.167 HD
ATOM     53  C   UNL A   1      45.766  27.380  26.786  1.00  0.00     0.034 A 
ATOM     54  C   UNL A   1      39.882  29.250  30.095  1.00  0.00     0.034 A 
ATOM     55  C   UNL A   1      45.747  28.735  27.267  1.00  0.00     0.049 A 
ATOM     56  C   UNL A   1      41.042  30.195  29.936  1.00  0.00     0.074 A 
ATOM     57  C   UNL A   1      46.732  29.701  27.165  1.00  0.00     0.029 A 
ATOM     58  N   UNL A   1      44.678  29.321  27.925  1.00  0.00    -0.354 N 
ATOM     59  N   UNL A   1      42.174  30.013  29.299  1.00  0.00    -0.248 NA
ATOM     60  C   UNL A   1      40.900  31.527  30.539  1.00  0.00     0.031 C 
ATOM     61  C   UNL A   1      46.259  30.871  27.770  1.00  0.00     0.029 A 
ATOM     62  C   UNL A   1      44.973  30.637  28.231  1.00  0.00     0.049 A 
ATOM     63  H   UNL A   1      43.831  28.867  28.142  1.00  0.00     0.167 HD
ATOM     64  C   UNL A   1      42.857  31.221  29.383  1.00  0.00     0.074 A 
ATOM     65  C   UNL A   1      42.004  32.131  30.122  1.00  0.00     0.031 C 
ATOM     66  C   UNL A   1      44.084  31.547  28.905  1.00  0.00     0.034 A 
BRANCH  53  67
ATOM     67  C   UNL A   1      47.032  26.863  26.145  1.00  0.00     0.023 A 
ATOM     68  C   UNL A   1      47.201  26.963  24.748  1.00  0.00     0.012 A 
ATOM     69  C   UNL A   1      48.071  26.319  26.925  1.00  0.00     0.148 A 
ATOM     70  C   UNL A   1      48.358  26.484  24.133  1.00  0.00     0.002 A 
ATOM     71  C   UNL A   1      49.244  25.889  26.310  1.00  0.00     0.091 A 
ATOM     72  F   UNL A   1      47.891  26.211  28.249  1.00  0.00    -0.205 F 
ATOM     73  C   UNL A   1      49.382  25.957  24.914  1.00  0.00     0.022 A 
BRANCH  71  74
ATOM     74  S   UNL A   1      50.653  25.276  27.240  1.00  0.00     0.127 S 
ATOM     75  O   UNL A   1      50.993  26.437  28.061  1.00  0.00    -0.237 OA
ATOM     76  O   UNL A   1      50.071  24.157  27.983  1.00  0.00    -0.237 OA
ATOM     77  O   UNL A   1      51.647  24.890  26.250  1.00  0.00    -0.744 OA
ENDBRANCH  71  74
ENDBRANCH  53  67
BRANCH  54  78
ATOM     78  C   UNL A   1      38.640  29.672  30.802  1.00  0.00     0.023 A 
ATOM     79  C   UNL A   1      38.417  29.215  32.116  1.00  0.00     0.012 A 
ATOM     80  C   UNL A   1      37.707  30.544  30.210  1.00  0.00     0.148 A 
ATOM     81  C   UNL A   1      37.274  29.596  32.819  1.00  0.00     0.002 A 
ATOM     82  C   UNL A   1      36.596  30.960  30.935  1.00  0.00     0.091 A 
ATOM     83  F   UNL A   1      37.934  30.961  28.957  1.00  0.00    -0.205 F 
ATOM     84  C   UNL A   1      36.369  30.476  32.233  1.00  0.00     0.022 A 
BRANCH  82  85
ATOM     85  S   UNL A   1      35.443  32.190  30.312  1.00  0.00     0.127 S 
ATOM     86  O   UNL A   1      34.904  31.521  29.131  1.00  0.00    -0.237 OA
ATOM     87  O   UNL A   1      34.508  32.320  31.429  1.00  0.00    -0.237 OA
ATOM     88  O   UNL A   1      36.244  33.380  30.056  1.00  0.00    -0.744 OA
ENDBRANCH  82  85
ENDBRANCH  54  78
BRANCH  66  89
ATOM     89  C   UNL A   1      44.561  32.960  29.113  1.00  0.00     0.023 A 
ATOM     90  C   UNL A   1      45.241  33.306  30.297  1.00  0.00     0.012 A 
ATOM     91  C   UNL A   1      44.390  33.928  28.104  1.00  0.00     0.148 A 
ATOM     92  C   UNL A   1      45.713  34.604  30.487  1.00  0.00     0.002 A 
ATOM     93  C   UNL A   1      44.906  35.206  28.281  1.00  0.00     0.091 A 
ATOM     94  F   UNL A   1      43.720  33.586  26.993  1.00  0.00    -0.205 F 
ATOM     95  C   UNL A   1      45.556  35.550  29.476  1.00  0.00     0.022 A 
BRANCH  93  96
ATOM     96  S   UNL A   1      44.832  36.448  26.985  1.00  0.00     0.127 S 
ATOM     97  O   UNL A   1      45.790  35.925  26.014  1.00  0.00    -0.237 OA
ATOM     98  O   UNL A   1      43.434  36.379  26.561  1.00  0.00    -0.237 OA
ATOM     99  O   UNL A   1      45.202  37.705  27.623  1.00  0.00    -0.744 OA
ENDBRANCH  93  96
ENDBRANCH  66  89
ENDBRANCH  40  41
ENDBRANCH  32  35
ENDBRANCH  30  31
ENDBRANCH   1  30
TORSDOF 17
ENDMDL
