MODEL 1
REMARK VINA RESULT:     -11.5      0.000      0.000
REMARK SMILES COc1ccc([C@H](CC(=O)NCCCNC(=O)c2ccc(-c3c4nc(c(-c5cccc(S(=O)(=O)[O-])c5F)c5ccc([nH]5)c(-c5cccc(S(=O)(=O)[O-])c5F)c5nc(c(-c6cccc(S(=O)(=O)[O-])c6F)c6ccc3[nH]6)C=C5)C=C4)cc2)NC(C)=O)cc1
REMARK SMILES IDX 13 1 12 2 11 3 9 4 10 5 8 7 7 8 6 9 3 10 4 11 86 12 5 13
REMARK SMILES IDX 85 14 2 15 1 16 81 17 82 18 83 20 84 21 14 22 15 23 16 24
REMARK SMILES IDX 17 26 18 27 19 28 80 29 20 30 79 31 21 32 22 33 23 34 73 35
REMARK SMILES IDX 24 36 78 37 72 38 74 39 25 40 77 41 71 42 70 43 26 45 58 46
REMARK SMILES IDX 38 47 57 48 39 49 42 50 56 51 75 52 40 53 41 54 55 56 76 57
REMARK SMILES IDX 43 58 27 59 28 60 36 61 29 62 31 63 37 64 30 65 32 66 33 67
REMARK SMILES IDX 34 68 35 69 59 70 60 71 68 72 61 73 63 74 69 75 62 76 64 77
REMARK SMILES IDX 65 78 66 79 67 80 44 81 45 82 53 83 46 84 48 85 54 86 47 87
REMARK SMILES IDX 49 88 50 89 51 90 52 91
REMARK H PARENT 11 6 81 19 15 25 74 44 42 55
REMARK Flexibility Score: inf
ROOT
ATOM      1  C   UNL A   1      31.478  29.167  26.271  1.00  0.00     0.042 C 
ENDROOT
BRANCH   1   2
ATOM      2  C   UNL A   1      31.460  28.183  27.420  1.00  0.00     0.117 C 
BRANCH   2   3
ATOM      3  N   UNL A   1      31.919  26.850  27.113  1.00  0.00    -0.356 N 
ATOM      4  C   UNL A   1      31.366  25.881  26.346  1.00  0.00     0.222 C 
ATOM      5  O   UNL A   1      32.053  24.858  26.205  1.00  0.00    -0.275 OA
ATOM      6  H   UNL A   1      32.776  26.605  27.531  1.00  0.00     0.163 HD
BRANCH   4   7
ATOM      7  C   UNL A   1      30.050  25.970  25.573  1.00  0.00     0.129 C 
BRANCH   7   8
ATOM      8  C   UNL A   1      29.971  26.101  24.046  1.00  0.00     0.121 C 
BRANCH   8   9
ATOM      9  C   UNL A   1      29.609  27.471  23.480  1.00  0.00    -0.025 A 
ATOM     10  C   UNL A   1      29.015  29.811  22.017  1.00  0.00     0.118 A 
ATOM     11  C   UNL A   1      30.334  29.382  22.153  1.00  0.00     0.047 A 
ATOM     12  C   UNL A   1      28.003  29.118  22.680  1.00  0.00     0.047 A 
ATOM     13  C   UNL A   1      30.634  28.234  22.889  1.00  0.00     0.010 A 
ATOM     14  C   UNL A   1      28.298  27.966  23.422  1.00  0.00     0.010 A 
BRANCH  10  15
ATOM     15  O   UNL A   1      28.849  30.900  21.208  1.00  0.00    -0.497 OA
ATOM     16  C   UNL A   1      28.297  32.068  21.802  1.00  0.00     0.278 C 
ENDBRANCH  10  15
ENDBRANCH   8   9
BRANCH   8  17
ATOM     17  N   UNL A   1      31.251  25.728  23.446  1.00  0.00    -0.349 N 
ATOM     18  C   UNL A   1      31.488  24.474  22.937  1.00  0.00     0.217 C 
ATOM     19  H   UNL A   1      31.969  26.400  23.405  1.00  0.00     0.164 HD
ATOM     20  C   UNL A   1      32.830  24.321  22.273  1.00  0.00     0.114 C 
ATOM     21  O   UNL A   1      30.689  23.547  22.999  1.00  0.00    -0.275 OA
ENDBRANCH   8  17
ENDBRANCH   7   8
ENDBRANCH   4   7
ENDBRANCH   2   3
ENDBRANCH   1   2
BRANCH   1  22
ATOM     22  C   UNL A   1      32.759  29.964  26.144  1.00  0.00     0.118 C 
BRANCH  22  23
ATOM     23  N   UNL A   1      32.637  31.353  26.572  1.00  0.00    -0.352 N 
ATOM     24  C   UNL A   1      33.433  32.119  27.400  1.00  0.00     0.251 C 
ATOM     25  H   UNL A   1      31.853  31.826  26.209  1.00  0.00     0.163 HD
ATOM     26  O   UNL A   1      33.066  33.245  27.711  1.00  0.00    -0.269 OA
BRANCH  24  27
ATOM     27  C   UNL A   1      34.706  31.576  27.939  1.00  0.00     0.039 A 
ATOM     28  C   UNL A   1      35.817  32.417  28.050  1.00  0.00     0.014 A 
ATOM     29  C   UNL A   1      34.812  30.247  28.344  1.00  0.00     0.014 A 
ATOM     30  C   UNL A   1      36.993  31.942  28.643  1.00  0.00     0.010 A 
ATOM     31  C   UNL A   1      35.919  29.825  29.067  1.00  0.00     0.010 A 
ATOM     32  C   UNL A   1      37.040  30.652  29.197  1.00  0.00    -0.014 A 
BRANCH  32  33
ATOM     33  C   UNL A   1      38.255  30.127  29.876  1.00  0.00     0.031 A 
ATOM     34  C   UNL A   1      38.597  30.586  31.274  1.00  0.00     0.074 A 
ATOM     35  C   UNL A   1      39.099  29.309  29.213  1.00  0.00     0.049 A 
ATOM     36  N   UNL A   1      39.639  30.295  32.008  1.00  0.00    -0.248 NA
ATOM     37  C   UNL A   1      37.667  31.531  31.917  1.00  0.00     0.031 C 
ATOM     38  C   UNL A   1      38.942  28.867  27.825  1.00  0.00     0.029 A 
ATOM     39  N   UNL A   1      40.273  28.718  29.614  1.00  0.00    -0.354 N 
ATOM     40  C   UNL A   1      39.512  31.053  33.167  1.00  0.00     0.074 A 
ATOM     41  C   UNL A   1      38.325  31.860  33.017  1.00  0.00     0.031 C 
ATOM     42  C   UNL A   1      39.964  28.060  27.499  1.00  0.00     0.029 A 
ATOM     43  C   UNL A   1      40.867  27.949  28.640  1.00  0.00     0.049 A 
ATOM     44  H   UNL A   1      40.653  28.835  30.515  1.00  0.00     0.167 HD
ATOM     45  C   UNL A   1      40.286  31.049  34.279  1.00  0.00     0.034 A 
ATOM     46  C   UNL A   1      42.008  27.234  28.665  1.00  0.00     0.034 A 
ATOM     47  C   UNL A   1      41.430  30.199  34.453  1.00  0.00     0.049 A 
ATOM     48  C   UNL A   1      42.812  27.189  29.938  1.00  0.00     0.074 A 
ATOM     49  C   UNL A   1      42.228  30.047  35.572  1.00  0.00     0.029 A 
ATOM     50  N   UNL A   1      41.936  29.351  33.482  1.00  0.00    -0.354 N 
ATOM     51  N   UNL A   1      42.587  27.794  31.079  1.00  0.00    -0.248 NA
ATOM     52  C   UNL A   1      44.000  26.324  29.942  1.00  0.00     0.031 C 
ATOM     53  C   UNL A   1      43.234  29.124  35.268  1.00  0.00     0.029 A 
ATOM     54  C   UNL A   1      43.037  28.672  33.974  1.00  0.00     0.049 A 
ATOM     55  H   UNL A   1      41.568  29.247  32.574  1.00  0.00     0.167 HD
ATOM     56  C   UNL A   1      43.576  27.349  31.948  1.00  0.00     0.074 A 
ATOM     57  C   UNL A   1      44.389  26.409  31.206  1.00  0.00     0.031 C 
ATOM     58  C   UNL A   1      43.798  27.694  33.241  1.00  0.00     0.034 A 
BRANCH  45  59
ATOM     59  C   UNL A   1      39.879  31.951  35.418  1.00  0.00     0.023 A 
ATOM     60  C   UNL A   1      40.378  33.269  35.479  1.00  0.00     0.012 A 
ATOM     61  C   UNL A   1      38.969  31.513  36.400  1.00  0.00     0.148 A 
ATOM     62  C   UNL A   1      40.016  34.121  36.521  1.00  0.00     0.002 A 
ATOM     63  C   UNL A   1      38.571  32.386  37.406  1.00  0.00     0.091 A 
ATOM     64  F   UNL A   1      38.518  30.252  36.340  1.00  0.00    -0.205 F 
ATOM     65  C   UNL A   1      39.105  33.684  37.478  1.00  0.00     0.022 A 
BRANCH  63  66
ATOM     66  S   UNL A   1      37.337  31.951  38.637  1.00  0.00     0.127 S 
ATOM     67  O   UNL A   1      37.078  30.549  38.313  1.00  0.00    -0.237 OA
ATOM     68  O   UNL A   1      38.066  32.163  39.889  1.00  0.00    -0.237 OA
ATOM     69  O   UNL A   1      36.218  32.858  38.425  1.00  0.00    -0.744 OA
ENDBRANCH  63  66
ENDBRANCH  45  59
BRANCH  46  70
ATOM     70  C   UNL A   1      42.417  26.432  27.477  1.00  0.00     0.023 A 
ATOM     71  C   UNL A   1      43.173  27.042  26.457  1.00  0.00     0.012 A 
ATOM     72  C   UNL A   1      42.076  25.071  27.355  1.00  0.00     0.148 A 
ATOM     73  C   UNL A   1      43.547  26.325  25.319  1.00  0.00     0.002 A 
ATOM     74  C   UNL A   1      42.500  24.348  26.246  1.00  0.00     0.091 A 
ATOM     75  F   UNL A   1      41.351  24.509  28.332  1.00  0.00    -0.205 F 
ATOM     76  C   UNL A   1      43.218  24.977  25.217  1.00  0.00     0.022 A 
BRANCH  74  77
ATOM     77  S   UNL A   1      42.234  22.579  26.090  1.00  0.00     0.127 S 
ATOM     78  O   UNL A   1      42.885  22.290  24.814  1.00  0.00    -0.237 OA
ATOM     79  O   UNL A   1      42.933  22.064  27.269  1.00  0.00    -0.237 OA
ATOM     80  O   UNL A   1      40.790  22.394  26.119  1.00  0.00    -0.744 OA
ENDBRANCH  74  77
ENDBRANCH  46  70
BRANCH  58  81
ATOM     81  C   UNL A   1      44.927  27.006  33.963  1.00  0.00     0.023 A 
ATOM     82  C   UNL A   1      46.249  27.471  33.817  1.00  0.00     0.012 A 
ATOM     83  C   UNL A   1      44.663  25.932  34.834  1.00  0.00     0.148 A 
ATOM     84  C   UNL A   1      47.296  26.847  34.494  1.00  0.00     0.002 A 
ATOM     85  C   UNL A   1      45.703  25.352  35.549  1.00  0.00     0.091 A 
ATOM     86  F   UNL A   1      43.400  25.492  34.946  1.00  0.00    -0.205 F 
ATOM     87  C   UNL A   1      47.023  25.796  35.367  1.00  0.00     0.022 A 
BRANCH  85  88
ATOM     88  S   UNL A   1      45.425  24.066  36.770  1.00  0.00     0.127 S 
ATOM     89  O   UNL A   1      44.282  24.598  37.510  1.00  0.00    -0.237 OA
ATOM     90  O   UNL A   1      45.123  22.902  35.935  1.00  0.00    -0.237 OA
ATOM     91  O   UNL A   1      46.666  23.958  37.526  1.00  0.00    -0.744 OA
ENDBRANCH  85  88
ENDBRANCH  58  81
ENDBRANCH  32  33
ENDBRANCH  24  27
ENDBRANCH  22  23
ENDBRANCH   1  22
TORSDOF 17
ENDMDL
MODEL 2
REMARK VINA RESULT:     -11.5      5.216      9.987
REMARK SMILES COc1ccc([C@H](CC(=O)NCCCNC(=O)c2ccc(-c3c4nc(c(-c5cccc(S(=O)(=O)[O-])c5F)c5ccc([nH]5)c(-c5cccc(S(=O)(=O)[O-])c5F)c5nc(c(-c6cccc(S(=O)(=O)[O-])c6F)c6ccc3[nH]6)C=C5)C=C4)cc2)NC(C)=O)cc1
REMARK SMILES IDX 13 1 12 2 11 3 9 4 10 5 8 7 7 8 6 9 3 10 4 11 86 12 5 13
REMARK SMILES IDX 85 14 2 15 1 16 81 17 82 18 83 20 84 21 14 22 15 23 16 24
REMARK SMILES IDX 17 26 18 27 19 28 80 29 20 30 79 31 21 32 22 33 23 34 73 35
REMARK SMILES IDX 24 36 78 37 72 38 74 39 25 40 77 41 71 42 70 43 26 45 58 46
REMARK SMILES IDX 38 47 57 48 39 49 42 50 56 51 75 52 40 53 41 54 55 56 76 57
REMARK SMILES IDX 43 58 27 59 28 60 36 61 29 62 31 63 37 64 30 65 32 66 33 67
REMARK SMILES IDX 34 68 35 69 59 70 60 71 68 72 61 73 63 74 69 75 62 76 64 77
REMARK SMILES IDX 65 78 66 79 67 80 44 81 45 82 53 83 46 84 48 85 54 86 47 87
REMARK SMILES IDX 49 88 50 89 51 90 52 91
REMARK H PARENT 11 6 81 19 15 25 74 44 42 55
REMARK Flexibility Score: inf
ROOT
ATOM      1  C   UNL A   1      34.985  21.672  25.792  1.00  0.00     0.042 C 
ENDROOT
BRANCH   1   2
ATOM      2  C   UNL A   1      34.068  21.370  24.628  1.00  0.00     0.117 C 
BRANCH   2   3
ATOM      3  N   UNL A   1      34.196  22.240  23.484  1.00  0.00    -0.356 N 
ATOM      4  C   UNL A   1      33.296  23.064  22.896  1.00  0.00     0.222 C 
ATOM      5  O   UNL A   1      33.738  23.758  21.968  1.00  0.00    -0.275 OA
ATOM      6  H   UNL A   1      35.086  22.235  23.062  1.00  0.00     0.163 HD
BRANCH   4   7
ATOM      7  C   UNL A   1      31.847  23.286  23.327  1.00  0.00     0.129 C 
BRANCH   7   8
ATOM      8  C   UNL A   1      31.429  24.287  24.413  1.00  0.00     0.121 C 
BRANCH   8   9
ATOM      9  C   UNL A   1      30.924  25.651  23.950  1.00  0.00    -0.025 A 
ATOM     10  C   UNL A   1      29.982  27.984  22.670  1.00  0.00     0.118 A 
ATOM     11  C   UNL A   1      31.311  27.590  22.526  1.00  0.00     0.047 A 
ATOM     12  C   UNL A   1      29.146  27.259  23.519  1.00  0.00     0.047 A 
ATOM     13  C   UNL A   1      31.785  26.445  23.171  1.00  0.00     0.010 A 
ATOM     14  C   UNL A   1      29.617  26.110  24.170  1.00  0.00     0.010 A 
BRANCH  10  15
ATOM     15  O   UNL A   1      29.626  29.073  21.926  1.00  0.00    -0.497 OA
ATOM     16  C   UNL A   1      29.300  30.262  22.634  1.00  0.00     0.278 C 
ENDBRANCH  10  15
ENDBRANCH   8   9
BRANCH   8  17
ATOM     17  N   UNL A   1      30.369  23.711  25.241  1.00  0.00    -0.349 N 
ATOM     18  C   UNL A   1      30.616  23.171  26.481  1.00  0.00     0.217 C 
ATOM     19  H   UNL A   1      29.447  23.711  24.899  1.00  0.00     0.164 HD
ATOM     20  C   UNL A   1      29.381  22.723  27.214  1.00  0.00     0.114 C 
ATOM     21  O   UNL A   1      31.734  23.059  26.969  1.00  0.00    -0.275 OA
ENDBRANCH   8  17
ENDBRANCH   7   8
ENDBRANCH   4   7
ENDBRANCH   2   3
ENDBRANCH   1   2
BRANCH   1  22
ATOM     22  C   UNL A   1      36.371  22.138  25.398  1.00  0.00     0.118 C 
BRANCH  22  23
ATOM     23  N   UNL A   1      37.399  21.111  25.524  1.00  0.00    -0.352 N 
ATOM     24  C   UNL A   1      38.714  21.192  25.937  1.00  0.00     0.251 C 
ATOM     25  H   UNL A   1      37.106  20.205  25.272  1.00  0.00     0.163 HD
ATOM     26  O   UNL A   1      39.430  20.202  25.853  1.00  0.00    -0.269 OA
BRANCH  24  27
ATOM     27  C   UNL A   1      39.269  22.471  26.449  1.00  0.00     0.039 A 
ATOM     28  C   UNL A   1      40.336  22.443  27.351  1.00  0.00     0.014 A 
ATOM     29  C   UNL A   1      38.752  23.698  26.038  1.00  0.00     0.014 A 
ATOM     30  C   UNL A   1      40.927  23.642  27.766  1.00  0.00     0.010 A 
ATOM     31  C   UNL A   1      39.434  24.872  26.327  1.00  0.00     0.010 A 
ATOM     32  C   UNL A   1      40.509  24.868  27.223  1.00  0.00    -0.014 A 
BRANCH  32  33
ATOM     33  C   UNL A   1      41.142  26.159  27.604  1.00  0.00     0.031 A 
ATOM     34  C   UNL A   1      42.574  26.441  27.214  1.00  0.00     0.074 A 
ATOM     35  C   UNL A   1      40.469  27.042  28.372  1.00  0.00     0.049 A 
ATOM     36  N   UNL A   1      43.322  27.475  27.504  1.00  0.00    -0.248 NA
ATOM     37  C   UNL A   1      43.274  25.407  26.431  1.00  0.00     0.031 C 
ATOM     38  C   UNL A   1      39.117  26.851  28.902  1.00  0.00     0.029 A 
ATOM     39  N   UNL A   1      40.841  28.271  28.858  1.00  0.00    -0.354 N 
ATOM     40  C   UNL A   1      44.580  27.191  26.984  1.00  0.00     0.074 A 
ATOM     41  C   UNL A   1      44.514  25.868  26.411  1.00  0.00     0.031 C 
ATOM     42  C   UNL A   1      38.766  27.931  29.617  1.00  0.00     0.029 A 
ATOM     43  C   UNL A   1      39.875  28.879  29.626  1.00  0.00     0.049 A 
ATOM     44  H   UNL A   1      41.719  28.679  28.674  1.00  0.00     0.167 HD
ATOM     45  C   UNL A   1      45.683  27.977  26.942  1.00  0.00     0.034 A 
ATOM     46  C   UNL A   1      39.882  30.066  30.262  1.00  0.00     0.034 A 
ATOM     47  C   UNL A   1      45.728  29.318  27.455  1.00  0.00     0.049 A 
ATOM     48  C   UNL A   1      41.094  30.951  30.141  1.00  0.00     0.074 A 
ATOM     49  C   UNL A   1      46.764  30.232  27.383  1.00  0.00     0.029 A 
ATOM     50  N   UNL A   1      44.691  29.938  28.131  1.00  0.00    -0.354 N 
ATOM     51  N   UNL A   1      42.221  30.726  29.509  1.00  0.00    -0.248 NA
ATOM     52  C   UNL A   1      41.018  32.273  30.778  1.00  0.00     0.031 C 
ATOM     53  C   UNL A   1      46.359  31.400  28.038  1.00  0.00     0.029 A 
ATOM     54  C   UNL A   1      45.058  31.225  28.482  1.00  0.00     0.049 A 
ATOM     55  H   UNL A   1      43.820  29.525  28.332  1.00  0.00     0.167 HD
ATOM     56  C   UNL A   1      42.967  31.893  29.634  1.00  0.00     0.074 A 
ATOM     57  C   UNL A   1      42.156  32.827  30.385  1.00  0.00     0.031 C 
ATOM     58  C   UNL A   1      44.216  32.163  29.177  1.00  0.00     0.034 A 
BRANCH  45  59
ATOM     59  C   UNL A   1      46.912  27.423  26.264  1.00  0.00     0.023 A 
ATOM     60  C   UNL A   1      47.129  27.679  24.894  1.00  0.00     0.012 A 
ATOM     61  C   UNL A   1      47.872  26.691  26.989  1.00  0.00     0.148 A 
ATOM     62  C   UNL A   1      48.256  27.179  24.246  1.00  0.00     0.002 A 
ATOM     63  C   UNL A   1      49.021  26.241  26.347  1.00  0.00     0.091 A 
ATOM     64  F   UNL A   1      47.643  26.439  28.285  1.00  0.00    -0.205 F 
ATOM     65  C   UNL A   1      49.207  26.470  24.974  1.00  0.00     0.022 A 
BRANCH  63  66
ATOM     66  S   UNL A   1      50.347  25.393  27.213  1.00  0.00     0.127 S 
ATOM     67  O   UNL A   1      50.723  26.384  28.220  1.00  0.00    -0.237 OA
ATOM     68  O   UNL A   1      49.661  24.214  27.744  1.00  0.00    -0.237 OA
ATOM     69  O   UNL A   1      51.363  25.105  26.211  1.00  0.00    -0.744 OA
ENDBRANCH  63  66
ENDBRANCH  45  59
BRANCH  46  70
ATOM     70  C   UNL A   1      38.672  30.529  31.001  1.00  0.00     0.023 A 
ATOM     71  C   UNL A   1      38.566  30.276  32.383  1.00  0.00     0.012 A 
ATOM     72  C   UNL A   1      37.636  31.226  30.351  1.00  0.00     0.148 A 
ATOM     73  C   UNL A   1      37.433  30.671  33.096  1.00  0.00     0.002 A 
ATOM     74  C   UNL A   1      36.536  31.667  31.078  1.00  0.00     0.091 A 
ATOM     75  F   UNL A   1      37.752  31.452  29.035  1.00  0.00    -0.205 F 
ATOM     76  C   UNL A   1      36.423  31.374  32.446  1.00  0.00     0.022 A 
BRANCH  74  77
ATOM     77  S   UNL A   1      35.248  32.688  30.354  1.00  0.00     0.127 S 
ATOM     78  O   UNL A   1      35.995  33.887  29.976  1.00  0.00    -0.237 OA
ATOM     79  O   UNL A   1      34.802  31.861  29.232  1.00  0.00    -0.237 OA
ATOM     80  O   UNL A   1      34.253  32.867  31.402  1.00  0.00    -0.744 OA
ENDBRANCH  74  77
ENDBRANCH  46  70
BRANCH  58  81
ATOM     81  C   UNL A   1      44.762  33.546  29.417  1.00  0.00     0.023 A 
ATOM     82  C   UNL A   1      45.473  33.832  30.599  1.00  0.00     0.012 A 
ATOM     83  C   UNL A   1      44.618  34.547  28.437  1.00  0.00     0.148 A 
ATOM     84  C   UNL A   1      45.994  35.107  30.820  1.00  0.00     0.002 A 
ATOM     85  C   UNL A   1      45.188  35.797  28.639  1.00  0.00     0.091 A 
ATOM     86  F   UNL A   1      43.922  34.261  27.325  1.00  0.00    -0.205 F 
ATOM     87  C   UNL A   1      45.861  36.085  29.837  1.00  0.00     0.022 A 
BRANCH  85  88
ATOM     88  S   UNL A   1      45.154  37.079  27.382  1.00  0.00     0.127 S 
ATOM     89  O   UNL A   1      45.697  38.225  28.110  1.00  0.00    -0.237 OA
ATOM     90  O   UNL A   1      46.041  36.532  26.355  1.00  0.00    -0.237 OA
ATOM     91  O   UNL A   1      43.761  37.199  26.972  1.00  0.00    -0.744 OA
ENDBRANCH  85  88
ENDBRANCH  58  81
ENDBRANCH  32  33
ENDBRANCH  24  27
ENDBRANCH  22  23
ENDBRANCH   1  22
TORSDOF 17
ENDMDL
MODEL 3
REMARK VINA RESULT:     -11.4      2.066      3.529
REMARK SMILES COc1ccc([C@H](CC(=O)NCCCNC(=O)c2ccc(-c3c4nc(c(-c5cccc(S(=O)(=O)[O-])c5F)c5ccc([nH]5)c(-c5cccc(S(=O)(=O)[O-])c5F)c5nc(c(-c6cccc(S(=O)(=O)[O-])c6F)c6ccc3[nH]6)C=C5)C=C4)cc2)NC(C)=O)cc1
REMARK SMILES IDX 13 1 12 2 11 3 9 4 10 5 8 7 7 8 6 9 3 10 4 11 86 12 5 13
REMARK SMILES IDX 85 14 2 15 1 16 81 17 82 18 83 20 84 21 14 22 15 23 16 24
REMARK SMILES IDX 17 26 18 27 19 28 80 29 20 30 79 31 21 32 22 33 23 34 73 35
REMARK SMILES IDX 24 36 78 37 72 38 74 39 25 40 77 41 71 42 70 43 26 45 58 46
REMARK SMILES IDX 38 47 57 48 39 49 42 50 56 51 75 52 40 53 41 54 55 56 76 57
REMARK SMILES IDX 43 58 27 59 28 60 36 61 29 62 31 63 37 64 30 65 32 66 33 67
REMARK SMILES IDX 34 68 35 69 59 70 60 71 68 72 61 73 63 74 69 75 62 76 64 77
REMARK SMILES IDX 65 78 66 79 67 80 44 81 45 82 53 83 46 84 48 85 54 86 47 87
REMARK SMILES IDX 49 88 50 89 51 90 52 91
REMARK H PARENT 11 6 81 19 15 25 74 44 42 55
REMARK Flexibility Score: inf
ROOT
ATOM      1  C   UNL A   1      31.848  28.694  26.652  1.00  0.00     0.042 C 
ENDROOT
BRANCH   1   2
ATOM      2  C   UNL A   1      31.319  27.600  25.752  1.00  0.00     0.117 C 
BRANCH   2   3
ATOM      3  N   UNL A   1      30.865  26.403  26.418  1.00  0.00    -0.356 N 
ATOM      4  C   UNL A   1      30.576  25.175  25.925  1.00  0.00     0.222 C 
ATOM      5  O   UNL A   1      30.289  24.316  26.773  1.00  0.00    -0.275 OA
ATOM      6  H   UNL A   1      30.747  26.494  27.391  1.00  0.00     0.163 HD
BRANCH   4   7
ATOM      7  C   UNL A   1      30.668  24.734  24.465  1.00  0.00     0.129 C 
BRANCH   7   8
ATOM      8  C   UNL A   1      31.979  24.308  23.788  1.00  0.00     0.121 C 
BRANCH   8   9
ATOM      9  C   UNL A   1      32.435  22.866  23.994  1.00  0.00    -0.025 A 
ATOM     10  C   UNL A   1      32.926  20.170  24.673  1.00  0.00     0.118 A 
ATOM     11  C   UNL A   1      33.241  21.190  25.569  1.00  0.00     0.047 A 
ATOM     12  C   UNL A   1      32.443  20.502  23.407  1.00  0.00     0.047 A 
ATOM     13  C   UNL A   1      33.015  22.526  25.230  1.00  0.00     0.010 A 
ATOM     14  C   UNL A   1      32.216  21.841  23.061  1.00  0.00     0.010 A 
BRANCH  10  15
ATOM     15  O   UNL A   1      33.120  18.906  25.155  1.00  0.00    -0.497 OA
ATOM     16  C   UNL A   1      32.306  17.875  24.611  1.00  0.00     0.278 C 
ENDBRANCH  10  15
ENDBRANCH   8   9
BRANCH   8  17
ATOM     17  N   UNL A   1      31.883  24.510  22.343  1.00  0.00    -0.349 N 
ATOM     18  C   UNL A   1      32.786  25.277  21.646  1.00  0.00     0.217 C 
ATOM     19  H   UNL A   1      31.146  24.082  21.852  1.00  0.00     0.164 HD
ATOM     20  C   UNL A   1      32.573  25.279  20.156  1.00  0.00     0.114 C 
ATOM     21  O   UNL A   1      33.698  25.907  22.169  1.00  0.00    -0.275 OA
ENDBRANCH   8  17
ENDBRANCH   7   8
ENDBRANCH   4   7
ENDBRANCH   2   3
ENDBRANCH   1   2
BRANCH   1  22
ATOM     22  C   UNL A   1      32.751  29.696  25.962  1.00  0.00     0.118 C 
BRANCH  22  23
ATOM     23  N   UNL A   1      32.545  31.074  26.395  1.00  0.00    -0.352 N 
ATOM     24  C   UNL A   1      33.270  31.869  27.259  1.00  0.00     0.251 C 
ATOM     25  H   UNL A   1      31.755  31.511  26.004  1.00  0.00     0.163 HD
ATOM     26  O   UNL A   1      32.837  32.973  27.562  1.00  0.00    -0.269 OA
BRANCH  24  27
ATOM     27  C   UNL A   1      34.545  31.383  27.845  1.00  0.00     0.039 A 
ATOM     28  C   UNL A   1      35.624  32.263  27.963  1.00  0.00     0.014 A 
ATOM     29  C   UNL A   1      34.682  30.069  28.288  1.00  0.00     0.014 A 
ATOM     30  C   UNL A   1      36.799  31.843  28.599  1.00  0.00     0.010 A 
ATOM     31  C   UNL A   1      35.783  29.703  29.051  1.00  0.00     0.010 A 
ATOM     32  C   UNL A   1      36.873  30.570  29.188  1.00  0.00    -0.014 A 
BRANCH  32  33
ATOM     33  C   UNL A   1      38.086  30.103  29.912  1.00  0.00     0.031 A 
ATOM     34  C   UNL A   1      38.379  30.615  31.303  1.00  0.00     0.074 A 
ATOM     35  C   UNL A   1      38.970  29.290  29.296  1.00  0.00     0.049 A 
ATOM     36  N   UNL A   1      39.411  30.379  32.071  1.00  0.00    -0.248 NA
ATOM     37  C   UNL A   1      37.406  31.551  31.893  1.00  0.00     0.031 C 
ATOM     38  C   UNL A   1      38.860  28.801  27.920  1.00  0.00     0.029 A 
ATOM     39  N   UNL A   1      40.150  28.748  29.743  1.00  0.00    -0.354 N 
ATOM     40  C   UNL A   1      39.233  31.169  33.201  1.00  0.00     0.074 A 
ATOM     41  C   UNL A   1      38.027  31.934  32.997  1.00  0.00     0.031 C 
ATOM     42  C   UNL A   1      39.912  28.015  27.644  1.00  0.00     0.029 A 
ATOM     43  C   UNL A   1      40.790  27.967  28.809  1.00  0.00     0.049 A 
ATOM     44  H   UNL A   1      40.504  28.904  30.649  1.00  0.00     0.167 HD
ATOM     45  C   UNL A   1      39.978  31.222  34.331  1.00  0.00     0.034 A 
ATOM     46  C   UNL A   1      41.951  27.287  28.884  1.00  0.00     0.034 A 
ATOM     47  C   UNL A   1      41.142  30.412  34.559  1.00  0.00     0.049 A 
ATOM     48  C   UNL A   1      42.723  27.306  30.176  1.00  0.00     0.074 A 
ATOM     49  C   UNL A   1      41.916  30.320  35.702  1.00  0.00     0.029 A 
ATOM     50  N   UNL A   1      41.697  29.551  33.628  1.00  0.00    -0.354 N 
ATOM     51  N   UNL A   1      42.453  27.940  31.292  1.00  0.00    -0.248 NA
ATOM     52  C   UNL A   1      43.936  26.478  30.237  1.00  0.00     0.031 C 
ATOM     53  C   UNL A   1      42.956  29.418  35.451  1.00  0.00     0.029 A 
ATOM     54  C   UNL A   1      42.805  28.920  34.167  1.00  0.00     0.049 A 
ATOM     55  H   UNL A   1      41.355  29.408  32.715  1.00  0.00     0.167 HD
ATOM     56  C   UNL A   1      43.433  27.552  32.198  1.00  0.00     0.074 A 
ATOM     57  C   UNL A   1      44.291  26.614  31.506  1.00  0.00     0.031 C 
ATOM     58  C   UNL A   1      43.612  27.944  33.485  1.00  0.00     0.034 A 
BRANCH  45  59
ATOM     59  C   UNL A   1      39.517  32.146  35.431  1.00  0.00     0.023 A 
ATOM     60  C   UNL A   1      38.669  31.656  36.446  1.00  0.00     0.012 A 
ATOM     61  C   UNL A   1      39.956  33.483  35.487  1.00  0.00     0.148 A 
ATOM     62  C   UNL A   1      38.230  32.489  37.473  1.00  0.00     0.002 A 
ATOM     63  C   UNL A   1      39.557  34.294  36.543  1.00  0.00     0.091 A 
ATOM     64  F   UNL A   1      40.745  33.940  34.505  1.00  0.00    -0.205 F 
ATOM     65  C   UNL A   1      38.683  33.804  37.528  1.00  0.00     0.022 A 
BRANCH  63  66
ATOM     66  S   UNL A   1      40.151  35.976  36.754  1.00  0.00     0.127 S 
ATOM     67  O   UNL A   1      41.594  35.768  36.865  1.00  0.00    -0.237 OA
ATOM     68  O   UNL A   1      39.721  36.611  35.507  1.00  0.00    -0.237 OA
ATOM     69  O   UNL A   1      39.501  36.487  37.952  1.00  0.00    -0.744 OA
ENDBRANCH  63  66
ENDBRANCH  45  59
BRANCH  46  70
ATOM     70  C   UNL A   1      42.412  26.461  27.732  1.00  0.00     0.023 A 
ATOM     71  C   UNL A   1      43.303  27.018  26.794  1.00  0.00     0.012 A 
ATOM     72  C   UNL A   1      41.989  25.129  27.566  1.00  0.00     0.148 A 
ATOM     73  C   UNL A   1      43.731  26.280  25.689  1.00  0.00     0.002 A 
ATOM     74  C   UNL A   1      42.463  24.380  26.495  1.00  0.00     0.091 A 
ATOM     75  F   UNL A   1      41.136  24.618  28.465  1.00  0.00    -0.205 F 
ATOM     76  C   UNL A   1      43.318  24.959  25.544  1.00  0.00     0.022 A 
BRANCH  74  77
ATOM     77  S   UNL A   1      42.088  22.635  26.298  1.00  0.00     0.127 S 
ATOM     78  O   UNL A   1      42.732  22.333  25.021  1.00  0.00    -0.237 OA
ATOM     79  O   UNL A   1      42.742  22.051  27.470  1.00  0.00    -0.237 OA
ATOM     80  O   UNL A   1      40.635  22.541  26.311  1.00  0.00    -0.744 OA
ENDBRANCH  74  77
ENDBRANCH  46  70
BRANCH  58  81
ATOM     81  C   UNL A   1      44.743  27.313  34.254  1.00  0.00     0.023 A 
ATOM     82  C   UNL A   1      46.024  27.898  34.240  1.00  0.00     0.012 A 
ATOM     83  C   UNL A   1      44.513  26.168  35.042  1.00  0.00     0.148 A 
ATOM     84  C   UNL A   1      47.071  27.327  34.963  1.00  0.00     0.002 A 
ATOM     85  C   UNL A   1      45.547  25.637  35.804  1.00  0.00     0.091 A 
ATOM     86  F   UNL A   1      43.291  25.614  35.029  1.00  0.00    -0.205 F 
ATOM     87  C   UNL A   1      46.830  26.205  35.752  1.00  0.00     0.022 A 
BRANCH  85  88
ATOM     88  S   UNL A   1      45.297  24.258  36.927  1.00  0.00     0.127 S 
ATOM     89  O   UNL A   1      44.298  24.800  37.847  1.00  0.00    -0.237 OA
ATOM     90  O   UNL A   1      44.799  23.213  36.032  1.00  0.00    -0.237 OA
ATOM     91  O   UNL A   1      46.602  23.978  37.511  1.00  0.00    -0.744 OA
ENDBRANCH  85  88
ENDBRANCH  58  81
ENDBRANCH  32  33
ENDBRANCH  24  27
ENDBRANCH  22  23
ENDBRANCH   1  22
TORSDOF 17
ENDMDL
