MODEL 1
REMARK VINA RESULT:     -10.9      0.000      0.000
REMARK SMILES CCCN(CCC)c1ccc(C(=O)NCCCNC(=O)c2ccc(-c3c4nc(c(-c5cccc(S(=O)(=O)[O-])c5F)c5ccc([nH]5)c(-c5cccc(S(=O)(=O)[O-])c5F)c5nc(c(-c6cccc(S(=O)(=O)[O-])c6F)c6ccc3[nH]6)C=C5)C=C4)cc2)cc1[N+](=O)[O-]
REMARK SMILES IDX 16 1 15 2 14 3 12 4 13 5 11 7 8 8 9 9 85 10 10 11 84 12 4 13
REMARK SMILES IDX 3 14 2 15 1 16 5 17 6 18 7 19 86 20 87 21 88 22 17 23 18 24
REMARK SMILES IDX 19 25 20 27 21 28 22 29 83 30 23 31 82 32 24 33 25 34 26 35
REMARK SMILES IDX 76 36 27 37 81 38 75 39 77 40 28 41 80 42 74 43 73 44 29 46
REMARK SMILES IDX 61 47 41 48 60 49 42 50 45 51 59 52 78 53 43 54 44 55 58 57
REMARK SMILES IDX 79 58 46 59 30 60 31 61 39 62 32 63 34 64 40 65 33 66 35 67
REMARK SMILES IDX 36 68 37 69 38 70 62 71 63 72 71 73 64 74 66 75 72 76 65 77
REMARK SMILES IDX 67 78 68 79 69 80 70 81 47 82 48 83 56 84 49 85 51 86 57 87
REMARK SMILES IDX 50 88 52 89 53 90 54 91 55 92
REMARK H PARENT 14 6 18 26 77 45 45 56
REMARK Flexibility Score: inf
ROOT
ATOM      1  C   UNL A   1      37.175  19.816  25.008  1.00  0.00     0.042 C 
ENDROOT
BRANCH   1   2
ATOM      2  C   UNL A   1      35.991  20.775  25.065  1.00  0.00     0.118 C 
BRANCH   2   3
ATOM      3  N   UNL A   1      34.717  20.077  25.164  1.00  0.00    -0.352 N 
ATOM      4  C   UNL A   1      33.444  20.584  25.114  1.00  0.00     0.251 C 
ATOM      5  O   UNL A   1      32.476  19.837  25.019  1.00  0.00    -0.269 OA
ATOM      6  H   UNL A   1      34.778  19.102  25.283  1.00  0.00     0.163 HD
BRANCH   4   7
ATOM      7  C   UNL A   1      33.233  22.044  25.115  1.00  0.00     0.046 A 
ATOM      8  C   UNL A   1      32.750  24.832  25.204  1.00  0.00     0.116 A 
ATOM      9  C   UNL A   1      32.729  24.049  26.370  1.00  0.00     0.034 A 
ATOM     10  C   UNL A   1      33.033  24.164  23.999  1.00  0.00     0.293 A 
ATOM     11  C   UNL A   1      32.980  22.674  26.334  1.00  0.00     0.016 A 
ATOM     12  C   UNL A   1      33.289  22.788  23.939  1.00  0.00     0.101 A 
BRANCH   8  13
ATOM     13  N   UNL A   1      32.511  26.193  25.294  1.00  0.00    -0.366 N 
BRANCH  13  14
ATOM     14  C   UNL A   1      31.231  26.680  25.817  1.00  0.00     0.116 C 
BRANCH  14  15
ATOM     15  C   UNL A   1      30.068  26.306  24.890  1.00  0.00     0.018 C 
ATOM     16  C   UNL A   1      29.808  27.341  23.802  1.00  0.00     0.006 C 
ENDBRANCH  14  15
ENDBRANCH  13  14
BRANCH  13  17
ATOM     17  C   UNL A   1      33.649  27.118  25.190  1.00  0.00     0.116 C 
BRANCH  17  18
ATOM     18  C   UNL A   1      33.255  28.461  24.561  1.00  0.00     0.018 C 
ATOM     19  C   UNL A   1      33.796  28.631  23.145  1.00  0.00     0.006 C 
ENDBRANCH  17  18
ENDBRANCH  13  17
ENDBRANCH   8  13
BRANCH  10  20
ATOM     20  N   UNL A   1      32.918  24.856  22.730  1.00  0.00     0.065 N 
ATOM     21  O   UNL A   1      31.781  24.912  22.239  1.00  0.00    -0.258 OA
ATOM     22  O   UNL A   1      33.954  25.282  22.206  1.00  0.00    -0.258 OA
ENDBRANCH  10  20
ENDBRANCH   4   7
ENDBRANCH   2   3
ENDBRANCH   1   2
BRANCH   1  23
ATOM     23  C   UNL A   1      38.494  20.436  25.459  1.00  0.00     0.118 C 
BRANCH  23  24
ATOM     24  N   UNL A   1      39.504  19.431  25.764  1.00  0.00    -0.352 N 
ATOM     25  C   UNL A   1      40.819  19.596  26.124  1.00  0.00     0.251 C 
ATOM     26  H   UNL A   1      39.198  18.498  25.703  1.00  0.00     0.163 HD
ATOM     27  O   UNL A   1      41.560  18.616  26.162  1.00  0.00    -0.269 OA
BRANCH  25  28
ATOM     28  C   UNL A   1      41.348  20.939  26.449  1.00  0.00     0.039 A 
ATOM     29  C   UNL A   1      41.885  21.720  25.421  1.00  0.00     0.014 A 
ATOM     30  C   UNL A   1      41.348  21.418  27.762  1.00  0.00     0.014 A 
ATOM     31  C   UNL A   1      42.375  22.999  25.701  1.00  0.00     0.010 A 
ATOM     32  C   UNL A   1      41.777  22.716  28.029  1.00  0.00     0.010 A 
ATOM     33  C   UNL A   1      42.304  23.516  27.004  1.00  0.00    -0.014 A 
BRANCH  33  34
ATOM     34  C   UNL A   1      42.776  24.887  27.322  1.00  0.00     0.031 A 
ATOM     35  C   UNL A   1      41.842  25.880  27.960  1.00  0.00     0.074 A 
ATOM     36  C   UNL A   1      44.013  25.270  26.948  1.00  0.00     0.049 A 
ATOM     37  N   UNL A   1      42.043  27.142  28.236  1.00  0.00    -0.248 NA
ATOM     38  C   UNL A   1      40.495  25.397  28.308  1.00  0.00     0.031 C 
ATOM     39  C   UNL A   1      44.984  24.424  26.250  1.00  0.00     0.029 A 
ATOM     40  N   UNL A   1      44.652  26.478  27.073  1.00  0.00    -0.354 N 
ATOM     41  C   UNL A   1      40.841  27.615  28.749  1.00  0.00     0.074 A 
ATOM     42  C   UNL A   1      39.907  26.510  28.724  1.00  0.00     0.031 C 
ATOM     43  C   UNL A   1      46.094  25.140  26.006  1.00  0.00     0.029 A 
ATOM     44  C   UNL A   1      45.907  26.499  26.508  1.00  0.00     0.049 A 
ATOM     45  H   UNL A   1      44.252  27.256  27.523  1.00  0.00     0.167 HD
ATOM     46  C   UNL A   1      40.549  28.848  29.227  1.00  0.00     0.034 A 
ATOM     47  C   UNL A   1      46.803  27.500  26.405  1.00  0.00     0.034 A 
ATOM     48  C   UNL A   1      41.498  29.925  29.311  1.00  0.00     0.049 A 
ATOM     49  C   UNL A   1      46.478  28.840  27.005  1.00  0.00     0.074 A 
ATOM     50  C   UNL A   1      41.326  31.180  29.869  1.00  0.00     0.029 A 
ATOM     51  N   UNL A   1      42.796  29.873  28.831  1.00  0.00    -0.354 N 
ATOM     52  N   UNL A   1      45.391  29.219  27.632  1.00  0.00    -0.248 NA
ATOM     53  C   UNL A   1      47.514  29.879  26.916  1.00  0.00     0.031 C 
ATOM     54  C   UNL A   1      42.524  31.889  29.722  1.00  0.00     0.029 A 
ATOM     55  C   UNL A   1      43.441  31.074  29.078  1.00  0.00     0.049 A 
ATOM     56  H   UNL A   1      43.201  29.098  28.380  1.00  0.00     0.167 HD
ATOM     57  C   UNL A   1      45.624  30.527  28.041  1.00  0.00     0.074 A 
ATOM     58  C   UNL A   1      46.964  30.868  27.608  1.00  0.00     0.031 C 
ATOM     59  C   UNL A   1      44.796  31.376  28.699  1.00  0.00     0.034 A 
BRANCH  46  60
ATOM     60  C   UNL A   1      39.162  29.077  29.766  1.00  0.00     0.023 A 
ATOM     61  C   UNL A   1      38.857  28.662  31.078  1.00  0.00     0.012 A 
ATOM     62  C   UNL A   1      38.183  29.746  29.007  1.00  0.00     0.148 A 
ATOM     63  C   UNL A   1      37.591  28.883  31.617  1.00  0.00     0.002 A 
ATOM     64  C   UNL A   1      36.933  29.996  29.565  1.00  0.00     0.091 A 
ATOM     65  F   UNL A   1      38.482  30.110  27.752  1.00  0.00    -0.205 F 
ATOM     66  C   UNL A   1      36.633  29.557  30.865  1.00  0.00     0.022 A 
BRANCH  64  67
ATOM     67  S   UNL A   1      35.659  30.920  28.698  1.00  0.00     0.127 S 
ATOM     68  O   UNL A   1      34.979  29.859  27.954  1.00  0.00    -0.237 OA
ATOM     69  O   UNL A   1      34.879  31.486  29.799  1.00  0.00    -0.237 OA
ATOM     70  O   UNL A   1      36.364  31.904  27.890  1.00  0.00    -0.744 OA
ENDBRANCH  64  67
ENDBRANCH  46  60
BRANCH  47  71
ATOM     71  C   UNL A   1      48.131  27.241  25.781  1.00  0.00     0.023 A 
ATOM     72  C   UNL A   1      49.173  26.727  26.577  1.00  0.00     0.012 A 
ATOM     73  C   UNL A   1      48.357  27.458  24.408  1.00  0.00     0.148 A 
ATOM     74  C   UNL A   1      50.424  26.455  26.023  1.00  0.00     0.002 A 
ATOM     75  C   UNL A   1      49.592  27.137  23.852  1.00  0.00     0.091 A 
ATOM     76  F   UNL A   1      47.359  27.964  23.670  1.00  0.00    -0.205 F 
ATOM     77  C   UNL A   1      50.630  26.649  24.660  1.00  0.00     0.022 A 
BRANCH  75  78
ATOM     78  S   UNL A   1      49.896  27.238  22.084  1.00  0.00     0.127 S 
ATOM     79  O   UNL A   1      51.263  26.731  21.986  1.00  0.00    -0.237 OA
ATOM     80  O   UNL A   1      48.869  26.346  21.544  1.00  0.00    -0.237 OA
ATOM     81  O   UNL A   1      49.708  28.641  21.742  1.00  0.00    -0.744 OA
ENDBRANCH  75  78
ENDBRANCH  47  71
BRANCH  59  82
ATOM     82  C   UNL A   1      45.315  32.752  29.019  1.00  0.00     0.023 A 
ATOM     83  C   UNL A   1      46.050  32.956  30.204  1.00  0.00     0.012 A 
ATOM     84  C   UNL A   1      45.152  33.815  28.112  1.00  0.00     0.148 A 
ATOM     85  C   UNL A   1      46.596  34.206  30.491  1.00  0.00     0.002 A 
ATOM     86  C   UNL A   1      45.732  35.049  28.386  1.00  0.00     0.091 A 
ATOM     87  F   UNL A   1      44.429  33.606  27.002  1.00  0.00    -0.205 F 
ATOM     88  C   UNL A   1      46.448  35.248  29.577  1.00  0.00     0.022 A 
BRANCH  86  89
ATOM     89  S   UNL A   1      45.665  36.415  27.221  1.00  0.00     0.127 S 
ATOM     90  O   UNL A   1      46.444  37.438  27.916  1.00  0.00    -0.237 OA
ATOM     91  O   UNL A   1      46.316  35.854  26.037  1.00  0.00    -0.237 OA
ATOM     92  O   UNL A   1      44.250  36.713  27.041  1.00  0.00    -0.744 OA
ENDBRANCH  86  89
ENDBRANCH  59  82
ENDBRANCH  33  34
ENDBRANCH  25  28
ENDBRANCH  23  24
ENDBRANCH   1  23
TORSDOF 19
ENDMDL
MODEL 2
REMARK VINA RESULT:     -10.6      1.731      2.348
REMARK SMILES CCCN(CCC)c1ccc(C(=O)NCCCNC(=O)c2ccc(-c3c4nc(c(-c5cccc(S(=O)(=O)[O-])c5F)c5ccc([nH]5)c(-c5cccc(S(=O)(=O)[O-])c5F)c5nc(c(-c6cccc(S(=O)(=O)[O-])c6F)c6ccc3[nH]6)C=C5)C=C4)cc2)cc1[N+](=O)[O-]
REMARK SMILES IDX 16 1 15 2 14 3 12 4 13 5 11 7 8 8 9 9 85 10 10 11 84 12 4 13
REMARK SMILES IDX 3 14 2 15 1 16 5 17 6 18 7 19 86 20 87 21 88 22 17 23 18 24
REMARK SMILES IDX 19 25 20 27 21 28 22 29 83 30 23 31 82 32 24 33 25 34 26 35
REMARK SMILES IDX 76 36 27 37 81 38 75 39 77 40 28 41 80 42 74 43 73 44 29 46
REMARK SMILES IDX 61 47 41 48 60 49 42 50 45 51 59 52 78 53 43 54 44 55 58 57
REMARK SMILES IDX 79 58 46 59 30 60 31 61 39 62 32 63 34 64 40 65 33 66 35 67
REMARK SMILES IDX 36 68 37 69 38 70 62 71 63 72 71 73 64 74 66 75 72 76 65 77
REMARK SMILES IDX 67 78 68 79 69 80 70 81 47 82 48 83 56 84 49 85 51 86 57 87
REMARK SMILES IDX 50 88 52 89 53 90 54 91 55 92
REMARK H PARENT 14 6 18 26 77 45 45 56
REMARK Flexibility Score: inf
ROOT
ATOM      1  C   UNL A   1      37.890  20.141  24.865  1.00  0.00     0.042 C 
ENDROOT
BRANCH   1   2
ATOM      2  C   UNL A   1      36.484  20.601  25.237  1.00  0.00     0.118 C 
BRANCH   2   3
ATOM      3  N   UNL A   1      35.491  19.553  25.057  1.00  0.00    -0.352 N 
ATOM      4  C   UNL A   1      34.164  19.661  24.731  1.00  0.00     0.251 C 
ATOM      5  O   UNL A   1      33.510  18.668  24.428  1.00  0.00    -0.269 OA
ATOM      6  H   UNL A   1      35.819  18.634  25.187  1.00  0.00     0.163 HD
BRANCH   4   7
ATOM      7  C   UNL A   1      33.524  20.989  24.685  1.00  0.00     0.046 A 
ATOM      8  C   UNL A   1      32.399  23.584  24.556  1.00  0.00     0.116 A 
ATOM      9  C   UNL A   1      33.347  23.151  23.613  1.00  0.00     0.034 A 
ATOM     10  C   UNL A   1      32.034  22.663  25.554  1.00  0.00     0.293 A 
ATOM     11  C   UNL A   1      33.896  21.866  23.664  1.00  0.00     0.016 A 
ATOM     12  C   UNL A   1      32.569  21.370  25.624  1.00  0.00     0.101 A 
BRANCH   8  13
ATOM     13  N   UNL A   1      31.873  24.861  24.454  1.00  0.00    -0.366 N 
BRANCH  13  14
ATOM     14  C   UNL A   1      32.740  26.029  24.638  1.00  0.00     0.116 C 
BRANCH  14  15
ATOM     15  C   UNL A   1      32.813  26.446  26.111  1.00  0.00     0.018 C 
ATOM     16  C   UNL A   1      33.570  27.750  26.332  1.00  0.00     0.006 C 
ENDBRANCH  14  15
ENDBRANCH  13  14
BRANCH  13  17
ATOM     17  C   UNL A   1      30.551  25.032  23.833  1.00  0.00     0.116 C 
BRANCH  17  18
ATOM     18  C   UNL A   1      29.609  25.886  24.692  1.00  0.00     0.018 C 
ATOM     19  C   UNL A   1      28.752  26.836  23.862  1.00  0.00     0.006 C 
ENDBRANCH  17  18
ENDBRANCH  13  17
ENDBRANCH   8  13
BRANCH  10  20
ATOM     20  N   UNL A   1      31.189  23.072  26.658  1.00  0.00     0.065 N 
ATOM     21  O   UNL A   1      31.763  23.611  27.616  1.00  0.00    -0.258 OA
ATOM     22  O   UNL A   1      29.982  22.806  26.595  1.00  0.00    -0.258 OA
ENDBRANCH  10  20
ENDBRANCH   4   7
ENDBRANCH   2   3
ENDBRANCH   1   2
BRANCH   1  23
ATOM     23  C   UNL A   1      38.953  20.514  25.893  1.00  0.00     0.118 C 
BRANCH  23  24
ATOM     24  N   UNL A   1      39.999  19.505  26.001  1.00  0.00    -0.352 N 
ATOM     25  C   UNL A   1      41.352  19.665  26.165  1.00  0.00     0.251 C 
ATOM     26  H   UNL A   1      39.688  18.573  25.949  1.00  0.00     0.163 HD
ATOM     27  O   UNL A   1      42.092  18.690  26.052  1.00  0.00    -0.269 OA
BRANCH  25  28
ATOM     28  C   UNL A   1      41.924  20.998  26.462  1.00  0.00     0.039 A 
ATOM     29  C   UNL A   1      42.105  21.903  25.412  1.00  0.00     0.014 A 
ATOM     30  C   UNL A   1      42.310  21.346  27.759  1.00  0.00     0.014 A 
ATOM     31  C   UNL A   1      42.626  23.174  25.670  1.00  0.00     0.010 A 
ATOM     32  C   UNL A   1      42.769  22.634  28.025  1.00  0.00     0.010 A 
ATOM     33  C   UNL A   1      42.941  23.558  26.983  1.00  0.00    -0.014 A 
BRANCH  33  34
ATOM     34  C   UNL A   1      43.454  24.916  27.292  1.00  0.00     0.031 A 
ATOM     35  C   UNL A   1      42.531  25.965  27.851  1.00  0.00     0.074 A 
ATOM     36  C   UNL A   1      44.726  25.235  26.980  1.00  0.00     0.049 A 
ATOM     37  N   UNL A   1      42.771  27.224  28.107  1.00  0.00    -0.248 NA
ATOM     38  C   UNL A   1      41.147  25.550  28.134  1.00  0.00     0.031 C 
ATOM     39  C   UNL A   1      45.697  24.330  26.361  1.00  0.00     0.029 A 
ATOM     40  N   UNL A   1      45.410  26.418  27.111  1.00  0.00    -0.354 N 
ATOM     41  C   UNL A   1      41.565  27.762  28.538  1.00  0.00     0.074 A 
ATOM     42  C   UNL A   1      40.586  26.698  28.488  1.00  0.00     0.031 C 
ATOM     43  C   UNL A   1      46.849  24.991  26.162  1.00  0.00     0.029 A 
ATOM     44  C   UNL A   1      46.694  26.370  26.618  1.00  0.00     0.049 A 
ATOM     45  H   UNL A   1      45.020  27.224  27.517  1.00  0.00     0.167 HD
ATOM     46  C   UNL A   1      41.301  29.019  28.967  1.00  0.00     0.034 A 
ATOM     47  C   UNL A   1      47.638  27.328  26.541  1.00  0.00     0.034 A 
ATOM     48  C   UNL A   1      42.290  30.057  29.078  1.00  0.00     0.049 A 
ATOM     49  C   UNL A   1      47.339  28.697  27.087  1.00  0.00     0.074 A 
ATOM     50  C   UNL A   1      42.143  31.333  29.593  1.00  0.00     0.029 A 
ATOM     51  N   UNL A   1      43.610  29.937  28.674  1.00  0.00    -0.354 N 
ATOM     52  N   UNL A   1      46.236  29.139  27.642  1.00  0.00    -0.248 NA
ATOM     53  C   UNL A   1      48.423  29.689  27.032  1.00  0.00     0.031 C 
ATOM     54  C   UNL A   1      43.377  31.986  29.497  1.00  0.00     0.029 A 
ATOM     55  C   UNL A   1      44.292  31.115  28.928  1.00  0.00     0.049 A 
ATOM     56  H   UNL A   1      44.004  29.133  28.267  1.00  0.00     0.167 HD
ATOM     57  C   UNL A   1      46.503  30.448  28.031  1.00  0.00     0.074 A 
ATOM     58  C   UNL A   1      47.879  30.719  27.666  1.00  0.00     0.031 C 
ATOM     59  C   UNL A   1      45.678  31.348  28.619  1.00  0.00     0.034 A 
BRANCH  46  60
ATOM     60  C   UNL A   1      39.897  29.322  29.420  1.00  0.00     0.023 A 
ATOM     61  C   UNL A   1      38.883  29.481  28.454  1.00  0.00     0.012 A 
ATOM     62  C   UNL A   1      39.568  29.393  30.787  1.00  0.00     0.148 A 
ATOM     63  C   UNL A   1      37.568  29.735  28.840  1.00  0.00     0.002 A 
ATOM     64  C   UNL A   1      38.247  29.610  31.165  1.00  0.00     0.091 A 
ATOM     65  F   UNL A   1      40.550  29.265  31.690  1.00  0.00    -0.205 F 
ATOM     66  C   UNL A   1      37.248  29.790  30.193  1.00  0.00     0.022 A 
BRANCH  64  67
ATOM     67  S   UNL A   1      37.728  29.626  32.885  1.00  0.00     0.127 S 
ATOM     68  O   UNL A   1      36.566  30.513  32.835  1.00  0.00    -0.237 OA
ATOM     69  O   UNL A   1      37.408  28.219  33.129  1.00  0.00    -0.237 OA
ATOM     70  O   UNL A   1      38.870  30.124  33.638  1.00  0.00    -0.744 OA
ENDBRANCH  64  67
ENDBRANCH  46  60
BRANCH  47  71
ATOM     71  C   UNL A   1      48.985  26.996  26.000  1.00  0.00     0.023 A 
ATOM     72  C   UNL A   1      49.881  26.259  26.800  1.00  0.00     0.012 A 
ATOM     73  C   UNL A   1      49.370  27.364  24.697  1.00  0.00     0.148 A 
ATOM     74  C   UNL A   1      51.144  25.914  26.320  1.00  0.00     0.002 A 
ATOM     75  C   UNL A   1      50.613  26.974  24.207  1.00  0.00     0.091 A 
ATOM     76  F   UNL A   1      48.512  28.081  23.958  1.00  0.00    -0.205 F 
ATOM     77  C   UNL A   1      51.506  26.260  25.022  1.00  0.00     0.022 A 
BRANCH  75  78
ATOM     78  S   UNL A   1      51.102  27.271  22.504  1.00  0.00     0.127 S 
ATOM     79  O   UNL A   1      50.025  26.618  21.765  1.00  0.00    -0.237 OA
ATOM     80  O   UNL A   1      51.099  28.733  22.434  1.00  0.00    -0.237 OA
ATOM     81  O   UNL A   1      52.423  26.670  22.374  1.00  0.00    -0.744 OA
ENDBRANCH  75  78
ENDBRANCH  47  71
BRANCH  59  82
ATOM     82  C   UNL A   1      46.238  32.709  28.933  1.00  0.00     0.023 A 
ATOM     83  C   UNL A   1      46.912  32.915  30.153  1.00  0.00     0.012 A 
ATOM     84  C   UNL A   1      46.175  33.752  27.991  1.00  0.00     0.148 A 
ATOM     85  C   UNL A   1      47.496  34.149  30.439  1.00  0.00     0.002 A 
ATOM     86  C   UNL A   1      46.793  34.967  28.266  1.00  0.00     0.091 A 
ATOM     87  F   UNL A   1      45.509  33.543  26.845  1.00  0.00    -0.205 F 
ATOM     88  C   UNL A   1      47.448  35.170  29.492  1.00  0.00     0.022 A 
BRANCH  86  89
ATOM     89  S   UNL A   1      46.855  36.302  27.064  1.00  0.00     0.127 S 
ATOM     90  O   UNL A   1      45.452  36.704  26.992  1.00  0.00    -0.237 OA
ATOM     91  O   UNL A   1      47.734  37.273  27.715  1.00  0.00    -0.237 OA
ATOM     92  O   UNL A   1      47.406  35.715  25.849  1.00  0.00    -0.744 OA
ENDBRANCH  86  89
ENDBRANCH  59  82
ENDBRANCH  33  34
ENDBRANCH  25  28
ENDBRANCH  23  24
ENDBRANCH   1  23
TORSDOF 19
ENDMDL
MODEL 3
REMARK VINA RESULT:     -10.5      3.077      8.259
REMARK SMILES CCCN(CCC)c1ccc(C(=O)NCCCNC(=O)c2ccc(-c3c4nc(c(-c5cccc(S(=O)(=O)[O-])c5F)c5ccc([nH]5)c(-c5cccc(S(=O)(=O)[O-])c5F)c5nc(c(-c6cccc(S(=O)(=O)[O-])c6F)c6ccc3[nH]6)C=C5)C=C4)cc2)cc1[N+](=O)[O-]
REMARK SMILES IDX 16 1 15 2 14 3 12 4 13 5 11 7 8 8 9 9 85 10 10 11 84 12 4 13
REMARK SMILES IDX 3 14 2 15 1 16 5 17 6 18 7 19 86 20 87 21 88 22 17 23 18 24
REMARK SMILES IDX 19 25 20 27 21 28 22 29 83 30 23 31 82 32 24 33 25 34 26 35
REMARK SMILES IDX 76 36 27 37 81 38 75 39 77 40 28 41 80 42 74 43 73 44 29 46
REMARK SMILES IDX 61 47 41 48 60 49 42 50 45 51 59 52 78 53 43 54 44 55 58 57
REMARK SMILES IDX 79 58 46 59 30 60 31 61 39 62 32 63 34 64 40 65 33 66 35 67
REMARK SMILES IDX 36 68 37 69 38 70 62 71 63 72 71 73 64 74 66 75 72 76 65 77
REMARK SMILES IDX 67 78 68 79 69 80 70 81 47 82 48 83 56 84 49 85 51 86 57 87
REMARK SMILES IDX 50 88 52 89 53 90 54 91 55 92
REMARK H PARENT 14 6 18 26 77 45 45 56
REMARK Flexibility Score: inf
ROOT
ATOM      1  C   UNL A   1      35.897  22.802  24.788  1.00  0.00     0.042 C 
ENDROOT
BRANCH   1   2
ATOM      2  C   UNL A   1      34.727  22.178  25.540  1.00  0.00     0.118 C 
BRANCH   2   3
ATOM      3  N   UNL A   1      33.861  21.396  24.669  1.00  0.00    -0.352 N 
ATOM      4  C   UNL A   1      32.934  21.824  23.755  1.00  0.00     0.251 C 
ATOM      5  O   UNL A   1      32.425  21.038  22.963  1.00  0.00    -0.269 OA
ATOM      6  H   UNL A   1      33.956  20.419  24.747  1.00  0.00     0.163 HD
BRANCH   4   7
ATOM      7  C   UNL A   1      32.584  23.255  23.679  1.00  0.00     0.046 A 
ATOM      8  C   UNL A   1      31.801  25.974  23.567  1.00  0.00     0.116 A 
ATOM      9  C   UNL A   1      31.273  25.100  24.533  1.00  0.00     0.034 A 
ATOM     10  C   UNL A   1      32.741  25.432  22.671  1.00  0.00     0.293 A 
ATOM     11  C   UNL A   1      31.666  23.760  24.601  1.00  0.00     0.016 A 
ATOM     12  C   UNL A   1      33.150  24.093  22.722  1.00  0.00     0.101 A 
BRANCH   8  13
ATOM     13  N   UNL A   1      31.392  27.296  23.549  1.00  0.00    -0.366 N 
BRANCH  13  14
ATOM     14  C   UNL A   1      30.343  27.728  22.620  1.00  0.00     0.116 C 
BRANCH  14  15
ATOM     15  C   UNL A   1      29.832  29.131  22.965  1.00  0.00     0.018 C 
ATOM     16  C   UNL A   1      28.606  29.542  22.160  1.00  0.00     0.006 C 
ENDBRANCH  14  15
ENDBRANCH  13  14
BRANCH  13  17
ATOM     17  C   UNL A   1      31.760  28.163  24.678  1.00  0.00     0.116 C 
BRANCH  17  18
ATOM     18  C   UNL A   1      33.280  28.291  24.846  1.00  0.00     0.018 C 
ATOM     19  C   UNL A   1      33.788  27.647  26.131  1.00  0.00     0.006 C 
ENDBRANCH  17  18
ENDBRANCH  13  17
ENDBRANCH   8  13
BRANCH  10  20
ATOM     20  N   UNL A   1      33.216  26.211  21.545  1.00  0.00     0.065 N 
ATOM     21  O   UNL A   1      32.950  25.764  20.419  1.00  0.00    -0.258 OA
ATOM     22  O   UNL A   1      33.896  27.217  21.781  1.00  0.00    -0.258 OA
ENDBRANCH  10  20
ENDBRANCH   4   7
ENDBRANCH   2   3
ENDBRANCH   1   2
BRANCH   1  23
ATOM     23  C   UNL A   1      36.992  23.353  25.696  1.00  0.00     0.118 C 
BRANCH  23  24
ATOM     24  N   UNL A   1      38.018  22.361  25.992  1.00  0.00    -0.352 N 
ATOM     25  C   UNL A   1      39.303  22.543  26.440  1.00  0.00     0.251 C 
ATOM     26  H   UNL A   1      37.749  21.425  25.852  1.00  0.00     0.163 HD
ATOM     27  O   UNL A   1      40.075  21.586  26.457  1.00  0.00    -0.269 OA
BRANCH  25  28
ATOM     28  C   UNL A   1      39.765  23.876  26.885  1.00  0.00     0.039 A 
ATOM     29  C   UNL A   1      40.033  24.854  25.921  1.00  0.00     0.014 A 
ATOM     30  C   UNL A   1      39.968  24.157  28.238  1.00  0.00     0.014 A 
ATOM     31  C   UNL A   1      40.454  26.126  26.318  1.00  0.00     0.010 A 
ATOM     32  C   UNL A   1      40.324  25.443  28.636  1.00  0.00     0.010 A 
ATOM     33  C   UNL A   1      40.580  26.438  27.681  1.00  0.00    -0.014 A 
BRANCH  33  34
ATOM     34  C   UNL A   1      40.983  27.794  28.133  1.00  0.00     0.031 A 
ATOM     35  C   UNL A   1      42.437  28.180  28.167  1.00  0.00     0.074 A 
ATOM     36  C   UNL A   1      40.049  28.644  28.605  1.00  0.00     0.049 A 
ATOM     37  N   UNL A   1      42.988  29.281  28.606  1.00  0.00    -0.248 NA
ATOM     38  C   UNL A   1      43.400  27.185  27.667  1.00  0.00     0.031 C 
ATOM     39  C   UNL A   1      38.615  28.357  28.698  1.00  0.00     0.029 A 
ATOM     40  N   UNL A   1      40.170  29.908  29.124  1.00  0.00    -0.354 N 
ATOM     41  C   UNL A   1      44.359  29.098  28.476  1.00  0.00     0.074 A 
ATOM     42  C   UNL A   1      44.559  27.769  27.940  1.00  0.00     0.031 C 
ATOM     43  C   UNL A   1      37.991  29.413  29.245  1.00  0.00     0.029 A 
ATOM     44  C   UNL A   1      38.979  30.441  29.561  1.00  0.00     0.049 A 
ATOM     45  H   UNL A   1      41.027  30.388  29.180  1.00  0.00     0.167 HD
ATOM     46  C   UNL A   1      45.361  29.967  28.750  1.00  0.00     0.034 A 
ATOM     47  C   UNL A   1      38.713  31.623  30.151  1.00  0.00     0.034 A 
ATOM     48  C   UNL A   1      45.157  31.310  29.221  1.00  0.00     0.049 A 
ATOM     49  C   UNL A   1      39.837  32.596  30.381  1.00  0.00     0.074 A 
ATOM     50  C   UNL A   1      46.101  32.299  29.434  1.00  0.00     0.029 A 
ATOM     51  N   UNL A   1      43.925  31.854  29.546  1.00  0.00    -0.354 N 
ATOM     52  N   UNL A   1      41.111  32.464  30.100  1.00  0.00    -0.248 NA
ATOM     53  C   UNL A   1      39.484  33.895  30.974  1.00  0.00     0.031 C 
ATOM     54  C   UNL A   1      45.437  33.443  29.892  1.00  0.00     0.029 A 
ATOM     55  C   UNL A   1      44.081  33.167  29.958  1.00  0.00     0.049 A 
ATOM     56  H   UNL A   1      43.065  31.378  29.492  1.00  0.00     0.167 HD
ATOM     57  C   UNL A   1      41.705  33.672  30.451  1.00  0.00     0.074 A 
ATOM     58  C   UNL A   1      40.648  34.530  30.946  1.00  0.00     0.031 C 
ATOM     59  C   UNL A   1      43.012  34.030  30.386  1.00  0.00     0.034 A 
BRANCH  46  60
ATOM     60  C   UNL A   1      46.771  29.516  28.474  1.00  0.00     0.023 A 
ATOM     61  C   UNL A   1      47.343  29.780  27.213  1.00  0.00     0.012 A 
ATOM     62  C   UNL A   1      47.546  28.887  29.468  1.00  0.00     0.148 A 
ATOM     63  C   UNL A   1      48.655  29.400  26.935  1.00  0.00     0.002 A 
ATOM     64  C   UNL A   1      48.866  28.544  29.194  1.00  0.00     0.091 A 
ATOM     65  F   UNL A   1      46.977  28.621  30.651  1.00  0.00    -0.205 F 
ATOM     66  C   UNL A   1      49.419  28.791  27.927  1.00  0.00     0.022 A 
BRANCH  64  67
ATOM     67  S   UNL A   1      49.949  27.820  30.433  1.00  0.00     0.127 S 
ATOM     68  O   UNL A   1      49.946  28.854  31.467  1.00  0.00    -0.237 OA
ATOM     69  O   UNL A   1      49.234  26.596  30.795  1.00  0.00    -0.237 OA
ATOM     70  O   UNL A   1      51.223  27.600  29.764  1.00  0.00    -0.744 OA
ENDBRANCH  64  67
ENDBRANCH  46  60
BRANCH  47  71
ATOM     71  C   UNL A   1      37.307  31.983  30.484  1.00  0.00     0.023 A 
ATOM     72  C   UNL A   1      36.821  31.718  31.779  1.00  0.00     0.012 A 
ATOM     73  C   UNL A   1      36.466  32.617  29.551  1.00  0.00     0.148 A 
ATOM     74  C   UNL A   1      35.515  32.058  32.133  1.00  0.00     0.002 A 
ATOM     75  C   UNL A   1      35.181  32.998  29.925  1.00  0.00     0.091 A 
ATOM     76  F   UNL A   1      36.940  32.845  28.318  1.00  0.00    -0.205 F 
ATOM     77  C   UNL A   1      34.700  32.707  31.211  1.00  0.00     0.022 A 
BRANCH  75  78
ATOM     78  S   UNL A   1      34.114  33.952  28.838  1.00  0.00     0.127 S 
ATOM     79  O   UNL A   1      33.660  32.933  27.895  1.00  0.00    -0.237 OA
ATOM     80  O   UNL A   1      33.087  34.436  29.762  1.00  0.00    -0.237 OA
ATOM     81  O   UNL A   1      34.964  34.999  28.289  1.00  0.00    -0.744 OA
ENDBRANCH  75  78
ENDBRANCH  47  71
BRANCH  59  82
ATOM     82  C   UNL A   1      43.379  35.418  30.837  1.00  0.00     0.023 A 
ATOM     83  C   UNL A   1      43.732  35.637  32.183  1.00  0.00     0.012 A 
ATOM     84  C   UNL A   1      43.457  36.480  29.917  1.00  0.00     0.148 A 
ATOM     85  C   UNL A   1      44.138  36.901  32.610  1.00  0.00     0.002 A 
ATOM     86  C   UNL A   1      43.900  37.727  30.342  1.00  0.00     0.091 A 
ATOM     87  F   UNL A   1      43.094  36.255  28.645  1.00  0.00    -0.205 F 
ATOM     88  C   UNL A   1      44.234  37.942  31.689  1.00  0.00     0.022 A 
BRANCH  86  89
ATOM     89  S   UNL A   1      44.138  39.096  29.202  1.00  0.00     0.127 S 
ATOM     90  O   UNL A   1      45.082  38.526  28.243  1.00  0.00    -0.237 OA
ATOM     91  O   UNL A   1      42.789  39.307  28.676  1.00  0.00    -0.237 OA
ATOM     92  O   UNL A   1      44.646  40.199  30.008  1.00  0.00    -0.744 OA
ENDBRANCH  86  89
ENDBRANCH  59  82
ENDBRANCH  33  34
ENDBRANCH  25  28
ENDBRANCH  23  24
ENDBRANCH   1  23
TORSDOF 19
ENDMDL
