MODEL 1
REMARK VINA RESULT:     -11.1      0.000      0.000
REMARK SMILES C[C@@H](CC(=O)NCCCNC(=O)c1ccc(-c2c3nc(c(-c4cccc(S(=O)(=O)[O-])c4F)c4ccc([nH]4)c(-c4cccc(S(=O)(=O)[O-])c4F)c4nc(c(-c5cccc(S(=O)(=O)[O-])c5F)c5ccc2[nH]5)C=C4)C=C3)cc1)N1C(=O)CCCC1=O
REMARK SMILES IDX 8 1 7 2 6 3 4 4 5 5 3 7 2 8 1 9 76 10 77 11 82 12 78 13
REMARK SMILES IDX 79 14 81 15 83 16 80 17 9 18 10 19 11 20 12 22 13 23 14 24
REMARK SMILES IDX 75 25 15 26 74 27 16 28 17 29 18 30 68 31 19 32 73 33 67 34
REMARK SMILES IDX 69 35 20 36 72 37 66 38 65 39 21 41 53 42 33 43 52 44 34 45
REMARK SMILES IDX 37 46 51 47 70 48 35 49 36 50 50 52 71 53 38 54 22 55 23 56
REMARK SMILES IDX 31 57 24 58 26 59 32 60 25 61 27 62 28 63 29 64 30 65 54 66
REMARK SMILES IDX 55 67 63 68 56 69 58 70 64 71 57 72 59 73 60 74 61 75 62 76
REMARK SMILES IDX 39 77 40 78 48 79 41 80 43 81 49 82 42 83 44 84 45 85 46 86
REMARK SMILES IDX 47 87
REMARK H PARENT 6 6 10 21 69 40 37 51
REMARK Flexibility Score: inf
ROOT
ATOM      1  C   UNL A   1      32.082  28.010  26.826  1.00  0.00     0.042 C 
ENDROOT
BRANCH   1   2
ATOM      2  C   UNL A   1      32.126  26.725  26.001  1.00  0.00     0.117 C 
BRANCH   2   3
ATOM      3  N   UNL A   1      31.229  25.698  26.501  1.00  0.00    -0.356 N 
ATOM      4  C   UNL A   1      31.414  24.361  26.673  1.00  0.00     0.222 C 
ATOM      5  O   UNL A   1      30.457  23.680  27.053  1.00  0.00    -0.275 OA
ATOM      6  H   UNL A   1      30.337  26.023  26.757  1.00  0.00     0.163 HD
BRANCH   4   7
ATOM      7  C   UNL A   1      32.774  23.726  26.500  1.00  0.00     0.125 C 
BRANCH   7   8
ATOM      8  C   UNL A   1      33.197  23.106  25.154  1.00  0.00     0.099 C 
ATOM      9  C   UNL A   1      32.392  21.877  24.725  1.00  0.00     0.032 C 
BRANCH   8  10
ATOM     10  N   UNL A   1      34.644  22.929  24.894  1.00  0.00    -0.279 N 
ATOM     11  C   UNL A   1      35.103  23.306  23.626  1.00  0.00     0.229 C 
ATOM     12  C   UNL A   1      35.408  22.164  25.777  1.00  0.00     0.229 C 
ATOM     13  O   UNL A   1      34.394  23.870  22.789  1.00  0.00    -0.274 OA
ATOM     14  C   UNL A   1      36.556  23.041  23.288  1.00  0.00     0.101 C 
ATOM     15  C   UNL A   1      36.897  22.181  25.551  1.00  0.00     0.101 C 
ATOM     16  O   UNL A   1      34.939  21.477  26.682  1.00  0.00    -0.274 OA
ATOM     17  C   UNL A   1      37.161  21.912  24.090  1.00  0.00     0.020 C 
ENDBRANCH   8  10
ENDBRANCH   7   8
ENDBRANCH   4   7
ENDBRANCH   2   3
ENDBRANCH   1   2
BRANCH   1  18
ATOM     18  C   UNL A   1      33.437  28.510  27.310  1.00  0.00     0.118 C 
BRANCH  18  19
ATOM     19  N   UNL A   1      33.515  29.963  27.305  1.00  0.00    -0.352 N 
ATOM     20  C   UNL A   1      34.477  30.800  27.816  1.00  0.00     0.251 C 
ATOM     21  H   UNL A   1      32.760  30.417  26.866  1.00  0.00     0.163 HD
ATOM     22  O   UNL A   1      34.225  32.000  27.913  1.00  0.00    -0.269 OA
BRANCH  20  23
ATOM     23  C   UNL A   1      35.798  30.289  28.259  1.00  0.00     0.039 A 
ATOM     24  C   UNL A   1      35.914  29.757  29.548  1.00  0.00     0.014 A 
ATOM     25  C   UNL A   1      36.936  30.388  27.454  1.00  0.00     0.014 A 
ATOM     26  C   UNL A   1      37.150  29.290  30.009  1.00  0.00     0.010 A 
ATOM     27  C   UNL A   1      38.149  29.848  27.883  1.00  0.00     0.010 A 
ATOM     28  C   UNL A   1      38.277  29.308  29.171  1.00  0.00    -0.014 A 
BRANCH  28  29
ATOM     29  C   UNL A   1      39.594  28.784  29.629  1.00  0.00     0.031 A 
ATOM     30  C   UNL A   1      40.351  29.484  30.731  1.00  0.00     0.074 A 
ATOM     31  C   UNL A   1      40.148  27.726  29.007  1.00  0.00     0.049 A 
ATOM     32  N   UNL A   1      41.534  29.212  31.221  1.00  0.00    -0.248 NA
ATOM     33  C   UNL A   1      39.707  30.658  31.343  1.00  0.00     0.031 C 
ATOM     34  C   UNL A   1      39.557  27.002  27.880  1.00  0.00     0.029 A 
ATOM     35  N   UNL A   1      41.349  27.090  29.214  1.00  0.00    -0.354 N 
ATOM     36  C   UNL A   1      41.793  30.199  32.166  1.00  0.00     0.074 A 
ATOM     37  C   UNL A   1      40.657  31.095  32.159  1.00  0.00     0.031 C 
ATOM     38  C   UNL A   1      40.393  26.023  27.498  1.00  0.00     0.029 A 
ATOM     39  C   UNL A   1      41.591  26.064  28.332  1.00  0.00     0.049 A 
ATOM     40  H   UNL A   1      41.977  27.346  29.929  1.00  0.00     0.167 HD
ATOM     41  C   UNL A   1      42.860  30.334  32.988  1.00  0.00     0.034 A 
ATOM     42  C   UNL A   1      42.657  25.249  28.202  1.00  0.00     0.034 A 
ATOM     43  C   UNL A   1      43.964  29.412  33.035  1.00  0.00     0.049 A 
ATOM     44  C   UNL A   1      43.810  25.390  29.159  1.00  0.00     0.074 A 
ATOM     45  C   UNL A   1      45.048  29.411  33.897  1.00  0.00     0.029 A 
ATOM     46  N   UNL A   1      44.129  28.330  32.186  1.00  0.00    -0.354 N 
ATOM     47  N   UNL A   1      43.961  26.233  30.152  1.00  0.00    -0.248 NA
ATOM     48  C   UNL A   1      44.924  24.443  29.003  1.00  0.00     0.031 C 
ATOM     49  C   UNL A   1      45.875  28.335  33.558  1.00  0.00     0.029 A 
ATOM     50  C   UNL A   1      45.298  27.656  32.498  1.00  0.00     0.049 A 
ATOM     51  H   UNL A   1      43.506  28.076  31.467  1.00  0.00     0.167 HD
ATOM     52  C   UNL A   1      45.166  25.898  30.758  1.00  0.00     0.074 A 
ATOM     53  C   UNL A   1      45.695  24.760  30.035  1.00  0.00     0.031 C 
ATOM     54  C   UNL A   1      45.786  26.489  31.809  1.00  0.00     0.034 A 
BRANCH  41  55
ATOM     55  C   UNL A   1      42.861  31.491  33.953  1.00  0.00     0.023 A 
ATOM     56  C   UNL A   1      43.346  32.745  33.532  1.00  0.00     0.012 A 
ATOM     57  C   UNL A   1      42.328  31.358  35.252  1.00  0.00     0.148 A 
ATOM     58  C   UNL A   1      43.336  33.840  34.395  1.00  0.00     0.002 A 
ATOM     59  C   UNL A   1      42.282  32.464  36.092  1.00  0.00     0.091 A 
ATOM     60  F   UNL A   1      41.889  30.153  35.643  1.00  0.00    -0.205 F 
ATOM     61  C   UNL A   1      42.795  33.702  35.670  1.00  0.00     0.022 A 
BRANCH  59  62
ATOM     62  S   UNL A   1      41.533  32.409  37.725  1.00  0.00     0.127 S 
ATOM     63  O   UNL A   1      40.161  32.019  37.407  1.00  0.00    -0.237 OA
ATOM     64  O   UNL A   1      42.323  31.374  38.393  1.00  0.00    -0.237 OA
ATOM     65  O   UNL A   1      41.693  33.746  38.283  1.00  0.00    -0.744 OA
ENDBRANCH  59  62
ENDBRANCH  41  55
BRANCH  42  66
ATOM     66  C   UNL A   1      42.651  24.177  27.168  1.00  0.00     0.023 A 
ATOM     67  C   UNL A   1      43.336  24.386  25.954  1.00  0.00     0.012 A 
ATOM     68  C   UNL A   1      42.002  22.946  27.386  1.00  0.00     0.148 A 
ATOM     69  C   UNL A   1      43.350  23.401  24.966  1.00  0.00     0.002 A 
ATOM     70  C   UNL A   1      42.066  21.949  26.420  1.00  0.00     0.091 A 
ATOM     71  F   UNL A   1      41.344  22.771  28.540  1.00  0.00    -0.205 F 
ATOM     72  C   UNL A   1      42.726  22.179  25.203  1.00  0.00     0.022 A 
BRANCH  70  73
ATOM     73  S   UNL A   1      41.404  20.301  26.694  1.00  0.00     0.127 S 
ATOM     74  O   UNL A   1      42.098  19.898  27.913  1.00  0.00    -0.237 OA
ATOM     75  O   UNL A   1      39.976  20.570  26.856  1.00  0.00    -0.237 OA
ATOM     76  O   UNL A   1      41.736  19.543  25.493  1.00  0.00    -0.744 OA
ENDBRANCH  70  73
ENDBRANCH  42  66
BRANCH  54  77
ATOM     77  C   UNL A   1      47.093  25.902  32.272  1.00  0.00     0.023 A 
ATOM     78  C   UNL A   1      48.299  26.325  31.677  1.00  0.00     0.012 A 
ATOM     79  C   UNL A   1      47.135  24.994  33.349  1.00  0.00     0.148 A 
ATOM     80  C   UNL A   1      49.523  25.832  32.128  1.00  0.00     0.002 A 
ATOM     81  C   UNL A   1      48.361  24.542  33.822  1.00  0.00     0.091 A 
ATOM     82  F   UNL A   1      45.977  24.588  33.888  1.00  0.00    -0.205 F 
ATOM     83  C   UNL A   1      49.555  24.951  33.207  1.00  0.00     0.022 A 
BRANCH  81  84
ATOM     84  S   UNL A   1      48.503  23.481  35.265  1.00  0.00     0.127 S 
ATOM     85  O   UNL A   1      47.832  22.265  34.808  1.00  0.00    -0.237 OA
ATOM     86  O   UNL A   1      49.954  23.356  35.419  1.00  0.00    -0.237 OA
ATOM     87  O   UNL A   1      47.842  24.192  36.350  1.00  0.00    -0.744 OA
ENDBRANCH  81  84
ENDBRANCH  54  77
ENDBRANCH  28  29
ENDBRANCH  20  23
ENDBRANCH  18  19
ENDBRANCH   1  18
TORSDOF 15
ENDMDL
MODEL 2
REMARK VINA RESULT:     -10.9      2.382      8.396
REMARK SMILES C[C@@H](CC(=O)NCCCNC(=O)c1ccc(-c2c3nc(c(-c4cccc(S(=O)(=O)[O-])c4F)c4ccc([nH]4)c(-c4cccc(S(=O)(=O)[O-])c4F)c4nc(c(-c5cccc(S(=O)(=O)[O-])c5F)c5ccc2[nH]5)C=C4)C=C3)cc1)N1C(=O)CCCC1=O
REMARK SMILES IDX 8 1 7 2 6 3 4 4 5 5 3 7 2 8 1 9 76 10 77 11 82 12 78 13
REMARK SMILES IDX 79 14 81 15 83 16 80 17 9 18 10 19 11 20 12 22 13 23 14 24
REMARK SMILES IDX 75 25 15 26 74 27 16 28 17 29 18 30 68 31 19 32 73 33 67 34
REMARK SMILES IDX 69 35 20 36 72 37 66 38 65 39 21 41 53 42 33 43 52 44 34 45
REMARK SMILES IDX 37 46 51 47 70 48 35 49 36 50 50 52 71 53 38 54 22 55 23 56
REMARK SMILES IDX 31 57 24 58 26 59 32 60 25 61 27 62 28 63 29 64 30 65 54 66
REMARK SMILES IDX 55 67 63 68 56 69 58 70 64 71 57 72 59 73 60 74 61 75 62 76
REMARK SMILES IDX 39 77 40 78 48 79 41 80 43 81 49 82 42 83 44 84 45 85 46 86
REMARK SMILES IDX 47 87
REMARK H PARENT 6 6 10 21 69 40 37 51
REMARK Flexibility Score: inf
ROOT
ATOM      1  C   UNL A   1      32.818  28.883  23.698  1.00  0.00     0.042 C 
ENDROOT
BRANCH   1   2
ATOM      2  C   UNL A   1      33.934  28.470  22.742  1.00  0.00     0.117 C 
BRANCH   2   3
ATOM      3  N   UNL A   1      33.490  27.543  21.716  1.00  0.00    -0.356 N 
ATOM      4  C   UNL A   1      33.371  26.187  21.732  1.00  0.00     0.222 C 
ATOM      5  O   UNL A   1      33.032  25.616  20.691  1.00  0.00    -0.275 OA
ATOM      6  H   UNL A   1      33.232  27.966  20.866  1.00  0.00     0.163 HD
BRANCH   4   7
ATOM      7  C   UNL A   1      33.552  25.396  23.006  1.00  0.00     0.125 C 
BRANCH   7   8
ATOM      8  C   UNL A   1      34.017  23.927  22.971  1.00  0.00     0.099 C 
ATOM      9  C   UNL A   1      32.896  22.895  22.826  1.00  0.00     0.032 C 
BRANCH   8  10
ATOM     10  N   UNL A   1      35.033  23.495  23.958  1.00  0.00    -0.279 N 
ATOM     11  C   UNL A   1      34.831  23.899  25.283  1.00  0.00     0.229 C 
ATOM     12  C   UNL A   1      36.245  22.971  23.505  1.00  0.00     0.229 C 
ATOM     13  O   UNL A   1      33.812  24.481  25.665  1.00  0.00    -0.274 OA
ATOM     14  C   UNL A   1      35.903  23.567  26.300  1.00  0.00     0.101 C 
ATOM     15  C   UNL A   1      37.148  22.387  24.558  1.00  0.00     0.101 C 
ATOM     16  O   UNL A   1      36.611  22.989  22.331  1.00  0.00    -0.274 OA
ATOM     17  C   UNL A   1      37.272  23.380  25.686  1.00  0.00     0.020 C 
ENDBRANCH   8  10
ENDBRANCH   7   8
ENDBRANCH   4   7
ENDBRANCH   2   3
ENDBRANCH   1   2
BRANCH   1  18
ATOM     18  C   UNL A   1      33.263  29.149  25.130  1.00  0.00     0.118 C 
BRANCH  18  19
ATOM     19  N   UNL A   1      32.672  30.365  25.667  1.00  0.00    -0.352 N 
ATOM     20  C   UNL A   1      33.009  31.098  26.780  1.00  0.00     0.251 C 
ATOM     21  H   UNL A   1      31.912  30.720  25.152  1.00  0.00     0.163 HD
ATOM     22  O   UNL A   1      32.226  31.956  27.182  1.00  0.00    -0.269 OA
BRANCH  20  23
ATOM     23  C   UNL A   1      34.283  30.868  27.507  1.00  0.00     0.039 A 
ATOM     24  C   UNL A   1      34.528  29.600  28.046  1.00  0.00     0.014 A 
ATOM     25  C   UNL A   1      35.204  31.895  27.725  1.00  0.00     0.014 A 
ATOM     26  C   UNL A   1      35.707  29.354  28.760  1.00  0.00     0.010 A 
ATOM     27  C   UNL A   1      36.415  31.628  28.366  1.00  0.00     0.010 A 
ATOM     28  C   UNL A   1      36.674  30.361  28.906  1.00  0.00    -0.014 A 
BRANCH  28  29
ATOM     29  C   UNL A   1      37.950  30.110  29.633  1.00  0.00     0.031 A 
ATOM     30  C   UNL A   1      39.005  29.212  29.035  1.00  0.00     0.074 A 
ATOM     31  C   UNL A   1      38.134  30.625  30.864  1.00  0.00     0.049 A 
ATOM     32  N   UNL A   1      40.149  28.829  29.543  1.00  0.00    -0.248 NA
ATOM     33  C   UNL A   1      38.726  28.649  27.704  1.00  0.00     0.031 C 
ATOM     34  C   UNL A   1      37.165  31.450  31.589  1.00  0.00     0.029 A 
ATOM     35  N   UNL A   1      39.188  30.510  31.738  1.00  0.00    -0.354 N 
ATOM     36  C   UNL A   1      40.705  27.954  28.617  1.00  0.00     0.074 A 
ATOM     37  C   UNL A   1      39.759  27.836  27.529  1.00  0.00     0.031 C 
ATOM     38  C   UNL A   1      37.670  31.766  32.792  1.00  0.00     0.029 A 
ATOM     39  C   UNL A   1      38.984  31.148  32.939  1.00  0.00     0.049 A 
ATOM     40  H   UNL A   1      40.014  30.016  31.523  1.00  0.00     0.167 HD
ATOM     41  C   UNL A   1      41.905  27.327  28.650  1.00  0.00     0.034 A 
ATOM     42  C   UNL A   1      39.762  31.223  34.038  1.00  0.00     0.034 A 
ATOM     43  C   UNL A   1      42.871  27.487  29.705  1.00  0.00     0.049 A 
ATOM     44  C   UNL A   1      41.111  30.557  34.029  1.00  0.00     0.074 A 
ATOM     45  C   UNL A   1      44.152  26.969  29.784  1.00  0.00     0.029 A 
ATOM     46  N   UNL A   1      42.664  28.218  30.864  1.00  0.00    -0.354 N 
ATOM     47  N   UNL A   1      41.685  29.864  33.076  1.00  0.00    -0.248 NA
ATOM     48  C   UNL A   1      41.938  30.714  35.235  1.00  0.00     0.031 C 
ATOM     49  C   UNL A   1      44.714  27.374  31.000  1.00  0.00     0.029 A 
ATOM     50  C   UNL A   1      43.789  28.160  31.669  1.00  0.00     0.049 A 
ATOM     51  H   UNL A   1      41.837  28.707  31.084  1.00  0.00     0.167 HD
ATOM     52  C   UNL A   1      42.948  29.533  33.551  1.00  0.00     0.074 A 
ATOM     53  C   UNL A   1      43.066  30.119  34.869  1.00  0.00     0.031 C 
ATOM     54  C   UNL A   1      43.917  28.796  32.955  1.00  0.00     0.034 A 
BRANCH  41  55
ATOM     55  C   UNL A   1      42.274  26.455  27.478  1.00  0.00     0.023 A 
ATOM     56  C   UNL A   1      42.995  27.009  26.402  1.00  0.00     0.012 A 
ATOM     57  C   UNL A   1      41.963  25.080  27.465  1.00  0.00     0.148 A 
ATOM     58  C   UNL A   1      43.372  26.221  25.315  1.00  0.00     0.002 A 
ATOM     59  C   UNL A   1      42.379  24.291  26.398  1.00  0.00     0.091 A 
ATOM     60  F   UNL A   1      41.259  24.573  28.488  1.00  0.00    -0.205 F 
ATOM     61  C   UNL A   1      43.072  24.862  25.318  1.00  0.00     0.022 A 
BRANCH  59  62
ATOM     62  S   UNL A   1      42.112  22.514  26.346  1.00  0.00     0.127 S 
ATOM     63  O   UNL A   1      42.744  22.084  27.591  1.00  0.00    -0.237 OA
ATOM     64  O   UNL A   1      40.651  22.421  26.340  1.00  0.00    -0.237 OA
ATOM     65  O   UNL A   1      42.752  22.050  25.122  1.00  0.00    -0.744 OA
ENDBRANCH  59  62
ENDBRANCH  41  55
BRANCH  42  66
ATOM     66  C   UNL A   1      39.312  32.023  35.212  1.00  0.00     0.023 A 
ATOM     67  C   UNL A   1      38.453  31.432  36.160  1.00  0.00     0.012 A 
ATOM     68  C   UNL A   1      39.750  33.346  35.414  1.00  0.00     0.148 A 
ATOM     69  C   UNL A   1      38.016  32.153  37.271  1.00  0.00     0.002 A 
ATOM     70  C   UNL A   1      39.354  34.040  36.551  1.00  0.00     0.091 A 
ATOM     71  F   UNL A   1      40.555  33.896  34.494  1.00  0.00    -0.205 F 
ATOM     72  C   UNL A   1      38.474  33.452  37.472  1.00  0.00     0.022 A 
BRANCH  70  73
ATOM     73  S   UNL A   1      39.998  35.667  36.957  1.00  0.00     0.127 S 
ATOM     74  O   UNL A   1      39.593  36.450  35.795  1.00  0.00    -0.237 OA
ATOM     75  O   UNL A   1      39.280  35.979  38.193  1.00  0.00    -0.237 OA
ATOM     76  O   UNL A   1      41.435  35.485  37.132  1.00  0.00    -0.744 OA
ENDBRANCH  70  73
ENDBRANCH  42  66
BRANCH  54  77
ATOM     77  C   UNL A   1      45.211  28.603  33.701  1.00  0.00     0.023 A 
ATOM     78  C   UNL A   1      46.238  29.561  33.578  1.00  0.00     0.012 A 
ATOM     79  C   UNL A   1      45.380  27.519  34.584  1.00  0.00     0.148 A 
ATOM     80  C   UNL A   1      47.423  29.426  34.301  1.00  0.00     0.002 A 
ATOM     81  C   UNL A   1      46.544  27.416  35.336  1.00  0.00     0.091 A 
ATOM     82  F   UNL A   1      44.400  26.607  34.673  1.00  0.00    -0.205 F 
ATOM     83  C   UNL A   1      47.571  28.362  35.188  1.00  0.00     0.022 A 
BRANCH  81  84
ATOM     84  S   UNL A   1      46.782  26.133  36.570  1.00  0.00     0.127 S 
ATOM     85  O   UNL A   1      48.124  26.440  37.065  1.00  0.00    -0.237 OA
ATOM     86  O   UNL A   1      45.704  26.410  37.521  1.00  0.00    -0.237 OA
ATOM     87  O   UNL A   1      46.650  24.867  35.862  1.00  0.00    -0.744 OA
ENDBRANCH  81  84
ENDBRANCH  54  77
ENDBRANCH  28  29
ENDBRANCH  20  23
ENDBRANCH  18  19
ENDBRANCH   1  18
TORSDOF 15
ENDMDL
MODEL 3
REMARK VINA RESULT:     -10.9      2.326      8.096
REMARK SMILES C[C@@H](CC(=O)NCCCNC(=O)c1ccc(-c2c3nc(c(-c4cccc(S(=O)(=O)[O-])c4F)c4ccc([nH]4)c(-c4cccc(S(=O)(=O)[O-])c4F)c4nc(c(-c5cccc(S(=O)(=O)[O-])c5F)c5ccc2[nH]5)C=C4)C=C3)cc1)N1C(=O)CCCC1=O
REMARK SMILES IDX 8 1 7 2 6 3 4 4 5 5 3 7 2 8 1 9 76 10 77 11 82 12 78 13
REMARK SMILES IDX 79 14 81 15 83 16 80 17 9 18 10 19 11 20 12 22 13 23 14 24
REMARK SMILES IDX 75 25 15 26 74 27 16 28 17 29 18 30 68 31 19 32 73 33 67 34
REMARK SMILES IDX 69 35 20 36 72 37 66 38 65 39 21 41 53 42 33 43 52 44 34 45
REMARK SMILES IDX 37 46 51 47 70 48 35 49 36 50 50 52 71 53 38 54 22 55 23 56
REMARK SMILES IDX 31 57 24 58 26 59 32 60 25 61 27 62 28 63 29 64 30 65 54 66
REMARK SMILES IDX 55 67 63 68 56 69 58 70 64 71 57 72 59 73 60 74 61 75 62 76
REMARK SMILES IDX 39 77 40 78 48 79 41 80 43 81 49 82 42 83 44 84 45 85 46 86
REMARK SMILES IDX 47 87
REMARK H PARENT 6 6 10 21 69 40 37 51
REMARK Flexibility Score: inf
ROOT
ATOM      1  C   UNL A   1      31.749  28.144  26.202  1.00  0.00     0.042 C 
ENDROOT
BRANCH   1   2
ATOM      2  C   UNL A   1      32.300  26.720  26.238  1.00  0.00     0.117 C 
BRANCH   2   3
ATOM      3  N   UNL A   1      31.291  25.729  26.570  1.00  0.00    -0.356 N 
ATOM      4  C   UNL A   1      31.363  24.372  26.630  1.00  0.00     0.222 C 
ATOM      5  O   UNL A   1      30.330  23.740  26.872  1.00  0.00    -0.275 OA
ATOM      6  H   UNL A   1      30.408  26.102  26.789  1.00  0.00     0.163 HD
BRANCH   4   7
ATOM      7  C   UNL A   1      32.682  23.646  26.500  1.00  0.00     0.125 C 
BRANCH   7   8
ATOM      8  C   UNL A   1      33.154  23.091  25.142  1.00  0.00     0.099 C 
ATOM      9  C   UNL A   1      32.340  21.911  24.606  1.00  0.00     0.032 C 
BRANCH   8  10
ATOM     10  N   UNL A   1      34.607  22.889  24.940  1.00  0.00    -0.279 N 
ATOM     11  C   UNL A   1      35.120  23.240  23.686  1.00  0.00     0.229 C 
ATOM     12  C   UNL A   1      35.325  22.127  25.864  1.00  0.00     0.229 C 
ATOM     13  O   UNL A   1      34.452  23.801  22.813  1.00  0.00    -0.274 OA
ATOM     14  C   UNL A   1      36.581  22.949  23.408  1.00  0.00     0.101 C 
ATOM     15  C   UNL A   1      36.821  22.119  25.695  1.00  0.00     0.101 C 
ATOM     16  O   UNL A   1      34.811  21.462  26.760  1.00  0.00    -0.274 OA
ATOM     17  C   UNL A   1      37.137  21.824  24.249  1.00  0.00     0.020 C 
ENDBRANCH   8  10
ENDBRANCH   7   8
ENDBRANCH   4   7
ENDBRANCH   2   3
ENDBRANCH   1   2
BRANCH   1  18
ATOM     18  C   UNL A   1      32.655  29.167  25.528  1.00  0.00     0.118 C 
BRANCH  18  19
ATOM     19  N   UNL A   1      32.278  30.532  25.864  1.00  0.00    -0.352 N 
ATOM     20  C   UNL A   1      32.751  31.364  26.850  1.00  0.00     0.251 C 
ATOM     21  H   UNL A   1      31.576  30.921  25.294  1.00  0.00     0.163 HD
ATOM     22  O   UNL A   1      32.125  32.391  27.107  1.00  0.00    -0.269 OA
BRANCH  20  23
ATOM     23  C   UNL A   1      33.984  31.047  27.612  1.00  0.00     0.039 A 
ATOM     24  C   UNL A   1      34.885  32.081  27.893  1.00  0.00     0.014 A 
ATOM     25  C   UNL A   1      34.302  29.740  27.992  1.00  0.00     0.014 A 
ATOM     26  C   UNL A   1      36.070  31.814  28.587  1.00  0.00     0.010 A 
ATOM     27  C   UNL A   1      35.444  29.488  28.754  1.00  0.00     0.010 A 
ATOM     28  C   UNL A   1      36.351  30.517  29.046  1.00  0.00    -0.014 A 
BRANCH  28  29
ATOM     29  C   UNL A   1      37.590  30.217  29.816  1.00  0.00     0.031 A 
ATOM     30  C   UNL A   1      38.640  29.297  29.243  1.00  0.00     0.074 A 
ATOM     31  C   UNL A   1      37.741  30.707  31.062  1.00  0.00     0.049 A 
ATOM     32  N   UNL A   1      39.752  28.873  29.788  1.00  0.00    -0.248 NA
ATOM     33  C   UNL A   1      38.396  28.764  27.893  1.00  0.00     0.031 C 
ATOM     34  C   UNL A   1      36.769  31.548  31.764  1.00  0.00     0.029 A 
ATOM     35  N   UNL A   1      38.757  30.545  31.973  1.00  0.00    -0.354 N 
ATOM     36  C   UNL A   1      40.318  27.996  28.869  1.00  0.00     0.074 A 
ATOM     37  C   UNL A   1      39.411  27.925  27.744  1.00  0.00     0.031 C 
ATOM     38  C   UNL A   1      37.236  31.830  32.991  1.00  0.00     0.029 A 
ATOM     39  C   UNL A   1      38.526  31.170  33.176  1.00  0.00     0.049 A 
ATOM     40  H   UNL A   1      39.575  30.031  31.781  1.00  0.00     0.167 HD
ATOM     41  C   UNL A   1      41.497  27.334  28.936  1.00  0.00     0.034 A 
ATOM     42  C   UNL A   1      39.262  31.205  34.305  1.00  0.00     0.034 A 
ATOM     43  C   UNL A   1      42.426  27.449  30.030  1.00  0.00     0.049 A 
ATOM     44  C   UNL A   1      40.591  30.499  34.336  1.00  0.00     0.074 A 
ATOM     45  C   UNL A   1      43.688  26.891  30.148  1.00  0.00     0.029 A 
ATOM     46  N   UNL A   1      42.195  28.166  31.192  1.00  0.00    -0.354 N 
ATOM     47  N   UNL A   1      41.180  29.805  33.393  1.00  0.00    -0.248 NA
ATOM     48  C   UNL A   1      41.375  30.612  35.575  1.00  0.00     0.031 C 
ATOM     49  C   UNL A   1      44.213  27.260  31.391  1.00  0.00     0.029 A 
ATOM     50  C   UNL A   1      43.287  28.062  32.038  1.00  0.00     0.049 A 
ATOM     51  H   UNL A   1      41.376  28.675  31.389  1.00  0.00     0.167 HD
ATOM     52  C   UNL A   1      42.415  29.429  33.910  1.00  0.00     0.074 A 
ATOM     53  C   UNL A   1      42.499  29.990  35.242  1.00  0.00     0.031 C 
ATOM     54  C   UNL A   1      43.384  28.673  33.339  1.00  0.00     0.034 A 
BRANCH  41  55
ATOM     55  C   UNL A   1      41.885  26.470  27.764  1.00  0.00     0.023 A 
ATOM     56  C   UNL A   1      42.646  27.026  26.716  1.00  0.00     0.012 A 
ATOM     57  C   UNL A   1      41.553  25.101  27.725  1.00  0.00     0.148 A 
ATOM     58  C   UNL A   1      43.040  26.245  25.630  1.00  0.00     0.002 A 
ATOM     59  C   UNL A   1      41.986  24.318  26.660  1.00  0.00     0.091 A 
ATOM     60  F   UNL A   1      40.812  24.593  28.721  1.00  0.00    -0.205 F 
ATOM     61  C   UNL A   1      42.719  24.891  25.608  1.00  0.00     0.022 A 
BRANCH  59  62
ATOM     62  S   UNL A   1      41.693  22.547  26.578  1.00  0.00     0.127 S 
ATOM     63  O   UNL A   1      42.363  22.195  25.327  1.00  0.00    -0.237 OA
ATOM     64  O   UNL A   1      42.365  22.065  27.785  1.00  0.00    -0.237 OA
ATOM     65  O   UNL A   1      40.245  22.381  26.583  1.00  0.00    -0.744 OA
ENDBRANCH  59  62
ENDBRANCH  41  55
BRANCH  42  66
ATOM     66  C   UNL A   1      38.791  31.998  35.475  1.00  0.00     0.023 A 
ATOM     67  C   UNL A   1      38.901  33.403  35.443  1.00  0.00     0.012 A 
ATOM     68  C   UNL A   1      38.211  31.381  36.599  1.00  0.00     0.148 A 
ATOM     69  C   UNL A   1      38.468  34.175  36.522  1.00  0.00     0.002 A 
ATOM     70  C   UNL A   1      37.732  32.159  37.646  1.00  0.00     0.091 A 
ATOM     71  F   UNL A   1      38.129  30.043  36.617  1.00  0.00    -0.205 F 
ATOM     72  C   UNL A   1      37.874  33.555  37.617  1.00  0.00     0.022 A 
BRANCH  70  73
ATOM     73  S   UNL A   1      36.836  31.456  39.036  1.00  0.00     0.127 S 
ATOM     74  O   UNL A   1      35.731  32.397  39.187  1.00  0.00    -0.237 OA
ATOM     75  O   UNL A   1      36.459  30.140  38.520  1.00  0.00    -0.237 OA
ATOM     76  O   UNL A   1      37.791  31.415  40.136  1.00  0.00    -0.744 OA
ENDBRANCH  70  73
ENDBRANCH  42  66
BRANCH  54  77
ATOM     77  C   UNL A   1      44.642  28.430  34.130  1.00  0.00     0.023 A 
ATOM     78  C   UNL A   1      45.698  29.363  34.069  1.00  0.00     0.012 A 
ATOM     79  C   UNL A   1      44.748  27.323  34.994  1.00  0.00     0.148 A 
ATOM     80  C   UNL A   1      46.849  29.181  34.834  1.00  0.00     0.002 A 
ATOM     81  C   UNL A   1      45.879  27.172  35.788  1.00  0.00     0.091 A 
ATOM     82  F   UNL A   1      43.742  26.436  35.024  1.00  0.00    -0.205 F 
ATOM     83  C   UNL A   1      46.935  28.094  35.701  1.00  0.00     0.022 A 
BRANCH  81  84
ATOM     84  S   UNL A   1      46.036  25.858  37.001  1.00  0.00     0.127 S 
ATOM     85  O   UNL A   1      46.526  24.751  36.181  1.00  0.00    -0.237 OA
ATOM     86  O   UNL A   1      47.020  26.409  37.934  1.00  0.00    -0.237 OA
ATOM     87  O   UNL A   1      44.706  25.676  37.568  1.00  0.00    -0.744 OA
ENDBRANCH  81  84
ENDBRANCH  54  77
ENDBRANCH  28  29
ENDBRANCH  20  23
ENDBRANCH  18  19
ENDBRANCH   1  18
TORSDOF 15
ENDMDL
