MODEL 1
REMARK VINA RESULT:     -13.0      0.000      0.000
REMARK SMILES CCc1ccnc(C(=O)c2[nH]c3ccc(OC(F)(F)F)cc3c2CC(=O)NCCCNC(=O)c2ccc(-c3c4nc(c(-c5cccc(S(=O)(=O)[O-])c5F)c5ccc([nH]5)c(-c5cccc(S(=O)(=O)[O-])c5F)c5nc(c(-c6cccc(S(=O)(=O)[O-])c6F)c6ccc3[nH]6)C=C5)C=C4)cc2)c1
REMARK SMILES IDX 28 1 27 2 25 3 26 4 24 6 23 7 10 8 11 9 12 10 22 12 13 13
REMARK SMILES IDX 21 14 14 15 15 16 8 17 9 18 7 19 3 20 4 21 97 22 5 23 6 24
REMARK SMILES IDX 2 25 1 26 16 27 17 28 18 29 19 30 20 31 29 32 30 33 31 34
REMARK SMILES IDX 32 35 33 37 34 38 35 39 96 40 36 41 95 42 37 43 38 44 39 45
REMARK SMILES IDX 89 46 40 47 94 48 88 49 90 50 41 51 93 52 87 53 86 54 42 56
REMARK SMILES IDX 74 57 54 58 73 59 55 60 58 61 72 62 91 63 56 64 57 65 71 67
REMARK SMILES IDX 92 68 59 69 43 70 44 71 52 72 45 73 47 74 53 75 46 76 48 77
REMARK SMILES IDX 49 78 50 79 51 80 75 81 76 82 84 83 77 84 79 85 85 86 78 87
REMARK SMILES IDX 80 88 81 89 82 90 83 91 60 92 61 93 69 94 62 95 64 96 70 97
REMARK SMILES IDX 63 98 65 99 66 100 67 101 68 102
REMARK H PARENT 27 5 11 11 31 36 90 55 58 66
REMARK Flexibility Score: inf
ROOT
ATOM      1  C   UNL A   1      32.512  26.859  26.504  1.00  0.00     0.117 C 
ENDROOT
BRANCH   1   2
ATOM      2  N   UNL A   1      31.589  25.773  26.776  1.00  0.00    -0.356 N 
ATOM      3  C   UNL A   1      31.727  24.435  26.537  1.00  0.00     0.224 C 
ATOM      4  O   UNL A   1      30.899  23.672  27.045  1.00  0.00    -0.275 OA
ATOM      5  H   UNL A   1      30.740  26.039  27.194  1.00  0.00     0.163 HD
BRANCH   3   6
ATOM      6  C   UNL A   1      32.936  23.886  25.797  1.00  0.00     0.138 C 
BRANCH   6   7
ATOM      7  C   UNL A   1      32.655  23.304  24.440  1.00  0.00    -0.002 A 
ATOM      8  C   UNL A   1      32.476  23.992  23.243  1.00  0.00     0.093 A 
ATOM      9  N   UNL A   1      32.336  23.053  22.246  1.00  0.00    -0.352 N 
ATOM     10  C   UNL A   1      32.279  21.789  22.778  1.00  0.00     0.046 A 
ATOM     11  H   UNL A   1      32.284  23.259  21.284  1.00  0.00     0.167 HD
ATOM     12  C   UNL A   1      32.460  21.912  24.151  1.00  0.00     0.008 A 
ATOM     13  C   UNL A   1      32.105  20.552  22.147  1.00  0.00     0.030 A 
ATOM     14  C   UNL A   1      32.451  20.736  24.931  1.00  0.00     0.057 A 
ATOM     15  C   UNL A   1      32.108  19.400  22.947  1.00  0.00     0.049 A 
ATOM     16  C   UNL A   1      32.279  19.483  24.327  1.00  0.00     0.130 A 
BRANCH   8  17
ATOM     17  C   UNL A   1      32.518  25.424  22.996  1.00  0.00     0.227 C 
ATOM     18  O   UNL A   1      33.567  25.977  22.686  1.00  0.00    -0.285 OA
BRANCH  17  19
ATOM     19  C   UNL A   1      31.241  26.223  23.140  1.00  0.00     0.113 A 
ATOM     20  C   UNL A   1      29.905  28.214  22.839  1.00  0.00    -0.044 A 
ATOM     21  C   UNL A   1      28.849  27.539  23.454  1.00  0.00     0.024 A 
ATOM     22  C   UNL A   1      31.115  27.529  22.662  1.00  0.00     0.036 A 
ATOM     23  C   UNL A   1      29.051  26.242  23.891  1.00  0.00     0.112 A 
ATOM     24  N   UNL A   1      30.215  25.577  23.754  1.00  0.00    -0.253 NA
BRANCH  20  25
ATOM     25  C   UNL A   1      29.750  29.630  22.343  1.00  0.00     0.032 C 
ATOM     26  C   UNL A   1      29.284  30.603  23.420  1.00  0.00     0.009 C 
ENDBRANCH  20  25
ENDBRANCH  17  19
ENDBRANCH   8  17
BRANCH  16  27
ATOM     27  O   UNL A   1      32.309  18.438  25.208  1.00  0.00    -0.406 OA
BRANCH  27  28
ATOM     28  C   UNL A   1      33.299  17.442  25.019  1.00  0.00     0.573 C 
ATOM     29  F   UNL A   1      34.434  17.973  24.519  1.00  0.00    -0.132 F 
ATOM     30  F   UNL A   1      33.562  16.785  26.165  1.00  0.00    -0.132 F 
ATOM     31  F   UNL A   1      32.831  16.544  24.119  1.00  0.00    -0.132 F 
ENDBRANCH  27  28
ENDBRANCH  16  27
ENDBRANCH   6   7
ENDBRANCH   3   6
ENDBRANCH   1   2
BRANCH   1  32
ATOM     32  C   UNL A   1      31.821  28.189  26.220  1.00  0.00     0.042 C 
BRANCH  32  33
ATOM     33  C   UNL A   1      32.705  29.245  25.561  1.00  0.00     0.118 C 
BRANCH  33  34
ATOM     34  N   UNL A   1      32.354  30.603  25.954  1.00  0.00    -0.352 N 
ATOM     35  C   UNL A   1      32.914  31.444  26.883  1.00  0.00     0.251 C 
ATOM     36  H   UNL A   1      31.584  30.982  25.472  1.00  0.00     0.163 HD
ATOM     37  O   UNL A   1      32.336  32.494  27.156  1.00  0.00    -0.269 OA
BRANCH  35  38
ATOM     38  C   UNL A   1      34.186  31.111  27.570  1.00  0.00     0.039 A 
ATOM     39  C   UNL A   1      35.066  32.154  27.885  1.00  0.00     0.014 A 
ATOM     40  C   UNL A   1      34.555  29.792  27.848  1.00  0.00     0.014 A 
ATOM     41  C   UNL A   1      36.281  31.883  28.523  1.00  0.00     0.010 A 
ATOM     42  C   UNL A   1      35.742  29.527  28.534  1.00  0.00     0.010 A 
ATOM     43  C   UNL A   1      36.618  30.568  28.878  1.00  0.00    -0.014 A 
BRANCH  43  44
ATOM     44  C   UNL A   1      37.871  30.266  29.617  1.00  0.00     0.031 A 
ATOM     45  C   UNL A   1      38.896  29.331  29.034  1.00  0.00     0.074 A 
ATOM     46  C   UNL A   1      38.052  30.775  30.852  1.00  0.00     0.049 A 
ATOM     47  N   UNL A   1      40.011  28.895  29.566  1.00  0.00    -0.248 NA
ATOM     48  C   UNL A   1      38.626  28.799  27.688  1.00  0.00     0.031 C 
ATOM     49  C   UNL A   1      37.104  31.640  31.556  1.00  0.00     0.029 A 
ATOM     50  N   UNL A   1      39.081  30.615  31.746  1.00  0.00    -0.354 N 
ATOM     51  C   UNL A   1      40.560  28.021  28.636  1.00  0.00     0.074 A 
ATOM     52  C   UNL A   1      39.646  27.969  27.515  1.00  0.00     0.031 C 
ATOM     53  C   UNL A   1      37.591  31.928  32.774  1.00  0.00     0.029 A 
ATOM     54  C   UNL A   1      38.875  31.256  32.946  1.00  0.00     0.049 A 
ATOM     55  H   UNL A   1      39.890  30.091  31.548  1.00  0.00     0.167 HD
ATOM     56  C   UNL A   1      41.734  27.348  28.693  1.00  0.00     0.034 A 
ATOM     57  C   UNL A   1      39.633  31.297  34.059  1.00  0.00     0.034 A 
ATOM     58  C   UNL A   1      42.667  27.435  29.784  1.00  0.00     0.049 A 
ATOM     59  C   UNL A   1      40.960  30.587  34.071  1.00  0.00     0.074 A 
ATOM     60  C   UNL A   1      43.903  26.825  29.910  1.00  0.00     0.029 A 
ATOM     61  N   UNL A   1      42.476  28.191  30.930  1.00  0.00    -0.354 N 
ATOM     62  N   UNL A   1      41.522  29.875  33.125  1.00  0.00    -0.248 NA
ATOM     63  C   UNL A   1      41.775  30.718  35.289  1.00  0.00     0.031 C 
ATOM     64  C   UNL A   1      44.464  27.220  31.130  1.00  0.00     0.029 A 
ATOM     65  C   UNL A   1      43.574  28.073  31.763  1.00  0.00     0.049 A 
ATOM     66  H   UNL A   1      41.676  28.731  31.123  1.00  0.00     0.167 HD
ATOM     67  C   UNL A   1      42.765  29.498  33.619  1.00  0.00     0.074 A 
ATOM     68  C   UNL A   1      42.886  30.081  34.939  1.00  0.00     0.031 C 
ATOM     69  C   UNL A   1      43.711  28.718  33.042  1.00  0.00     0.034 A 
BRANCH  56  70
ATOM     70  C   UNL A   1      42.119  26.514  27.502  1.00  0.00     0.023 A 
ATOM     71  C   UNL A   1      42.833  27.123  26.450  1.00  0.00     0.012 A 
ATOM     72  C   UNL A   1      41.851  25.133  27.449  1.00  0.00     0.148 A 
ATOM     73  C   UNL A   1      43.256  26.376  25.352  1.00  0.00     0.002 A 
ATOM     74  C   UNL A   1      42.305  24.387  26.365  1.00  0.00     0.091 A 
ATOM     75  F   UNL A   1      41.154  24.577  28.449  1.00  0.00    -0.205 F 
ATOM     76  C   UNL A   1      43.002  25.009  25.315  1.00  0.00     0.022 A 
BRANCH  74  77
ATOM     77  S   UNL A   1      42.083  22.607  26.253  1.00  0.00     0.127 S 
ATOM     78  O   UNL A   1      42.763  22.149  27.464  1.00  0.00    -0.237 OA
ATOM     79  O   UNL A   1      40.626  22.474  26.285  1.00  0.00    -0.237 OA
ATOM     80  O   UNL A   1      42.700  22.206  24.997  1.00  0.00    -0.744 OA
ENDBRANCH  74  77
ENDBRANCH  56  70
BRANCH  57  81
ATOM     81  C   UNL A   1      39.191  32.112  35.226  1.00  0.00     0.023 A 
ATOM     82  C   UNL A   1      38.315  31.541  36.169  1.00  0.00     0.012 A 
ATOM     83  C   UNL A   1      39.656  33.424  35.430  1.00  0.00     0.148 A 
ATOM     84  C   UNL A   1      37.888  32.271  37.278  1.00  0.00     0.002 A 
ATOM     85  C   UNL A   1      39.267  34.129  36.565  1.00  0.00     0.091 A 
ATOM     86  F   UNL A   1      40.474  33.967  34.517  1.00  0.00    -0.205 F 
ATOM     87  C   UNL A   1      38.372  33.562  37.483  1.00  0.00     0.022 A 
BRANCH  85  88
ATOM     88  S   UNL A   1      39.976  35.738  36.937  1.00  0.00     0.127 S 
ATOM     89  O   UNL A   1      39.573  36.527  35.778  1.00  0.00    -0.237 OA
ATOM     90  O   UNL A   1      39.312  36.103  38.189  1.00  0.00    -0.237 OA
ATOM     91  O   UNL A   1      41.405  35.482  37.083  1.00  0.00    -0.744 OA
ENDBRANCH  85  88
ENDBRANCH  57  81
BRANCH  69  92
ATOM     92  C   UNL A   1      44.972  28.461  33.820  1.00  0.00     0.023 A 
ATOM     93  C   UNL A   1      45.953  29.471  33.897  1.00  0.00     0.012 A 
ATOM     94  C   UNL A   1      45.156  27.262  34.535  1.00  0.00     0.148 A 
ATOM     95  C   UNL A   1      47.105  29.282  34.655  1.00  0.00     0.002 A 
ATOM     96  C   UNL A   1      46.294  27.095  35.317  1.00  0.00     0.091 A 
ATOM     97  F   UNL A   1      44.225  26.302  34.430  1.00  0.00    -0.205 F 
ATOM     98  C   UNL A   1      47.272  28.100  35.374  1.00  0.00     0.022 A 
BRANCH  96  99
ATOM     99  S   UNL A   1      46.537  25.630  36.330  1.00  0.00     0.127 S 
ATOM    100  O   UNL A   1      47.747  25.976  37.072  1.00  0.00    -0.237 OA
ATOM    101  O   UNL A   1      45.317  25.595  37.139  1.00  0.00    -0.237 OA
ATOM    102  O   UNL A   1      46.662  24.524  35.391  1.00  0.00    -0.744 OA
ENDBRANCH  96  99
ENDBRANCH  69  92
ENDBRANCH  43  44
ENDBRANCH  35  38
ENDBRANCH  33  34
ENDBRANCH  32  33
ENDBRANCH   1  32
TORSDOF 19
ENDMDL
MODEL 2
REMARK VINA RESULT:     -12.9      1.268      7.324
REMARK SMILES CCc1ccnc(C(=O)c2[nH]c3ccc(OC(F)(F)F)cc3c2CC(=O)NCCCNC(=O)c2ccc(-c3c4nc(c(-c5cccc(S(=O)(=O)[O-])c5F)c5ccc([nH]5)c(-c5cccc(S(=O)(=O)[O-])c5F)c5nc(c(-c6cccc(S(=O)(=O)[O-])c6F)c6ccc3[nH]6)C=C5)C=C4)cc2)c1
REMARK SMILES IDX 28 1 27 2 25 3 26 4 24 6 23 7 10 8 11 9 12 10 22 12 13 13
REMARK SMILES IDX 21 14 14 15 15 16 8 17 9 18 7 19 3 20 4 21 97 22 5 23 6 24
REMARK SMILES IDX 2 25 1 26 16 27 17 28 18 29 19 30 20 31 29 32 30 33 31 34
REMARK SMILES IDX 32 35 33 37 34 38 35 39 96 40 36 41 95 42 37 43 38 44 39 45
REMARK SMILES IDX 89 46 40 47 94 48 88 49 90 50 41 51 93 52 87 53 86 54 42 56
REMARK SMILES IDX 74 57 54 58 73 59 55 60 58 61 72 62 91 63 56 64 57 65 71 67
REMARK SMILES IDX 92 68 59 69 43 70 44 71 52 72 45 73 47 74 53 75 46 76 48 77
REMARK SMILES IDX 49 78 50 79 51 80 75 81 76 82 84 83 77 84 79 85 85 86 78 87
REMARK SMILES IDX 80 88 81 89 82 90 83 91 60 92 61 93 69 94 62 95 64 96 70 97
REMARK SMILES IDX 63 98 65 99 66 100 67 101 68 102
REMARK H PARENT 27 5 11 11 31 36 90 55 58 66
REMARK Flexibility Score: inf
ROOT
ATOM      1  C   UNL A   1      32.861  26.764  26.017  1.00  0.00     0.117 C 
ENDROOT
BRANCH   1   2
ATOM      2  N   UNL A   1      32.068  25.640  26.478  1.00  0.00    -0.356 N 
ATOM      3  C   UNL A   1      32.256  24.303  26.278  1.00  0.00     0.224 C 
ATOM      4  O   UNL A   1      31.572  23.519  26.943  1.00  0.00    -0.275 OA
ATOM      5  H   UNL A   1      31.279  25.876  27.016  1.00  0.00     0.163 HD
BRANCH   3   6
ATOM      6  C   UNL A   1      33.368  23.789  25.377  1.00  0.00     0.138 C 
BRANCH   6   7
ATOM      7  C   UNL A   1      32.917  23.115  24.111  1.00  0.00    -0.002 A 
ATOM      8  C   UNL A   1      32.616  23.714  22.892  1.00  0.00     0.093 A 
ATOM      9  N   UNL A   1      32.339  22.707  21.996  1.00  0.00    -0.352 N 
ATOM     10  C   UNL A   1      32.313  21.490  22.630  1.00  0.00     0.046 A 
ATOM     11  H   UNL A   1      32.180  22.841  21.033  1.00  0.00     0.167 HD
ATOM     12  C   UNL A   1      32.657  21.712  23.958  1.00  0.00     0.008 A 
ATOM     13  C   UNL A   1      32.037  20.216  22.124  1.00  0.00     0.030 A 
ATOM     14  C   UNL A   1      32.710  20.600  24.826  1.00  0.00     0.057 A 
ATOM     15  C   UNL A   1      32.106  19.129  23.007  1.00  0.00     0.049 A 
ATOM     16  C   UNL A   1      32.438  19.311  24.348  1.00  0.00     0.130 A 
BRANCH   8  17
ATOM     17  C   UNL A   1      32.664  25.121  22.528  1.00  0.00     0.227 C 
ATOM     18  O   UNL A   1      33.657  25.597  21.989  1.00  0.00    -0.285 OA
BRANCH  17  19
ATOM     19  C   UNL A   1      31.466  25.993  22.839  1.00  0.00     0.113 A 
ATOM     20  C   UNL A   1      30.234  28.069  22.740  1.00  0.00    -0.044 A 
ATOM     21  C   UNL A   1      29.216  27.442  23.461  1.00  0.00     0.024 A 
ATOM     22  C   UNL A   1      31.369  27.316  22.407  1.00  0.00     0.036 A 
ATOM     23  C   UNL A   1      29.384  26.122  23.843  1.00  0.00     0.112 A 
ATOM     24  N   UNL A   1      30.480  25.392  23.555  1.00  0.00    -0.253 NA
BRANCH  20  25
ATOM     25  C   UNL A   1      30.113  29.505  22.296  1.00  0.00     0.032 C 
ATOM     26  C   UNL A   1      29.399  30.394  23.307  1.00  0.00     0.009 C 
ENDBRANCH  20  25
ENDBRANCH  17  19
ENDBRANCH   8  17
BRANCH  16  27
ATOM     27  O   UNL A   1      32.545  18.336  25.300  1.00  0.00    -0.406 OA
BRANCH  27  28
ATOM     28  C   UNL A   1      33.391  17.232  25.024  1.00  0.00     0.573 C 
ATOM     29  F   UNL A   1      34.571  17.640  24.512  1.00  0.00    -0.132 F 
ATOM     30  F   UNL A   1      33.599  16.484  26.126  1.00  0.00    -0.132 F 
ATOM     31  F   UNL A   1      32.784  16.454  24.098  1.00  0.00    -0.132 F 
ENDBRANCH  27  28
ENDBRANCH  16  27
ENDBRANCH   6   7
ENDBRANCH   3   6
ENDBRANCH   1   2
BRANCH   1  32
ATOM     32  C   UNL A   1      32.084  28.076  25.960  1.00  0.00     0.042 C 
BRANCH  32  33
ATOM     33  C   UNL A   1      32.814  29.225  25.268  1.00  0.00     0.118 C 
BRANCH  33  34
ATOM     34  N   UNL A   1      32.441  30.531  25.796  1.00  0.00    -0.352 N 
ATOM     35  C   UNL A   1      32.956  31.260  26.838  1.00  0.00     0.251 C 
ATOM     36  H   UNL A   1      31.692  30.964  25.325  1.00  0.00     0.163 HD
ATOM     37  O   UNL A   1      32.362  32.274  27.201  1.00  0.00    -0.269 OA
BRANCH  35  38
ATOM     38  C   UNL A   1      34.196  30.849  27.541  1.00  0.00     0.039 A 
ATOM     39  C   UNL A   1      35.248  31.769  27.628  1.00  0.00     0.014 A 
ATOM     40  C   UNL A   1      34.365  29.560  28.052  1.00  0.00     0.014 A 
ATOM     41  C   UNL A   1      36.439  31.419  28.273  1.00  0.00     0.010 A 
ATOM     42  C   UNL A   1      35.532  29.228  28.744  1.00  0.00     0.010 A 
ATOM     43  C   UNL A   1      36.582  30.153  28.860  1.00  0.00    -0.014 A 
BRANCH  43  44
ATOM     44  C   UNL A   1      37.812  29.784  29.608  1.00  0.00     0.031 A 
ATOM     45  C   UNL A   1      38.090  30.377  30.963  1.00  0.00     0.074 A 
ATOM     46  C   UNL A   1      38.720  28.970  29.032  1.00  0.00     0.049 A 
ATOM     47  N   UNL A   1      39.142  30.228  31.727  1.00  0.00    -0.248 NA
ATOM     48  C   UNL A   1      37.063  31.269  31.524  1.00  0.00     0.031 C 
ATOM     49  C   UNL A   1      38.600  28.382  27.696  1.00  0.00     0.029 A 
ATOM     50  N   UNL A   1      39.935  28.521  29.484  1.00  0.00    -0.354 N 
ATOM     51  C   UNL A   1      38.918  31.025  32.842  1.00  0.00     0.074 A 
ATOM     52  C   UNL A   1      37.640  31.676  32.647  1.00  0.00     0.031 C 
ATOM     53  C   UNL A   1      39.699  27.657  27.435  1.00  0.00     0.029 A 
ATOM     54  C   UNL A   1      40.610  27.742  28.572  1.00  0.00     0.049 A 
ATOM     55  H   UNL A   1      40.291  28.736  30.376  1.00  0.00     0.167 HD
ATOM     56  C   UNL A   1      39.690  31.179  33.945  1.00  0.00     0.034 A 
ATOM     57  C   UNL A   1      41.824  27.161  28.644  1.00  0.00     0.034 A 
ATOM     58  C   UNL A   1      40.936  30.497  34.165  1.00  0.00     0.049 A 
ATOM     59  C   UNL A   1      42.632  27.301  29.905  1.00  0.00     0.074 A 
ATOM     60  C   UNL A   1      41.766  30.554  35.272  1.00  0.00     0.029 A 
ATOM     61  N   UNL A   1      41.528  29.622  33.268  1.00  0.00    -0.354 N 
ATOM     62  N   UNL A   1      42.337  27.951  31.005  1.00  0.00    -0.248 NA
ATOM     63  C   UNL A   1      43.921  26.595  29.953  1.00  0.00     0.031 C 
ATOM     64  C   UNL A   1      42.856  29.704  35.047  1.00  0.00     0.029 A 
ATOM     65  C   UNL A   1      42.704  29.123  33.799  1.00  0.00     0.049 A 
ATOM     66  H   UNL A   1      41.165  29.390  32.382  1.00  0.00     0.167 HD
ATOM     67  C   UNL A   1      43.387  27.711  31.883  1.00  0.00     0.074 A 
ATOM     68  C   UNL A   1      44.314  26.833  31.198  1.00  0.00     0.031 C 
ATOM     69  C   UNL A   1      43.580  28.193  33.134  1.00  0.00     0.034 A 
BRANCH  56  70
ATOM     70  C   UNL A   1      39.167  32.062  35.046  1.00  0.00     0.023 A 
ATOM     71  C   UNL A   1      39.183  33.459  34.860  1.00  0.00     0.012 A 
ATOM     72  C   UNL A   1      38.598  31.525  36.216  1.00  0.00     0.148 A 
ATOM     73  C   UNL A   1      38.660  34.311  35.830  1.00  0.00     0.002 A 
ATOM     74  C   UNL A   1      38.048  32.381  37.166  1.00  0.00     0.091 A 
ATOM     75  F   UNL A   1      38.610  30.195  36.383  1.00  0.00    -0.205 F 
ATOM     76  C   UNL A   1      38.084  33.773  36.977  1.00  0.00     0.022 A 
BRANCH  74  77
ATOM     77  S   UNL A   1      37.226  31.783  38.648  1.00  0.00     0.127 S 
ATOM     78  O   UNL A   1      36.068  32.673  38.722  1.00  0.00    -0.237 OA
ATOM     79  O   UNL A   1      36.909  30.399  38.290  1.00  0.00    -0.237 OA
ATOM     80  O   UNL A   1      38.195  31.921  39.726  1.00  0.00    -0.744 OA
ENDBRANCH  74  77
ENDBRANCH  56  70
BRANCH  57  81
ATOM     81  C   UNL A   1      42.310  26.321  27.513  1.00  0.00     0.023 A 
ATOM     82  C   UNL A   1      43.172  26.892  26.556  1.00  0.00     0.012 A 
ATOM     83  C   UNL A   1      41.962  24.964  27.396  1.00  0.00     0.148 A 
ATOM     84  C   UNL A   1      43.654  26.133  25.489  1.00  0.00     0.002 A 
ATOM     85  C   UNL A   1      42.487  24.198  26.360  1.00  0.00     0.091 A 
ATOM     86  F   UNL A   1      41.125  24.434  28.301  1.00  0.00    -0.205 F 
ATOM     87  C   UNL A   1      43.321  24.783  25.396  1.00  0.00     0.022 A 
BRANCH  85  88
ATOM     88  S   UNL A   1      42.195  22.427  26.284  1.00  0.00     0.127 S 
ATOM     89  O   UNL A   1      40.751  22.361  26.092  1.00  0.00    -0.237 OA
ATOM     90  O   UNL A   1      42.988  22.018  25.123  1.00  0.00    -0.237 OA
ATOM     91  O   UNL A   1      42.706  21.919  27.552  1.00  0.00    -0.744 OA
ENDBRANCH  85  88
ENDBRANCH  57  81
BRANCH  69  92
ATOM     92  C   UNL A   1      44.827  27.771  33.860  1.00  0.00     0.023 A 
ATOM     93  C   UNL A   1      45.980  28.578  33.775  1.00  0.00     0.012 A 
ATOM     94  C   UNL A   1      44.841  26.628  34.682  1.00  0.00     0.148 A 
ATOM     95  C   UNL A   1      47.133  28.241  34.480  1.00  0.00     0.002 A 
ATOM     96  C   UNL A   1      45.985  26.318  35.409  1.00  0.00     0.091 A 
ATOM     97  F   UNL A   1      43.743  25.859  34.731  1.00  0.00    -0.205 F 
ATOM     98  C   UNL A   1      47.133  27.119  35.305  1.00  0.00     0.022 A 
BRANCH  96  99
ATOM     99  S   UNL A   1      46.031  24.931  36.552  1.00  0.00     0.127 S 
ATOM    100  O   UNL A   1      47.388  25.025  37.084  1.00  0.00    -0.237 OA
ATOM    101  O   UNL A   1      44.977  25.271  37.509  1.00  0.00    -0.237 OA
ATOM    102  O   UNL A   1      45.745  23.753  35.745  1.00  0.00    -0.744 OA
ENDBRANCH  96  99
ENDBRANCH  69  92
ENDBRANCH  43  44
ENDBRANCH  35  38
ENDBRANCH  33  34
ENDBRANCH  32  33
ENDBRANCH   1  32
TORSDOF 19
ENDMDL
MODEL 3
REMARK VINA RESULT:     -12.7      2.015      7.646
REMARK SMILES CCc1ccnc(C(=O)c2[nH]c3ccc(OC(F)(F)F)cc3c2CC(=O)NCCCNC(=O)c2ccc(-c3c4nc(c(-c5cccc(S(=O)(=O)[O-])c5F)c5ccc([nH]5)c(-c5cccc(S(=O)(=O)[O-])c5F)c5nc(c(-c6cccc(S(=O)(=O)[O-])c6F)c6ccc3[nH]6)C=C5)C=C4)cc2)c1
REMARK SMILES IDX 28 1 27 2 25 3 26 4 24 6 23 7 10 8 11 9 12 10 22 12 13 13
REMARK SMILES IDX 21 14 14 15 15 16 8 17 9 18 7 19 3 20 4 21 97 22 5 23 6 24
REMARK SMILES IDX 2 25 1 26 16 27 17 28 18 29 19 30 20 31 29 32 30 33 31 34
REMARK SMILES IDX 32 35 33 37 34 38 35 39 96 40 36 41 95 42 37 43 38 44 39 45
REMARK SMILES IDX 89 46 40 47 94 48 88 49 90 50 41 51 93 52 87 53 86 54 42 56
REMARK SMILES IDX 74 57 54 58 73 59 55 60 58 61 72 62 91 63 56 64 57 65 71 67
REMARK SMILES IDX 92 68 59 69 43 70 44 71 52 72 45 73 47 74 53 75 46 76 48 77
REMARK SMILES IDX 49 78 50 79 51 80 75 81 76 82 84 83 77 84 79 85 85 86 78 87
REMARK SMILES IDX 80 88 81 89 82 90 83 91 60 92 61 93 69 94 62 95 64 96 70 97
REMARK SMILES IDX 63 98 65 99 66 100 67 101 68 102
REMARK H PARENT 27 5 11 11 31 36 90 55 58 66
REMARK Flexibility Score: inf
ROOT
ATOM      1  C   UNL A   1      33.579  26.540  25.984  1.00  0.00     0.117 C 
ENDROOT
BRANCH   1   2
ATOM      2  N   UNL A   1      32.668  25.498  26.417  1.00  0.00    -0.356 N 
ATOM      3  C   UNL A   1      32.689  24.159  26.151  1.00  0.00     0.224 C 
ATOM      4  O   UNL A   1      31.932  23.431  26.800  1.00  0.00    -0.275 OA
ATOM      5  H   UNL A   1      31.926  25.800  26.988  1.00  0.00     0.163 HD
BRANCH   3   6
ATOM      6  C   UNL A   1      33.710  23.560  25.196  1.00  0.00     0.138 C 
BRANCH   6   7
ATOM      7  C   UNL A   1      33.141  22.892  23.976  1.00  0.00    -0.002 A 
ATOM      8  C   UNL A   1      32.756  23.493  22.781  1.00  0.00     0.093 A 
ATOM      9  N   UNL A   1      32.382  22.489  21.917  1.00  0.00    -0.352 N 
ATOM     10  C   UNL A   1      32.378  21.276  22.559  1.00  0.00     0.046 A 
ATOM     11  H   UNL A   1      32.149  22.622  20.969  1.00  0.00     0.167 HD
ATOM     12  C   UNL A   1      32.834  21.495  23.854  1.00  0.00     0.008 A 
ATOM     13  C   UNL A   1      32.031  20.006  22.086  1.00  0.00     0.030 A 
ATOM     14  C   UNL A   1      32.930  20.386  24.722  1.00  0.00     0.057 A 
ATOM     15  C   UNL A   1      32.145  18.922  22.967  1.00  0.00     0.049 A 
ATOM     16  C   UNL A   1      32.589  19.102  24.275  1.00  0.00     0.130 A 
BRANCH   8  17
ATOM     17  C   UNL A   1      32.809  24.897  22.405  1.00  0.00     0.227 C 
ATOM     18  O   UNL A   1      33.773  25.348  21.797  1.00  0.00    -0.285 OA
BRANCH  17  19
ATOM     19  C   UNL A   1      31.653  25.795  22.792  1.00  0.00     0.113 A 
ATOM     20  C   UNL A   1      30.457  27.894  22.755  1.00  0.00    -0.044 A 
ATOM     21  C   UNL A   1      29.483  27.296  23.558  1.00  0.00     0.024 A 
ATOM     22  C   UNL A   1      31.550  27.115  22.350  1.00  0.00     0.036 A 
ATOM     23  C   UNL A   1      29.655  25.979  23.945  1.00  0.00     0.112 A 
ATOM     24  N   UNL A   1      30.712  25.223  23.587  1.00  0.00    -0.253 NA
BRANCH  20  25
ATOM     25  C   UNL A   1      30.330  29.327  22.302  1.00  0.00     0.032 C 
ATOM     26  C   UNL A   1      29.441  30.172  23.205  1.00  0.00     0.009 C 
ENDBRANCH  20  25
ENDBRANCH  17  19
ENDBRANCH   8  17
BRANCH  16  27
ATOM     27  O   UNL A   1      32.750  18.129  25.222  1.00  0.00    -0.406 OA
BRANCH  27  28
ATOM     28  C   UNL A   1      33.642  17.066  24.933  1.00  0.00     0.573 C 
ATOM     29  F   UNL A   1      34.790  17.527  24.396  1.00  0.00    -0.132 F 
ATOM     30  F   UNL A   1      33.907  16.333  26.033  1.00  0.00    -0.132 F 
ATOM     31  F   UNL A   1      33.054  16.255  24.022  1.00  0.00    -0.132 F 
ENDBRANCH  27  28
ENDBRANCH  16  27
ENDBRANCH   6   7
ENDBRANCH   3   6
ENDBRANCH   1   2
BRANCH   1  32
ATOM     32  C   UNL A   1      33.224  27.923  26.521  1.00  0.00     0.042 C 
BRANCH  32  33
ATOM     33  C   UNL A   1      34.121  29.055  26.026  1.00  0.00     0.118 C 
BRANCH  33  34
ATOM     34  N   UNL A   1      33.914  30.300  26.752  1.00  0.00    -0.352 N 
ATOM     35  C   UNL A   1      34.621  30.868  27.783  1.00  0.00     0.251 C 
ATOM     36  H   UNL A   1      33.135  30.823  26.454  1.00  0.00     0.163 HD
ATOM     37  O   UNL A   1      34.153  31.855  28.347  1.00  0.00    -0.269 OA
BRANCH  35  38
ATOM     38  C   UNL A   1      35.921  30.315  28.237  1.00  0.00     0.039 A 
ATOM     39  C   UNL A   1      37.047  30.509  27.428  1.00  0.00     0.014 A 
ATOM     40  C   UNL A   1      36.034  29.555  29.404  1.00  0.00     0.014 A 
ATOM     41  C   UNL A   1      38.289  29.995  27.813  1.00  0.00     0.010 A 
ATOM     42  C   UNL A   1      37.285  29.089  29.816  1.00  0.00     0.010 A 
ATOM     43  C   UNL A   1      38.424  29.302  29.026  1.00  0.00    -0.014 A 
BRANCH  43  44
ATOM     44  C   UNL A   1      39.747  28.807  29.487  1.00  0.00     0.031 A 
ATOM     45  C   UNL A   1      40.489  29.517  30.586  1.00  0.00     0.074 A 
ATOM     46  C   UNL A   1      40.317  27.757  28.861  1.00  0.00     0.049 A 
ATOM     47  N   UNL A   1      41.682  29.273  31.067  1.00  0.00    -0.248 NA
ATOM     48  C   UNL A   1      39.814  30.665  31.214  1.00  0.00     0.031 C 
ATOM     49  C   UNL A   1      39.731  27.023  27.738  1.00  0.00     0.029 A 
ATOM     50  N   UNL A   1      41.529  27.144  29.061  1.00  0.00    -0.354 N 
ATOM     51  C   UNL A   1      41.911  30.247  32.031  1.00  0.00     0.074 A 
ATOM     52  C   UNL A   1      40.744  31.103  32.052  1.00  0.00     0.031 C 
ATOM     53  C   UNL A   1      40.586  26.066  27.345  1.00  0.00     0.029 A 
ATOM     54  C   UNL A   1      41.788  26.128  28.171  1.00  0.00     0.049 A 
ATOM     55  H   UNL A   1      42.155  27.408  29.774  1.00  0.00     0.167 HD
ATOM     56  C   UNL A   1      42.981  30.398  32.848  1.00  0.00     0.034 A 
ATOM     57  C   UNL A   1      42.869  25.335  28.036  1.00  0.00     0.034 A 
ATOM     58  C   UNL A   1      44.121  29.522  32.863  1.00  0.00     0.049 A 
ATOM     59  C   UNL A   1      44.017  25.488  28.996  1.00  0.00     0.074 A 
ATOM     60  C   UNL A   1      45.232  29.569  33.687  1.00  0.00     0.029 A 
ATOM     61  N   UNL A   1      44.290  28.430  32.027  1.00  0.00    -0.354 N 
ATOM     62  N   UNL A   1      44.153  26.332  29.990  1.00  0.00    -0.248 NA
ATOM     63  C   UNL A   1      45.144  24.555  28.842  1.00  0.00     0.031 C 
ATOM     64  C   UNL A   1      46.070  28.498  33.354  1.00  0.00     0.029 A 
ATOM     65  C   UNL A   1      45.480  27.788  32.321  1.00  0.00     0.049 A 
ATOM     66  H   UNL A   1      43.657  28.152  31.325  1.00  0.00     0.167 HD
ATOM     67  C   UNL A   1      45.362  26.015  30.597  1.00  0.00     0.074 A 
ATOM     68  C   UNL A   1      45.909  24.884  29.875  1.00  0.00     0.031 C 
ATOM     69  C   UNL A   1      45.977  26.620  31.642  1.00  0.00     0.034 A 
BRANCH  56  70
ATOM     70  C   UNL A   1      42.936  31.513  33.857  1.00  0.00     0.023 A 
ATOM     71  C   UNL A   1      43.500  32.759  33.518  1.00  0.00     0.012 A 
ATOM     72  C   UNL A   1      42.282  31.362  35.095  1.00  0.00     0.148 A 
ATOM     73  C   UNL A   1      43.434  33.834  34.402  1.00  0.00     0.002 A 
ATOM     74  C   UNL A   1      42.191  32.450  35.959  1.00  0.00     0.091 A 
ATOM     75  F   UNL A   1      41.770  30.164  35.407  1.00  0.00    -0.205 F 
ATOM     76  C   UNL A   1      42.771  33.683  35.616  1.00  0.00     0.022 A 
BRANCH  74  77
ATOM     77  S   UNL A   1      41.303  32.374  37.520  1.00  0.00     0.127 S 
ATOM     78  O   UNL A   1      42.190  31.533  38.323  1.00  0.00    -0.237 OA
ATOM     79  O   UNL A   1      41.267  33.781  37.924  1.00  0.00    -0.237 OA
ATOM     80  O   UNL A   1      40.002  31.801  37.211  1.00  0.00    -0.744 OA
ENDBRANCH  74  77
ENDBRANCH  56  70
BRANCH  57  81
ATOM     81  C   UNL A   1      42.877  24.265  26.998  1.00  0.00     0.023 A 
ATOM     82  C   UNL A   1      43.633  24.454  25.825  1.00  0.00     0.012 A 
ATOM     83  C   UNL A   1      42.180  23.057  27.176  1.00  0.00     0.148 A 
ATOM     84  C   UNL A   1      43.671  23.470  24.837  1.00  0.00     0.002 A 
ATOM     85  C   UNL A   1      42.263  22.058  26.211  1.00  0.00     0.091 A 
ATOM     86  F   UNL A   1      41.447  22.894  28.288  1.00  0.00    -0.205 F 
ATOM     87  C   UNL A   1      42.995  22.268  25.033  1.00  0.00     0.022 A 
BRANCH  85  88
ATOM     88  S   UNL A   1      41.524  20.445  26.489  1.00  0.00     0.127 S 
ATOM     89  O   UNL A   1      40.099  20.739  26.395  1.00  0.00    -0.237 OA
ATOM     90  O   UNL A   1      42.060  19.648  25.384  1.00  0.00    -0.237 OA
ATOM     91  O   UNL A   1      42.019  20.037  27.799  1.00  0.00    -0.744 OA
ENDBRANCH  85  88
ENDBRANCH  57  81
BRANCH  69  92
ATOM     92  C   UNL A   1      47.302  26.067  32.087  1.00  0.00     0.023 A 
ATOM     93  C   UNL A   1      48.483  26.517  31.462  1.00  0.00     0.012 A 
ATOM     94  C   UNL A   1      47.390  25.166  33.166  1.00  0.00     0.148 A 
ATOM     95  C   UNL A   1      49.728  26.063  31.891  1.00  0.00     0.002 A 
ATOM     96  C   UNL A   1      48.639  24.744  33.609  1.00  0.00     0.091 A 
ATOM     97  F   UNL A   1      46.255  24.728  33.732  1.00  0.00    -0.205 F 
ATOM     98  C   UNL A   1      49.808  25.186  32.970  1.00  0.00     0.022 A 
BRANCH  96  99
ATOM     99  S   UNL A   1      48.820  23.675  35.043  1.00  0.00     0.127 S 
ATOM    100  O   UNL A   1      50.273  23.547  35.141  1.00  0.00    -0.237 OA
ATOM    101  O   UNL A   1      48.206  24.466  36.111  1.00  0.00    -0.237 OA
ATOM    102  O   UNL A   1      48.096  22.455  34.713  1.00  0.00    -0.744 OA
ENDBRANCH  96  99
ENDBRANCH  69  92
ENDBRANCH  43  44
ENDBRANCH  35  38
ENDBRANCH  33  34
ENDBRANCH  32  33
ENDBRANCH   1  32
TORSDOF 19
ENDMDL
