MODEL 1
REMARK VINA RESULT:     -11.8      0.000      0.000
REMARK SMILES Cc1c([C@H]2[C@H](C(=O)NCCCNC(=O)c3ccc(-c4c5nc(c(-c6cccc(S(=O)(=O)[O-])c6F)c6ccc([nH]6)c(-c6cccc(S(=O)(=O)[O-])c6F)c6nc(c(-c7cccc(S(=O)(=O)[O-])c7F)c7ccc4[nH]7)C=C6)C=C5)cc3)OCC(=O)N2CC(C)C)cnn1C
REMARK SMILES IDX 10 1 9 2 8 3 6 4 7 5 5 7 4 8 82 9 78 10 80 11 79 12 81 13
REMARK SMILES IDX 3 14 1 15 2 16 89 17 87 18 88 19 90 20 83 21 84 22 85 23
REMARK SMILES IDX 86 24 11 25 12 26 13 27 14 29 15 30 16 31 77 32 17 33 76 34
REMARK SMILES IDX 18 35 19 36 20 37 70 38 21 39 75 40 69 41 71 42 22 43 74 44
REMARK SMILES IDX 68 45 67 46 23 48 55 49 35 50 54 51 36 52 39 53 53 54 72 55
REMARK SMILES IDX 37 56 38 57 52 59 73 60 40 61 24 62 25 63 33 64 26 65 28 66
REMARK SMILES IDX 34 67 27 68 29 69 30 70 31 71 32 72 56 73 57 74 65 75 58 76
REMARK SMILES IDX 60 77 66 78 59 79 61 80 62 81 63 82 64 83 41 84 42 85 50 86
REMARK SMILES IDX 43 87 45 88 51 89 44 90 46 91 47 92 48 93 49 94
REMARK H PARENT 8 6 12 28 71 47 39 58
REMARK Flexibility Score: inf
ROOT
ATOM      1  C   UNL A   1      31.777  31.309  26.884  1.00  0.00     0.042 C 
ENDROOT
BRANCH   1   2
ATOM      2  C   UNL A   1      31.964  30.299  25.772  1.00  0.00     0.117 C 
BRANCH   2   3
ATOM      3  N   UNL A   1      32.809  29.200  26.164  1.00  0.00    -0.354 N 
ATOM      4  C   UNL A   1      32.570  27.866  26.129  1.00  0.00     0.251 C 
ATOM      5  O   UNL A   1      33.497  27.133  26.493  1.00  0.00    -0.272 OA
ATOM      6  H   UNL A   1      33.694  29.458  26.511  1.00  0.00     0.163 HD
BRANCH   4   7
ATOM      7  C   UNL A   1      31.217  27.258  25.691  1.00  0.00     0.234 C 
ATOM      8  C   UNL A   1      31.159  26.919  24.168  1.00  0.00     0.157 C 
ATOM      9  N   UNL A   1      31.300  25.484  23.856  1.00  0.00    -0.330 N 
ATOM     10  O   UNL A   1      30.557  26.337  26.547  1.00  0.00    -0.356 OA
ATOM     11  C   UNL A   1      30.882  24.511  24.758  1.00  0.00     0.249 C 
ATOM     12  C   UNL A   1      30.698  24.981  26.213  1.00  0.00     0.261 C 
ATOM     13  O   UNL A   1      30.833  23.313  24.480  1.00  0.00    -0.272 OA
BRANCH   8  14
ATOM     14  C   UNL A   1      29.866  27.461  23.611  1.00  0.00     0.019 A 
ATOM     15  C   UNL A   1      30.763  29.517  22.272  1.00  0.00     0.067 C 
ATOM     16  C   UNL A   1      29.727  28.603  22.829  1.00  0.00     0.040 A 
ATOM     17  N   UNL A   1      28.377  28.815  22.721  1.00  0.00    -0.273 N 
ATOM     18  C   UNL A   1      28.539  27.027  23.829  1.00  0.00     0.141 A 
ATOM     19  N   UNL A   1      27.637  27.846  23.287  1.00  0.00    -0.181 NA
ATOM     20  C   UNL A   1      27.718  29.990  22.199  1.00  0.00     0.174 C 
ENDBRANCH   8  14
BRANCH   9  21
ATOM     21  C   UNL A   1      32.067  25.057  22.673  1.00  0.00     0.123 C 
BRANCH  21  22
ATOM     22  C   UNL A   1      32.411  26.144  21.643  1.00  0.00     0.002 C 
ATOM     23  C   UNL A   1      33.697  26.885  22.009  1.00  0.00     0.009 C 
ATOM     24  C   UNL A   1      32.610  25.497  20.263  1.00  0.00     0.009 C 
ENDBRANCH  21  22
ENDBRANCH   9  21
ENDBRANCH   4   7
ENDBRANCH   2   3
ENDBRANCH   1   2
BRANCH   1  25
ATOM     25  C   UNL A   1      33.040  32.106  27.151  1.00  0.00     0.118 C 
BRANCH  25  26
ATOM     26  N   UNL A   1      32.747  33.504  27.454  1.00  0.00    -0.352 N 
ATOM     27  C   UNL A   1      33.195  34.299  28.480  1.00  0.00     0.251 C 
ATOM     28  H   UNL A   1      32.133  33.946  26.823  1.00  0.00     0.163 HD
ATOM     29  O   UNL A   1      32.652  35.371  28.703  1.00  0.00    -0.269 OA
BRANCH  27  30
ATOM     30  C   UNL A   1      34.329  33.840  29.306  1.00  0.00     0.039 A 
ATOM     31  C   UNL A   1      34.096  32.972  30.373  1.00  0.00     0.014 A 
ATOM     32  C   UNL A   1      35.625  34.262  29.006  1.00  0.00     0.014 A 
ATOM     33  C   UNL A   1      35.179  32.476  31.097  1.00  0.00     0.010 A 
ATOM     34  C   UNL A   1      36.703  33.666  29.638  1.00  0.00     0.010 A 
ATOM     35  C   UNL A   1      36.493  32.788  30.708  1.00  0.00    -0.014 A 
BRANCH  35  36
ATOM     36  C   UNL A   1      37.670  32.226  31.412  1.00  0.00     0.031 A 
ATOM     37  C   UNL A   1      38.453  31.106  30.779  1.00  0.00     0.074 A 
ATOM     38  C   UNL A   1      37.969  32.655  32.653  1.00  0.00     0.049 A 
ATOM     39  N   UNL A   1      39.454  30.423  31.267  1.00  0.00    -0.248 NA
ATOM     40  C   UNL A   1      38.029  30.663  29.437  1.00  0.00     0.031 C 
ATOM     41  C   UNL A   1      37.224  33.670  33.404  1.00  0.00     0.029 A 
ATOM     42  N   UNL A   1      38.965  32.272  33.515  1.00  0.00    -0.354 N 
ATOM     43  C   UNL A   1      39.747  29.450  30.319  1.00  0.00     0.074 A 
ATOM     44  C   UNL A   1      38.789  29.595  29.249  1.00  0.00     0.031 C 
ATOM     45  C   UNL A   1      37.798  33.839  34.606  1.00  0.00     0.029 A 
ATOM     46  C   UNL A   1      38.925  32.921  34.727  1.00  0.00     0.049 A 
ATOM     47  H   UNL A   1      39.643  31.596  33.288  1.00  0.00     0.167 HD
ATOM     48  C   UNL A   1      40.748  28.539  30.322  1.00  0.00     0.034 A 
ATOM     49  C   UNL A   1      39.706  32.784  35.815  1.00  0.00     0.034 A 
ATOM     50  C   UNL A   1      41.732  28.443  31.364  1.00  0.00     0.049 A 
ATOM     51  C   UNL A   1      40.846  31.803  35.768  1.00  0.00     0.074 A 
ATOM     52  C   UNL A   1      42.846  27.626  31.419  1.00  0.00     0.029 A 
ATOM     53  N   UNL A   1      41.718  29.185  32.534  1.00  0.00    -0.354 N 
ATOM     54  N   UNL A   1      41.202  31.000  34.795  1.00  0.00    -0.248 NA
ATOM     55  C   UNL A   1      41.712  31.734  36.953  1.00  0.00     0.031 C 
ATOM     56  C   UNL A   1      43.490  27.855  32.638  1.00  0.00     0.029 A 
ATOM     57  C   UNL A   1      42.798  28.839  33.324  1.00  0.00     0.049 A 
ATOM     58  H   UNL A   1      41.039  29.859  32.767  1.00  0.00     0.167 HD
ATOM     59  C   UNL A   1      42.357  30.361  35.233  1.00  0.00     0.074 A 
ATOM     60  C   UNL A   1      42.649  30.887  36.551  1.00  0.00     0.031 C 
ATOM     61  C   UNL A   1      43.100  29.415  34.609  1.00  0.00     0.034 A 
BRANCH  48  62
ATOM     62  C   UNL A   1      40.861  27.613  29.140  1.00  0.00     0.023 A 
ATOM     63  C   UNL A   1      40.073  26.444  29.089  1.00  0.00     0.012 A 
ATOM     64  C   UNL A   1      41.698  27.929  28.053  1.00  0.00     0.148 A 
ATOM     65  C   UNL A   1      40.141  25.587  27.992  1.00  0.00     0.002 A 
ATOM     66  C   UNL A   1      41.724  27.096  26.941  1.00  0.00     0.091 A 
ATOM     67  F   UNL A   1      42.456  29.031  28.130  1.00  0.00    -0.205 F 
ATOM     68  C   UNL A   1      40.956  25.920  26.913  1.00  0.00     0.022 A 
BRANCH  66  69
ATOM     69  S   UNL A   1      42.675  27.476  25.466  1.00  0.00     0.127 S 
ATOM     70  O   UNL A   1      44.036  27.538  26.001  1.00  0.00    -0.237 OA
ATOM     71  O   UNL A   1      42.405  26.314  24.620  1.00  0.00    -0.237 OA
ATOM     72  O   UNL A   1      42.149  28.736  24.959  1.00  0.00    -0.744 OA
ENDBRANCH  66  69
ENDBRANCH  48  62
BRANCH  49  73
ATOM     73  C   UNL A   1      39.475  33.636  37.016  1.00  0.00     0.023 A 
ATOM     74  C   UNL A   1      39.913  34.975  37.012  1.00  0.00     0.012 A 
ATOM     75  C   UNL A   1      38.810  33.136  38.153  1.00  0.00     0.148 A 
ATOM     76  C   UNL A   1      39.732  35.787  38.132  1.00  0.00     0.002 A 
ATOM     77  C   UNL A   1      38.582  33.967  39.242  1.00  0.00     0.091 A 
ATOM     78  F   UNL A   1      38.408  31.858  38.141  1.00  0.00    -0.205 F 
ATOM     79  C   UNL A   1      39.058  35.287  39.243  1.00  0.00     0.022 A 
BRANCH  77  80
ATOM     80  S   UNL A   1      37.607  33.446  40.658  1.00  0.00     0.127 S 
ATOM     81  O   UNL A   1      38.449  32.398  41.231  1.00  0.00    -0.237 OA
ATOM     82  O   UNL A   1      37.534  34.677  41.445  1.00  0.00    -0.237 OA
ATOM     83  O   UNL A   1      36.329  33.006  40.115  1.00  0.00    -0.744 OA
ENDBRANCH  77  80
ENDBRANCH  49  73
BRANCH  61  84
ATOM     84  C   UNL A   1      44.332  28.917  35.316  1.00  0.00     0.023 A 
ATOM     85  C   UNL A   1      45.573  29.546  35.097  1.00  0.00     0.012 A 
ATOM     86  C   UNL A   1      44.239  27.874  36.258  1.00  0.00     0.148 A 
ATOM     87  C   UNL A   1      46.711  29.120  35.780  1.00  0.00     0.002 A 
ATOM     88  C   UNL A   1      45.366  27.491  36.975  1.00  0.00     0.091 A 
ATOM     89  F   UNL A   1      43.051  27.278  36.438  1.00  0.00    -0.205 F 
ATOM     90  C   UNL A   1      46.605  28.103  36.726  1.00  0.00     0.022 A 
BRANCH  88  91
ATOM     91  S   UNL A   1      45.302  26.265  38.284  1.00  0.00     0.127 S 
ATOM     92  O   UNL A   1      46.656  26.343  38.831  1.00  0.00    -0.237 OA
ATOM     93  O   UNL A   1      44.259  26.801  39.159  1.00  0.00    -0.237 OA
ATOM     94  O   UNL A   1      44.962  25.004  37.640  1.00  0.00    -0.744 OA
ENDBRANCH  88  91
ENDBRANCH  61  84
ENDBRANCH  35  36
ENDBRANCH  27  30
ENDBRANCH  25  26
ENDBRANCH   1  25
TORSDOF 16
ENDMDL
MODEL 2
REMARK VINA RESULT:     -11.6      6.553     11.579
REMARK SMILES Cc1c([C@H]2[C@H](C(=O)NCCCNC(=O)c3ccc(-c4c5nc(c(-c6cccc(S(=O)(=O)[O-])c6F)c6ccc([nH]6)c(-c6cccc(S(=O)(=O)[O-])c6F)c6nc(c(-c7cccc(S(=O)(=O)[O-])c7F)c7ccc4[nH]7)C=C6)C=C5)cc3)OCC(=O)N2CC(C)C)cnn1C
REMARK SMILES IDX 10 1 9 2 8 3 6 4 7 5 5 7 4 8 82 9 78 10 80 11 79 12 81 13
REMARK SMILES IDX 3 14 1 15 2 16 89 17 87 18 88 19 90 20 83 21 84 22 85 23
REMARK SMILES IDX 86 24 11 25 12 26 13 27 14 29 15 30 16 31 77 32 17 33 76 34
REMARK SMILES IDX 18 35 19 36 20 37 70 38 21 39 75 40 69 41 71 42 22 43 74 44
REMARK SMILES IDX 68 45 67 46 23 48 55 49 35 50 54 51 36 52 39 53 53 54 72 55
REMARK SMILES IDX 37 56 38 57 52 59 73 60 40 61 24 62 25 63 33 64 26 65 28 66
REMARK SMILES IDX 34 67 27 68 29 69 30 70 31 71 32 72 56 73 57 74 65 75 58 76
REMARK SMILES IDX 60 77 66 78 59 79 61 80 62 81 63 82 64 83 41 84 42 85 50 86
REMARK SMILES IDX 43 87 45 88 51 89 44 90 46 91 47 92 48 93 49 94
REMARK H PARENT 8 6 12 28 71 47 39 58
REMARK Flexibility Score: inf
ROOT
ATOM      1  C   UNL A   1      37.818  20.030  24.753  1.00  0.00     0.042 C 
ENDROOT
BRANCH   1   2
ATOM      2  C   UNL A   1      36.444  20.584  25.068  1.00  0.00     0.117 C 
BRANCH   2   3
ATOM      3  N   UNL A   1      36.492  21.954  25.509  1.00  0.00    -0.354 N 
ATOM      4  C   UNL A   1      35.765  23.023  25.098  1.00  0.00     0.251 C 
ATOM      5  O   UNL A   1      35.984  24.091  25.681  1.00  0.00    -0.272 OA
ATOM      6  H   UNL A   1      37.152  22.144  26.214  1.00  0.00     0.163 HD
BRANCH   4   7
ATOM      7  C   UNL A   1      34.730  22.955  23.951  1.00  0.00     0.234 C 
ATOM      8  C   UNL A   1      33.278  22.668  24.447  1.00  0.00     0.157 C 
ATOM      9  N   UNL A   1      32.393  23.848  24.462  1.00  0.00    -0.330 N 
ATOM     10  O   UNL A   1      34.836  23.861  22.863  1.00  0.00    -0.356 OA
ATOM     11  C   UNL A   1      32.582  24.895  23.565  1.00  0.00     0.249 C 
ATOM     12  C   UNL A   1      33.968  24.964  22.899  1.00  0.00     0.261 C 
ATOM     13  O   UNL A   1      31.781  25.821  23.434  1.00  0.00    -0.272 OA
BRANCH   8  14
ATOM     14  C   UNL A   1      32.692  21.573  23.591  1.00  0.00     0.019 A 
ATOM     15  C   UNL A   1      33.040  19.517  25.164  1.00  0.00     0.067 C 
ATOM     16  C   UNL A   1      32.640  20.221  23.914  1.00  0.00     0.040 A 
ATOM     17  N   UNL A   1      32.209  19.586  22.779  1.00  0.00    -0.273 N 
ATOM     18  C   UNL A   1      32.182  21.634  22.275  1.00  0.00     0.141 A 
ATOM     19  N   UNL A   1      31.887  20.430  21.784  1.00  0.00    -0.181 NA
ATOM     20  C   UNL A   1      32.199  18.163  22.525  1.00  0.00     0.174 C 
ENDBRANCH   8  14
BRANCH   9  21
ATOM     21  C   UNL A   1      31.421  24.030  25.554  1.00  0.00     0.123 C 
BRANCH  21  22
ATOM     22  C   UNL A   1      31.222  22.841  26.507  1.00  0.00     0.002 C 
ATOM     23  C   UNL A   1      32.248  22.846  27.640  1.00  0.00     0.009 C 
ATOM     24  C   UNL A   1      29.820  22.916  27.133  1.00  0.00     0.009 C 
ENDBRANCH  21  22
ENDBRANCH   9  21
ENDBRANCH   4   7
ENDBRANCH   2   3
ENDBRANCH   1   2
BRANCH   1  25
ATOM     25  C   UNL A   1      38.858  20.471  25.767  1.00  0.00     0.118 C 
BRANCH  25  26
ATOM     26  N   UNL A   1      39.868  19.441  25.993  1.00  0.00    -0.352 N 
ATOM     27  C   UNL A   1      41.225  19.556  26.164  1.00  0.00     0.251 C 
ATOM     28  H   UNL A   1      39.521  18.520  26.030  1.00  0.00     0.163 HD
ATOM     29  O   UNL A   1      41.935  18.563  26.100  1.00  0.00    -0.269 OA
BRANCH  27  30
ATOM     30  C   UNL A   1      41.810  20.887  26.416  1.00  0.00     0.039 A 
ATOM     31  C   UNL A   1      42.055  21.746  25.344  1.00  0.00     0.014 A 
ATOM     32  C   UNL A   1      42.098  21.286  27.723  1.00  0.00     0.014 A 
ATOM     33  C   UNL A   1      42.529  23.033  25.596  1.00  0.00     0.010 A 
ATOM     34  C   UNL A   1      42.440  22.602  27.978  1.00  0.00     0.010 A 
ATOM     35  C   UNL A   1      42.686  23.483  26.918  1.00  0.00    -0.014 A 
BRANCH  35  36
ATOM     36  C   UNL A   1      43.123  24.865  27.226  1.00  0.00     0.031 A 
ATOM     37  C   UNL A   1      42.165  25.821  27.887  1.00  0.00     0.074 A 
ATOM     38  C   UNL A   1      44.338  25.284  26.822  1.00  0.00     0.049 A 
ATOM     39  N   UNL A   1      42.324  27.089  28.159  1.00  0.00    -0.248 NA
ATOM     40  C   UNL A   1      40.836  25.296  28.253  1.00  0.00     0.031 C 
ATOM     41  C   UNL A   1      45.315  24.473  26.089  1.00  0.00     0.029 A 
ATOM     42  N   UNL A   1      44.950  26.504  26.947  1.00  0.00    -0.354 N 
ATOM     43  C   UNL A   1      41.110  27.519  28.682  1.00  0.00     0.074 A 
ATOM     44  C   UNL A   1      40.207  26.393  28.645  1.00  0.00     0.031 C 
ATOM     45  C   UNL A   1      46.408  25.213  25.845  1.00  0.00     0.029 A 
ATOM     46  C   UNL A   1      46.197  26.559  26.367  1.00  0.00     0.049 A 
ATOM     47  H   UNL A   1      44.537  27.269  27.409  1.00  0.00     0.167 HD
ATOM     48  C   UNL A   1      40.787  28.734  29.183  1.00  0.00     0.034 A 
ATOM     49  C   UNL A   1      47.066  27.582  26.262  1.00  0.00     0.034 A 
ATOM     50  C   UNL A   1      41.712  29.830  29.270  1.00  0.00     0.049 A 
ATOM     51  C   UNL A   1      46.701  28.905  26.878  1.00  0.00     0.074 A 
ATOM     52  C   UNL A   1      41.520  31.070  29.850  1.00  0.00     0.029 A 
ATOM     53  N   UNL A   1      43.000  29.817  28.759  1.00  0.00    -0.354 N 
ATOM     54  N   UNL A   1      45.605  29.246  27.511  1.00  0.00    -0.248 NA
ATOM     55  C   UNL A   1      47.707  29.974  26.798  1.00  0.00     0.031 C 
ATOM     56  C   UNL A   1      42.685  31.819  29.664  1.00  0.00     0.029 A 
ATOM     57  C   UNL A   1      43.614  31.033  29.002  1.00  0.00     0.049 A 
ATOM     58  H   UNL A   1      43.416  29.056  28.294  1.00  0.00     0.167 HD
ATOM     59  C   UNL A   1      45.803  30.553  27.940  1.00  0.00     0.074 A 
ATOM     60  C   UNL A   1      47.134  30.934  27.512  1.00  0.00     0.031 C 
ATOM     61  C   UNL A   1      44.959  31.371  28.614  1.00  0.00     0.034 A 
BRANCH  48  62
ATOM     62  C   UNL A   1      39.395  28.924  29.724  1.00  0.00     0.023 A 
ATOM     63  C   UNL A   1      39.092  28.515  31.040  1.00  0.00     0.012 A 
ATOM     64  C   UNL A   1      38.402  29.565  28.956  1.00  0.00     0.148 A 
ATOM     65  C   UNL A   1      37.818  28.707  31.570  1.00  0.00     0.002 A 
ATOM     66  C   UNL A   1      37.149  29.798  29.509  1.00  0.00     0.091 A 
ATOM     67  F   UNL A   1      38.701  29.926  27.701  1.00  0.00    -0.205 F 
ATOM     68  C   UNL A   1      36.852  29.360  30.810  1.00  0.00     0.022 A 
BRANCH  66  69
ATOM     69  S   UNL A   1      35.861  30.703  28.645  1.00  0.00     0.127 S 
ATOM     70  O   UNL A   1      35.070  31.225  29.760  1.00  0.00    -0.237 OA
ATOM     71  O   UNL A   1      36.631  31.712  27.919  1.00  0.00    -0.237 OA
ATOM     72  O   UNL A   1      35.180  29.731  27.802  1.00  0.00    -0.744 OA
ENDBRANCH  66  69
ENDBRANCH  48  62
BRANCH  49  73
ATOM     73  C   UNL A   1      48.386  27.380  25.600  1.00  0.00     0.023 A 
ATOM     74  C   UNL A   1      49.496  26.987  26.373  1.00  0.00     0.012 A 
ATOM     75  C   UNL A   1      48.544  27.556  24.212  1.00  0.00     0.148 A 
ATOM     76  C   UNL A   1      50.749  26.815  25.783  1.00  0.00     0.002 A 
ATOM     77  C   UNL A   1      49.781  27.327  23.622  1.00  0.00     0.091 A 
ATOM     78  F   UNL A   1      47.478  27.937  23.496  1.00  0.00    -0.205 F 
ATOM     79  C   UNL A   1      50.889  26.976  24.407  1.00  0.00     0.022 A 
BRANCH  77  80
ATOM     80  S   UNL A   1      50.019  27.380  21.842  1.00  0.00     0.127 S 
ATOM     81  O   UNL A   1      51.417  26.974  21.716  1.00  0.00    -0.237 OA
ATOM     82  O   UNL A   1      49.045  26.392  21.378  1.00  0.00    -0.237 OA
ATOM     83  O   UNL A   1      49.717  28.749  21.447  1.00  0.00    -0.744 OA
ENDBRANCH  77  80
ENDBRANCH  49  73
BRANCH  61  84
ATOM     84  C   UNL A   1      45.458  32.743  28.978  1.00  0.00     0.023 A 
ATOM     85  C   UNL A   1      46.226  32.927  30.144  1.00  0.00     0.012 A 
ATOM     86  C   UNL A   1      45.228  33.835  28.119  1.00  0.00     0.148 A 
ATOM     87  C   UNL A   1      46.729  34.186  30.467  1.00  0.00     0.002 A 
ATOM     88  C   UNL A   1      45.778  35.074  28.419  1.00  0.00     0.091 A 
ATOM     89  F   UNL A   1      44.480  33.640  27.023  1.00  0.00    -0.205 F 
ATOM     90  C   UNL A   1      46.516  35.255  29.600  1.00  0.00     0.022 A 
BRANCH  88  91
ATOM     91  S   UNL A   1      45.644  36.480  27.310  1.00  0.00     0.127 S 
ATOM     92  O   UNL A   1      46.425  36.027  26.160  1.00  0.00    -0.237 OA
ATOM     93  O   UNL A   1      44.201  36.552  27.076  1.00  0.00    -0.237 OA
ATOM     94  O   UNL A   1      46.197  37.617  28.031  1.00  0.00    -0.744 OA
ENDBRANCH  88  91
ENDBRANCH  61  84
ENDBRANCH  35  36
ENDBRANCH  27  30
ENDBRANCH  25  26
ENDBRANCH   1  25
TORSDOF 16
ENDMDL
MODEL 3
REMARK VINA RESULT:     -11.6      1.239      2.571
REMARK SMILES Cc1c([C@H]2[C@H](C(=O)NCCCNC(=O)c3ccc(-c4c5nc(c(-c6cccc(S(=O)(=O)[O-])c6F)c6ccc([nH]6)c(-c6cccc(S(=O)(=O)[O-])c6F)c6nc(c(-c7cccc(S(=O)(=O)[O-])c7F)c7ccc4[nH]7)C=C6)C=C5)cc3)OCC(=O)N2CC(C)C)cnn1C
REMARK SMILES IDX 10 1 9 2 8 3 6 4 7 5 5 7 4 8 82 9 78 10 80 11 79 12 81 13
REMARK SMILES IDX 3 14 1 15 2 16 89 17 87 18 88 19 90 20 83 21 84 22 85 23
REMARK SMILES IDX 86 24 11 25 12 26 13 27 14 29 15 30 16 31 77 32 17 33 76 34
REMARK SMILES IDX 18 35 19 36 20 37 70 38 21 39 75 40 69 41 71 42 22 43 74 44
REMARK SMILES IDX 68 45 67 46 23 48 55 49 35 50 54 51 36 52 39 53 53 54 72 55
REMARK SMILES IDX 37 56 38 57 52 59 73 60 40 61 24 62 25 63 33 64 26 65 28 66
REMARK SMILES IDX 34 67 27 68 29 69 30 70 31 71 32 72 56 73 57 74 65 75 58 76
REMARK SMILES IDX 60 77 66 78 59 79 61 80 62 81 63 82 64 83 41 84 42 85 50 86
REMARK SMILES IDX 43 87 45 88 51 89 44 90 46 91 47 92 48 93 49 94
REMARK H PARENT 8 6 12 28 71 47 39 58
REMARK Flexibility Score: inf
ROOT
ATOM      1  C   UNL A   1      31.551  31.864  26.707  1.00  0.00     0.042 C 
ENDROOT
BRANCH   1   2
ATOM      2  C   UNL A   1      31.878  30.520  26.092  1.00  0.00     0.117 C 
BRANCH   2   3
ATOM      3  N   UNL A   1      33.108  29.968  26.599  1.00  0.00    -0.354 N 
ATOM      4  C   UNL A   1      33.918  29.019  26.067  1.00  0.00     0.251 C 
ATOM      5  O   UNL A   1      34.947  28.758  26.701  1.00  0.00    -0.272 OA
ATOM      6  H   UNL A   1      33.406  30.335  27.463  1.00  0.00     0.163 HD
BRANCH   4   7
ATOM      7  C   UNL A   1      33.593  28.264  24.756  1.00  0.00     0.234 C 
ATOM      8  C   UNL A   1      32.784  26.949  24.987  1.00  0.00     0.157 C 
ATOM      9  N   UNL A   1      31.349  27.049  24.661  1.00  0.00    -0.330 N 
ATOM     10  O   UNL A   1      33.239  29.003  23.597  1.00  0.00    -0.356 OA
ATOM     11  C   UNL A   1      30.898  27.930  23.683  1.00  0.00     0.249 C 
ATOM     12  C   UNL A   1      31.868  29.064  23.304  1.00  0.00     0.261 C 
ATOM     13  O   UNL A   1      29.739  27.936  23.267  1.00  0.00    -0.272 OA
BRANCH   8  14
ATOM     14  C   UNL A   1      33.436  25.846  24.192  1.00  0.00     0.019 A 
ATOM     15  C   UNL A   1      34.436  24.405  26.128  1.00  0.00     0.067 C 
ATOM     16  C   UNL A   1      34.172  24.786  24.713  1.00  0.00     0.040 A 
ATOM     17  N   UNL A   1      34.726  24.154  23.631  1.00  0.00    -0.273 N 
ATOM     18  C   UNL A   1      33.548  25.690  22.792  1.00  0.00     0.141 A 
ATOM     19  N   UNL A   1      34.328  24.663  22.453  1.00  0.00    -0.181 NA
ATOM     20  C   UNL A   1      35.749  23.134  23.647  1.00  0.00     0.174 C 
ENDBRANCH   8  14
BRANCH   9  21
ATOM     21  C   UNL A   1      30.350  26.365  25.500  1.00  0.00     0.123 C 
BRANCH  21  22
ATOM     22  C   UNL A   1      30.010  24.914  25.126  1.00  0.00     0.002 C 
ATOM     23  C   UNL A   1      30.358  24.608  23.670  1.00  0.00     0.009 C 
ATOM     24  C   UNL A   1      30.811  23.954  26.020  1.00  0.00     0.009 C 
ENDBRANCH  21  22
ENDBRANCH   9  21
ENDBRANCH   4   7
ENDBRANCH   2   3
ENDBRANCH   1   2
BRANCH   1  25
ATOM     25  C   UNL A   1      32.750  32.482  27.400  1.00  0.00     0.118 C 
BRANCH  25  26
ATOM     26  N   UNL A   1      32.575  33.916  27.614  1.00  0.00    -0.352 N 
ATOM     27  C   UNL A   1      33.127  34.742  28.562  1.00  0.00     0.251 C 
ATOM     28  H   UNL A   1      31.967  34.360  26.979  1.00  0.00     0.163 HD
ATOM     29  O   UNL A   1      32.675  35.865  28.731  1.00  0.00    -0.269 OA
BRANCH  27  30
ATOM     30  C   UNL A   1      34.261  34.255  29.371  1.00  0.00     0.039 A 
ATOM     31  C   UNL A   1      34.014  33.589  30.572  1.00  0.00     0.014 A 
ATOM     32  C   UNL A   1      35.570  34.448  28.925  1.00  0.00     0.014 A 
ATOM     33  C   UNL A   1      35.084  33.057  31.289  1.00  0.00     0.010 A 
ATOM     34  C   UNL A   1      36.615  33.807  29.568  1.00  0.00     0.010 A 
ATOM     35  C   UNL A   1      36.389  33.128  30.771  1.00  0.00    -0.014 A 
BRANCH  35  36
ATOM     36  C   UNL A   1      37.542  32.517  31.473  1.00  0.00     0.031 A 
ATOM     37  C   UNL A   1      38.282  31.371  30.833  1.00  0.00     0.074 A 
ATOM     38  C   UNL A   1      37.856  32.925  32.717  1.00  0.00     0.049 A 
ATOM     39  N   UNL A   1      39.256  30.647  31.318  1.00  0.00    -0.248 NA
ATOM     40  C   UNL A   1      37.844  30.954  29.488  1.00  0.00     0.031 C 
ATOM     41  C   UNL A   1      37.148  33.962  33.475  1.00  0.00     0.029 A 
ATOM     42  N   UNL A   1      38.834  32.498  33.578  1.00  0.00    -0.354 N 
ATOM     43  C   UNL A   1      39.513  29.670  30.364  1.00  0.00     0.074 A 
ATOM     44  C   UNL A   1      38.563  29.859  29.294  1.00  0.00     0.031 C 
ATOM     45  C   UNL A   1      37.727  34.101  34.678  1.00  0.00     0.029 A 
ATOM     46  C   UNL A   1      38.818  33.140  34.795  1.00  0.00     0.049 A 
ATOM     47  H   UNL A   1      39.487  31.798  33.347  1.00  0.00     0.167 HD
ATOM     48  C   UNL A   1      40.478  28.722  30.362  1.00  0.00     0.034 A 
ATOM     49  C   UNL A   1      39.591  32.966  35.883  1.00  0.00     0.034 A 
ATOM     50  C   UNL A   1      41.457  28.581  31.405  1.00  0.00     0.049 A 
ATOM     51  C   UNL A   1      40.692  31.942  35.831  1.00  0.00     0.074 A 
ATOM     52  C   UNL A   1      42.538  27.721  31.456  1.00  0.00     0.029 A 
ATOM     53  N   UNL A   1      41.468  29.315  32.580  1.00  0.00    -0.354 N 
ATOM     54  N   UNL A   1      41.019  31.132  34.853  1.00  0.00    -0.248 NA
ATOM     55  C   UNL A   1      41.553  31.832  37.017  1.00  0.00     0.031 C 
ATOM     56  C   UNL A   1      43.188  27.917  32.678  1.00  0.00     0.029 A 
ATOM     57  C   UNL A   1      42.534  28.922  33.369  1.00  0.00     0.049 A 
ATOM     58  H   UNL A   1      40.815  30.013  32.817  1.00  0.00     0.167 HD
ATOM     59  C   UNL A   1      42.147  30.447  35.288  1.00  0.00     0.074 A 
ATOM     60  C   UNL A   1      42.457  30.952  36.610  1.00  0.00     0.031 C 
ATOM     61  C   UNL A   1      42.855  29.477  34.659  1.00  0.00     0.034 A 
BRANCH  48  62
ATOM     62  C   UNL A   1      40.557  27.800  29.174  1.00  0.00     0.023 A 
ATOM     63  C   UNL A   1      39.677  26.702  29.080  1.00  0.00     0.012 A 
ATOM     64  C   UNL A   1      41.459  28.054  28.122  1.00  0.00     0.148 A 
ATOM     65  C   UNL A   1      39.715  25.852  27.976  1.00  0.00     0.002 A 
ATOM     66  C   UNL A   1      41.456  27.232  27.001  1.00  0.00     0.091 A 
ATOM     67  F   UNL A   1      42.303  29.088  28.240  1.00  0.00    -0.205 F 
ATOM     68  C   UNL A   1      40.595  26.125  26.932  1.00  0.00     0.022 A 
BRANCH  66  69
ATOM     69  S   UNL A   1      42.491  27.545  25.567  1.00  0.00     0.127 S 
ATOM     70  O   UNL A   1      43.825  27.570  26.166  1.00  0.00    -0.237 OA
ATOM     71  O   UNL A   1      42.219  26.374  24.734  1.00  0.00    -0.237 OA
ATOM     72  O   UNL A   1      42.036  28.810  25.009  1.00  0.00    -0.744 OA
ENDBRANCH  66  69
ENDBRANCH  48  62
BRANCH  49  73
ATOM     73  C   UNL A   1      39.390  33.817  37.090  1.00  0.00     0.023 A 
ATOM     74  C   UNL A   1      39.831  35.155  37.076  1.00  0.00     0.012 A 
ATOM     75  C   UNL A   1      38.751  33.319  38.241  1.00  0.00     0.148 A 
ATOM     76  C   UNL A   1      39.679  35.968  38.200  1.00  0.00     0.002 A 
ATOM     77  C   UNL A   1      38.551  34.150  39.336  1.00  0.00     0.091 A 
ATOM     78  F   UNL A   1      38.345  32.042  38.238  1.00  0.00    -0.205 F 
ATOM     79  C   UNL A   1      39.030  35.468  39.326  1.00  0.00     0.022 A 
BRANCH  77  80
ATOM     80  S   UNL A   1      37.608  33.630  40.775  1.00  0.00     0.127 S 
ATOM     81  O   UNL A   1      38.507  32.653  41.384  1.00  0.00    -0.237 OA
ATOM     82  O   UNL A   1      37.468  34.885  41.514  1.00  0.00    -0.237 OA
ATOM     83  O   UNL A   1      36.355  33.101  40.253  1.00  0.00    -0.744 OA
ENDBRANCH  77  80
ENDBRANCH  49  73
BRANCH  61  84
ATOM     84  C   UNL A   1      44.066  28.928  35.364  1.00  0.00     0.023 A 
ATOM     85  C   UNL A   1      45.322  29.541  35.190  1.00  0.00     0.012 A 
ATOM     86  C   UNL A   1      43.938  27.849  36.261  1.00  0.00     0.148 A 
ATOM     87  C   UNL A   1      46.440  29.066  35.873  1.00  0.00     0.002 A 
ATOM     88  C   UNL A   1      45.045  27.417  36.979  1.00  0.00     0.091 A 
ATOM     89  F   UNL A   1      42.736  27.271  36.399  1.00  0.00    -0.205 F 
ATOM     90  C   UNL A   1      46.300  28.014  36.775  1.00  0.00     0.022 A 
BRANCH  88  91
ATOM     91  S   UNL A   1      44.937  26.140  38.237  1.00  0.00     0.127 S 
ATOM     92  O   UNL A   1      44.314  25.045  37.496  1.00  0.00    -0.237 OA
ATOM     93  O   UNL A   1      46.343  25.924  38.579  1.00  0.00    -0.237 OA
ATOM     94  O   UNL A   1      44.133  26.701  39.313  1.00  0.00    -0.744 OA
ENDBRANCH  88  91
ENDBRANCH  61  84
ENDBRANCH  35  36
ENDBRANCH  27  30
ENDBRANCH  25  26
ENDBRANCH   1  25
TORSDOF 16
ENDMDL
