MODEL 1
REMARK VINA RESULT:     -12.4      0.000      0.000
REMARK SMILES N#C/C(=C\c1ccc(-c2cc(C(F)(F)F)ccc2Cl)o1)C(=O)NCCCNC(=O)c1ccc(-c2c3nc(c(-c4cccc(S(=O)(=O)[O-])c4F)c4ccc([nH]4)c(-c4cccc(S(=O)(=O)[O-])c4F)c4nc(c(-c5cccc(S(=O)(=O)[O-])c5F)c5ccc2[nH]5)C=C4)C=C3)cc1
REMARK SMILES IDX 25 1 24 2 23 3 21 4 22 5 3 7 4 8 2 9 1 10 5 11 6 12 20 13
REMARK SMILES IDX 7 14 8 15 9 16 10 17 18 18 11 19 17 20 19 21 16 22 12 23
REMARK SMILES IDX 13 24 14 25 15 26 26 27 27 28 28 29 29 31 30 32 31 33 92 34
REMARK SMILES IDX 32 35 91 36 33 37 34 38 35 39 85 40 36 41 90 42 84 43 86 44
REMARK SMILES IDX 37 45 89 46 83 47 82 48 38 50 70 51 50 52 69 53 51 54 54 55
REMARK SMILES IDX 68 56 87 57 52 58 53 59 67 61 88 62 55 63 39 64 40 65 48 66
REMARK SMILES IDX 41 67 43 68 49 69 42 70 44 71 45 72 46 73 47 74 71 75 72 76
REMARK SMILES IDX 80 77 73 78 75 79 81 80 74 81 76 82 77 83 78 84 79 85 56 86
REMARK SMILES IDX 57 87 65 88 58 89 60 90 66 91 59 92 61 93 62 94 63 95 64 96
REMARK H PARENT 23 6 27 30 86 49 54 60
REMARK Flexibility Score: inf
ROOT
ATOM      1  C   UNL A   1      35.704  21.591  25.901  1.00  0.00     0.042 C 
ENDROOT
BRANCH   1   2
ATOM      2  C   UNL A   1      35.427  20.447  24.922  1.00  0.00     0.118 C 
BRANCH   2   3
ATOM      3  N   UNL A   1      34.250  19.682  25.295  1.00  0.00    -0.351 N 
ATOM      4  C   UNL A   1      32.922  19.980  25.337  1.00  0.00     0.262 C 
ATOM      5  O   UNL A   1      32.153  19.060  25.622  1.00  0.00    -0.268 OA
ATOM      6  H   UNL A   1      34.454  18.761  25.575  1.00  0.00     0.163 HD
BRANCH   4   7
ATOM      7  C   UNL A   1      32.371  21.326  25.040  1.00  0.00     0.120 C 
ATOM      8  C   UNL A   1      32.281  21.944  23.835  1.00  0.00     0.072 C 
BRANCH   7   9
ATOM      9  C   UNL A   1      31.947  22.186  26.220  1.00  0.00     0.105 C 
ATOM     10  N   UNL A   1      31.596  22.899  27.198  1.00  0.00    -0.192 NA
ENDBRANCH   7   9
BRANCH   8  11
ATOM     11  C   UNL A   1      31.766  23.277  23.660  1.00  0.00     0.129 A 
ATOM     12  C   UNL A   1      30.550  23.695  23.124  1.00  0.00     0.051 A 
ATOM     13  O   UNL A   1      32.448  24.419  24.057  1.00  0.00    -0.457 OA
ATOM     14  C   UNL A   1      30.513  25.104  23.151  1.00  0.00     0.051 A 
ATOM     15  C   UNL A   1      31.678  25.509  23.760  1.00  0.00     0.136 A 
BRANCH  15  16
ATOM     16  C   UNL A   1      32.179  26.827  24.139  1.00  0.00     0.036 A 
ATOM     17  C   UNL A   1      31.818  27.385  25.381  1.00  0.00     0.026 A 
ATOM     18  C   UNL A   1      33.098  27.529  23.336  1.00  0.00     0.052 A 
ATOM     19  C   UNL A   1      32.378  28.600  25.829  1.00  0.00     0.056 A 
ATOM     20  C   UNL A   1      33.645  28.742  23.767  1.00  0.00     0.022 A 
ATOM     21  Cl  UNL A   1      33.610  26.956  21.784  1.00  0.00    -0.084 Cl
ATOM     22  C   UNL A   1      33.293  29.272  25.007  1.00  0.00     0.014 A 
BRANCH  19  23
ATOM     23  C   UNL A   1      32.011  29.162  27.184  1.00  0.00     0.416 C 
ATOM     24  F   UNL A   1      33.087  29.314  28.000  1.00  0.00    -0.166 F 
ATOM     25  F   UNL A   1      31.424  30.388  27.098  1.00  0.00    -0.166 F 
ATOM     26  F   UNL A   1      31.128  28.382  27.872  1.00  0.00    -0.166 F 
ENDBRANCH  19  23
ENDBRANCH  15  16
ENDBRANCH   8  11
ENDBRANCH   4   7
ENDBRANCH   2   3
ENDBRANCH   1   2
BRANCH   1  27
ATOM     27  C   UNL A   1      37.096  22.208  25.743  1.00  0.00     0.118 C 
BRANCH  27  28
ATOM     28  N   UNL A   1      38.143  21.268  26.118  1.00  0.00    -0.352 N 
ATOM     29  C   UNL A   1      39.454  21.470  26.455  1.00  0.00     0.251 C 
ATOM     30  H   UNL A   1      37.859  20.325  26.131  1.00  0.00     0.163 HD
ATOM     31  O   UNL A   1      40.207  20.498  26.479  1.00  0.00    -0.269 OA
BRANCH  29  32
ATOM     32  C   UNL A   1      39.973  22.813  26.798  1.00  0.00     0.039 A 
ATOM     33  C   UNL A   1      40.869  22.921  27.866  1.00  0.00     0.014 A 
ATOM     34  C   UNL A   1      39.523  23.967  26.150  1.00  0.00     0.014 A 
ATOM     35  C   UNL A   1      41.332  24.176  28.265  1.00  0.00     0.010 A 
ATOM     36  C   UNL A   1      40.039  25.215  26.505  1.00  0.00     0.010 A 
ATOM     37  C   UNL A   1      40.937  25.334  27.574  1.00  0.00    -0.014 A 
BRANCH  37  38
ATOM     38  C   UNL A   1      41.480  26.661  27.960  1.00  0.00     0.031 A 
ATOM     39  C   UNL A   1      42.906  27.034  27.653  1.00  0.00     0.074 A 
ATOM     40  C   UNL A   1      40.687  27.519  28.633  1.00  0.00     0.049 A 
ATOM     41  N   UNL A   1      43.535  28.153  27.905  1.00  0.00    -0.248 NA
ATOM     42  C   UNL A   1      43.741  26.016  26.995  1.00  0.00     0.031 C 
ATOM     43  C   UNL A   1      39.316  27.237  29.067  1.00  0.00     0.029 A 
ATOM     44  N   UNL A   1      40.921  28.793  29.085  1.00  0.00    -0.354 N 
ATOM     45  C   UNL A   1      44.839  27.971  27.457  1.00  0.00     0.074 A 
ATOM     46  C   UNL A   1      44.923  26.617  26.952  1.00  0.00     0.031 C 
ATOM     47  C   UNL A   1      38.829  28.307  29.714  1.00  0.00     0.029 A 
ATOM     48  C   UNL A   1      39.855  29.343  29.759  1.00  0.00     0.049 A 
ATOM     49  H   UNL A   1      41.771  29.268  28.940  1.00  0.00     0.167 HD
ATOM     50  C   UNL A   1      45.862  28.858  27.434  1.00  0.00     0.034 A 
ATOM     51  C   UNL A   1      39.720  30.548  30.346  1.00  0.00     0.034 A 
ATOM     52  C   UNL A   1      45.763  30.214  27.904  1.00  0.00     0.049 A 
ATOM     53  C   UNL A   1      40.855  31.532  30.254  1.00  0.00     0.074 A 
ATOM     54  C   UNL A   1      46.724  31.211  27.868  1.00  0.00     0.029 A 
ATOM     55  N   UNL A   1      44.637  30.767  28.494  1.00  0.00    -0.354 N 
ATOM     56  N   UNL A   1      42.026  31.389  29.683  1.00  0.00    -0.248 NA
ATOM     57  C   UNL A   1      40.633  32.857  30.846  1.00  0.00     0.031 C 
ATOM     58  C   UNL A   1      46.181  32.364  28.446  1.00  0.00     0.029 A 
ATOM     59  C   UNL A   1      44.877  32.091  28.825  1.00  0.00     0.049 A 
ATOM     60  H   UNL A   1      43.791  30.290  28.655  1.00  0.00     0.167 HD
ATOM     61  C   UNL A   1      42.669  32.613  29.823  1.00  0.00     0.074 A 
ATOM     62  C   UNL A   1      41.740  33.496  30.498  1.00  0.00     0.031 C 
ATOM     63  C   UNL A   1      43.923  32.970  29.450  1.00  0.00     0.034 A 
BRANCH  50  64
ATOM     64  C   UNL A   1      47.162  28.419  26.809  1.00  0.00     0.023 A 
ATOM     65  C   UNL A   1      48.263  28.133  27.642  1.00  0.00     0.012 A 
ATOM     66  C   UNL A   1      47.273  28.206  25.420  1.00  0.00     0.148 A 
ATOM     67  C   UNL A   1      49.461  27.668  27.105  1.00  0.00     0.002 A 
ATOM     68  C   UNL A   1      48.459  27.701  24.895  1.00  0.00     0.091 A 
ATOM     69  F   UNL A   1      46.221  28.496  24.642  1.00  0.00    -0.205 F 
ATOM     70  C   UNL A   1      49.555  27.440  25.735  1.00  0.00     0.022 A 
BRANCH  68  71
ATOM     71  S   UNL A   1      48.667  27.303  23.156  1.00  0.00     0.127 S 
ATOM     72  O   UNL A   1      48.278  25.895  23.127  1.00  0.00    -0.237 OA
ATOM     73  O   UNL A   1      47.717  28.213  22.518  1.00  0.00    -0.237 OA
ATOM     74  O   UNL A   1      50.067  27.567  22.846  1.00  0.00    -0.744 OA
ENDBRANCH  68  71
ENDBRANCH  50  64
BRANCH  51  75
ATOM     75  C   UNL A   1      38.440  30.917  31.013  1.00  0.00     0.023 A 
ATOM     76  C   UNL A   1      38.267  30.649  32.384  1.00  0.00     0.012 A 
ATOM     77  C   UNL A   1      37.398  31.542  30.300  1.00  0.00     0.148 A 
ATOM     78  C   UNL A   1      37.065  30.955  33.024  1.00  0.00     0.002 A 
ATOM     79  C   UNL A   1      36.226  31.899  30.957  1.00  0.00     0.091 A 
ATOM     80  F   UNL A   1      37.572  31.777  28.992  1.00  0.00    -0.205 F 
ATOM     81  C   UNL A   1      36.048  31.588  32.313  1.00  0.00     0.022 A 
BRANCH  79  82
ATOM     82  S   UNL A   1      34.935  32.846  30.143  1.00  0.00     0.127 S 
ATOM     83  O   UNL A   1      34.029  33.134  31.250  1.00  0.00    -0.237 OA
ATOM     84  O   UNL A   1      35.673  34.000  29.632  1.00  0.00    -0.237 OA
ATOM     85  O   UNL A   1      34.416  31.966  29.101  1.00  0.00    -0.744 OA
ENDBRANCH  79  82
ENDBRANCH  51  75
BRANCH  63  86
ATOM     86  C   UNL A   1      44.355  34.382  29.748  1.00  0.00     0.023 A 
ATOM     87  C   UNL A   1      44.965  34.678  30.983  1.00  0.00     0.012 A 
ATOM     88  C   UNL A   1      44.190  35.404  28.795  1.00  0.00     0.148 A 
ATOM     89  C   UNL A   1      45.365  35.980  31.282  1.00  0.00     0.002 A 
ATOM     90  C   UNL A   1      44.637  36.690  29.080  1.00  0.00     0.091 A 
ATOM     91  F   UNL A   1      43.589  35.110  27.633  1.00  0.00    -0.205 F 
ATOM     92  C   UNL A   1      45.211  36.982  30.329  1.00  0.00     0.022 A 
BRANCH  90  93
ATOM     93  S   UNL A   1      44.559  38.019  27.875  1.00  0.00     0.127 S 
ATOM     94  O   UNL A   1      43.126  38.090  27.600  1.00  0.00    -0.237 OA
ATOM     95  O   UNL A   1      45.093  39.156  28.628  1.00  0.00    -0.237 OA
ATOM     96  O   UNL A   1      45.394  37.593  26.760  1.00  0.00    -0.744 OA
ENDBRANCH  90  93
ENDBRANCH  63  86
ENDBRANCH  37  38
ENDBRANCH  29  32
ENDBRANCH  27  28
ENDBRANCH   1  27
TORSDOF 17
ENDMDL
MODEL 2
REMARK VINA RESULT:     -12.1      1.729      7.704
REMARK SMILES N#C/C(=C\c1ccc(-c2cc(C(F)(F)F)ccc2Cl)o1)C(=O)NCCCNC(=O)c1ccc(-c2c3nc(c(-c4cccc(S(=O)(=O)[O-])c4F)c4ccc([nH]4)c(-c4cccc(S(=O)(=O)[O-])c4F)c4nc(c(-c5cccc(S(=O)(=O)[O-])c5F)c5ccc2[nH]5)C=C4)C=C3)cc1
REMARK SMILES IDX 25 1 24 2 23 3 21 4 22 5 3 7 4 8 2 9 1 10 5 11 6 12 20 13
REMARK SMILES IDX 7 14 8 15 9 16 10 17 18 18 11 19 17 20 19 21 16 22 12 23
REMARK SMILES IDX 13 24 14 25 15 26 26 27 27 28 28 29 29 31 30 32 31 33 92 34
REMARK SMILES IDX 32 35 91 36 33 37 34 38 35 39 85 40 36 41 90 42 84 43 86 44
REMARK SMILES IDX 37 45 89 46 83 47 82 48 38 50 70 51 50 52 69 53 51 54 54 55
REMARK SMILES IDX 68 56 87 57 52 58 53 59 67 61 88 62 55 63 39 64 40 65 48 66
REMARK SMILES IDX 41 67 43 68 49 69 42 70 44 71 45 72 46 73 47 74 71 75 72 76
REMARK SMILES IDX 80 77 73 78 75 79 81 80 74 81 76 82 77 83 78 84 79 85 56 86
REMARK SMILES IDX 57 87 65 88 58 89 60 90 66 91 59 92 61 93 62 94 63 95 64 96
REMARK H PARENT 23 6 27 30 86 49 54 60
REMARK Flexibility Score: inf
ROOT
ATOM      1  C   UNL A   1      37.613  19.362  25.004  1.00  0.00     0.042 C 
ENDROOT
BRANCH   1   2
ATOM      2  C   UNL A   1      36.257  20.074  25.000  1.00  0.00     0.118 C 
BRANCH   2   3
ATOM      3  N   UNL A   1      35.148  19.137  25.000  1.00  0.00    -0.351 N 
ATOM      4  C   UNL A   1      33.799  19.292  24.900  1.00  0.00     0.262 C 
ATOM      5  O   UNL A   1      33.121  18.264  24.846  1.00  0.00    -0.268 OA
ATOM      6  H   UNL A   1      35.427  18.198  25.093  1.00  0.00     0.163 HD
BRANCH   4   7
ATOM      7  C   UNL A   1      33.125  20.613  24.833  1.00  0.00     0.120 C 
ATOM      8  C   UNL A   1      32.886  21.481  25.849  1.00  0.00     0.072 C 
BRANCH   7   9
ATOM      9  C   UNL A   1      32.523  21.027  23.500  1.00  0.00     0.105 C 
ATOM     10  N   UNL A   1      32.024  21.370  22.394  1.00  0.00    -0.192 NA
ENDBRANCH   7   9
BRANCH   8  11
ATOM     11  C   UNL A   1      32.182  22.726  25.685  1.00  0.00     0.129 A 
ATOM     12  C   UNL A   1      30.855  23.040  25.973  1.00  0.00     0.051 A 
ATOM     13  O   UNL A   1      32.778  23.885  25.207  1.00  0.00    -0.457 OA
ATOM     14  C   UNL A   1      30.630  24.387  25.622  1.00  0.00     0.051 A 
ATOM     15  C   UNL A   1      31.839  24.879  25.190  1.00  0.00     0.136 A 
BRANCH  15  16
ATOM     16  C   UNL A   1      32.260  26.212  24.768  1.00  0.00     0.036 A 
ATOM     17  C   UNL A   1      31.871  27.341  25.514  1.00  0.00     0.026 A 
ATOM     18  C   UNL A   1      33.131  26.403  23.678  1.00  0.00     0.052 A 
ATOM     19  C   UNL A   1      32.357  28.629  25.205  1.00  0.00     0.056 A 
ATOM     20  C   UNL A   1      33.604  27.680  23.355  1.00  0.00     0.022 A 
ATOM     21  Cl  UNL A   1      33.669  25.099  22.674  1.00  0.00    -0.084 Cl
ATOM     22  C   UNL A   1      33.226  28.784  24.115  1.00  0.00     0.014 A 
BRANCH  19  23
ATOM     23  C   UNL A   1      31.963  29.822  26.044  1.00  0.00     0.416 C 
ATOM     24  F   UNL A   1      33.015  30.634  26.332  1.00  0.00    -0.166 F 
ATOM     25  F   UNL A   1      31.035  30.608  25.431  1.00  0.00    -0.166 F 
ATOM     26  F   UNL A   1      31.415  29.481  27.246  1.00  0.00    -0.166 F 
ENDBRANCH  19  23
ENDBRANCH  15  16
ENDBRANCH   8  11
ENDBRANCH   4   7
ENDBRANCH   2   3
ENDBRANCH   1   2
BRANCH   1  27
ATOM     27  C   UNL A   1      38.725  20.168  25.677  1.00  0.00     0.118 C 
BRANCH  27  28
ATOM     28  N   UNL A   1      39.829  19.315  26.091  1.00  0.00    -0.352 N 
ATOM     29  C   UNL A   1      41.129  19.613  26.403  1.00  0.00     0.251 C 
ATOM     30  H   UNL A   1      39.602  18.359  26.160  1.00  0.00     0.163 HD
ATOM     31  O   UNL A   1      41.938  18.690  26.473  1.00  0.00    -0.269 OA
BRANCH  29  32
ATOM     32  C   UNL A   1      41.569  21.001  26.666  1.00  0.00     0.039 A 
ATOM     33  C   UNL A   1      41.574  21.904  25.599  1.00  0.00     0.014 A 
ATOM     34  C   UNL A   1      42.061  21.397  27.913  1.00  0.00     0.014 A 
ATOM     35  C   UNL A   1      42.043  23.205  25.787  1.00  0.00     0.010 A 
ATOM     36  C   UNL A   1      42.466  22.718  28.117  1.00  0.00     0.010 A 
ATOM     37  C   UNL A   1      42.474  23.631  27.055  1.00  0.00    -0.014 A 
BRANCH  37  38
ATOM     38  C   UNL A   1      42.914  25.033  27.267  1.00  0.00     0.031 A 
ATOM     39  C   UNL A   1      42.009  26.036  27.932  1.00  0.00     0.074 A 
ATOM     40  C   UNL A   1      44.126  25.411  26.815  1.00  0.00     0.049 A 
ATOM     41  N   UNL A   1      42.240  27.294  28.209  1.00  0.00    -0.248 NA
ATOM     42  C   UNL A   1      40.667  25.577  28.321  1.00  0.00     0.031 C 
ATOM     43  C   UNL A   1      45.056  24.554  26.074  1.00  0.00     0.029 A 
ATOM     44  N   UNL A   1      44.779  26.616  26.894  1.00  0.00    -0.354 N 
ATOM     45  C   UNL A   1      41.072  27.782  28.785  1.00  0.00     0.074 A 
ATOM     46  C   UNL A   1      40.118  26.694  28.782  1.00  0.00     0.031 C 
ATOM     47  C   UNL A   1      46.160  25.256  25.775  1.00  0.00     0.029 A 
ATOM     48  C   UNL A   1      46.012  26.615  26.282  1.00  0.00     0.049 A 
ATOM     49  H   UNL A   1      44.401  27.405  27.345  1.00  0.00     0.167 HD
ATOM     50  C   UNL A   1      40.827  29.009  29.301  1.00  0.00     0.034 A 
ATOM     51  C   UNL A   1      46.921  27.601  26.148  1.00  0.00     0.034 A 
ATOM     52  C   UNL A   1      41.792  30.077  29.334  1.00  0.00     0.049 A 
ATOM     53  C   UNL A   1      46.642  28.937  26.782  1.00  0.00     0.074 A 
ATOM     54  C   UNL A   1      41.662  31.339  29.890  1.00  0.00     0.029 A 
ATOM     55  N   UNL A   1      43.065  30.010  28.791  1.00  0.00    -0.354 N 
ATOM     56  N   UNL A   1      45.591  29.324  27.462  1.00  0.00    -0.248 NA
ATOM     57  C   UNL A   1      47.695  29.955  26.670  1.00  0.00     0.031 C 
ATOM     58  C   UNL A   1      42.855  32.037  29.674  1.00  0.00     0.029 A 
ATOM     59  C   UNL A   1      43.733  31.205  29.000  1.00  0.00     0.049 A 
ATOM     60  H   UNL A   1      43.440  29.228  28.325  1.00  0.00     0.167 HD
ATOM     61  C   UNL A   1      45.866  30.621  27.880  1.00  0.00     0.074 A 
ATOM     62  C   UNL A   1      47.200  30.935  27.411  1.00  0.00     0.031 C 
ATOM     63  C   UNL A   1      45.079  31.483  28.570  1.00  0.00     0.034 A 
BRANCH  50  64
ATOM     64  C   UNL A   1      39.486  29.248  29.948  1.00  0.00     0.023 A 
ATOM     65  C   UNL A   1      39.258  28.767  31.254  1.00  0.00     0.012 A 
ATOM     66  C   UNL A   1      38.489  30.013  29.310  1.00  0.00     0.148 A 
ATOM     67  C   UNL A   1      38.053  29.020  31.906  1.00  0.00     0.002 A 
ATOM     68  C   UNL A   1      37.305  30.296  29.984  1.00  0.00     0.091 A 
ATOM     69  F   UNL A   1      38.717  30.449  28.063  1.00  0.00    -0.205 F 
ATOM     70  C   UNL A   1      37.083  29.794  31.277  1.00  0.00     0.022 A 
BRANCH  68  71
ATOM     71  S   UNL A   1      36.017  31.343  29.296  1.00  0.00     0.127 S 
ATOM     72  O   UNL A   1      35.432  30.466  28.286  1.00  0.00    -0.237 OA
ATOM     73  O   UNL A   1      35.167  31.587  30.461  1.00  0.00    -0.237 OA
ATOM     74  O   UNL A   1      36.693  32.525  28.776  1.00  0.00    -0.744 OA
ENDBRANCH  68  71
ENDBRANCH  50  64
BRANCH  51  75
ATOM     75  C   UNL A   1      48.207  27.341  25.442  1.00  0.00     0.023 A 
ATOM     76  C   UNL A   1      49.327  26.906  26.175  1.00  0.00     0.012 A 
ATOM     77  C   UNL A   1      48.324  27.512  24.049  1.00  0.00     0.148 A 
ATOM     78  C   UNL A   1      50.552  26.687  25.543  1.00  0.00     0.002 A 
ATOM     79  C   UNL A   1      49.531  27.235  23.417  1.00  0.00     0.091 A 
ATOM     80  F   UNL A   1      47.253  27.942  23.367  1.00  0.00    -0.205 F 
ATOM     81  C   UNL A   1      50.652  26.843  24.163  1.00  0.00     0.022 A 
BRANCH  79  82
ATOM     82  S   UNL A   1      49.693  27.273  21.628  1.00  0.00     0.127 S 
ATOM     83  O   UNL A   1      51.060  26.800  21.439  1.00  0.00    -0.237 OA
ATOM     84  O   UNL A   1      48.651  26.338  21.204  1.00  0.00    -0.237 OA
ATOM     85  O   UNL A   1      49.434  28.659  21.250  1.00  0.00    -0.744 OA
ENDBRANCH  79  82
ENDBRANCH  51  75
BRANCH  63  86
ATOM     86  C   UNL A   1      45.650  32.843  28.874  1.00  0.00     0.023 A 
ATOM     87  C   UNL A   1      46.393  33.038  30.056  1.00  0.00     0.012 A 
ATOM     88  C   UNL A   1      45.485  33.915  27.976  1.00  0.00     0.148 A 
ATOM     89  C   UNL A   1      46.925  34.291  30.361  1.00  0.00     0.002 A 
ATOM     90  C   UNL A   1      46.060  35.148  28.263  1.00  0.00     0.091 A 
ATOM     91  F   UNL A   1      44.758  33.718  26.867  1.00  0.00    -0.205 F 
ATOM     92  C   UNL A   1      46.767  35.342  29.462  1.00  0.00     0.022 A 
BRANCH  90  93
ATOM     93  S   UNL A   1      45.983  36.529  27.117  1.00  0.00     0.127 S 
ATOM     94  O   UNL A   1      46.809  37.526  27.795  1.00  0.00    -0.237 OA
ATOM     95  O   UNL A   1      46.578  35.964  25.906  1.00  0.00    -0.237 OA
ATOM     96  O   UNL A   1      44.570  36.862  26.992  1.00  0.00    -0.744 OA
ENDBRANCH  90  93
ENDBRANCH  63  86
ENDBRANCH  37  38
ENDBRANCH  29  32
ENDBRANCH  27  28
ENDBRANCH   1  27
TORSDOF 17
ENDMDL
MODEL 3
REMARK VINA RESULT:     -11.9      1.809      2.296
REMARK SMILES N#C/C(=C\c1ccc(-c2cc(C(F)(F)F)ccc2Cl)o1)C(=O)NCCCNC(=O)c1ccc(-c2c3nc(c(-c4cccc(S(=O)(=O)[O-])c4F)c4ccc([nH]4)c(-c4cccc(S(=O)(=O)[O-])c4F)c4nc(c(-c5cccc(S(=O)(=O)[O-])c5F)c5ccc2[nH]5)C=C4)C=C3)cc1
REMARK SMILES IDX 25 1 24 2 23 3 21 4 22 5 3 7 4 8 2 9 1 10 5 11 6 12 20 13
REMARK SMILES IDX 7 14 8 15 9 16 10 17 18 18 11 19 17 20 19 21 16 22 12 23
REMARK SMILES IDX 13 24 14 25 15 26 26 27 27 28 28 29 29 31 30 32 31 33 92 34
REMARK SMILES IDX 32 35 91 36 33 37 34 38 35 39 85 40 36 41 90 42 84 43 86 44
REMARK SMILES IDX 37 45 89 46 83 47 82 48 38 50 70 51 50 52 69 53 51 54 54 55
REMARK SMILES IDX 68 56 87 57 52 58 53 59 67 61 88 62 55 63 39 64 40 65 48 66
REMARK SMILES IDX 41 67 43 68 49 69 42 70 44 71 45 72 46 73 47 74 71 75 72 76
REMARK SMILES IDX 80 77 73 78 75 79 81 80 74 81 76 82 77 83 78 84 79 85 56 86
REMARK SMILES IDX 57 87 65 88 58 89 60 90 66 91 59 92 61 93 62 94 63 95 64 96
REMARK H PARENT 23 6 27 30 86 49 54 60
REMARK Flexibility Score: inf
ROOT
ATOM      1  C   UNL A   1      37.719  19.833  24.901  1.00  0.00     0.042 C 
ENDROOT
BRANCH   1   2
ATOM      2  C   UNL A   1      36.306  20.412  25.006  1.00  0.00     0.118 C 
BRANCH   2   3
ATOM      3  N   UNL A   1      35.287  19.378  24.973  1.00  0.00    -0.351 N 
ATOM      4  C   UNL A   1      33.928  19.413  24.887  1.00  0.00     0.262 C 
ATOM      5  O   UNL A   1      33.348  18.330  24.792  1.00  0.00    -0.268 OA
ATOM      6  H   UNL A   1      35.652  18.466  25.023  1.00  0.00     0.163 HD
BRANCH   4   7
ATOM      7  C   UNL A   1      33.136  20.669  24.881  1.00  0.00     0.120 C 
ATOM      8  C   UNL A   1      32.847  21.478  25.931  1.00  0.00     0.072 C 
BRANCH   7   9
ATOM      9  C   UNL A   1      32.463  21.067  23.578  1.00  0.00     0.105 C 
ATOM     10  N   UNL A   1      31.904  21.397  22.496  1.00  0.00    -0.192 NA
ENDBRANCH   7   9
BRANCH   8  11
ATOM     11  C   UNL A   1      32.028  22.658  25.826  1.00  0.00     0.129 A 
ATOM     12  C   UNL A   1      30.723  22.874  26.262  1.00  0.00     0.051 A 
ATOM     13  O   UNL A   1      32.467  23.846  25.258  1.00  0.00    -0.457 OA
ATOM     14  C   UNL A   1      30.349  24.188  25.913  1.00  0.00     0.051 A 
ATOM     15  C   UNL A   1      31.455  24.762  25.331  1.00  0.00     0.136 A 
BRANCH  15  16
ATOM     16  C   UNL A   1      31.713  26.111  24.836  1.00  0.00     0.036 A 
ATOM     17  C   UNL A   1      30.669  26.859  24.259  1.00  0.00     0.026 A 
ATOM     18  C   UNL A   1      32.965  26.733  25.001  1.00  0.00     0.052 A 
ATOM     19  C   UNL A   1      30.854  28.206  23.879  1.00  0.00     0.056 A 
ATOM     20  C   UNL A   1      33.160  28.063  24.612  1.00  0.00     0.022 A 
ATOM     21  Cl  UNL A   1      34.331  25.916  25.683  1.00  0.00    -0.084 Cl
ATOM     22  C   UNL A   1      32.112  28.797  24.061  1.00  0.00     0.014 A 
BRANCH  19  23
ATOM     23  C   UNL A   1      29.709  29.006  23.302  1.00  0.00     0.416 C 
ATOM     24  F   UNL A   1      29.621  30.256  23.830  1.00  0.00    -0.166 F 
ATOM     25  F   UNL A   1      29.815  29.171  21.954  1.00  0.00    -0.166 F 
ATOM     26  F   UNL A   1      28.489  28.430  23.504  1.00  0.00    -0.166 F 
ENDBRANCH  19  23
ENDBRANCH  15  16
ENDBRANCH   8  11
ENDBRANCH   4   7
ENDBRANCH   2   3
ENDBRANCH   1   2
BRANCH   1  27
ATOM     27  C   UNL A   1      38.754  20.589  25.737  1.00  0.00     0.118 C 
BRANCH  27  28
ATOM     28  N   UNL A   1      39.922  19.765  26.014  1.00  0.00    -0.352 N 
ATOM     29  C   UNL A   1      41.210  20.108  26.331  1.00  0.00     0.251 C 
ATOM     30  H   UNL A   1      39.758  18.796  25.967  1.00  0.00     0.163 HD
ATOM     31  O   UNL A   1      42.077  19.240  26.264  1.00  0.00    -0.269 OA
BRANCH  29  32
ATOM     32  C   UNL A   1      41.569  21.479  26.756  1.00  0.00     0.039 A 
ATOM     33  C   UNL A   1      41.788  22.441  25.765  1.00  0.00     0.014 A 
ATOM     34  C   UNL A   1      41.785  21.804  28.098  1.00  0.00     0.014 A 
ATOM     35  C   UNL A   1      42.193  23.729  26.119  1.00  0.00     0.010 A 
ATOM     36  C   UNL A   1      42.124  23.111  28.456  1.00  0.00     0.010 A 
ATOM     37  C   UNL A   1      42.344  24.082  27.470  1.00  0.00    -0.014 A 
BRANCH  37  38
ATOM     38  C   UNL A   1      42.714  25.470  27.847  1.00  0.00     0.031 A 
ATOM     39  C   UNL A   1      44.140  25.944  27.751  1.00  0.00     0.074 A 
ATOM     40  C   UNL A   1      41.758  26.294  28.320  1.00  0.00     0.049 A 
ATOM     41  N   UNL A   1      44.633  27.126  28.024  1.00  0.00    -0.248 NA
ATOM     42  C   UNL A   1      45.146  24.965  27.311  1.00  0.00     0.031 C 
ATOM     43  C   UNL A   1      40.358  25.922  28.543  1.00  0.00     0.029 A 
ATOM     44  N   UNL A   1      41.817  27.607  28.714  1.00  0.00    -0.354 N 
ATOM     45  C   UNL A   1      46.003  27.029  27.809  1.00  0.00     0.074 A 
ATOM     46  C   UNL A   1      46.271  25.661  27.420  1.00  0.00     0.031 C 
ATOM     47  C   UNL A   1      39.691  26.982  29.026  1.00  0.00     0.029 A 
ATOM     48  C   UNL A   1      40.615  28.102  29.166  1.00  0.00     0.049 A 
ATOM     49  H   UNL A   1      42.642  28.143  28.677  1.00  0.00     0.167 HD
ATOM     50  C   UNL A   1      46.947  27.997  27.892  1.00  0.00     0.034 A 
ATOM     51  C   UNL A   1      40.295  29.322  29.638  1.00  0.00     0.034 A 
ATOM     52  C   UNL A   1      46.670  29.364  28.244  1.00  0.00     0.049 A 
ATOM     53  C   UNL A   1      41.353  30.392  29.664  1.00  0.00     0.074 A 
ATOM     54  C   UNL A   1      47.547  30.435  28.296  1.00  0.00     0.029 A 
ATOM     55  N   UNL A   1      45.423  29.852  28.602  1.00  0.00    -0.354 N 
ATOM     56  N   UNL A   1      42.611  30.317  29.302  1.00  0.00    -0.248 NA
ATOM     57  C   UNL A   1      40.937  31.725  30.118  1.00  0.00     0.031 C 
ATOM     58  C   UNL A   1      46.830  31.569  28.696  1.00  0.00     0.029 A 
ATOM     59  C   UNL A   1      45.505  31.208  28.875  1.00  0.00     0.049 A 
ATOM     60  H   UNL A   1      44.600  29.315  28.656  1.00  0.00     0.167 HD
ATOM     61  C   UNL A   1      43.129  31.597  29.461  1.00  0.00     0.074 A 
ATOM     62  C   UNL A   1      42.036  32.435  29.912  1.00  0.00     0.031 C 
ATOM     63  C   UNL A   1      44.397  32.037  29.274  1.00  0.00     0.034 A 
BRANCH  50  64
ATOM     64  C   UNL A   1      48.363  27.635  27.519  1.00  0.00     0.023 A 
ATOM     65  C   UNL A   1      49.207  27.071  28.497  1.00  0.00     0.012 A 
ATOM     66  C   UNL A   1      48.830  27.769  26.196  1.00  0.00     0.148 A 
ATOM     67  C   UNL A   1      50.502  26.669  28.174  1.00  0.00     0.002 A 
ATOM     68  C   UNL A   1      50.109  27.327  25.872  1.00  0.00     0.091 A 
ATOM     69  F   UNL A   1      48.018  28.320  25.283  1.00  0.00    -0.205 F 
ATOM     70  C   UNL A   1      50.948  26.785  26.860  1.00  0.00     0.022 A 
BRANCH  68  71
ATOM     71  S   UNL A   1      50.760  27.362  24.198  1.00  0.00     0.127 S 
ATOM     72  O   UNL A   1      50.910  28.798  23.970  1.00  0.00    -0.237 OA
ATOM     73  O   UNL A   1      52.018  26.632  24.343  1.00  0.00    -0.237 OA
ATOM     74  O   UNL A   1      49.764  26.702  23.364  1.00  0.00    -0.744 OA
ENDBRANCH  68  71
ENDBRANCH  50  64
BRANCH  51  75
ATOM     75  C   UNL A   1      38.897  29.619  30.059  1.00  0.00     0.023 A 
ATOM     76  C   UNL A   1      38.486  29.315  31.371  1.00  0.00     0.012 A 
ATOM     77  C   UNL A   1      37.976  30.209  29.172  1.00  0.00     0.148 A 
ATOM     78  C   UNL A   1      37.173  29.553  31.780  1.00  0.00     0.002 A 
ATOM     79  C   UNL A   1      36.686  30.498  29.604  1.00  0.00     0.091 A 
ATOM     80  F   UNL A   1      38.376  30.477  27.921  1.00  0.00    -0.205 F 
ATOM     81  C   UNL A   1      36.276  30.152  30.900  1.00  0.00     0.022 A 
BRANCH  79  82
ATOM     82  S   UNL A   1      35.522  31.400  28.575  1.00  0.00     0.127 S 
ATOM     83  O   UNL A   1      36.354  32.482  28.058  1.00  0.00    -0.237 OA
ATOM     84  O   UNL A   1      35.137  30.391  27.588  1.00  0.00    -0.237 OA
ATOM     85  O   UNL A   1      34.442  31.792  29.474  1.00  0.00    -0.744 OA
ENDBRANCH  79  82
ENDBRANCH  51  75
BRANCH  63  86
ATOM     86  C   UNL A   1      44.666  33.495  29.539  1.00  0.00     0.023 A 
ATOM     87  C   UNL A   1      45.066  33.907  30.826  1.00  0.00     0.012 A 
ATOM     88  C   UNL A   1      44.560  34.449  28.509  1.00  0.00     0.148 A 
ATOM     89  C   UNL A   1      45.313  35.252  31.095  1.00  0.00     0.002 A 
ATOM     90  C   UNL A   1      44.856  35.782  28.772  1.00  0.00     0.091 A 
ATOM     91  F   UNL A   1      44.159  34.043  27.295  1.00  0.00    -0.205 F 
ATOM     92  C   UNL A   1      45.218  36.187  30.068  1.00  0.00     0.022 A 
BRANCH  90  93
ATOM     93  S   UNL A   1      44.848  37.036  27.487  1.00  0.00     0.127 S 
ATOM     94  O   UNL A   1      43.444  37.036  27.079  1.00  0.00    -0.237 OA
ATOM     95  O   UNL A   1      45.272  38.233  28.214  1.00  0.00    -0.237 OA
ATOM     96  O   UNL A   1      45.796  36.577  26.480  1.00  0.00    -0.744 OA
ENDBRANCH  90  93
ENDBRANCH  63  86
ENDBRANCH  37  38
ENDBRANCH  29  32
ENDBRANCH  27  28
ENDBRANCH   1  27
TORSDOF 17
ENDMDL
