MODEL 1
REMARK VINA RESULT:     -11.6      0.000      0.000
REMARK SMILES CC[C@H](C)[C@H](C(=O)NCCCNC(=O)c1ccc(-c2c3nc(c(-c4cccc(S(=O)(=O)[O-])c4F)c4ccc([nH]4)c(-c4cccc(S(=O)(=O)[O-])c4F)c4nc(c(-c5cccc(S(=O)(=O)[O-])c5F)c5ccc2[nH]5)C=C4)C=C3)cc1)[NH+]1CC2(CC2)C1
REMARK SMILES IDX 10 1 9 2 8 3 6 4 7 5 5 7 3 8 4 9 2 10 1 11 78 12 79 13 83 14
REMARK SMILES IDX 80 16 81 17 82 18 11 19 12 20 13 21 14 23 15 24 16 25 77 26
REMARK SMILES IDX 17 27 76 28 18 29 19 30 20 31 70 32 21 33 75 34 69 35 71 36
REMARK SMILES IDX 22 37 74 38 68 39 67 40 23 42 55 43 35 44 54 45 36 46 39 47
REMARK SMILES IDX 53 48 72 49 37 50 38 51 52 53 73 54 40 55 24 56 25 57 33 58
REMARK SMILES IDX 26 59 28 60 34 61 27 62 29 63 30 64 31 65 32 66 56 67 57 68
REMARK SMILES IDX 65 69 58 70 60 71 66 72 59 73 61 74 62 75 63 76 64 77 41 78
REMARK SMILES IDX 42 79 50 80 43 81 45 82 51 83 44 84 46 85 47 86 48 87 49 88
REMARK H PARENT 8 6 78 15 12 22 71 41 39 52
REMARK Flexibility Score: inf
ROOT
ATOM      1  C   UNL A   1      31.681  28.542  26.985  1.00  0.00     0.042 C 
ENDROOT
BRANCH   1   2
ATOM      2  C   UNL A   1      31.813  27.113  26.488  1.00  0.00     0.118 C 
BRANCH   2   3
ATOM      3  N   UNL A   1      30.672  26.584  25.775  1.00  0.00    -0.351 N 
ATOM      4  C   UNL A   1      30.362  26.691  24.445  1.00  0.00     0.278 C 
ATOM      5  O   UNL A   1      29.506  25.895  24.037  1.00  0.00    -0.268 OA
ATOM      6  H   UNL A   1      30.028  26.076  26.321  1.00  0.00     0.163 HD
BRANCH   4   7
ATOM      7  C   UNL A   1      30.993  27.810  23.536  1.00  0.00     0.277 C 
BRANCH   7   8
ATOM      8  C   UNL A   1      32.244  27.332  22.712  1.00  0.00     0.054 C 
ATOM      9  C   UNL A   1      33.510  27.084  23.528  1.00  0.00     0.014 C 
BRANCH   8  10
ATOM     10  C   UNL A   1      31.903  26.208  21.701  1.00  0.00     0.006 C 
ATOM     11  C   UNL A   1      32.745  24.944  21.787  1.00  0.00     0.004 C 
ENDBRANCH   8  10
ENDBRANCH   7   8
BRANCH   7  12
ATOM     12  N   UNL A   1      29.944  28.258  22.560  1.00  0.00    -0.323 N 
ATOM     13  C   UNL A   1      28.698  28.684  23.222  1.00  0.00     0.275 C 
ATOM     14  C   UNL A   1      30.185  29.617  22.055  1.00  0.00     0.275 C 
ATOM     15  H   UNL A   1      29.929  27.471  21.911  1.00  0.00     0.348 HD
ATOM     16  C   UNL A   1      29.053  30.074  22.877  1.00  0.00     0.068 C 
ATOM     17  C   UNL A   1      29.034  31.255  23.796  1.00  0.00     0.020 C 
ATOM     18  C   UNL A   1      28.145  31.222  22.580  1.00  0.00     0.020 C 
ENDBRANCH   7  12
ENDBRANCH   4   7
ENDBRANCH   2   3
ENDBRANCH   1   2
BRANCH   1  19
ATOM     19  C   UNL A   1      32.448  29.584  26.177  1.00  0.00     0.118 C 
BRANCH  19  20
ATOM     20  N   UNL A   1      32.221  30.969  26.583  1.00  0.00    -0.352 N 
ATOM     21  C   UNL A   1      33.006  31.888  27.254  1.00  0.00     0.251 C 
ATOM     22  H   UNL A   1      31.336  31.317  26.329  1.00  0.00     0.163 HD
ATOM     23  O   UNL A   1      32.544  32.986  27.519  1.00  0.00    -0.269 OA
BRANCH  21  24
ATOM     24  C   UNL A   1      34.377  31.541  27.701  1.00  0.00     0.039 A 
ATOM     25  C   UNL A   1      35.320  32.563  27.861  1.00  0.00     0.014 A 
ATOM     26  C   UNL A   1      34.742  30.229  27.978  1.00  0.00     0.014 A 
ATOM     27  C   UNL A   1      36.570  32.282  28.426  1.00  0.00     0.010 A 
ATOM     28  C   UNL A   1      35.924  29.971  28.660  1.00  0.00     0.010 A 
ATOM     29  C   UNL A   1      36.854  30.992  28.903  1.00  0.00    -0.014 A 
BRANCH  29  30
ATOM     30  C   UNL A   1      38.092  30.664  29.663  1.00  0.00     0.031 A 
ATOM     31  C   UNL A   1      39.100  29.708  29.073  1.00  0.00     0.074 A 
ATOM     32  C   UNL A   1      38.241  31.093  30.934  1.00  0.00     0.049 A 
ATOM     33  N   UNL A   1      40.105  29.103  29.650  1.00  0.00    -0.248 NA
ATOM     34  C   UNL A   1      38.916  29.341  27.657  1.00  0.00     0.031 C 
ATOM     35  C   UNL A   1      37.308  31.960  31.657  1.00  0.00     0.029 A 
ATOM     36  N   UNL A   1      39.220  30.825  31.860  1.00  0.00    -0.354 N 
ATOM     37  C   UNL A   1      40.626  28.238  28.693  1.00  0.00     0.074 A 
ATOM     38  C   UNL A   1      39.802  28.367  27.512  1.00  0.00     0.031 C 
ATOM     39  C   UNL A   1      37.761  32.159  32.905  1.00  0.00     0.029 A 
ATOM     40  C   UNL A   1      38.992  31.400  33.091  1.00  0.00     0.049 A 
ATOM     41  H   UNL A   1      40.011  30.272  31.663  1.00  0.00     0.167 HD
ATOM     42  C   UNL A   1      41.714  27.436  28.773  1.00  0.00     0.034 A 
ATOM     43  C   UNL A   1      39.688  31.315  34.243  1.00  0.00     0.034 A 
ATOM     44  C   UNL A   1      42.587  27.381  29.913  1.00  0.00     0.049 A 
ATOM     45  C   UNL A   1      40.941  30.480  34.278  1.00  0.00     0.074 A 
ATOM     46  C   UNL A   1      43.763  26.667  30.065  1.00  0.00     0.029 A 
ATOM     47  N   UNL A   1      42.393  28.089  31.088  1.00  0.00    -0.354 N 
ATOM     48  N   UNL A   1      41.479  29.760  33.323  1.00  0.00    -0.248 NA
ATOM     49  C   UNL A   1      41.698  30.469  35.539  1.00  0.00     0.031 C 
ATOM     50  C   UNL A   1      44.284  26.950  31.331  1.00  0.00     0.029 A 
ATOM     51  C   UNL A   1      43.436  27.846  31.964  1.00  0.00     0.049 A 
ATOM     52  H   UNL A   1      41.627  28.679  31.273  1.00  0.00     0.167 HD
ATOM     53  C   UNL A   1      42.660  29.250  33.852  1.00  0.00     0.074 A 
ATOM     54  C   UNL A   1      42.765  29.754  35.205  1.00  0.00     0.031 C 
ATOM     55  C   UNL A   1      43.566  28.423  33.275  1.00  0.00     0.034 A 
BRANCH  42  56
ATOM     56  C   UNL A   1      42.071  26.617  27.559  1.00  0.00     0.023 A 
ATOM     57  C   UNL A   1      42.709  27.245  26.469  1.00  0.00     0.012 A 
ATOM     58  C   UNL A   1      41.823  25.232  27.509  1.00  0.00     0.148 A 
ATOM     59  C   UNL A   1      43.057  26.518  25.332  1.00  0.00     0.002 A 
ATOM     60  C   UNL A   1      42.214  24.504  26.390  1.00  0.00     0.091 A 
ATOM     61  F   UNL A   1      41.199  24.655  28.545  1.00  0.00    -0.205 F 
ATOM     62  C   UNL A   1      42.818  25.148  25.296  1.00  0.00     0.022 A 
BRANCH  60  63
ATOM     63  S   UNL A   1      42.024  22.722  26.278  1.00  0.00     0.127 S 
ATOM     64  O   UNL A   1      42.746  22.273  27.468  1.00  0.00    -0.237 OA
ATOM     65  O   UNL A   1      40.571  22.560  26.351  1.00  0.00    -0.237 OA
ATOM     66  O   UNL A   1      42.613  22.335  25.004  1.00  0.00    -0.744 OA
ENDBRANCH  60  63
ENDBRANCH  42  56
BRANCH  43  67
ATOM     67  C   UNL A   1      39.268  32.105  35.436  1.00  0.00     0.023 A 
ATOM     68  C   UNL A   1      39.589  33.475  35.493  1.00  0.00     0.012 A 
ATOM     69  C   UNL A   1      38.547  31.526  36.498  1.00  0.00     0.148 A 
ATOM     70  C   UNL A   1      39.238  34.247  36.600  1.00  0.00     0.002 A 
ATOM     71  C   UNL A   1      38.152  32.314  37.576  1.00  0.00     0.091 A 
ATOM     72  F   UNL A   1      38.260  30.219  36.437  1.00  0.00    -0.205 F 
ATOM     73  C   UNL A   1      38.512  33.669  37.637  1.00  0.00     0.022 A 
BRANCH  71  74
ATOM     74  S   UNL A   1      37.104  31.678  38.890  1.00  0.00     0.127 S 
ATOM     75  O   UNL A   1      37.969  31.814  40.057  1.00  0.00    -0.237 OA
ATOM     76  O   UNL A   1      35.968  32.600  38.853  1.00  0.00    -0.237 OA
ATOM     77  O   UNL A   1      36.775  30.315  38.492  1.00  0.00    -0.744 OA
ENDBRANCH  71  74
ENDBRANCH  43  67
BRANCH  55  78
ATOM     78  C   UNL A   1      44.785  28.052  34.073  1.00  0.00     0.023 A 
ATOM     79  C   UNL A   1      45.925  28.878  34.031  1.00  0.00     0.012 A 
ATOM     80  C   UNL A   1      44.763  26.942  34.941  1.00  0.00     0.148 A 
ATOM     81  C   UNL A   1      47.034  28.591  34.826  1.00  0.00     0.002 A 
ATOM     82  C   UNL A   1      45.854  26.688  35.762  1.00  0.00     0.091 A 
ATOM     83  F   UNL A   1      43.673  26.160  34.948  1.00  0.00    -0.205 F 
ATOM     84  C   UNL A   1      46.993  27.507  35.700  1.00  0.00     0.022 A 
BRANCH  82  85
ATOM     85  S   UNL A   1      45.852  25.372  36.984  1.00  0.00     0.127 S 
ATOM     86  O   UNL A   1      46.397  24.253  36.218  1.00  0.00    -0.237 OA
ATOM     87  O   UNL A   1      46.748  25.902  38.012  1.00  0.00    -0.237 OA
ATOM     88  O   UNL A   1      44.467  25.223  37.410  1.00  0.00    -0.744 OA
ENDBRANCH  82  85
ENDBRANCH  55  78
ENDBRANCH  29  30
ENDBRANCH  21  24
ENDBRANCH  19  20
ENDBRANCH   1  19
TORSDOF 16
ENDMDL
MODEL 2
REMARK VINA RESULT:     -11.6      1.526      2.906
REMARK SMILES CC[C@H](C)[C@H](C(=O)NCCCNC(=O)c1ccc(-c2c3nc(c(-c4cccc(S(=O)(=O)[O-])c4F)c4ccc([nH]4)c(-c4cccc(S(=O)(=O)[O-])c4F)c4nc(c(-c5cccc(S(=O)(=O)[O-])c5F)c5ccc2[nH]5)C=C4)C=C3)cc1)[NH+]1CC2(CC2)C1
REMARK SMILES IDX 10 1 9 2 8 3 6 4 7 5 5 7 3 8 4 9 2 10 1 11 78 12 79 13 83 14
REMARK SMILES IDX 80 16 81 17 82 18 11 19 12 20 13 21 14 23 15 24 16 25 77 26
REMARK SMILES IDX 17 27 76 28 18 29 19 30 20 31 70 32 21 33 75 34 69 35 71 36
REMARK SMILES IDX 22 37 74 38 68 39 67 40 23 42 55 43 35 44 54 45 36 46 39 47
REMARK SMILES IDX 53 48 72 49 37 50 38 51 52 53 73 54 40 55 24 56 25 57 33 58
REMARK SMILES IDX 26 59 28 60 34 61 27 62 29 63 30 64 31 65 32 66 56 67 57 68
REMARK SMILES IDX 65 69 58 70 60 71 66 72 59 73 61 74 62 75 63 76 64 77 41 78
REMARK SMILES IDX 42 79 50 80 43 81 45 82 51 83 44 84 46 85 47 86 48 87 49 88
REMARK H PARENT 8 6 78 15 12 22 71 41 39 52
REMARK Flexibility Score: inf
ROOT
ATOM      1  C   UNL A   1      31.559  28.053  27.282  1.00  0.00     0.042 C 
ENDROOT
BRANCH   1   2
ATOM      2  C   UNL A   1      31.482  26.607  26.824  1.00  0.00     0.118 C 
BRANCH   2   3
ATOM      3  N   UNL A   1      31.205  26.401  25.420  1.00  0.00    -0.351 N 
ATOM      4  C   UNL A   1      31.528  25.332  24.626  1.00  0.00     0.278 C 
ATOM      5  O   UNL A   1      30.911  25.266  23.555  1.00  0.00    -0.268 OA
ATOM      6  H   UNL A   1      30.718  27.130  24.972  1.00  0.00     0.163 HD
BRANCH   4   7
ATOM      7  C   UNL A   1      32.666  24.320  25.024  1.00  0.00     0.277 C 
BRANCH   7   8
ATOM      8  C   UNL A   1      32.166  23.107  25.892  1.00  0.00     0.054 C 
ATOM      9  C   UNL A   1      32.725  23.043  27.311  1.00  0.00     0.014 C 
BRANCH   8  10
ATOM     10  C   UNL A   1      30.635  22.891  25.795  1.00  0.00     0.006 C 
ATOM     11  C   UNL A   1      29.866  22.916  27.108  1.00  0.00     0.004 C 
ENDBRANCH   8  10
ENDBRANCH   7   8
BRANCH   7  12
ATOM     12  N   UNL A   1      33.256  23.768  23.759  1.00  0.00    -0.323 N 
ATOM     13  C   UNL A   1      34.443  24.518  23.311  1.00  0.00     0.275 C 
ATOM     14  C   UNL A   1      34.059  22.560  23.989  1.00  0.00     0.275 C 
ATOM     15  H   UNL A   1      32.431  23.722  23.160  1.00  0.00     0.348 HD
ATOM     16  C   UNL A   1      35.263  23.366  23.732  1.00  0.00     0.068 C 
ATOM     17  C   UNL A   1      36.504  23.411  24.566  1.00  0.00     0.020 C 
ATOM     18  C   UNL A   1      36.553  22.880  23.157  1.00  0.00     0.020 C 
ENDBRANCH   7  12
ENDBRANCH   4   7
ENDBRANCH   2   3
ENDBRANCH   1   2
BRANCH   1  19
ATOM     19  C   UNL A   1      32.276  28.999  26.324  1.00  0.00     0.118 C 
BRANCH  19  20
ATOM     20  N   UNL A   1      32.025  30.420  26.557  1.00  0.00    -0.352 N 
ATOM     21  C   UNL A   1      32.798  31.430  27.099  1.00  0.00     0.251 C 
ATOM     22  H   UNL A   1      31.131  30.716  26.272  1.00  0.00     0.163 HD
ATOM     23  O   UNL A   1      32.316  32.543  27.231  1.00  0.00    -0.269 OA
BRANCH  21  24
ATOM     24  C   UNL A   1      34.179  31.167  27.569  1.00  0.00     0.039 A 
ATOM     25  C   UNL A   1      35.047  32.248  27.772  1.00  0.00     0.014 A 
ATOM     26  C   UNL A   1      34.628  29.878  27.827  1.00  0.00     0.014 A 
ATOM     27  C   UNL A   1      36.301  32.040  28.359  1.00  0.00     0.010 A 
ATOM     28  C   UNL A   1      35.810  29.685  28.531  1.00  0.00     0.010 A 
ATOM     29  C   UNL A   1      36.662  30.763  28.815  1.00  0.00    -0.014 A 
BRANCH  29  30
ATOM     30  C   UNL A   1      37.904  30.502  29.596  1.00  0.00     0.031 A 
ATOM     31  C   UNL A   1      38.964  29.588  29.032  1.00  0.00     0.074 A 
ATOM     32  C   UNL A   1      38.014  30.953  30.864  1.00  0.00     0.049 A 
ATOM     33  N   UNL A   1      39.989  29.039  29.629  1.00  0.00    -0.248 NA
ATOM     34  C   UNL A   1      38.818  29.197  27.618  1.00  0.00     0.031 C 
ATOM     35  C   UNL A   1      37.031  31.782  31.564  1.00  0.00     0.029 A 
ATOM     36  N   UNL A   1      38.992  30.743  31.806  1.00  0.00    -0.354 N 
ATOM     37  C   UNL A   1      40.564  28.190  28.691  1.00  0.00     0.074 A 
ATOM     38  C   UNL A   1      39.751  28.265  27.497  1.00  0.00     0.031 C 
ATOM     39  C   UNL A   1      37.456  32.017  32.815  1.00  0.00     0.029 A 
ATOM     40  C   UNL A   1      38.720  31.320  33.027  1.00  0.00     0.049 A 
ATOM     41  H   UNL A   1      39.811  30.226  31.627  1.00  0.00     0.167 HD
ATOM     42  C   UNL A   1      41.688  27.441  28.795  1.00  0.00     0.034 A 
ATOM     43  C   UNL A   1      39.402  31.282  34.189  1.00  0.00     0.034 A 
ATOM     44  C   UNL A   1      42.546  27.441  29.947  1.00  0.00     0.049 A 
ATOM     45  C   UNL A   1      40.693  30.508  34.251  1.00  0.00     0.074 A 
ATOM     46  C   UNL A   1      43.752  26.786  30.124  1.00  0.00     0.029 A 
ATOM     47  N   UNL A   1      42.302  28.153  31.111  1.00  0.00    -0.354 N 
ATOM     48  N   UNL A   1      41.279  29.804  33.313  1.00  0.00    -0.248 NA
ATOM     49  C   UNL A   1      41.432  30.548  35.522  1.00  0.00     0.031 C 
ATOM     50  C   UNL A   1      44.242  27.108  31.393  1.00  0.00     0.029 A 
ATOM     51  C   UNL A   1      43.343  27.970  32.003  1.00  0.00     0.049 A 
ATOM     52  H   UNL A   1      41.507  28.707  31.278  1.00  0.00     0.167 HD
ATOM     53  C   UNL A   1      42.474  29.357  33.863  1.00  0.00     0.074 A 
ATOM     54  C   UNL A   1      42.537  29.881  35.212  1.00  0.00     0.031 C 
ATOM     55  C   UNL A   1      43.427  28.568  33.309  1.00  0.00     0.034 A 
BRANCH  42  56
ATOM     56  C   UNL A   1      42.100  26.626  27.596  1.00  0.00     0.023 A 
ATOM     57  C   UNL A   1      42.806  27.253  26.548  1.00  0.00     0.012 A 
ATOM     58  C   UNL A   1      41.836  25.245  27.521  1.00  0.00     0.148 A 
ATOM     59  C   UNL A   1      43.207  26.529  25.426  1.00  0.00     0.002 A 
ATOM     60  C   UNL A   1      42.279  24.520  26.419  1.00  0.00     0.091 A 
ATOM     61  F   UNL A   1      41.147  24.670  28.517  1.00  0.00    -0.205 F 
ATOM     62  C   UNL A   1      42.952  25.163  25.367  1.00  0.00     0.022 A 
BRANCH  60  63
ATOM     63  S   UNL A   1      42.071  22.741  26.283  1.00  0.00     0.127 S 
ATOM     64  O   UNL A   1      42.628  22.479  24.956  1.00  0.00    -0.237 OA
ATOM     65  O   UNL A   1      42.887  22.249  27.394  1.00  0.00    -0.237 OA
ATOM     66  O   UNL A   1      40.643  22.492  26.423  1.00  0.00    -0.744 OA
ENDBRANCH  60  63
ENDBRANCH  42  56
BRANCH  43  67
ATOM     67  C   UNL A   1      38.929  32.065  35.366  1.00  0.00     0.023 A 
ATOM     68  C   UNL A   1      39.068  33.467  35.353  1.00  0.00     0.012 A 
ATOM     69  C   UNL A   1      38.332  31.447  36.482  1.00  0.00     0.148 A 
ATOM     70  C   UNL A   1      38.661  34.236  36.443  1.00  0.00     0.002 A 
ATOM     71  C   UNL A   1      37.878  32.225  37.543  1.00  0.00     0.091 A 
ATOM     72  F   UNL A   1      38.217  30.112  36.486  1.00  0.00    -0.205 F 
ATOM     73  C   UNL A   1      38.058  33.617  37.534  1.00  0.00     0.022 A 
BRANCH  71  74
ATOM     74  S   UNL A   1      36.974  31.520  38.927  1.00  0.00     0.127 S 
ATOM     75  O   UNL A   1      35.780  32.358  38.965  1.00  0.00    -0.237 OA
ATOM     76  O   UNL A   1      36.748  30.145  38.479  1.00  0.00    -0.237 OA
ATOM     77  O   UNL A   1      37.873  31.632  40.069  1.00  0.00    -0.744 OA
ENDBRANCH  71  74
ENDBRANCH  43  67
BRANCH  55  78
ATOM     78  C   UNL A   1      44.651  28.265  34.128  1.00  0.00     0.023 A 
ATOM     79  C   UNL A   1      45.758  29.134  34.078  1.00  0.00     0.012 A 
ATOM     80  C   UNL A   1      44.663  27.176  35.022  1.00  0.00     0.148 A 
ATOM     81  C   UNL A   1      46.868  28.911  34.891  1.00  0.00     0.002 A 
ATOM     82  C   UNL A   1      45.754  26.985  35.860  1.00  0.00     0.091 A 
ATOM     83  F   UNL A   1      43.605  26.351  35.037  1.00  0.00    -0.205 F 
ATOM     84  C   UNL A   1      46.861  27.847  35.790  1.00  0.00     0.022 A 
BRANCH  82  85
ATOM     85  S   UNL A   1      45.791  25.699  37.113  1.00  0.00     0.127 S 
ATOM     86  O   UNL A   1      47.200  25.705  37.504  1.00  0.00    -0.237 OA
ATOM     87  O   UNL A   1      44.875  26.224  38.125  1.00  0.00    -0.237 OA
ATOM     88  O   UNL A   1      45.330  24.484  36.455  1.00  0.00    -0.744 OA
ENDBRANCH  82  85
ENDBRANCH  55  78
ENDBRANCH  29  30
ENDBRANCH  21  24
ENDBRANCH  19  20
ENDBRANCH   1  19
TORSDOF 16
ENDMDL
MODEL 3
REMARK VINA RESULT:     -11.6      1.902      3.065
REMARK SMILES CC[C@H](C)[C@H](C(=O)NCCCNC(=O)c1ccc(-c2c3nc(c(-c4cccc(S(=O)(=O)[O-])c4F)c4ccc([nH]4)c(-c4cccc(S(=O)(=O)[O-])c4F)c4nc(c(-c5cccc(S(=O)(=O)[O-])c5F)c5ccc2[nH]5)C=C4)C=C3)cc1)[NH+]1CC2(CC2)C1
REMARK SMILES IDX 10 1 9 2 8 3 6 4 7 5 5 7 3 8 4 9 2 10 1 11 78 12 79 13 83 14
REMARK SMILES IDX 80 16 81 17 82 18 11 19 12 20 13 21 14 23 15 24 16 25 77 26
REMARK SMILES IDX 17 27 76 28 18 29 19 30 20 31 70 32 21 33 75 34 69 35 71 36
REMARK SMILES IDX 22 37 74 38 68 39 67 40 23 42 55 43 35 44 54 45 36 46 39 47
REMARK SMILES IDX 53 48 72 49 37 50 38 51 52 53 73 54 40 55 24 56 25 57 33 58
REMARK SMILES IDX 26 59 28 60 34 61 27 62 29 63 30 64 31 65 32 66 56 67 57 68
REMARK SMILES IDX 65 69 58 70 60 71 66 72 59 73 61 74 62 75 63 76 64 77 41 78
REMARK SMILES IDX 42 79 50 80 43 81 45 82 51 83 44 84 46 85 47 86 48 87 49 88
REMARK H PARENT 8 6 78 15 12 22 71 41 39 52
REMARK Flexibility Score: inf
ROOT
ATOM      1  C   UNL A   1      32.899  29.073  24.698  1.00  0.00     0.042 C 
ENDROOT
BRANCH   1   2
ATOM      2  C   UNL A   1      33.925  27.972  24.497  1.00  0.00     0.118 C 
BRANCH   2   3
ATOM      3  N   UNL A   1      34.029  27.441  23.156  1.00  0.00    -0.351 N 
ATOM      4  C   UNL A   1      33.399  26.355  22.608  1.00  0.00     0.278 C 
ATOM      5  O   UNL A   1      33.419  26.301  21.372  1.00  0.00    -0.268 OA
ATOM      6  H   UNL A   1      34.637  27.928  22.553  1.00  0.00     0.163 HD
BRANCH   4   7
ATOM      7  C   UNL A   1      32.777  25.221  23.505  1.00  0.00     0.277 C 
BRANCH   7   8
ATOM      8  C   UNL A   1      31.324  25.538  24.018  1.00  0.00     0.054 C 
ATOM      9  C   UNL A   1      31.187  25.721  25.527  1.00  0.00     0.014 C 
BRANCH   8  10
ATOM     10  C   UNL A   1      30.614  26.626  23.173  1.00  0.00     0.006 C 
ATOM     11  C   UNL A   1      29.248  27.079  23.667  1.00  0.00     0.004 C 
ENDBRANCH   8  10
ENDBRANCH   7   8
BRANCH   7  12
ATOM     12  N   UNL A   1      32.710  23.966  22.683  1.00  0.00    -0.323 N 
ATOM     13  C   UNL A   1      33.760  22.996  23.042  1.00  0.00     0.275 C 
ATOM     14  C   UNL A   1      31.655  23.049  23.135  1.00  0.00     0.275 C 
ATOM     15  H   UNL A   1      32.677  24.350  21.739  1.00  0.00     0.348 HD
ATOM     16  C   UNL A   1      32.710  22.172  23.670  1.00  0.00     0.068 C 
ATOM     17  C   UNL A   1      32.755  21.555  25.032  1.00  0.00     0.020 C 
ATOM     18  C   UNL A   1      32.647  20.686  23.805  1.00  0.00     0.020 C 
ENDBRANCH   7  12
ENDBRANCH   4   7
ENDBRANCH   2   3
ENDBRANCH   1   2
BRANCH   1  19
ATOM     19  C   UNL A   1      32.429  29.268  26.136  1.00  0.00     0.118 C 
BRANCH  19  20
ATOM     20  N   UNL A   1      32.194  30.656  26.526  1.00  0.00    -0.352 N 
ATOM     21  C   UNL A   1      32.975  31.588  27.183  1.00  0.00     0.251 C 
ATOM     22  H   UNL A   1      31.306  30.995  26.270  1.00  0.00     0.163 HD
ATOM     23  O   UNL A   1      32.506  32.686  27.437  1.00  0.00    -0.269 OA
BRANCH  21  24
ATOM     24  C   UNL A   1      34.350  31.256  27.630  1.00  0.00     0.039 A 
ATOM     25  C   UNL A   1      35.299  32.280  27.730  1.00  0.00     0.014 A 
ATOM     26  C   UNL A   1      34.712  29.956  27.964  1.00  0.00     0.014 A 
ATOM     27  C   UNL A   1      36.555  32.018  28.293  1.00  0.00     0.010 A 
ATOM     28  C   UNL A   1      35.901  29.724  28.643  1.00  0.00     0.010 A 
ATOM     29  C   UNL A   1      36.839  30.752  28.826  1.00  0.00    -0.014 A 
BRANCH  29  30
ATOM     30  C   UNL A   1      38.084  30.453  29.586  1.00  0.00     0.031 A 
ATOM     31  C   UNL A   1      39.090  29.481  29.020  1.00  0.00     0.074 A 
ATOM     32  C   UNL A   1      38.242  30.925  30.842  1.00  0.00     0.049 A 
ATOM     33  N   UNL A   1      40.103  28.899  29.608  1.00  0.00    -0.248 NA
ATOM     34  C   UNL A   1      38.896  29.067  27.619  1.00  0.00     0.031 C 
ATOM     35  C   UNL A   1      37.312  31.811  31.543  1.00  0.00     0.029 A 
ATOM     36  N   UNL A   1      39.230  30.691  31.768  1.00  0.00    -0.354 N 
ATOM     37  C   UNL A   1      40.619  28.005  28.676  1.00  0.00     0.074 A 
ATOM     38  C   UNL A   1      39.784  28.092  27.498  1.00  0.00     0.031 C 
ATOM     39  C   UNL A   1      37.775  32.054  32.780  1.00  0.00     0.029 A 
ATOM     40  C   UNL A   1      39.011  31.305  32.981  1.00  0.00     0.049 A 
ATOM     41  H   UNL A   1      40.022  30.135  31.582  1.00  0.00     0.167 HD
ATOM     42  C   UNL A   1      41.711  27.210  28.773  1.00  0.00     0.034 A 
ATOM     43  C   UNL A   1      39.716  31.261  34.128  1.00  0.00     0.034 A 
ATOM     44  C   UNL A   1      42.593  27.196  29.906  1.00  0.00     0.049 A 
ATOM     45  C   UNL A   1      40.973  30.432  34.180  1.00  0.00     0.074 A 
ATOM     46  C   UNL A   1      43.773  26.492  30.072  1.00  0.00     0.029 A 
ATOM     47  N   UNL A   1      42.407  27.942  31.059  1.00  0.00    -0.354 N 
ATOM     48  N   UNL A   1      41.506  29.683  33.245  1.00  0.00    -0.248 NA
ATOM     49  C   UNL A   1      41.741  30.466  35.434  1.00  0.00     0.031 C 
ATOM     50  C   UNL A   1      44.304  26.818  31.323  1.00  0.00     0.029 A 
ATOM     51  C   UNL A   1      43.458  27.731  31.933  1.00  0.00     0.049 A 
ATOM     52  H   UNL A   1      41.641  28.535  31.231  1.00  0.00     0.167 HD
ATOM     53  C   UNL A   1      42.693  29.195  33.780  1.00  0.00     0.074 A 
ATOM     54  C   UNL A   1      42.808  29.744  35.115  1.00  0.00     0.031 C 
ATOM     55  C   UNL A   1      43.597  28.353  33.224  1.00  0.00     0.034 A 
BRANCH  42  56
ATOM     56  C   UNL A   1      42.060  26.353  27.584  1.00  0.00     0.023 A 
ATOM     57  C   UNL A   1      42.744  26.932  26.495  1.00  0.00     0.012 A 
ATOM     58  C   UNL A   1      41.760  24.977  27.557  1.00  0.00     0.148 A 
ATOM     59  C   UNL A   1      43.086  26.168  25.380  1.00  0.00     0.002 A 
ATOM     60  C   UNL A   1      42.145  24.211  26.461  1.00  0.00     0.091 A 
ATOM     61  F   UNL A   1      41.093  24.446  28.592  1.00  0.00    -0.205 F 
ATOM     62  C   UNL A   1      42.796  24.808  25.368  1.00  0.00     0.022 A 
BRANCH  60  63
ATOM     63  S   UNL A   1      41.890  22.435  26.382  1.00  0.00     0.127 S 
ATOM     64  O   UNL A   1      42.292  22.019  27.725  1.00  0.00    -0.237 OA
ATOM     65  O   UNL A   1      40.452  22.341  26.121  1.00  0.00    -0.237 OA
ATOM     66  O   UNL A   1      42.735  21.956  25.298  1.00  0.00    -0.744 OA
ENDBRANCH  60  63
ENDBRANCH  42  56
BRANCH  43  67
ATOM     67  C   UNL A   1      39.304  32.089  35.298  1.00  0.00     0.023 A 
ATOM     68  C   UNL A   1      38.431  31.532  36.253  1.00  0.00     0.012 A 
ATOM     69  C   UNL A   1      39.774  33.403  35.485  1.00  0.00     0.148 A 
ATOM     70  C   UNL A   1      38.001  32.278  37.349  1.00  0.00     0.002 A 
ATOM     71  C   UNL A   1      39.384  34.124  36.610  1.00  0.00     0.091 A 
ATOM     72  F   UNL A   1      40.594  33.924  34.562  1.00  0.00    -0.205 F 
ATOM     73  C   UNL A   1      38.483  33.570  37.533  1.00  0.00     0.022 A 
BRANCH  71  74
ATOM     74  S   UNL A   1      40.062  35.745  36.988  1.00  0.00     0.127 S 
ATOM     75  O   UNL A   1      39.645  36.524  35.826  1.00  0.00    -0.237 OA
ATOM     76  O   UNL A   1      39.375  36.083  38.235  1.00  0.00    -0.237 OA
ATOM     77  O   UNL A   1      41.496  35.535  37.138  1.00  0.00    -0.744 OA
ENDBRANCH  71  74
ENDBRANCH  43  67
BRANCH  55  78
ATOM     78  C   UNL A   1      44.825  28.013  34.022  1.00  0.00     0.023 A 
ATOM     79  C   UNL A   1      45.968  28.830  33.929  1.00  0.00     0.012 A 
ATOM     80  C   UNL A   1      44.808  26.944  34.940  1.00  0.00     0.148 A 
ATOM     81  C   UNL A   1      47.085  28.575  34.723  1.00  0.00     0.002 A 
ATOM     82  C   UNL A   1      45.908  26.722  35.759  1.00  0.00     0.091 A 
ATOM     83  F   UNL A   1      43.715  26.167  34.997  1.00  0.00    -0.205 F 
ATOM     84  C   UNL A   1      47.050  27.532  35.646  1.00  0.00     0.022 A 
BRANCH  82  85
ATOM     85  S   UNL A   1      45.916  25.463  37.040  1.00  0.00     0.127 S 
ATOM     86  O   UNL A   1      47.230  25.664  37.647  1.00  0.00    -0.237 OA
ATOM     87  O   UNL A   1      44.788  25.866  37.879  1.00  0.00    -0.237 OA
ATOM     88  O   UNL A   1      45.732  24.192  36.353  1.00  0.00    -0.744 OA
ENDBRANCH  82  85
ENDBRANCH  55  78
ENDBRANCH  29  30
ENDBRANCH  21  24
ENDBRANCH  19  20
ENDBRANCH   1  19
TORSDOF 16
ENDMDL
