MODEL 1
REMARK VINA RESULT:     -12.0      0.000      0.000
REMARK SMILES O=C(C[NH2+][C@H]1CCCC[C@H]1[N@@H+](Cc1ccccc1)C1CC1)NCCCNC(=O)c1ccc(-c2c3nc(c(-c4cccc(S(=O)(=O)[O-])c4F)c4ccc([nH]4)c(-c4cccc(S(=O)(=O)[O-])c4F)c4nc(c(-c5cccc(S(=O)(=O)[O-])c5F)c5ccc2[nH]5)C=C4)C=C3)cc1
REMARK SMILES IDX 23 1 22 2 1 3 2 4 3 6 4 7 5 10 6 11 10 12 7 13 9 14 8 15
REMARK SMILES IDX 11 16 12 18 13 19 14 20 18 21 15 22 17 23 16 24 19 25 20 26
REMARK SMILES IDX 21 27 24 28 25 29 26 30 27 31 28 33 29 34 30 35 91 36 31 37
REMARK SMILES IDX 90 38 32 39 33 40 34 41 84 42 35 43 89 44 83 45 85 46 36 47
REMARK SMILES IDX 88 48 82 49 81 50 37 52 69 53 49 54 68 55 50 56 53 57 67 58
REMARK SMILES IDX 86 59 51 60 52 61 66 63 87 64 54 65 38 66 39 67 47 68 40 69
REMARK SMILES IDX 42 70 48 71 41 72 43 73 44 74 45 75 46 76 70 77 71 78 79 79
REMARK SMILES IDX 72 80 74 81 80 82 73 83 75 84 76 85 77 86 78 87 55 88 56 89
REMARK SMILES IDX 64 90 57 91 59 92 65 93 58 94 60 95 61 96 62 97 63 98
REMARK H PARENT 22 5 4 8 4 9 11 17 26 32 85 51 53 62
REMARK Flexibility Score: inf
ROOT
ATOM      1  C   UNL A   1      31.983  27.692  25.172  1.00  0.00     0.118 C 
ENDROOT
BRANCH   1   2
ATOM      2  N   UNL A   1      33.013  26.782  24.710  1.00  0.00    -0.351 N 
ATOM      3  O   UNL A   1      31.578  25.375  23.583  1.00  0.00    -0.269 OA
ATOM      4  C   UNL A   1      32.721  25.731  23.860  1.00  0.00     0.275 C 
ATOM      5  H   UNL A   1      33.941  26.915  25.009  1.00  0.00     0.163 HD
BRANCH   4   6
ATOM      6  C   UNL A   1      33.951  25.124  23.162  1.00  0.00     0.362 C 
BRANCH   6   7
ATOM      7  N   UNL A   1      34.478  24.091  24.061  1.00  0.00    -0.331 N 
ATOM      8  H   UNL A   1      33.775  23.915  24.779  1.00  0.00     0.347 HD
ATOM      9  H   UNL A   1      35.358  24.462  24.420  1.00  0.00     0.347 HD
BRANCH   7  10
ATOM     10  C   UNL A   1      34.814  22.812  23.441  1.00  0.00     0.241 C 
ATOM     11  C   UNL A   1      36.358  22.732  23.315  1.00  0.00     0.071 C 
ATOM     12  C   UNL A   1      34.263  21.522  24.213  1.00  0.00     0.243 C 
ATOM     13  C   UNL A   1      37.063  22.518  24.655  1.00  0.00     0.007 C 
ATOM     14  C   UNL A   1      35.069  21.239  25.499  1.00  0.00     0.071 C 
ATOM     15  C   UNL A   1      36.580  21.233  25.295  1.00  0.00     0.007 C 
BRANCH  12  16
ATOM     16  N   UNL A   1      32.790  21.281  24.338  1.00  0.00    -0.321 N 
ATOM     17  H   UNL A   1      32.638  22.189  23.900  1.00  0.00     0.349 HD
BRANCH  16  18
ATOM     18  C   UNL A   1      32.307  20.074  23.618  1.00  0.00     0.299 C 
BRANCH  18  19
ATOM     19  C   UNL A   1      32.853  18.702  24.020  1.00  0.00     0.006 A 
ATOM     20  C   UNL A   1      33.572  17.849  23.166  1.00  0.00     0.009 A 
ATOM     21  C   UNL A   1      32.596  18.242  25.321  1.00  0.00     0.009 A 
ATOM     22  C   UNL A   1      33.923  16.554  23.547  1.00  0.00     0.001 A 
ATOM     23  C   UNL A   1      32.977  16.956  25.719  1.00  0.00     0.001 A 
ATOM     24  C   UNL A   1      33.615  16.102  24.823  1.00  0.00     0.000 A 
ENDBRANCH  18  19
ENDBRANCH  16  18
BRANCH  16  25
ATOM     25  C   UNL A   1      31.930  21.558  25.507  1.00  0.00     0.185 C 
ATOM     26  C   UNL A   1      32.105  22.639  26.520  1.00  0.00     0.071 C 
ATOM     27  C   UNL A   1      30.987  22.716  25.510  1.00  0.00     0.071 C 
ENDBRANCH  16  25
ENDBRANCH  12  16
ENDBRANCH   7  10
ENDBRANCH   6   7
ENDBRANCH   4   6
ENDBRANCH   1   2
BRANCH   1  28
ATOM     28  C   UNL A   1      32.480  29.117  25.382  1.00  0.00     0.042 C 
BRANCH  28  29
ATOM     29  C   UNL A   1      32.323  29.661  26.801  1.00  0.00     0.118 C 
BRANCH  29  30
ATOM     30  N   UNL A   1      32.161  31.111  26.861  1.00  0.00    -0.352 N 
ATOM     31  C   UNL A   1      33.037  32.065  27.333  1.00  0.00     0.251 C 
ATOM     32  H   UNL A   1      31.307  31.456  26.514  1.00  0.00     0.163 HD
ATOM     33  O   UNL A   1      32.688  33.241  27.408  1.00  0.00    -0.269 OA
BRANCH  31  34
ATOM     34  C   UNL A   1      34.392  31.669  27.786  1.00  0.00     0.039 A 
ATOM     35  C   UNL A   1      35.373  32.653  27.943  1.00  0.00     0.014 A 
ATOM     36  C   UNL A   1      34.686  30.337  28.084  1.00  0.00     0.014 A 
ATOM     37  C   UNL A   1      36.614  32.318  28.496  1.00  0.00     0.010 A 
ATOM     38  C   UNL A   1      35.897  30.017  28.695  1.00  0.00     0.010 A 
ATOM     39  C   UNL A   1      36.867  31.006  28.926  1.00  0.00    -0.014 A 
BRANCH  39  40
ATOM     40  C   UNL A   1      38.107  30.643  29.666  1.00  0.00     0.031 A 
ATOM     41  C   UNL A   1      39.077  29.650  29.085  1.00  0.00     0.074 A 
ATOM     42  C   UNL A   1      38.292  31.102  30.922  1.00  0.00     0.049 A 
ATOM     43  N   UNL A   1      40.122  29.093  29.641  1.00  0.00    -0.248 NA
ATOM     44  C   UNL A   1      38.821  29.202  27.706  1.00  0.00     0.031 C 
ATOM     45  C   UNL A   1      37.396  32.019  31.629  1.00  0.00     0.029 A 
ATOM     46  N   UNL A   1      39.276  30.826  31.843  1.00  0.00    -0.354 N 
ATOM     47  C   UNL A   1      40.622  28.199  28.702  1.00  0.00     0.074 A 
ATOM     48  C   UNL A   1      39.753  28.273  27.547  1.00  0.00     0.031 C 
ATOM     49  C   UNL A   1      37.861  32.219  32.872  1.00  0.00     0.029 A 
ATOM     50  C   UNL A   1      39.065  31.418  33.068  1.00  0.00     0.049 A 
ATOM     51  H   UNL A   1      40.055  30.259  31.645  1.00  0.00     0.167 HD
ATOM     52  C   UNL A   1      41.716  27.404  28.784  1.00  0.00     0.034 A 
ATOM     53  C   UNL A   1      39.748  31.312  34.226  1.00  0.00     0.034 A 
ATOM     54  C   UNL A   1      42.606  27.366  29.914  1.00  0.00     0.049 A 
ATOM     55  C   UNL A   1      40.977  30.445  34.280  1.00  0.00     0.074 A 
ATOM     56  C   UNL A   1      43.786  26.656  30.054  1.00  0.00     0.029 A 
ATOM     57  N   UNL A   1      42.414  28.060  31.099  1.00  0.00    -0.354 N 
ATOM     58  N   UNL A   1      41.514  29.717  33.332  1.00  0.00    -0.248 NA
ATOM     59  C   UNL A   1      41.714  30.409  35.552  1.00  0.00     0.031 C 
ATOM     60  C   UNL A   1      44.298  26.906  31.331  1.00  0.00     0.029 A 
ATOM     61  C   UNL A   1      43.450  27.792  31.976  1.00  0.00     0.049 A 
ATOM     62  H   UNL A   1      41.653  28.656  31.287  1.00  0.00     0.167 HD
ATOM     63  C   UNL A   1      42.673  29.175  33.876  1.00  0.00     0.074 A 
ATOM     64  C   UNL A   1      42.767  29.666  35.235  1.00  0.00     0.031 C 
ATOM     65  C   UNL A   1      43.572  28.340  33.302  1.00  0.00     0.034 A 
BRANCH  52  66
ATOM     66  C   UNL A   1      42.048  26.542  27.595  1.00  0.00     0.023 A 
ATOM     67  C   UNL A   1      42.768  27.094  26.516  1.00  0.00     0.012 A 
ATOM     68  C   UNL A   1      41.712  25.173  27.573  1.00  0.00     0.148 A 
ATOM     69  C   UNL A   1      43.118  26.307  25.419  1.00  0.00     0.002 A 
ATOM     70  C   UNL A   1      42.105  24.385  26.497  1.00  0.00     0.091 A 
ATOM     71  F   UNL A   1      41.013  24.670  28.600  1.00  0.00    -0.205 F 
ATOM     72  C   UNL A   1      42.797  24.953  25.415  1.00  0.00     0.022 A 
BRANCH  70  73
ATOM     73  S   UNL A   1      41.809  22.615  26.436  1.00  0.00     0.127 S 
ATOM     74  O   UNL A   1      40.350  22.562  26.371  1.00  0.00    -0.237 OA
ATOM     75  O   UNL A   1      42.488  22.230  25.197  1.00  0.00    -0.237 OA
ATOM     76  O   UNL A   1      42.403  22.067  27.647  1.00  0.00    -0.744 OA
ENDBRANCH  70  73
ENDBRANCH  52  66
BRANCH  53  77
ATOM     77  C   UNL A   1      39.316  32.095  35.419  1.00  0.00     0.023 A 
ATOM     78  C   UNL A   1      38.455  31.497  36.360  1.00  0.00     0.012 A 
ATOM     79  C   UNL A   1      39.768  33.409  35.641  1.00  0.00     0.148 A 
ATOM     80  C   UNL A   1      38.028  32.204  37.484  1.00  0.00     0.002 A 
ATOM     81  C   UNL A   1      39.382  34.089  36.791  1.00  0.00     0.091 A 
ATOM     82  F   UNL A   1      40.576  33.966  34.728  1.00  0.00    -0.205 F 
ATOM     83  C   UNL A   1      38.499  33.495  37.705  1.00  0.00     0.022 A 
BRANCH  81  84
ATOM     84  S   UNL A   1      40.040  35.704  37.222  1.00  0.00     0.127 S 
ATOM     85  O   UNL A   1      41.465  35.418  37.368  1.00  0.00    -0.237 OA
ATOM     86  O   UNL A   1      39.688  36.498  36.043  1.00  0.00    -0.237 OA
ATOM     87  O   UNL A   1      39.344  36.099  38.439  1.00  0.00    -0.744 OA
ENDBRANCH  81  84
ENDBRANCH  53  77
BRANCH  65  88
ATOM     88  C   UNL A   1      44.778  27.935  34.109  1.00  0.00     0.023 A 
ATOM     89  C   UNL A   1      45.958  28.701  34.045  1.00  0.00     0.012 A 
ATOM     90  C   UNL A   1      44.701  26.854  35.011  1.00  0.00     0.148 A 
ATOM     91  C   UNL A   1      47.051  28.385  34.852  1.00  0.00     0.002 A 
ATOM     92  C   UNL A   1      45.775  26.574  35.845  1.00  0.00     0.091 A 
ATOM     93  F   UNL A   1      43.575  26.127  35.041  1.00  0.00    -0.205 F 
ATOM     94  C   UNL A   1      46.956  27.333  35.761  1.00  0.00     0.022 A 
BRANCH  92  95
ATOM     95  S   UNL A   1      45.709  25.303  37.113  1.00  0.00     0.127 S 
ATOM     96  O   UNL A   1      44.566  25.742  37.914  1.00  0.00    -0.237 OA
ATOM     97  O   UNL A   1      45.473  24.093  36.326  1.00  0.00    -0.237 OA
ATOM     98  O   UNL A   1      46.997  25.344  37.792  1.00  0.00    -0.744 OA
ENDBRANCH  92  95
ENDBRANCH  65  88
ENDBRANCH  39  40
ENDBRANCH  31  34
ENDBRANCH  29  30
ENDBRANCH  28  29
ENDBRANCH   1  28
TORSDOF 19
ENDMDL
MODEL 2
REMARK VINA RESULT:     -11.9      4.850     10.174
REMARK SMILES O=C(C[NH2+][C@H]1CCCC[C@H]1[N@@H+](Cc1ccccc1)C1CC1)NCCCNC(=O)c1ccc(-c2c3nc(c(-c4cccc(S(=O)(=O)[O-])c4F)c4ccc([nH]4)c(-c4cccc(S(=O)(=O)[O-])c4F)c4nc(c(-c5cccc(S(=O)(=O)[O-])c5F)c5ccc2[nH]5)C=C4)C=C3)cc1
REMARK SMILES IDX 23 1 22 2 1 3 2 4 3 6 4 7 5 10 6 11 10 12 7 13 9 14 8 15
REMARK SMILES IDX 11 16 12 18 13 19 14 20 18 21 15 22 17 23 16 24 19 25 20 26
REMARK SMILES IDX 21 27 24 28 25 29 26 30 27 31 28 33 29 34 30 35 91 36 31 37
REMARK SMILES IDX 90 38 32 39 33 40 34 41 84 42 35 43 89 44 83 45 85 46 36 47
REMARK SMILES IDX 88 48 82 49 81 50 37 52 69 53 49 54 68 55 50 56 53 57 67 58
REMARK SMILES IDX 86 59 51 60 52 61 66 63 87 64 54 65 38 66 39 67 47 68 40 69
REMARK SMILES IDX 42 70 48 71 41 72 43 73 44 74 45 75 46 76 70 77 71 78 79 79
REMARK SMILES IDX 72 80 74 81 80 82 73 83 75 84 76 85 77 86 78 87 55 88 56 89
REMARK SMILES IDX 64 90 57 91 59 92 65 93 58 94 60 95 61 96 62 97 63 98
REMARK H PARENT 22 5 4 8 4 9 11 17 26 32 85 51 53 62
REMARK Flexibility Score: inf
ROOT
ATOM      1  C   UNL A   1      33.739  22.255  24.558  1.00  0.00     0.118 C 
ENDROOT
BRANCH   1   2
ATOM      2  N   UNL A   1      33.203  23.233  25.483  1.00  0.00    -0.351 N 
ATOM      3  O   UNL A   1      31.090  23.275  24.564  1.00  0.00    -0.269 OA
ATOM      4  C   UNL A   1      31.868  23.596  25.459  1.00  0.00     0.275 C 
ATOM      5  H   UNL A   1      33.802  23.650  26.142  1.00  0.00     0.163 HD
BRANCH   4   6
ATOM      6  C   UNL A   1      31.389  24.319  26.730  1.00  0.00     0.362 C 
BRANCH   6   7
ATOM      7  N   UNL A   1      32.083  25.610  26.766  1.00  0.00    -0.331 N 
ATOM      8  H   UNL A   1      32.966  25.504  26.265  1.00  0.00     0.347 HD
ATOM      9  H   UNL A   1      32.190  25.838  27.755  1.00  0.00     0.347 HD
BRANCH   7  10
ATOM     10  C   UNL A   1      31.369  26.740  26.178  1.00  0.00     0.241 C 
ATOM     11  C   UNL A   1      31.415  27.916  27.190  1.00  0.00     0.071 C 
ATOM     12  C   UNL A   1      31.923  27.225  24.757  1.00  0.00     0.243 C 
ATOM     13  C   UNL A   1      32.796  28.563  27.301  1.00  0.00     0.007 C 
ATOM     14  C   UNL A   1      33.254  27.994  24.895  1.00  0.00     0.071 C 
ATOM     15  C   UNL A   1      33.228  29.094  25.950  1.00  0.00     0.007 C 
BRANCH  12  16
ATOM     16  N   UNL A   1      31.849  26.323  23.562  1.00  0.00    -0.321 N 
ATOM     17  H   UNL A   1      31.971  25.531  24.194  1.00  0.00     0.349 HD
BRANCH  16  18
ATOM     18  C   UNL A   1      30.573  26.417  22.807  1.00  0.00     0.299 C 
BRANCH  18  19
ATOM     19  C   UNL A   1      29.842  27.760  22.748  1.00  0.00     0.006 A 
ATOM     20  C   UNL A   1      30.437  28.976  22.372  1.00  0.00     0.009 A 
ATOM     21  C   UNL A   1      28.489  27.794  23.123  1.00  0.00     0.009 A 
ATOM     22  C   UNL A   1      29.754  30.188  22.471  1.00  0.00     0.001 A 
ATOM     23  C   UNL A   1      27.790  29.004  23.191  1.00  0.00     0.001 A 
ATOM     24  C   UNL A   1      28.432  30.204  22.891  1.00  0.00     0.000 A 
ENDBRANCH  18  19
ENDBRANCH  16  18
BRANCH  16  25
ATOM     25  C   UNL A   1      32.951  25.935  22.659  1.00  0.00     0.185 C 
ATOM     26  C   UNL A   1      33.080  24.665  21.887  1.00  0.00     0.071 C 
ATOM     27  C   UNL A   1      32.775  25.959  21.176  1.00  0.00     0.071 C 
ENDBRANCH  16  25
ENDBRANCH  12  16
ENDBRANCH   7  10
ENDBRANCH   6   7
ENDBRANCH   4   6
ENDBRANCH   1   2
BRANCH   1  28
ATOM     28  C   UNL A   1      35.244  22.374  24.349  1.00  0.00     0.042 C 
BRANCH  28  29
ATOM     29  C   UNL A   1      36.097  22.147  25.596  1.00  0.00     0.118 C 
BRANCH  29  30
ATOM     30  N   UNL A   1      37.124  21.124  25.428  1.00  0.00    -0.352 N 
ATOM     31  C   UNL A   1      38.471  21.188  25.717  1.00  0.00     0.251 C 
ATOM     32  H   UNL A   1      36.812  20.268  25.055  1.00  0.00     0.163 HD
ATOM     33  O   UNL A   1      39.214  20.260  25.406  1.00  0.00    -0.269 OA
BRANCH  31  34
ATOM     34  C   UNL A   1      39.032  22.393  26.374  1.00  0.00     0.039 A 
ATOM     35  C   UNL A   1      40.103  22.249  27.261  1.00  0.00     0.014 A 
ATOM     36  C   UNL A   1      38.526  23.663  26.091  1.00  0.00     0.014 A 
ATOM     37  C   UNL A   1      40.731  23.385  27.785  1.00  0.00     0.010 A 
ATOM     38  C   UNL A   1      39.193  24.793  26.559  1.00  0.00     0.010 A 
ATOM     39  C   UNL A   1      40.314  24.668  27.397  1.00  0.00    -0.014 A 
BRANCH  39  40
ATOM     40  C   UNL A   1      41.056  25.894  27.799  1.00  0.00     0.031 A 
ATOM     41  C   UNL A   1      40.346  27.012  28.514  1.00  0.00     0.074 A 
ATOM     42  C   UNL A   1      42.335  26.061  27.401  1.00  0.00     0.049 A 
ATOM     43  N   UNL A   1      40.777  28.212  28.805  1.00  0.00    -0.248 NA
ATOM     44  C   UNL A   1      38.958  26.757  28.931  1.00  0.00     0.031 C 
ATOM     45  C   UNL A   1      43.121  25.083  26.647  1.00  0.00     0.029 A 
ATOM     46  N   UNL A   1      43.186  27.132  27.539  1.00  0.00    -0.354 N 
ATOM     47  C   UNL A   1      39.705  28.870  29.396  1.00  0.00     0.074 A 
ATOM     48  C   UNL A   1      38.596  27.941  29.405  1.00  0.00     0.031 C 
ATOM     49  C   UNL A   1      44.330  25.602  26.378  1.00  0.00     0.029 A 
ATOM     50  C   UNL A   1      44.396  26.961  26.904  1.00  0.00     0.049 A 
ATOM     51  H   UNL A   1      42.952  27.944  28.044  1.00  0.00     0.167 HD
ATOM     52  C   UNL A   1      39.654  30.125  29.905  1.00  0.00     0.034 A 
ATOM     53  C   UNL A   1      45.432  27.807  26.742  1.00  0.00     0.034 A 
ATOM     54  C   UNL A   1      40.771  31.031  29.938  1.00  0.00     0.049 A 
ATOM     55  C   UNL A   1      45.360  29.185  27.344  1.00  0.00     0.074 A 
ATOM     56  C   UNL A   1      40.839  32.290  30.510  1.00  0.00     0.029 A 
ATOM     57  N   UNL A   1      42.013  30.781  29.375  1.00  0.00    -0.354 N 
ATOM     58  N   UNL A   1      44.386  29.736  28.026  1.00  0.00    -0.248 NA
ATOM     59  C   UNL A   1      46.541  30.047  27.184  1.00  0.00     0.031 C 
ATOM     60  C   UNL A   1      42.115  32.809  30.275  1.00  0.00     0.029 A 
ATOM     61  C   UNL A   1      42.851  31.862  29.580  1.00  0.00     0.049 A 
ATOM     62  H   UNL A   1      42.261  29.955  28.900  1.00  0.00     0.167 HD
ATOM     63  C   UNL A   1      44.851  30.987  28.414  1.00  0.00     0.074 A 
ATOM     64  C   UNL A   1      46.200  31.111  27.900  1.00  0.00     0.031 C 
ATOM     65  C   UNL A   1      44.215  31.948  29.126  1.00  0.00     0.034 A 
BRANCH  52  66
ATOM     66  C   UNL A   1      38.357  30.581  30.518  1.00  0.00     0.023 A 
ATOM     67  C   UNL A   1      38.112  30.338  31.885  1.00  0.00     0.012 A 
ATOM     68  C   UNL A   1      37.413  31.308  29.766  1.00  0.00     0.148 A 
ATOM     69  C   UNL A   1      36.935  30.781  32.486  1.00  0.00     0.002 A 
ATOM     70  C   UNL A   1      36.262  31.786  30.383  1.00  0.00     0.091 A 
ATOM     71  F   UNL A   1      37.654  31.513  28.464  1.00  0.00    -0.205 F 
ATOM     72  C   UNL A   1      36.016  31.513  31.739  1.00  0.00     0.022 A 
BRANCH  70  73
ATOM     73  S   UNL A   1      35.058  32.807  29.527  1.00  0.00     0.127 S 
ATOM     74  O   UNL A   1      34.265  33.323  30.641  1.00  0.00    -0.237 OA
ATOM     75  O   UNL A   1      35.906  33.802  28.870  1.00  0.00    -0.237 OA
ATOM     76  O   UNL A   1      34.353  31.916  28.616  1.00  0.00    -0.744 OA
ENDBRANCH  70  73
ENDBRANCH  52  66
BRANCH  53  77
ATOM     77  C   UNL A   1      46.657  27.354  26.023  1.00  0.00     0.023 A 
ATOM     78  C   UNL A   1      46.772  27.595  24.639  1.00  0.00     0.012 A 
ATOM     79  C   UNL A   1      47.714  26.714  26.698  1.00  0.00     0.148 A 
ATOM     80  C   UNL A   1      47.903  27.179  23.936  1.00  0.00     0.002 A 
ATOM     81  C   UNL A   1      48.861  26.352  26.002  1.00  0.00     0.091 A 
ATOM     82  F   UNL A   1      47.581  26.483  28.012  1.00  0.00    -0.205 F 
ATOM     83  C   UNL A   1      48.951  26.568  24.618  1.00  0.00     0.022 A 
BRANCH  81  84
ATOM     84  S   UNL A   1      50.312  25.676  26.819  1.00  0.00     0.127 S 
ATOM     85  O   UNL A   1      50.643  26.738  27.766  1.00  0.00    -0.237 OA
ATOM     86  O   UNL A   1      49.776  24.455  27.423  1.00  0.00    -0.237 OA
ATOM     87  O   UNL A   1      51.285  25.443  25.761  1.00  0.00    -0.744 OA
ENDBRANCH  81  84
ENDBRANCH  53  77
BRANCH  65  88
ATOM     88  C   UNL A   1      44.973  33.208  29.452  1.00  0.00     0.023 A 
ATOM     89  C   UNL A   1      45.768  33.273  30.612  1.00  0.00     0.012 A 
ATOM     90  C   UNL A   1      44.979  34.290  28.547  1.00  0.00     0.148 A 
ATOM     91  C   UNL A   1      46.542  34.402  30.879  1.00  0.00     0.002 A 
ATOM     92  C   UNL A   1      45.788  35.391  28.795  1.00  0.00     0.091 A 
ATOM     93  F   UNL A   1      44.201  34.215  27.458  1.00  0.00    -0.205 F 
ATOM     94  C   UNL A   1      46.563  35.454  29.965  1.00  0.00     0.022 A 
BRANCH  92  95
ATOM     95  S   UNL A   1      45.956  36.748  27.629  1.00  0.00     0.127 S 
ATOM     96  O   UNL A   1      46.476  36.062  26.446  1.00  0.00    -0.237 OA
ATOM     97  O   UNL A   1      44.578  37.221  27.502  1.00  0.00    -0.237 OA
ATOM     98  O   UNL A   1      46.869  37.699  28.248  1.00  0.00    -0.744 OA
ENDBRANCH  92  95
ENDBRANCH  65  88
ENDBRANCH  39  40
ENDBRANCH  31  34
ENDBRANCH  29  30
ENDBRANCH  28  29
ENDBRANCH   1  28
TORSDOF 19
ENDMDL
MODEL 3
REMARK VINA RESULT:     -11.8      2.710      8.135
REMARK SMILES O=C(C[NH2+][C@H]1CCCC[C@H]1[N@@H+](Cc1ccccc1)C1CC1)NCCCNC(=O)c1ccc(-c2c3nc(c(-c4cccc(S(=O)(=O)[O-])c4F)c4ccc([nH]4)c(-c4cccc(S(=O)(=O)[O-])c4F)c4nc(c(-c5cccc(S(=O)(=O)[O-])c5F)c5ccc2[nH]5)C=C4)C=C3)cc1
REMARK SMILES IDX 23 1 22 2 1 3 2 4 3 6 4 7 5 10 6 11 10 12 7 13 9 14 8 15
REMARK SMILES IDX 11 16 12 18 13 19 14 20 18 21 15 22 17 23 16 24 19 25 20 26
REMARK SMILES IDX 21 27 24 28 25 29 26 30 27 31 28 33 29 34 30 35 91 36 31 37
REMARK SMILES IDX 90 38 32 39 33 40 34 41 84 42 35 43 89 44 83 45 85 46 36 47
REMARK SMILES IDX 88 48 82 49 81 50 37 52 69 53 49 54 68 55 50 56 53 57 67 58
REMARK SMILES IDX 86 59 51 60 52 61 66 63 87 64 54 65 38 66 39 67 47 68 40 69
REMARK SMILES IDX 42 70 48 71 41 72 43 73 44 74 45 75 46 76 70 77 71 78 79 79
REMARK SMILES IDX 72 80 74 81 80 82 73 83 75 84 76 85 77 86 78 87 55 88 56 89
REMARK SMILES IDX 64 90 57 91 59 92 65 93 58 94 60 95 61 96 62 97 63 98
REMARK H PARENT 22 5 4 8 4 9 11 17 26 32 85 51 53 62
REMARK Flexibility Score: inf
ROOT
ATOM      1  C   UNL A   1      32.060  27.861  25.284  1.00  0.00     0.118 C 
ENDROOT
BRANCH   1   2
ATOM      2  N   UNL A   1      33.078  26.919  24.863  1.00  0.00    -0.351 N 
ATOM      3  O   UNL A   1      31.663  25.614  23.595  1.00  0.00    -0.269 OA
ATOM      4  C   UNL A   1      32.800  25.909  23.961  1.00  0.00     0.275 C 
ATOM      5  H   UNL A   1      33.988  27.000  25.229  1.00  0.00     0.163 HD
BRANCH   4   6
ATOM      6  C   UNL A   1      34.047  25.267  23.328  1.00  0.00     0.362 C 
BRANCH   6   7
ATOM      7  N   UNL A   1      34.396  24.113  24.164  1.00  0.00    -0.331 N 
ATOM      8  H   UNL A   1      33.598  23.913  24.767  1.00  0.00     0.347 HD
ATOM      9  H   UNL A   1      35.242  24.383  24.666  1.00  0.00     0.347 HD
BRANCH   7  10
ATOM     10  C   UNL A   1      34.737  22.885  23.451  1.00  0.00     0.241 C 
ATOM     11  C   UNL A   1      36.281  22.835  23.295  1.00  0.00     0.071 C 
ATOM     12  C   UNL A   1      34.217  21.537  24.140  1.00  0.00     0.243 C 
ATOM     13  C   UNL A   1      37.011  22.539  24.605  1.00  0.00     0.007 C 
ATOM     14  C   UNL A   1      35.048  21.176  25.390  1.00  0.00     0.071 C 
ATOM     15  C   UNL A   1      36.555  21.206  25.162  1.00  0.00     0.007 C 
BRANCH  12  16
ATOM     16  N   UNL A   1      32.749  21.267  24.271  1.00  0.00    -0.321 N 
ATOM     17  H   UNL A   1      32.577  22.182  23.853  1.00  0.00     0.349 HD
BRANCH  16  18
ATOM     18  C   UNL A   1      32.282  20.067  23.531  1.00  0.00     0.299 C 
BRANCH  18  19
ATOM     19  C   UNL A   1      32.744  18.683  23.992  1.00  0.00     0.006 A 
ATOM     20  C   UNL A   1      32.623  18.199  25.305  1.00  0.00     0.009 A 
ATOM     21  C   UNL A   1      33.360  17.844  23.050  1.00  0.00     0.009 A 
ATOM     22  C   UNL A   1      33.188  16.983  25.694  1.00  0.00     0.001 A 
ATOM     23  C   UNL A   1      33.898  16.608  23.429  1.00  0.00     0.001 A 
ATOM     24  C   UNL A   1      33.836  16.192  24.756  1.00  0.00     0.000 A 
ENDBRANCH  18  19
ENDBRANCH  16  18
BRANCH  16  25
ATOM     25  C   UNL A   1      31.894  21.505  25.452  1.00  0.00     0.185 C 
ATOM     26  C   UNL A   1      32.106  22.512  26.532  1.00  0.00     0.071 C 
ATOM     27  C   UNL A   1      30.998  22.698  25.525  1.00  0.00     0.071 C 
ENDBRANCH  16  25
ENDBRANCH  12  16
ENDBRANCH   7  10
ENDBRANCH   6   7
ENDBRANCH   4   6
ENDBRANCH   1   2
BRANCH   1  28
ATOM     28  C   UNL A   1      32.591  29.272  25.507  1.00  0.00     0.042 C 
BRANCH  28  29
ATOM     29  C   UNL A   1      33.661  29.404  26.589  1.00  0.00     0.118 C 
BRANCH  29  30
ATOM     30  N   UNL A   1      33.727  30.732  27.192  1.00  0.00    -0.352 N 
ATOM     31  C   UNL A   1      34.677  31.254  28.044  1.00  0.00     0.251 C 
ATOM     32  H   UNL A   1      32.990  31.341  26.957  1.00  0.00     0.163 HD
ATOM     33  O   UNL A   1      34.514  32.364  28.545  1.00  0.00    -0.269 OA
BRANCH  31  34
ATOM     34  C   UNL A   1      35.883  30.462  28.386  1.00  0.00     0.039 A 
ATOM     35  C   UNL A   1      37.012  30.550  27.566  1.00  0.00     0.014 A 
ATOM     36  C   UNL A   1      35.911  29.658  29.529  1.00  0.00     0.014 A 
ATOM     37  C   UNL A   1      38.201  29.916  27.947  1.00  0.00     0.010 A 
ATOM     38  C   UNL A   1      37.111  29.084  29.940  1.00  0.00     0.010 A 
ATOM     39  C   UNL A   1      38.275  29.221  29.164  1.00  0.00    -0.014 A 
BRANCH  39  40
ATOM     40  C   UNL A   1      39.558  28.674  29.684  1.00  0.00     0.031 A 
ATOM     41  C   UNL A   1      40.306  29.394  30.773  1.00  0.00     0.074 A 
ATOM     42  C   UNL A   1      40.119  27.603  29.083  1.00  0.00     0.049 A 
ATOM     43  N   UNL A   1      41.504  29.164  31.244  1.00  0.00    -0.248 NA
ATOM     44  C   UNL A   1      39.629  30.544  31.394  1.00  0.00     0.031 C 
ATOM     45  C   UNL A   1      39.531  26.851  27.974  1.00  0.00     0.029 A 
ATOM     46  N   UNL A   1      41.331  26.989  29.293  1.00  0.00    -0.354 N 
ATOM     47  C   UNL A   1      41.744  30.162  32.181  1.00  0.00     0.074 A 
ATOM     48  C   UNL A   1      40.574  31.012  32.198  1.00  0.00     0.031 C 
ATOM     49  C   UNL A   1      40.384  25.887  27.593  1.00  0.00     0.029 A 
ATOM     50  C   UNL A   1      41.597  25.974  28.401  1.00  0.00     0.049 A 
ATOM     51  H   UNL A   1      41.950  27.249  30.012  1.00  0.00     0.167 HD
ATOM     52  C   UNL A   1      42.830  30.342  32.972  1.00  0.00     0.034 A 
ATOM     53  C   UNL A   1      42.697  25.213  28.234  1.00  0.00     0.034 A 
ATOM     54  C   UNL A   1      43.973  29.468  32.988  1.00  0.00     0.049 A 
ATOM     55  C   UNL A   1      43.877  25.415  29.147  1.00  0.00     0.074 A 
ATOM     56  C   UNL A   1      45.082  29.521  33.815  1.00  0.00     0.029 A 
ATOM     57  N   UNL A   1      44.159  28.388  32.140  1.00  0.00    -0.354 N 
ATOM     58  N   UNL A   1      44.025  26.275  30.124  1.00  0.00    -0.248 NA
ATOM     59  C   UNL A   1      45.030  24.522  28.956  1.00  0.00     0.031 C 
ATOM     60  C   UNL A   1      45.948  28.485  33.453  1.00  0.00     0.029 A 
ATOM     61  C   UNL A   1      45.365  27.771  32.418  1.00  0.00     0.049 A 
ATOM     62  H   UNL A   1      43.525  28.103  31.442  1.00  0.00     0.167 HD
ATOM     63  C   UNL A   1      45.262  25.998  30.694  1.00  0.00     0.074 A 
ATOM     64  C   UNL A   1      45.822  24.883  29.958  1.00  0.00     0.031 C 
ATOM     65  C   UNL A   1      45.882  26.617  31.727  1.00  0.00     0.034 A 
BRANCH  52  66
ATOM     66  C   UNL A   1      42.816  31.504  33.929  1.00  0.00     0.023 A 
ATOM     67  C   UNL A   1      43.353  32.744  33.524  1.00  0.00     0.012 A 
ATOM     68  C   UNL A   1      42.212  31.395  35.197  1.00  0.00     0.148 A 
ATOM     69  C   UNL A   1      43.320  33.845  34.378  1.00  0.00     0.002 A 
ATOM     70  C   UNL A   1      42.142  32.509  36.025  1.00  0.00     0.091 A 
ATOM     71  F   UNL A   1      41.723  30.204  35.571  1.00  0.00    -0.205 F 
ATOM     72  C   UNL A   1      42.706  33.731  35.622  1.00  0.00     0.022 A 
BRANCH  70  73
ATOM     73  S   UNL A   1      41.301  32.484  37.612  1.00  0.00     0.127 S 
ATOM     74  O   UNL A   1      42.151  31.578  38.382  1.00  0.00    -0.237 OA
ATOM     75  O   UNL A   1      41.375  33.887  38.024  1.00  0.00    -0.237 OA
ATOM     76  O   UNL A   1      39.953  32.002  37.343  1.00  0.00    -0.744 OA
ENDBRANCH  70  73
ENDBRANCH  52  66
BRANCH  53  77
ATOM     77  C   UNL A   1      42.714  24.147  27.193  1.00  0.00     0.023 A 
ATOM     78  C   UNL A   1      43.383  24.383  25.976  1.00  0.00     0.012 A 
ATOM     79  C   UNL A   1      42.099  22.899  27.406  1.00  0.00     0.148 A 
ATOM     80  C   UNL A   1      43.413  23.408  24.979  1.00  0.00     0.002 A 
ATOM     81  C   UNL A   1      42.179  21.911  26.431  1.00  0.00     0.091 A 
ATOM     82  F   UNL A   1      41.456  22.697  28.565  1.00  0.00    -0.205 F 
ATOM     83  C   UNL A   1      42.821  22.170  25.210  1.00  0.00     0.022 A 
BRANCH  81  84
ATOM     84  S   UNL A   1      41.557  20.246  26.692  1.00  0.00     0.127 S 
ATOM     85  O   UNL A   1      42.367  19.797  27.821  1.00  0.00    -0.237 OA
ATOM     86  O   UNL A   1      40.149  20.495  27.002  1.00  0.00    -0.237 OA
ATOM     87  O   UNL A   1      41.778  19.544  25.434  1.00  0.00    -0.744 OA
ENDBRANCH  81  84
ENDBRANCH  53  77
BRANCH  65  88
ATOM     88  C   UNL A   1      47.215  26.081  32.179  1.00  0.00     0.023 A 
ATOM     89  C   UNL A   1      47.284  25.186  33.263  1.00  0.00     0.012 A 
ATOM     90  C   UNL A   1      48.387  26.385  31.456  1.00  0.00     0.148 A 
ATOM     91  C   UNL A   1      48.502  24.617  33.635  1.00  0.00     0.002 A 
ATOM     92  C   UNL A   1      49.587  25.779  31.802  1.00  0.00     0.091 A 
ATOM     93  F   UNL A   1      48.301  27.254  30.439  1.00  0.00    -0.205 F 
ATOM     94  C   UNL A   1      49.649  24.902  32.897  1.00  0.00     0.022 A 
BRANCH  92  95
ATOM     95  S   UNL A   1      51.094  26.008  30.850  1.00  0.00     0.127 S 
ATOM     96  O   UNL A   1      52.044  25.182  31.595  1.00  0.00    -0.237 OA
ATOM     97  O   UNL A   1      50.718  25.475  29.541  1.00  0.00    -0.237 OA
ATOM     98  O   UNL A   1      51.367  27.438  30.867  1.00  0.00    -0.744 OA
ENDBRANCH  92  95
ENDBRANCH  65  88
ENDBRANCH  39  40
ENDBRANCH  31  34
ENDBRANCH  29  30
ENDBRANCH  28  29
ENDBRANCH   1  28
TORSDOF 19
ENDMDL
