MODEL 1
REMARK VINA RESULT:     -11.2      0.000      0.000
REMARK SMILES O=C(Cc1csc(NC(=O)CS[C@@H]2CCS(=O)(=O)C2)n1)NCCCNC(=O)c1ccc(-c2c3nc(c(-c4cccc(S(=O)(=O)[O-])c4F)c4ccc([nH]4)c(-c4cccc(S(=O)(=O)[O-])c4F)c4nc(c(-c5cccc(S(=O)(=O)[O-])c5F)c5ccc2[nH]5)C=C4)C=C3)cc1
REMARK SMILES IDX 22 1 21 2 1 3 2 4 3 6 4 7 5 8 20 9 6 10 7 11 8 12 9 13 10 15
REMARK SMILES IDX 11 16 12 17 13 18 14 19 19 20 15 21 16 22 17 23 18 24 23 25
REMARK SMILES IDX 24 26 25 27 26 28 27 30 28 31 29 32 90 33 30 34 89 35 31 36
REMARK SMILES IDX 32 37 33 38 83 39 34 40 88 41 82 42 84 43 35 44 87 45 81 46
REMARK SMILES IDX 80 47 36 49 68 50 48 51 67 52 49 53 52 54 66 55 85 56 50 57
REMARK SMILES IDX 51 58 65 60 86 61 53 62 37 63 38 64 46 65 39 66 41 67 47 68
REMARK SMILES IDX 40 69 42 70 43 71 44 72 45 73 69 74 70 75 78 76 71 77 73 78
REMARK SMILES IDX 79 79 72 80 74 81 75 82 76 83 77 84 54 85 55 86 63 87 56 88
REMARK SMILES IDX 58 89 64 90 57 91 59 92 60 93 61 94 62 95
REMARK H PARENT 21 5 8 14 25 29 84 48 52 59
REMARK Flexibility Score: inf
ROOT
ATOM      1  C   UNL A   1      31.735  30.552  26.907  1.00  0.00     0.117 C 
ENDROOT
BRANCH   1   2
ATOM      2  N   UNL A   1      31.495  29.884  25.648  1.00  0.00    -0.356 N 
ATOM      3  O   UNL A   1      33.684  29.374  25.145  1.00  0.00    -0.275 OA
ATOM      4  C   UNL A   1      32.489  29.337  24.867  1.00  0.00     0.226 C 
ATOM      5  H   UNL A   1      30.566  29.817  25.330  1.00  0.00     0.163 HD
BRANCH   4   6
ATOM      6  C   UNL A   1      31.970  28.687  23.596  1.00  0.00     0.157 C 
BRANCH   6   7
ATOM      7  C   UNL A   1      30.828  27.782  23.913  1.00  0.00     0.063 A 
ATOM      8  C   UNL A   1      29.598  27.755  23.289  1.00  0.00     0.093 A 
ATOM      9  N   UNL A   1      30.985  26.834  24.923  1.00  0.00    -0.224 NA
ATOM     10  S   UNL A   1      28.693  26.432  23.877  1.00  0.00    -0.105 S 
ATOM     11  C   UNL A   1      29.888  26.126  25.049  1.00  0.00     0.189 A 
BRANCH  11  12
ATOM     12  N   UNL A   1      29.793  25.158  26.010  1.00  0.00    -0.301 N 
ATOM     13  C   UNL A   1      30.658  24.209  26.455  1.00  0.00     0.236 C 
ATOM     14  H   UNL A   1      28.924  25.145  26.473  1.00  0.00     0.172 HD
ATOM     15  O   UNL A   1      30.275  23.471  27.373  1.00  0.00    -0.274 OA
BRANCH  13  16
ATOM     16  C   UNL A   1      32.033  23.982  25.870  1.00  0.00     0.170 C 
BRANCH  16  17
ATOM     17  S   UNL A   1      32.193  22.358  25.060  1.00  0.00    -0.148 SA
BRANCH  17  18
ATOM     18  C   UNL A   1      33.209  21.382  26.241  1.00  0.00     0.063 C 
ATOM     19  C   UNL A   1      34.038  22.225  27.217  1.00  0.00     0.031 C 
ATOM     20  C   UNL A   1      34.254  20.614  25.419  1.00  0.00     0.151 C 
ATOM     21  C   UNL A   1      35.087  22.963  26.390  1.00  0.00     0.138 C 
ATOM     22  S   UNL A   1      35.579  21.790  25.131  1.00  0.00     0.151 S 
ATOM     23  O   UNL A   1      35.409  22.407  23.829  1.00  0.00    -0.229 OA
ATOM     24  O   UNL A   1      36.832  21.187  25.527  1.00  0.00    -0.229 OA
ENDBRANCH  17  18
ENDBRANCH  16  17
ENDBRANCH  13  16
ENDBRANCH  11  12
ENDBRANCH   6   7
ENDBRANCH   4   6
ENDBRANCH   1   2
BRANCH   1  25
ATOM     25  C   UNL A   1      31.532  32.059  26.803  1.00  0.00     0.042 C 
BRANCH  25  26
ATOM     26  C   UNL A   1      32.807  32.883  26.960  1.00  0.00     0.118 C 
BRANCH  26  27
ATOM     27  N   UNL A   1      32.581  34.182  27.575  1.00  0.00    -0.352 N 
ATOM     28  C   UNL A   1      33.157  34.757  28.681  1.00  0.00     0.251 C 
ATOM     29  H   UNL A   1      31.903  34.739  27.127  1.00  0.00     0.163 HD
ATOM     30  O   UNL A   1      32.706  35.821  29.099  1.00  0.00    -0.269 OA
BRANCH  28  31
ATOM     31  C   UNL A   1      34.295  34.113  29.380  1.00  0.00     0.039 A 
ATOM     32  C   UNL A   1      34.017  33.160  30.365  1.00  0.00     0.014 A 
ATOM     33  C   UNL A   1      35.621  34.466  29.117  1.00  0.00     0.014 A 
ATOM     34  C   UNL A   1      35.064  32.540  31.054  1.00  0.00     0.010 A 
ATOM     35  C   UNL A   1      36.665  33.781  29.741  1.00  0.00     0.010 A 
ATOM     36  C   UNL A   1      36.401  32.829  30.735  1.00  0.00    -0.014 A 
BRANCH  36  37
ATOM     37  C   UNL A   1      37.516  32.155  31.453  1.00  0.00     0.031 A 
ATOM     38  C   UNL A   1      38.288  31.038  30.797  1.00  0.00     0.074 A 
ATOM     39  C   UNL A   1      37.818  32.520  32.716  1.00  0.00     0.049 A 
ATOM     40  N   UNL A   1      39.306  30.356  31.259  1.00  0.00    -0.248 NA
ATOM     41  C   UNL A   1      37.847  30.612  29.459  1.00  0.00     0.031 C 
ATOM     42  C   UNL A   1      37.099  33.529  33.498  1.00  0.00     0.029 A 
ATOM     43  N   UNL A   1      38.799  32.078  33.568  1.00  0.00    -0.354 N 
ATOM     44  C   UNL A   1      39.605  29.408  30.288  1.00  0.00     0.074 A 
ATOM     45  C   UNL A   1      38.634  29.572  29.229  1.00  0.00     0.031 C 
ATOM     46  C   UNL A   1      37.675  33.642  34.706  1.00  0.00     0.029 A 
ATOM     47  C   UNL A   1      38.784  32.697  34.796  1.00  0.00     0.049 A 
ATOM     48  H   UNL A   1      39.452  31.384  33.323  1.00  0.00     0.167 HD
ATOM     49  C   UNL A   1      40.614  28.502  30.259  1.00  0.00     0.034 A 
ATOM     50  C   UNL A   1      39.574  32.527  35.875  1.00  0.00     0.034 A 
ATOM     51  C   UNL A   1      41.598  28.359  31.298  1.00  0.00     0.049 A 
ATOM     52  C   UNL A   1      40.715  31.547  35.800  1.00  0.00     0.074 A 
ATOM     53  C   UNL A   1      42.701  27.524  31.329  1.00  0.00     0.029 A 
ATOM     54  N   UNL A   1      41.595  29.058  32.494  1.00  0.00    -0.354 N 
ATOM     55  N   UNL A   1      41.071  30.767  34.809  1.00  0.00    -0.248 NA
ATOM     56  C   UNL A   1      41.589  31.461  36.977  1.00  0.00     0.031 C 
ATOM     57  C   UNL A   1      43.345  27.695  32.559  1.00  0.00     0.029 A 
ATOM     58  C   UNL A   1      42.672  28.672  33.274  1.00  0.00     0.049 A 
ATOM     59  H   UNL A   1      40.924  29.732  32.753  1.00  0.00     0.167 HD
ATOM     60  C   UNL A   1      42.237  30.134  35.224  1.00  0.00     0.074 A 
ATOM     61  C   UNL A   1      42.535  30.637  36.548  1.00  0.00     0.031 C 
ATOM     62  C   UNL A   1      42.989  29.213  34.571  1.00  0.00     0.034 A 
BRANCH  49  63
ATOM     63  C   UNL A   1      40.727  27.619  29.042  1.00  0.00     0.023 A 
ATOM     64  C   UNL A   1      39.886  26.494  28.911  1.00  0.00     0.012 A 
ATOM     65  C   UNL A   1      41.626  27.930  28.002  1.00  0.00     0.148 A 
ATOM     66  C   UNL A   1      39.966  25.671  27.788  1.00  0.00     0.002 A 
ATOM     67  C   UNL A   1      41.664  27.135  26.863  1.00  0.00     0.091 A 
ATOM     68  F   UNL A   1      42.431  28.992  28.150  1.00  0.00    -0.205 F 
ATOM     69  C   UNL A   1      40.846  25.997  26.760  1.00  0.00     0.022 A 
BRANCH  67  70
ATOM     70  S   UNL A   1      42.702  27.516  25.447  1.00  0.00     0.127 S 
ATOM     71  O   UNL A   1      42.600  26.283  24.668  1.00  0.00    -0.237 OA
ATOM     72  O   UNL A   1      42.011  28.666  24.862  1.00  0.00    -0.237 OA
ATOM     73  O   UNL A   1      44.023  27.808  25.983  1.00  0.00    -0.744 OA
ENDBRANCH  67  70
ENDBRANCH  49  63
BRANCH  50  74
ATOM     74  C   UNL A   1      39.359  33.352  37.098  1.00  0.00     0.023 A 
ATOM     75  C   UNL A   1      39.940  34.632  37.187  1.00  0.00     0.012 A 
ATOM     76  C   UNL A   1      38.573  32.879  38.166  1.00  0.00     0.148 A 
ATOM     77  C   UNL A   1      39.781  35.408  38.335  1.00  0.00     0.002 A 
ATOM     78  C   UNL A   1      38.369  33.681  39.282  1.00  0.00     0.091 A 
ATOM     79  F   UNL A   1      38.035  31.656  38.063  1.00  0.00    -0.205 F 
ATOM     80  C   UNL A   1      38.989  34.937  39.378  1.00  0.00     0.022 A 
BRANCH  78  81
ATOM     81  S   UNL A   1      37.262  33.211  40.616  1.00  0.00     0.127 S 
ATOM     82  O   UNL A   1      37.971  32.079  41.208  1.00  0.00    -0.237 OA
ATOM     83  O   UNL A   1      37.246  34.426  41.433  1.00  0.00    -0.237 OA
ATOM     84  O   UNL A   1      35.990  32.897  39.980  1.00  0.00    -0.744 OA
ENDBRANCH  78  81
ENDBRANCH  50  74
BRANCH  62  85
ATOM     85  C   UNL A   1      44.248  28.733  35.247  1.00  0.00     0.023 A 
ATOM     86  C   UNL A   1      45.494  29.309  34.928  1.00  0.00     0.012 A 
ATOM     87  C   UNL A   1      44.185  27.728  36.234  1.00  0.00     0.148 A 
ATOM     88  C   UNL A   1      46.663  28.854  35.539  1.00  0.00     0.002 A 
ATOM     89  C   UNL A   1      45.346  27.321  36.880  1.00  0.00     0.091 A 
ATOM     90  F   UNL A   1      42.995  27.178  36.514  1.00  0.00    -0.205 F 
ATOM     91  C   UNL A   1      46.588  27.869  36.522  1.00  0.00     0.022 A 
BRANCH  89  92
ATOM     92  S   UNL A   1      45.325  26.134  38.228  1.00  0.00     0.127 S 
ATOM     93  O   UNL A   1      46.730  26.115  38.629  1.00  0.00    -0.237 OA
ATOM     94  O   UNL A   1      44.424  26.770  39.190  1.00  0.00    -0.237 OA
ATOM     95  O   UNL A   1      44.817  24.893  37.659  1.00  0.00    -0.744 OA
ENDBRANCH  89  92
ENDBRANCH  62  85
ENDBRANCH  36  37
ENDBRANCH  28  31
ENDBRANCH  26  27
ENDBRANCH  25  26
ENDBRANCH   1  25
TORSDOF 18
ENDMDL
MODEL 2
REMARK VINA RESULT:     -11.1      1.082      7.759
REMARK SMILES O=C(Cc1csc(NC(=O)CS[C@@H]2CCS(=O)(=O)C2)n1)NCCCNC(=O)c1ccc(-c2c3nc(c(-c4cccc(S(=O)(=O)[O-])c4F)c4ccc([nH]4)c(-c4cccc(S(=O)(=O)[O-])c4F)c4nc(c(-c5cccc(S(=O)(=O)[O-])c5F)c5ccc2[nH]5)C=C4)C=C3)cc1
REMARK SMILES IDX 22 1 21 2 1 3 2 4 3 6 4 7 5 8 20 9 6 10 7 11 8 12 9 13 10 15
REMARK SMILES IDX 11 16 12 17 13 18 14 19 19 20 15 21 16 22 17 23 18 24 23 25
REMARK SMILES IDX 24 26 25 27 26 28 27 30 28 31 29 32 90 33 30 34 89 35 31 36
REMARK SMILES IDX 32 37 33 38 83 39 34 40 88 41 82 42 84 43 35 44 87 45 81 46
REMARK SMILES IDX 80 47 36 49 68 50 48 51 67 52 49 53 52 54 66 55 85 56 50 57
REMARK SMILES IDX 51 58 65 60 86 61 53 62 37 63 38 64 46 65 39 66 41 67 47 68
REMARK SMILES IDX 40 69 42 70 43 71 44 72 45 73 69 74 70 75 78 76 71 77 73 78
REMARK SMILES IDX 79 79 72 80 74 81 75 82 76 83 77 84 54 85 55 86 63 87 56 88
REMARK SMILES IDX 58 89 64 90 57 91 59 92 60 93 61 94 62 95
REMARK H PARENT 21 5 8 14 25 29 84 48 52 59
REMARK Flexibility Score: inf
ROOT
ATOM      1  C   UNL A   1      32.197  30.646  26.988  1.00  0.00     0.117 C 
ENDROOT
BRANCH   1   2
ATOM      2  N   UNL A   1      31.779  30.057  25.737  1.00  0.00    -0.356 N 
ATOM      3  O   UNL A   1      33.793  29.104  25.154  1.00  0.00    -0.275 OA
ATOM      4  C   UNL A   1      32.608  29.321  24.919  1.00  0.00     0.226 C 
ATOM      5  H   UNL A   1      30.846  30.189  25.453  1.00  0.00     0.163 HD
BRANCH   4   6
ATOM      6  C   UNL A   1      31.921  28.808  23.665  1.00  0.00     0.157 C 
BRANCH   6   7
ATOM      7  C   UNL A   1      30.870  27.814  24.028  1.00  0.00     0.063 A 
ATOM      8  C   UNL A   1      29.649  27.640  23.409  1.00  0.00     0.093 A 
ATOM      9  N   UNL A   1      31.114  26.936  25.082  1.00  0.00    -0.224 NA
ATOM     10  S   UNL A   1      28.873  26.266  24.062  1.00  0.00    -0.105 S 
ATOM     11  C   UNL A   1      30.089  26.133  25.244  1.00  0.00     0.189 A 
BRANCH  11  12
ATOM     12  N   UNL A   1      30.085  25.207  26.251  1.00  0.00    -0.301 N 
ATOM     13  C   UNL A   1      30.491  23.913  26.318  1.00  0.00     0.236 C 
ATOM     14  H   UNL A   1      29.713  25.547  27.098  1.00  0.00     0.172 HD
ATOM     15  O   UNL A   1      30.368  23.330  27.404  1.00  0.00    -0.274 OA
BRANCH  13  16
ATOM     16  C   UNL A   1      31.042  23.140  25.142  1.00  0.00     0.170 C 
BRANCH  16  17
ATOM     17  S   UNL A   1      32.720  23.674  24.675  1.00  0.00    -0.148 SA
BRANCH  17  18
ATOM     18  C   UNL A   1      33.814  22.513  25.588  1.00  0.00     0.063 C 
ATOM     19  C   UNL A   1      34.950  23.186  26.367  1.00  0.00     0.031 C 
ATOM     20  C   UNL A   1      34.532  21.645  24.544  1.00  0.00     0.151 C 
ATOM     21  C   UNL A   1      35.891  23.807  25.339  1.00  0.00     0.138 C 
ATOM     22  S   UNL A   1      35.920  22.635  23.985  1.00  0.00     0.151 S 
ATOM     23  O   UNL A   1      35.563  23.329  22.763  1.00  0.00    -0.229 OA
ATOM     24  O   UNL A   1      37.127  21.846  24.086  1.00  0.00    -0.229 OA
ENDBRANCH  17  18
ENDBRANCH  16  17
ENDBRANCH  13  16
ENDBRANCH  11  12
ENDBRANCH   6   7
ENDBRANCH   4   6
ENDBRANCH   1   2
BRANCH   1  25
ATOM     25  C   UNL A   1      31.762  32.101  27.109  1.00  0.00     0.042 C 
BRANCH  25  26
ATOM     26  C   UNL A   1      32.910  33.105  27.169  1.00  0.00     0.118 C 
BRANCH  26  27
ATOM     27  N   UNL A   1      32.612  34.273  27.984  1.00  0.00    -0.352 N 
ATOM     28  C   UNL A   1      33.216  34.743  29.124  1.00  0.00     0.251 C 
ATOM     29  H   UNL A   1      31.852  34.814  27.667  1.00  0.00     0.163 HD
ATOM     30  O   UNL A   1      32.701  35.684  29.723  1.00  0.00    -0.269 OA
BRANCH  28  31
ATOM     31  C   UNL A   1      34.460  34.128  29.647  1.00  0.00     0.039 A 
ATOM     32  C   UNL A   1      34.359  33.222  30.709  1.00  0.00     0.014 A 
ATOM     33  C   UNL A   1      35.719  34.463  29.144  1.00  0.00     0.014 A 
ATOM     34  C   UNL A   1      35.512  32.632  31.235  1.00  0.00     0.010 A 
ATOM     35  C   UNL A   1      36.858  33.804  29.610  1.00  0.00     0.010 A 
ATOM     36  C   UNL A   1      36.773  32.900  30.678  1.00  0.00    -0.014 A 
BRANCH  36  37
ATOM     37  C   UNL A   1      37.998  32.256  31.225  1.00  0.00     0.031 A 
ATOM     38  C   UNL A   1      38.649  32.787  32.478  1.00  0.00     0.074 A 
ATOM     39  C   UNL A   1      38.553  31.213  30.577  1.00  0.00     0.049 A 
ATOM     40  N   UNL A   1      39.702  32.337  33.114  1.00  0.00    -0.248 NA
ATOM     41  C   UNL A   1      38.059  33.991  33.084  1.00  0.00     0.031 C 
ATOM     42  C   UNL A   1      38.072  30.651  29.312  1.00  0.00     0.029 A 
ATOM     43  N   UNL A   1      39.647  30.443  30.885  1.00  0.00    -0.354 N 
ATOM     44  C   UNL A   1      39.916  33.215  34.170  1.00  0.00     0.074 A 
ATOM     45  C   UNL A   1      38.911  34.250  34.065  1.00  0.00     0.031 C 
ATOM     46  C   UNL A   1      38.856  29.618  28.962  1.00  0.00     0.029 A 
ATOM     47  C   UNL A   1      39.909  29.459  29.961  1.00  0.00     0.049 A 
ATOM     48  H   UNL A   1      40.194  30.584  31.692  1.00  0.00     0.167 HD
ATOM     49  C   UNL A   1      40.842  33.154  35.158  1.00  0.00     0.034 A 
ATOM     50  C   UNL A   1      40.884  28.530  29.921  1.00  0.00     0.034 A 
ATOM     51  C   UNL A   1      41.822  32.110  35.281  1.00  0.00     0.049 A 
ATOM     52  C   UNL A   1      41.873  28.456  31.054  1.00  0.00     0.074 A 
ATOM     53  C   UNL A   1      42.754  31.917  36.285  1.00  0.00     0.029 A 
ATOM     54  N   UNL A   1      42.007  31.085  34.366  1.00  0.00    -0.354 N 
ATOM     55  N   UNL A   1      41.962  29.207  32.124  1.00  0.00    -0.248 NA
ATOM     56  C   UNL A   1      42.865  27.374  30.995  1.00  0.00     0.031 C 
ATOM     57  C   UNL A   1      43.525  30.795  35.959  1.00  0.00     0.029 A 
ATOM     58  C   UNL A   1      43.040  30.260  34.777  1.00  0.00     0.049 A 
ATOM     59  H   UNL A   1      41.480  30.961  33.543  1.00  0.00     0.167 HD
ATOM     60  C   UNL A   1      42.987  28.661  32.888  1.00  0.00     0.074 A 
ATOM     61  C   UNL A   1      43.473  27.504  32.166  1.00  0.00     0.031 C 
ATOM     62  C   UNL A   1      43.486  29.083  34.077  1.00  0.00     0.034 A 
BRANCH  49  63
ATOM     63  C   UNL A   1      40.812  34.232  36.213  1.00  0.00     0.023 A 
ATOM     64  C   UNL A   1      41.277  35.528  35.904  1.00  0.00     0.012 A 
ATOM     65  C   UNL A   1      40.276  33.981  37.491  1.00  0.00     0.148 A 
ATOM     66  C   UNL A   1      41.247  36.543  36.860  1.00  0.00     0.002 A 
ATOM     67  C   UNL A   1      40.202  35.010  38.422  1.00  0.00     0.091 A 
ATOM     68  F   UNL A   1      39.855  32.739  37.775  1.00  0.00    -0.205 F 
ATOM     69  C   UNL A   1      40.701  36.287  38.114  1.00  0.00     0.022 A 
BRANCH  67  70
ATOM     70  S   UNL A   1      39.440  34.806  40.036  1.00  0.00     0.127 S 
ATOM     71  O   UNL A   1      38.128  34.272  39.676  1.00  0.00    -0.237 OA
ATOM     72  O   UNL A   1      40.335  33.841  40.678  1.00  0.00    -0.237 OA
ATOM     73  O   UNL A   1      39.430  36.127  40.647  1.00  0.00    -0.744 OA
ENDBRANCH  67  70
ENDBRANCH  49  63
BRANCH  50  74
ATOM     74  C   UNL A   1      40.935  27.547  28.801  1.00  0.00     0.023 A 
ATOM     75  C   UNL A   1      40.017  26.479  28.768  1.00  0.00     0.012 A 
ATOM     76  C   UNL A   1      41.882  27.671  27.766  1.00  0.00     0.148 A 
ATOM     77  C   UNL A   1      40.068  25.528  27.748  1.00  0.00     0.002 A 
ATOM     78  C   UNL A   1      41.889  26.755  26.721  1.00  0.00     0.091 A 
ATOM     79  F   UNL A   1      42.750  28.691  27.821  1.00  0.00    -0.205 F 
ATOM     80  C   UNL A   1      40.997  25.670  26.721  1.00  0.00     0.022 A 
BRANCH  78  81
ATOM     81  S   UNL A   1      42.963  26.931  25.293  1.00  0.00     0.127 S 
ATOM     82  O   UNL A   1      42.758  25.658  24.607  1.00  0.00    -0.237 OA
ATOM     83  O   UNL A   1      42.380  28.095  24.623  1.00  0.00    -0.237 OA
ATOM     84  O   UNL A   1      44.299  27.152  25.830  1.00  0.00    -0.744 OA
ENDBRANCH  78  81
ENDBRANCH  50  74
BRANCH  62  85
ATOM     85  C   UNL A   1      44.574  28.254  34.710  1.00  0.00     0.023 A 
ATOM     86  C   UNL A   1      45.930  28.549  34.465  1.00  0.00     0.012 A 
ATOM     87  C   UNL A   1      44.246  27.198  35.584  1.00  0.00     0.148 A 
ATOM     88  C   UNL A   1      46.940  27.773  35.035  1.00  0.00     0.002 A 
ATOM     89  C   UNL A   1      45.257  26.466  36.194  1.00  0.00     0.091 A 
ATOM     90  F   UNL A   1      42.951  26.919  35.794  1.00  0.00    -0.205 F 
ATOM     91  C   UNL A   1      46.604  26.740  35.907  1.00  0.00     0.022 A 
BRANCH  89  92
ATOM     92  S   UNL A   1      44.915  25.188  37.409  1.00  0.00     0.127 S 
ATOM     93  O   UNL A   1      44.234  24.181  36.598  1.00  0.00    -0.237 OA
ATOM     94  O   UNL A   1      46.258  24.811  37.850  1.00  0.00    -0.237 OA
ATOM     95  O   UNL A   1      44.101  25.822  38.437  1.00  0.00    -0.744 OA
ENDBRANCH  89  92
ENDBRANCH  62  85
ENDBRANCH  36  37
ENDBRANCH  28  31
ENDBRANCH  26  27
ENDBRANCH  25  26
ENDBRANCH   1  25
TORSDOF 18
ENDMDL
MODEL 3
REMARK VINA RESULT:     -11.0      1.943      7.825
REMARK SMILES O=C(Cc1csc(NC(=O)CS[C@@H]2CCS(=O)(=O)C2)n1)NCCCNC(=O)c1ccc(-c2c3nc(c(-c4cccc(S(=O)(=O)[O-])c4F)c4ccc([nH]4)c(-c4cccc(S(=O)(=O)[O-])c4F)c4nc(c(-c5cccc(S(=O)(=O)[O-])c5F)c5ccc2[nH]5)C=C4)C=C3)cc1
REMARK SMILES IDX 22 1 21 2 1 3 2 4 3 6 4 7 5 8 20 9 6 10 7 11 8 12 9 13 10 15
REMARK SMILES IDX 11 16 12 17 13 18 14 19 19 20 15 21 16 22 17 23 18 24 23 25
REMARK SMILES IDX 24 26 25 27 26 28 27 30 28 31 29 32 90 33 30 34 89 35 31 36
REMARK SMILES IDX 32 37 33 38 83 39 34 40 88 41 82 42 84 43 35 44 87 45 81 46
REMARK SMILES IDX 80 47 36 49 68 50 48 51 67 52 49 53 52 54 66 55 85 56 50 57
REMARK SMILES IDX 51 58 65 60 86 61 53 62 37 63 38 64 46 65 39 66 41 67 47 68
REMARK SMILES IDX 40 69 42 70 43 71 44 72 45 73 69 74 70 75 78 76 71 77 73 78
REMARK SMILES IDX 79 79 72 80 74 81 75 82 76 83 77 84 54 85 55 86 63 87 56 88
REMARK SMILES IDX 58 89 64 90 57 91 59 92 60 93 61 94 62 95
REMARK H PARENT 21 5 8 14 25 29 84 48 52 59
REMARK Flexibility Score: inf
ROOT
ATOM      1  C   UNL A   1      33.686  29.065  26.293  1.00  0.00     0.117 C 
ENDROOT
BRANCH   1   2
ATOM      2  N   UNL A   1      32.694  29.002  25.245  1.00  0.00    -0.356 N 
ATOM      3  O   UNL A   1      34.002  27.993  23.640  1.00  0.00    -0.275 OA
ATOM      4  C   UNL A   1      32.925  28.460  23.999  1.00  0.00     0.226 C 
ATOM      5  H   UNL A   1      31.799  29.367  25.431  1.00  0.00     0.163 HD
BRANCH   4   6
ATOM      6  C   UNL A   1      31.715  28.512  23.082  1.00  0.00     0.157 C 
BRANCH   6   7
ATOM      7  C   UNL A   1      30.614  27.677  23.642  1.00  0.00     0.063 A 
ATOM      8  C   UNL A   1      29.299  27.656  23.224  1.00  0.00     0.093 A 
ATOM      9  N   UNL A   1      30.903  26.796  24.683  1.00  0.00    -0.224 NA
ATOM     10  S   UNL A   1      28.463  26.414  24.044  1.00  0.00    -0.105 S 
ATOM     11  C   UNL A   1      29.821  26.143  25.033  1.00  0.00     0.189 A 
BRANCH  11  12
ATOM     12  N   UNL A   1      29.854  25.248  26.067  1.00  0.00    -0.301 N 
ATOM     13  C   UNL A   1      30.407  24.015  26.205  1.00  0.00     0.236 C 
ATOM     14  H   UNL A   1      29.382  25.560  26.873  1.00  0.00     0.172 HD
ATOM     15  O   UNL A   1      30.274  23.448  27.298  1.00  0.00    -0.274 OA
BRANCH  13  16
ATOM     16  C   UNL A   1      31.132  23.288  25.097  1.00  0.00     0.170 C 
BRANCH  16  17
ATOM     17  S   UNL A   1      32.589  22.371  25.694  1.00  0.00    -0.148 SA
BRANCH  17  18
ATOM     18  C   UNL A   1      33.665  23.682  26.403  1.00  0.00     0.063 C 
ATOM     19  C   UNL A   1      33.866  24.903  25.498  1.00  0.00     0.031 C 
ATOM     20  C   UNL A   1      35.073  23.086  26.555  1.00  0.00     0.151 C 
ATOM     21  C   UNL A   1      34.657  24.431  24.281  1.00  0.00     0.138 C 
ATOM     22  S   UNL A   1      35.824  23.240  24.932  1.00  0.00     0.151 S 
ATOM     23  O   UNL A   1      35.671  21.995  24.204  1.00  0.00    -0.229 OA
ATOM     24  O   UNL A   1      37.110  23.885  25.073  1.00  0.00    -0.229 OA
ENDBRANCH  17  18
ENDBRANCH  16  17
ENDBRANCH  13  16
ENDBRANCH  11  12
ENDBRANCH   6   7
ENDBRANCH   4   6
ENDBRANCH   1   2
BRANCH   1  25
ATOM     25  C   UNL A   1      33.899  30.488  26.794  1.00  0.00     0.042 C 
BRANCH  25  26
ATOM     26  C   UNL A   1      32.650  31.156  27.360  1.00  0.00     0.118 C 
BRANCH  26  27
ATOM     27  N   UNL A   1      32.769  32.603  27.467  1.00  0.00    -0.352 N 
ATOM     28  C   UNL A   1      33.728  33.376  28.074  1.00  0.00     0.251 C 
ATOM     29  H   UNL A   1      32.043  33.110  27.036  1.00  0.00     0.163 HD
ATOM     30  O   UNL A   1      33.547  34.589  28.156  1.00  0.00    -0.269 OA
BRANCH  28  31
ATOM     31  C   UNL A   1      34.959  32.773  28.640  1.00  0.00     0.039 A 
ATOM     32  C   UNL A   1      34.833  31.886  29.714  1.00  0.00     0.014 A 
ATOM     33  C   UNL A   1      36.231  33.102  28.164  1.00  0.00     0.014 A 
ATOM     34  C   UNL A   1      35.972  31.308  30.281  1.00  0.00     0.010 A 
ATOM     35  C   UNL A   1      37.358  32.455  28.672  1.00  0.00     0.010 A 
ATOM     36  C   UNL A   1      37.246  31.570  29.752  1.00  0.00    -0.014 A 
BRANCH  36  37
ATOM     37  C   UNL A   1      38.458  30.938  30.343  1.00  0.00     0.031 A 
ATOM     38  C   UNL A   1      38.953  31.354  31.705  1.00  0.00     0.074 A 
ATOM     39  C   UNL A   1      39.141  30.013  29.640  1.00  0.00     0.049 A 
ATOM     40  N   UNL A   1      39.972  30.895  32.388  1.00  0.00    -0.248 NA
ATOM     41  C   UNL A   1      38.228  32.442  32.381  1.00  0.00     0.031 C 
ATOM     42  C   UNL A   1      38.819  29.578  28.279  1.00  0.00     0.029 A 
ATOM     43  N   UNL A   1      40.254  29.278  29.967  1.00  0.00    -0.354 N 
ATOM     44  C   UNL A   1      40.027  31.654  33.552  1.00  0.00     0.074 A 
ATOM     45  C   UNL A   1      38.966  32.633  33.464  1.00  0.00     0.031 C 
ATOM     46  C   UNL A   1      39.701  28.641  27.895  1.00  0.00     0.029 A 
ATOM     47  C   UNL A   1      40.667  28.427  28.969  1.00  0.00     0.049 A 
ATOM     48  H   UNL A   1      40.713  29.354  30.835  1.00  0.00     0.167 HD
ATOM     49  C   UNL A   1      40.860  31.531  34.613  1.00  0.00     0.034 A 
ATOM     50  C   UNL A   1      41.704  27.567  28.921  1.00  0.00     0.034 A 
ATOM     51  C   UNL A   1      41.896  30.538  34.715  1.00  0.00     0.049 A 
ATOM     52  C   UNL A   1      42.588  27.418  30.132  1.00  0.00     0.074 A 
ATOM     53  C   UNL A   1      42.743  30.284  35.779  1.00  0.00     0.029 A 
ATOM     54  N   UNL A   1      42.235  29.641  33.714  1.00  0.00    -0.354 N 
ATOM     55  N   UNL A   1      42.526  28.042  31.283  1.00  0.00    -0.248 NA
ATOM     56  C   UNL A   1      43.654  26.411  30.051  1.00  0.00     0.031 C 
ATOM     57  C   UNL A   1      43.616  29.255  35.407  1.00  0.00     0.029 A 
ATOM     58  C   UNL A   1      43.280  28.836  34.130  1.00  0.00     0.049 A 
ATOM     59  H   UNL A   1      41.795  29.585  32.834  1.00  0.00     0.167 HD
ATOM     60  C   UNL A   1      43.512  27.470  32.078  1.00  0.00     0.074 A 
ATOM     61  C   UNL A   1      44.142  26.437  31.283  1.00  0.00     0.031 C 
ATOM     62  C   UNL A   1      43.869  27.777  33.350  1.00  0.00     0.034 A 
BRANCH  49  63
ATOM     63  C   UNL A   1      40.660  32.473  35.774  1.00  0.00     0.023 A 
ATOM     64  C   UNL A   1      41.468  33.623  35.891  1.00  0.00     0.012 A 
ATOM     65  C   UNL A   1      39.638  32.252  36.718  1.00  0.00     0.148 A 
ATOM     66  C   UNL A   1      41.291  34.514  36.949  1.00  0.00     0.002 A 
ATOM     67  C   UNL A   1      39.434  33.171  37.741  1.00  0.00     0.091 A 
ATOM     68  F   UNL A   1      38.890  31.145  36.604  1.00  0.00    -0.205 F 
ATOM     69  C   UNL A   1      40.269  34.294  37.867  1.00  0.00     0.022 A 
BRANCH  67  70
ATOM     70  S   UNL A   1      38.091  33.023  38.926  1.00  0.00     0.127 S 
ATOM     71  O   UNL A   1      38.500  31.843  39.687  1.00  0.00    -0.237 OA
ATOM     72  O   UNL A   1      38.190  34.286  39.659  1.00  0.00    -0.237 OA
ATOM     73  O   UNL A   1      36.876  32.869  38.140  1.00  0.00    -0.744 OA
ENDBRANCH  67  70
ENDBRANCH  49  63
BRANCH  50  74
ATOM     74  C   UNL A   1      41.926  26.728  27.710  1.00  0.00     0.023 A 
ATOM     75  C   UNL A   1      42.515  27.299  26.564  1.00  0.00     0.012 A 
ATOM     76  C   UNL A   1      41.566  25.367  27.691  1.00  0.00     0.148 A 
ATOM     77  C   UNL A   1      42.702  26.541  25.408  1.00  0.00     0.002 A 
ATOM     78  C   UNL A   1      41.810  24.603  26.556  1.00  0.00     0.091 A 
ATOM     79  F   UNL A   1      41.001  24.846  28.789  1.00  0.00    -0.205 F 
ATOM     80  C   UNL A   1      42.358  25.193  25.406  1.00  0.00     0.022 A 
BRANCH  78  81
ATOM     81  S   UNL A   1      41.518  22.832  26.507  1.00  0.00     0.127 S 
ATOM     82  O   UNL A   1      42.214  22.448  25.282  1.00  0.00    -0.237 OA
ATOM     83  O   UNL A   1      42.159  22.389  27.746  1.00  0.00    -0.237 OA
ATOM     84  O   UNL A   1      40.070  22.671  26.489  1.00  0.00    -0.744 OA
ENDBRANCH  78  81
ENDBRANCH  50  74
BRANCH  62  85
ATOM     85  C   UNL A   1      44.951  26.945  33.992  1.00  0.00     0.023 A 
ATOM     86  C   UNL A   1      46.300  27.344  33.913  1.00  0.00     0.012 A 
ATOM     87  C   UNL A   1      44.617  25.778  34.709  1.00  0.00     0.148 A 
ATOM     88  C   UNL A   1      47.304  26.566  34.490  1.00  0.00     0.002 A 
ATOM     89  C   UNL A   1      45.617  25.039  35.330  1.00  0.00     0.091 A 
ATOM     90  F   UNL A   1      43.331  25.402  34.760  1.00  0.00    -0.205 F 
ATOM     91  C   UNL A   1      46.963  25.421  35.206  1.00  0.00     0.022 A 
BRANCH  89  92
ATOM     92  S   UNL A   1      45.255  23.612  36.358  1.00  0.00     0.127 S 
ATOM     93  O   UNL A   1      46.594  23.100  36.639  1.00  0.00    -0.237 OA
ATOM     94  O   UNL A   1      44.579  24.218  37.505  1.00  0.00    -0.237 OA
ATOM     95  O   UNL A   1      44.407  22.744  35.551  1.00  0.00    -0.744 OA
ENDBRANCH  89  92
ENDBRANCH  62  85
ENDBRANCH  36  37
ENDBRANCH  28  31
ENDBRANCH  26  27
ENDBRANCH  25  26
ENDBRANCH   1  25
TORSDOF 18
ENDMDL
