MODEL 1
REMARK VINA RESULT:     -12.6      0.000      0.000
REMARK SMILES COc1cc(NC(=O)CN2C(=O)c3ccccc3C2=O)c(C(=O)NCCCNC(=O)c2ccc(-c3c4nc(c(-c5cccc(S(=O)(=O)[O-])c5F)c5ccc([nH]5)c(-c5cccc(S(=O)(=O)[O-])c5F)c5nc(c(-c6cccc(S(=O)(=O)[O-])c6F)c6ccc3[nH]6)C=C5)C=C4)cc2)cc1OC
REMARK SMILES IDX 26 1 25 2 24 3 22 4 23 5 21 7 3 8 4 9 95 10 5 11 94 12 2 13
REMARK SMILES IDX 1 14 96 15 97 16 6 17 7 18 8 20 9 21 10 22 11 23 19 24 12 25
REMARK SMILES IDX 13 26 18 27 20 28 14 29 17 30 15 31 16 32 27 33 28 34 29 35
REMARK SMILES IDX 30 37 31 38 32 39 93 40 33 41 92 42 34 43 35 44 36 45 86 46
REMARK SMILES IDX 37 47 91 48 85 49 87 50 38 51 90 52 84 53 83 54 39 56 71 57
REMARK SMILES IDX 51 58 70 59 52 60 55 61 69 62 88 63 53 64 54 65 68 67 89 68
REMARK SMILES IDX 56 69 40 70 41 71 49 72 42 73 44 74 50 75 43 76 45 77 46 78
REMARK SMILES IDX 47 79 48 80 72 81 73 82 81 83 74 84 76 85 82 86 75 87 77 88
REMARK SMILES IDX 78 89 79 90 80 91 57 92 58 93 66 94 59 95 61 96 67 97 60 98
REMARK SMILES IDX 62 99 63 100 64 101 65 102
REMARK H PARENT 24 6 6 19 28 36 87 55 55 66
REMARK Flexibility Score: inf
ROOT
ATOM      1  C   UNL A   1      35.974  21.464  25.408  1.00  0.00     0.042 C 
ENDROOT
BRANCH   1   2
ATOM      2  C   UNL A   1      35.021  22.226  24.487  1.00  0.00     0.118 C 
BRANCH   2   3
ATOM      3  N   UNL A   1      33.882  21.405  24.107  1.00  0.00    -0.352 N 
ATOM      4  C   UNL A   1      32.689  21.697  23.491  1.00  0.00     0.253 C 
ATOM      5  O   UNL A   1      31.975  20.740  23.186  1.00  0.00    -0.269 OA
ATOM      6  H   UNL A   1      33.987  20.454  24.335  1.00  0.00     0.163 HD
BRANCH   4   7
ATOM      7  C   UNL A   1      32.272  23.082  23.099  1.00  0.00     0.067 A 
ATOM      8  C   UNL A   1      31.353  25.573  22.176  1.00  0.00     0.162 A 
ATOM      9  C   UNL A   1      30.732  24.942  23.264  1.00  0.00     0.077 A 
ATOM     10  C   UNL A   1      32.475  24.995  21.591  1.00  0.00     0.161 A 
ATOM     11  C   UNL A   1      31.231  23.747  23.793  1.00  0.00     0.058 A 
ATOM     12  C   UNL A   1      32.929  23.767  22.071  1.00  0.00     0.066 A 
BRANCH   8  13
ATOM     13  O   UNL A   1      30.967  26.831  21.800  1.00  0.00    -0.493 OA
ATOM     14  C   UNL A   1      30.206  27.523  22.785  1.00  0.00     0.278 C 
ENDBRANCH   8  13
BRANCH  10  15
ATOM     15  O   UNL A   1      33.232  25.491  20.566  1.00  0.00    -0.493 OA
ATOM     16  C   UNL A   1      32.652  25.480  19.269  1.00  0.00     0.278 C 
ENDBRANCH  10  15
BRANCH  11  17
ATOM     17  N   UNL A   1      30.725  23.190  24.988  1.00  0.00    -0.324 N 
ATOM     18  C   UNL A   1      31.042  23.295  26.310  1.00  0.00     0.244 C 
ATOM     19  H   UNL A   1      29.965  22.585  24.830  1.00  0.00     0.170 HD
ATOM     20  O   UNL A   1      30.209  22.868  27.122  1.00  0.00    -0.273 OA
BRANCH  18  21
ATOM     21  C   UNL A   1      32.288  24.001  26.851  1.00  0.00     0.229 C 
BRANCH  21  22
ATOM     22  N   UNL A   1      32.476  25.377  26.439  1.00  0.00    -0.265 N 
ATOM     23  C   UNL A   1      31.505  26.332  26.543  1.00  0.00     0.262 C 
ATOM     24  C   UNL A   1      33.521  25.812  25.668  1.00  0.00     0.262 C 
ATOM     25  O   UNL A   1      30.377  26.227  26.989  1.00  0.00    -0.269 OA
ATOM     26  C   UNL A   1      32.051  27.549  25.949  1.00  0.00     0.053 A 
ATOM     27  C   UNL A   1      33.288  27.232  25.416  1.00  0.00     0.053 A 
ATOM     28  O   UNL A   1      34.448  25.170  25.214  1.00  0.00    -0.269 OA
ATOM     29  C   UNL A   1      31.525  28.823  25.867  1.00  0.00     0.015 A 
ATOM     30  C   UNL A   1      34.073  28.171  24.775  1.00  0.00     0.015 A 
ATOM     31  C   UNL A   1      32.303  29.794  25.228  1.00  0.00     0.001 A 
ATOM     32  C   UNL A   1      33.567  29.471  24.688  1.00  0.00     0.001 A 
ENDBRANCH  21  22
ENDBRANCH  18  21
ENDBRANCH  11  17
ENDBRANCH   4   7
ENDBRANCH   2   3
ENDBRANCH   1   2
BRANCH   1  33
ATOM     33  C   UNL A   1      37.361  22.092  25.495  1.00  0.00     0.118 C 
BRANCH  33  34
ATOM     34  N   UNL A   1      38.355  21.141  25.973  1.00  0.00    -0.352 N 
ATOM     35  C   UNL A   1      39.622  21.360  26.453  1.00  0.00     0.251 C 
ATOM     36  H   UNL A   1      38.076  20.197  25.947  1.00  0.00     0.163 HD
ATOM     37  O   UNL A   1      40.390  20.409  26.576  1.00  0.00    -0.269 OA
BRANCH  35  38
ATOM     38  C   UNL A   1      40.067  22.722  26.818  1.00  0.00     0.039 A 
ATOM     39  C   UNL A   1      40.979  22.875  27.867  1.00  0.00     0.014 A 
ATOM     40  C   UNL A   1      39.559  23.850  26.167  1.00  0.00     0.014 A 
ATOM     41  C   UNL A   1      41.414  24.152  28.229  1.00  0.00     0.010 A 
ATOM     42  C   UNL A   1      40.051  25.115  26.476  1.00  0.00     0.010 A 
ATOM     43  C   UNL A   1      40.975  25.281  27.518  1.00  0.00    -0.014 A 
BRANCH  43  44
ATOM     44  C   UNL A   1      41.479  26.640  27.843  1.00  0.00     0.031 A 
ATOM     45  C   UNL A   1      42.906  27.015  27.550  1.00  0.00     0.074 A 
ATOM     46  C   UNL A   1      40.670  27.509  28.482  1.00  0.00     0.049 A 
ATOM     47  N   UNL A   1      43.534  28.132  27.812  1.00  0.00    -0.248 NA
ATOM     48  C   UNL A   1      43.748  25.994  26.903  1.00  0.00     0.031 C 
ATOM     49  C   UNL A   1      39.290  27.235  28.888  1.00  0.00     0.029 A 
ATOM     50  N   UNL A   1      40.899  28.788  28.924  1.00  0.00    -0.354 N 
ATOM     51  C   UNL A   1      44.848  27.936  27.404  1.00  0.00     0.074 A 
ATOM     52  C   UNL A   1      44.935  26.584  26.898  1.00  0.00     0.031 C 
ATOM     53  C   UNL A   1      38.793  28.315  29.510  1.00  0.00     0.029 A 
ATOM     54  C   UNL A   1      39.826  29.343  29.580  1.00  0.00     0.049 A 
ATOM     55  H   UNL A   1      41.751  29.262  28.785  1.00  0.00     0.167 HD
ATOM     56  C   UNL A   1      45.882  28.809  27.430  1.00  0.00     0.034 A 
ATOM     57  C   UNL A   1      39.689  30.543  30.180  1.00  0.00     0.034 A 
ATOM     58  C   UNL A   1      45.778  30.166  27.893  1.00  0.00     0.049 A 
ATOM     59  C   UNL A   1      40.839  31.512  30.149  1.00  0.00     0.074 A 
ATOM     60  C   UNL A   1      46.742  31.159  27.863  1.00  0.00     0.029 A 
ATOM     61  N   UNL A   1      44.651  30.721  28.478  1.00  0.00    -0.354 N 
ATOM     62  N   UNL A   1      42.028  31.360  29.619  1.00  0.00    -0.248 NA
ATOM     63  C   UNL A   1      40.617  32.827  30.764  1.00  0.00     0.031 C 
ATOM     64  C   UNL A   1      46.209  32.304  28.463  1.00  0.00     0.029 A 
ATOM     65  C   UNL A   1      44.898  32.037  28.829  1.00  0.00     0.049 A 
ATOM     66  H   UNL A   1      43.800  30.248  28.623  1.00  0.00     0.167 HD
ATOM     67  C   UNL A   1      42.686  32.571  29.808  1.00  0.00     0.074 A 
ATOM     68  C   UNL A   1      41.753  33.451  30.482  1.00  0.00     0.031 C 
ATOM     69  C   UNL A   1      43.950  32.917  29.461  1.00  0.00     0.034 A 
BRANCH  56  70
ATOM     70  C   UNL A   1      47.216  28.343  26.907  1.00  0.00     0.023 A 
ATOM     71  C   UNL A   1      48.253  28.032  27.811  1.00  0.00     0.012 A 
ATOM     72  C   UNL A   1      47.415  28.131  25.529  1.00  0.00     0.148 A 
ATOM     73  C   UNL A   1      49.476  27.548  27.349  1.00  0.00     0.002 A 
ATOM     74  C   UNL A   1      48.620  27.603  25.081  1.00  0.00     0.091 A 
ATOM     75  F   UNL A   1      46.425  28.450  24.684  1.00  0.00    -0.205 F 
ATOM     76  C   UNL A   1      49.655  27.321  25.987  1.00  0.00     0.022 A 
BRANCH  74  77
ATOM     77  S   UNL A   1      48.921  27.195  23.357  1.00  0.00     0.127 S 
ATOM     78  O   UNL A   1      50.372  27.012  23.347  1.00  0.00    -0.237 OA
ATOM     79  O   UNL A   1      48.150  25.964  23.194  1.00  0.00    -0.237 OA
ATOM     80  O   UNL A   1      48.433  28.328  22.583  1.00  0.00    -0.744 OA
ENDBRANCH  74  77
ENDBRANCH  56  70
BRANCH  57  81
ATOM     81  C   UNL A   1      38.385  30.914  30.797  1.00  0.00     0.023 A 
ATOM     82  C   UNL A   1      38.153  30.614  32.154  1.00  0.00     0.012 A 
ATOM     83  C   UNL A   1      37.399  31.607  30.068  1.00  0.00     0.148 A 
ATOM     84  C   UNL A   1      36.952  30.975  32.766  1.00  0.00     0.002 A 
ATOM     85  C   UNL A   1      36.229  32.012  30.699  1.00  0.00     0.091 A 
ATOM     86  F   UNL A   1      37.640  31.879  28.777  1.00  0.00    -0.205 F 
ATOM     87  C   UNL A   1      35.996  31.682  32.043  1.00  0.00     0.022 A 
BRANCH  85  88
ATOM     88  S   UNL A   1      35.000  33.042  29.889  1.00  0.00     0.127 S 
ATOM     89  O   UNL A   1      34.232  33.542  31.026  1.00  0.00    -0.237 OA
ATOM     90  O   UNL A   1      35.837  34.040  29.224  1.00  0.00    -0.237 OA
ATOM     91  O   UNL A   1      34.278  32.160  28.982  1.00  0.00    -0.744 OA
ENDBRANCH  85  88
ENDBRANCH  57  81
BRANCH  69  92
ATOM     92  C   UNL A   1      44.402  34.321  29.769  1.00  0.00     0.023 A 
ATOM     93  C   UNL A   1      45.119  34.586  30.952  1.00  0.00     0.012 A 
ATOM     94  C   UNL A   1      44.185  35.361  28.842  1.00  0.00     0.148 A 
ATOM     95  C   UNL A   1      45.585  35.872  31.224  1.00  0.00     0.002 A 
ATOM     96  C   UNL A   1      44.698  36.627  29.095  1.00  0.00     0.091 A 
ATOM     97  F   UNL A   1      43.486  35.092  27.730  1.00  0.00    -0.205 F 
ATOM     98  C   UNL A   1      45.386  36.888  30.291  1.00  0.00     0.022 A 
BRANCH  96  99
ATOM     99  S   UNL A   1      44.577  37.969  27.907  1.00  0.00     0.127 S 
ATOM    100  O   UNL A   1      45.532  37.548  26.884  1.00  0.00    -0.237 OA
ATOM    101  O   UNL A   1      43.174  37.896  27.498  1.00  0.00    -0.237 OA
ATOM    102  O   UNL A   1      44.933  39.181  28.633  1.00  0.00    -0.744 OA
ENDBRANCH  96  99
ENDBRANCH  69  92
ENDBRANCH  43  44
ENDBRANCH  35  38
ENDBRANCH  33  34
ENDBRANCH   1  33
TORSDOF 18
ENDMDL
MODEL 2
REMARK VINA RESULT:     -12.5      1.937      3.065
REMARK SMILES COc1cc(NC(=O)CN2C(=O)c3ccccc3C2=O)c(C(=O)NCCCNC(=O)c2ccc(-c3c4nc(c(-c5cccc(S(=O)(=O)[O-])c5F)c5ccc([nH]5)c(-c5cccc(S(=O)(=O)[O-])c5F)c5nc(c(-c6cccc(S(=O)(=O)[O-])c6F)c6ccc3[nH]6)C=C5)C=C4)cc2)cc1OC
REMARK SMILES IDX 26 1 25 2 24 3 22 4 23 5 21 7 3 8 4 9 95 10 5 11 94 12 2 13
REMARK SMILES IDX 1 14 96 15 97 16 6 17 7 18 8 20 9 21 10 22 11 23 19 24 12 25
REMARK SMILES IDX 13 26 18 27 20 28 14 29 17 30 15 31 16 32 27 33 28 34 29 35
REMARK SMILES IDX 30 37 31 38 32 39 93 40 33 41 92 42 34 43 35 44 36 45 86 46
REMARK SMILES IDX 37 47 91 48 85 49 87 50 38 51 90 52 84 53 83 54 39 56 71 57
REMARK SMILES IDX 51 58 70 59 52 60 55 61 69 62 88 63 53 64 54 65 68 67 89 68
REMARK SMILES IDX 56 69 40 70 41 71 49 72 42 73 44 74 50 75 43 76 45 77 46 78
REMARK SMILES IDX 47 79 48 80 72 81 73 82 81 83 74 84 76 85 82 86 75 87 77 88
REMARK SMILES IDX 78 89 79 90 80 91 57 92 58 93 66 94 59 95 61 96 67 97 60 98
REMARK SMILES IDX 62 99 63 100 64 101 65 102
REMARK H PARENT 24 6 6 19 28 36 87 55 55 66
REMARK Flexibility Score: inf
ROOT
ATOM      1  C   UNL A   1      36.299  23.731  24.761  1.00  0.00     0.042 C 
ENDROOT
BRANCH   1   2
ATOM      2  C   UNL A   1      36.011  22.568  23.813  1.00  0.00     0.118 C 
BRANCH   2   3
ATOM      3  N   UNL A   1      35.282  23.012  22.635  1.00  0.00    -0.352 N 
ATOM      4  C   UNL A   1      33.942  23.167  22.373  1.00  0.00     0.253 C 
ATOM      5  O   UNL A   1      33.645  23.695  21.301  1.00  0.00    -0.269 OA
ATOM      6  H   UNL A   1      35.863  23.248  21.876  1.00  0.00     0.163 HD
BRANCH   4   7
ATOM      7  C   UNL A   1      32.858  22.818  23.348  1.00  0.00     0.067 A 
ATOM      8  C   UNL A   1      30.983  22.244  25.363  1.00  0.00     0.162 A 
ATOM      9  C   UNL A   1      30.899  23.436  24.628  1.00  0.00     0.077 A 
ATOM     10  C   UNL A   1      31.961  21.307  25.047  1.00  0.00     0.161 A 
ATOM     11  C   UNL A   1      31.769  23.697  23.563  1.00  0.00     0.058 A 
ATOM     12  C   UNL A   1      32.874  21.598  24.034  1.00  0.00     0.066 A 
BRANCH   8  13
ATOM     13  O   UNL A   1      30.007  21.925  26.267  1.00  0.00    -0.493 OA
ATOM     14  C   UNL A   1      29.672  22.985  27.156  1.00  0.00     0.278 C 
ENDBRANCH   8  13
BRANCH  10  15
ATOM     15  O   UNL A   1      32.157  20.078  25.617  1.00  0.00    -0.493 OA
ATOM     16  C   UNL A   1      32.631  19.041  24.769  1.00  0.00     0.278 C 
ENDBRANCH  10  15
BRANCH  11  17
ATOM     17  N   UNL A   1      31.591  24.807  22.708  1.00  0.00    -0.324 N 
ATOM     18  C   UNL A   1      31.214  26.106  22.882  1.00  0.00     0.244 C 
ATOM     19  H   UNL A   1      31.783  24.593  21.767  1.00  0.00     0.170 HD
ATOM     20  O   UNL A   1      31.423  26.881  21.938  1.00  0.00    -0.273 OA
BRANCH  18  21
ATOM     21  C   UNL A   1      30.666  26.684  24.189  1.00  0.00     0.229 C 
BRANCH  21  22
ATOM     22  N   UNL A   1      31.547  27.574  24.917  1.00  0.00    -0.265 N 
ATOM     23  C   UNL A   1      32.486  27.140  25.808  1.00  0.00     0.262 C 
ATOM     24  C   UNL A   1      31.367  28.929  25.005  1.00  0.00     0.262 C 
ATOM     25  O   UNL A   1      32.762  25.998  26.128  1.00  0.00    -0.269 OA
ATOM     26  C   UNL A   1      33.098  28.333  26.386  1.00  0.00     0.053 A 
ATOM     27  C   UNL A   1      32.416  29.431  25.890  1.00  0.00     0.053 A 
ATOM     28  O   UNL A   1      30.494  29.613  24.509  1.00  0.00    -0.269 OA
ATOM     29  C   UNL A   1      34.151  28.465  27.269  1.00  0.00     0.015 A 
ATOM     30  C   UNL A   1      32.749  30.723  26.246  1.00  0.00     0.015 A 
ATOM     31  C   UNL A   1      34.513  29.764  27.640  1.00  0.00     0.001 A 
ATOM     32  C   UNL A   1      33.819  30.883  27.132  1.00  0.00     0.001 A 
ENDBRANCH  21  22
ENDBRANCH  18  21
ENDBRANCH  11  17
ENDBRANCH   4   7
ENDBRANCH   2   3
ENDBRANCH   1   2
BRANCH   1  33
ATOM     33  C   UNL A   1      36.643  23.285  26.178  1.00  0.00     0.118 C 
BRANCH  33  34
ATOM     34  N   UNL A   1      37.832  22.444  26.205  1.00  0.00    -0.352 N 
ATOM     35  C   UNL A   1      39.149  22.787  26.381  1.00  0.00     0.251 C 
ATOM     36  H   UNL A   1      37.665  21.481  26.078  1.00  0.00     0.163 HD
ATOM     37  O   UNL A   1      40.023  21.961  26.129  1.00  0.00    -0.269 OA
BRANCH  35  38
ATOM     38  C   UNL A   1      39.520  24.134  26.866  1.00  0.00     0.039 A 
ATOM     39  C   UNL A   1      39.288  24.456  28.207  1.00  0.00     0.014 A 
ATOM     40  C   UNL A   1      40.052  25.094  26.001  1.00  0.00     0.014 A 
ATOM     41  C   UNL A   1      39.632  25.722  28.687  1.00  0.00     0.010 A 
ATOM     42  C   UNL A   1      40.465  26.328  26.497  1.00  0.00     0.010 A 
ATOM     43  C   UNL A   1      40.248  26.660  27.843  1.00  0.00    -0.014 A 
BRANCH  43  44
ATOM     44  C   UNL A   1      40.684  27.985  28.352  1.00  0.00     0.031 A 
ATOM     45  C   UNL A   1      42.146  28.289  28.539  1.00  0.00     0.074 A 
ATOM     46  C   UNL A   1      39.754  28.886  28.727  1.00  0.00     0.049 A 
ATOM     47  N   UNL A   1      42.707  29.367  29.019  1.00  0.00    -0.248 NA
ATOM     48  C   UNL A   1      43.102  27.235  28.162  1.00  0.00     0.031 C 
ATOM     49  C   UNL A   1      38.306  28.680  28.665  1.00  0.00     0.029 A 
ATOM     50  N   UNL A   1      39.888  30.145  29.257  1.00  0.00    -0.354 N 
ATOM     51  C   UNL A   1      44.072  29.109  29.045  1.00  0.00     0.074 A 
ATOM     52  C   UNL A   1      44.255  27.761  28.552  1.00  0.00     0.031 C 
ATOM     53  C   UNL A   1      37.685  29.775  29.129  1.00  0.00     0.029 A 
ATOM     54  C   UNL A   1      38.688  30.747  29.555  1.00  0.00     0.049 A 
ATOM     55  H   UNL A   1      40.760  30.575  29.410  1.00  0.00     0.167 HD
ATOM     56  C   UNL A   1      45.083  29.925  29.424  1.00  0.00     0.034 A 
ATOM     57  C   UNL A   1      38.421  31.943  30.116  1.00  0.00     0.034 A 
ATOM     58  C   UNL A   1      44.898  31.279  29.871  1.00  0.00     0.049 A 
ATOM     59  C   UNL A   1      39.564  32.850  30.481  1.00  0.00     0.074 A 
ATOM     60  C   UNL A   1      45.865  32.221  30.179  1.00  0.00     0.029 A 
ATOM     61  N   UNL A   1      43.670  31.884  30.084  1.00  0.00    -0.354 N 
ATOM     62  N   UNL A   1      40.852  32.644  30.352  1.00  0.00    -0.248 NA
ATOM     63  C   UNL A   1      39.217  34.167  31.033  1.00  0.00     0.031 C 
ATOM     64  C   UNL A   1      45.221  33.383  30.613  1.00  0.00     0.029 A 
ATOM     65  C   UNL A   1      43.852  33.180  30.535  1.00  0.00     0.049 A 
ATOM     66  H   UNL A   1      42.796  31.455  29.937  1.00  0.00     0.167 HD
ATOM     67  C   UNL A   1      41.469  33.816  30.776  1.00  0.00     0.074 A 
ATOM     68  C   UNL A   1      40.411  34.734  31.146  1.00  0.00     0.031 C 
ATOM     69  C   UNL A   1      42.793  34.100  30.859  1.00  0.00     0.034 A 
BRANCH  56  70
ATOM     70  C   UNL A   1      46.491  29.396  29.338  1.00  0.00     0.023 A 
ATOM     71  C   UNL A   1      47.058  28.730  30.444  1.00  0.00     0.012 A 
ATOM     72  C   UNL A   1      47.222  29.486  28.137  1.00  0.00     0.148 A 
ATOM     73  C   UNL A   1      48.339  28.186  30.365  1.00  0.00     0.002 A 
ATOM     74  C   UNL A   1      48.479  28.900  28.051  1.00  0.00     0.091 A 
ATOM     75  F   UNL A   1      46.674  30.140  27.103  1.00  0.00    -0.205 F 
ATOM     76  C   UNL A   1      49.044  28.260  29.166  1.00  0.00     0.022 A 
BRANCH  74  77
ATOM     77  S   UNL A   1      49.434  28.866  26.529  1.00  0.00     0.127 S 
ATOM     78  O   UNL A   1      49.864  30.259  26.421  1.00  0.00    -0.237 OA
ATOM     79  O   UNL A   1      50.501  27.922  26.858  1.00  0.00    -0.237 OA
ATOM     80  O   UNL A   1      48.519  28.416  25.489  1.00  0.00    -0.744 OA
ENDBRANCH  74  77
ENDBRANCH  56  70
BRANCH  57  81
ATOM     81  C   UNL A   1      37.007  32.374  30.299  1.00  0.00     0.023 A 
ATOM     82  C   UNL A   1      36.363  32.128  31.527  1.00  0.00     0.012 A 
ATOM     83  C   UNL A   1      36.316  33.070  29.287  1.00  0.00     0.148 A 
ATOM     84  C   UNL A   1      35.048  32.544  31.736  1.00  0.00     0.002 A 
ATOM     85  C   UNL A   1      35.027  33.531  29.522  1.00  0.00     0.091 A 
ATOM     86  F   UNL A   1      36.947  33.290  28.125  1.00  0.00    -0.205 F 
ATOM     87  C   UNL A   1      34.384  33.254  30.740  1.00  0.00     0.022 A 
BRANCH  85  88
ATOM     88  S   UNL A   1      34.141  34.568  28.352  1.00  0.00     0.127 S 
ATOM     89  O   UNL A   1      34.260  35.886  28.971  1.00  0.00    -0.237 OA
ATOM     90  O   UNL A   1      34.930  34.385  27.134  1.00  0.00    -0.237 OA
ATOM     91  O   UNL A   1      32.791  34.025  28.284  1.00  0.00    -0.744 OA
ENDBRANCH  85  88
ENDBRANCH  57  81
BRANCH  69  92
ATOM     92  C   UNL A   1      43.185  35.473  31.338  1.00  0.00     0.023 A 
ATOM     93  C   UNL A   1      43.356  35.718  32.715  1.00  0.00     0.012 A 
ATOM     94  C   UNL A   1      43.466  36.499  30.412  1.00  0.00     0.148 A 
ATOM     95  C   UNL A   1      43.768  36.971  33.165  1.00  0.00     0.002 A 
ATOM     96  C   UNL A   1      43.926  37.728  30.865  1.00  0.00     0.091 A 
ATOM     97  F   UNL A   1      43.282  36.251  29.107  1.00  0.00    -0.205 F 
ATOM     98  C   UNL A   1      44.065  37.971  32.241  1.00  0.00     0.022 A 
BRANCH  96  99
ATOM     99  S   UNL A   1      44.428  39.041  29.745  1.00  0.00     0.127 S 
ATOM    100  O   UNL A   1      43.169  39.358  29.075  1.00  0.00    -0.237 OA
ATOM    101  O   UNL A   1      44.904  40.071  30.669  1.00  0.00    -0.237 OA
ATOM    102  O   UNL A   1      45.462  38.469  28.893  1.00  0.00    -0.744 OA
ENDBRANCH  96  99
ENDBRANCH  69  92
ENDBRANCH  43  44
ENDBRANCH  35  38
ENDBRANCH  33  34
ENDBRANCH   1  33
TORSDOF 18
ENDMDL
MODEL 3
REMARK VINA RESULT:     -12.5      0.980      2.350
REMARK SMILES COc1cc(NC(=O)CN2C(=O)c3ccccc3C2=O)c(C(=O)NCCCNC(=O)c2ccc(-c3c4nc(c(-c5cccc(S(=O)(=O)[O-])c5F)c5ccc([nH]5)c(-c5cccc(S(=O)(=O)[O-])c5F)c5nc(c(-c6cccc(S(=O)(=O)[O-])c6F)c6ccc3[nH]6)C=C5)C=C4)cc2)cc1OC
REMARK SMILES IDX 26 1 25 2 24 3 22 4 23 5 21 7 3 8 4 9 95 10 5 11 94 12 2 13
REMARK SMILES IDX 1 14 96 15 97 16 6 17 7 18 8 20 9 21 10 22 11 23 19 24 12 25
REMARK SMILES IDX 13 26 18 27 20 28 14 29 17 30 15 31 16 32 27 33 28 34 29 35
REMARK SMILES IDX 30 37 31 38 32 39 93 40 33 41 92 42 34 43 35 44 36 45 86 46
REMARK SMILES IDX 37 47 91 48 85 49 87 50 38 51 90 52 84 53 83 54 39 56 71 57
REMARK SMILES IDX 51 58 70 59 52 60 55 61 69 62 88 63 53 64 54 65 68 67 89 68
REMARK SMILES IDX 56 69 40 70 41 71 49 72 42 73 44 74 50 75 43 76 45 77 46 78
REMARK SMILES IDX 47 79 48 80 72 81 73 82 81 83 74 84 76 85 82 86 75 87 77 88
REMARK SMILES IDX 78 89 79 90 80 91 57 92 58 93 66 94 59 95 61 96 67 97 60 98
REMARK SMILES IDX 62 99 63 100 64 101 65 102
REMARK H PARENT 24 6 6 19 28 36 87 55 55 66
REMARK Flexibility Score: inf
ROOT
ATOM      1  C   UNL A   1      36.182  21.601  24.781  1.00  0.00     0.042 C 
ENDROOT
BRANCH   1   2
ATOM      2  C   UNL A   1      34.824  21.437  25.463  1.00  0.00     0.118 C 
BRANCH   2   3
ATOM      3  N   UNL A   1      33.898  20.692  24.626  1.00  0.00    -0.352 N 
ATOM      4  C   UNL A   1      32.594  20.915  24.253  1.00  0.00     0.253 C 
ATOM      5  O   UNL A   1      32.119  20.149  23.414  1.00  0.00    -0.269 OA
ATOM      6  H   UNL A   1      34.279  19.865  24.252  1.00  0.00     0.163 HD
BRANCH   4   7
ATOM      7  C   UNL A   1      31.777  22.074  24.739  1.00  0.00     0.067 A 
ATOM      8  C   UNL A   1      30.447  24.314  25.795  1.00  0.00     0.162 A 
ATOM      9  C   UNL A   1      31.061  24.377  24.536  1.00  0.00     0.077 A 
ATOM     10  C   UNL A   1      30.437  23.115  26.499  1.00  0.00     0.161 A 
ATOM     11  C   UNL A   1      31.649  23.247  23.956  1.00  0.00     0.058 A 
ATOM     12  C   UNL A   1      31.086  22.007  25.955  1.00  0.00     0.066 A 
BRANCH   8  13
ATOM     13  O   UNL A   1      29.713  25.374  26.254  1.00  0.00    -0.493 OA
ATOM     14  C   UNL A   1      30.324  26.641  26.035  1.00  0.00     0.278 C 
ENDBRANCH   8  13
BRANCH  10  15
ATOM     15  O   UNL A   1      29.845  22.858  27.705  1.00  0.00    -0.493 OA
ATOM     16  C   UNL A   1      28.539  22.298  27.678  1.00  0.00     0.278 C 
ENDBRANCH  10  15
BRANCH  11  17
ATOM     17  N   UNL A   1      32.118  23.250  22.624  1.00  0.00    -0.324 N 
ATOM     18  C   UNL A   1      33.281  23.616  22.013  1.00  0.00     0.244 C 
ATOM     19  H   UNL A   1      31.450  22.907  21.988  1.00  0.00     0.170 HD
ATOM     20  O   UNL A   1      33.446  23.230  20.847  1.00  0.00    -0.273 OA
BRANCH  18  21
ATOM     21  C   UNL A   1      34.427  24.360  22.701  1.00  0.00     0.229 C 
BRANCH  21  22
ATOM     22  N   UNL A   1      34.064  25.539  23.460  1.00  0.00    -0.265 N 
ATOM     23  C   UNL A   1      33.705  26.724  22.883  1.00  0.00     0.262 C 
ATOM     24  C   UNL A   1      34.293  25.689  24.802  1.00  0.00     0.262 C 
ATOM     25  O   UNL A   1      33.607  26.997  21.700  1.00  0.00    -0.269 OA
ATOM     26  C   UNL A   1      33.502  27.675  23.972  1.00  0.00     0.053 A 
ATOM     27  C   UNL A   1      33.857  27.040  25.149  1.00  0.00     0.053 A 
ATOM     28  O   UNL A   1      34.803  24.905  25.578  1.00  0.00    -0.269 OA
ATOM     29  C   UNL A   1      33.054  28.981  23.954  1.00  0.00     0.015 A 
ATOM     30  C   UNL A   1      33.781  27.671  26.375  1.00  0.00     0.015 A 
ATOM     31  C   UNL A   1      32.962  29.641  25.183  1.00  0.00     0.001 A 
ATOM     32  C   UNL A   1      33.321  28.992  26.383  1.00  0.00     0.001 A 
ENDBRANCH  21  22
ENDBRANCH  18  21
ENDBRANCH  11  17
ENDBRANCH   4   7
ENDBRANCH   2   3
ENDBRANCH   1   2
BRANCH   1  33
ATOM     33  C   UNL A   1      37.254  22.180  25.700  1.00  0.00     0.118 C 
BRANCH  33  34
ATOM     34  N   UNL A   1      38.224  21.170  26.101  1.00  0.00    -0.352 N 
ATOM     35  C   UNL A   1      39.536  21.312  26.477  1.00  0.00     0.251 C 
ATOM     36  H   UNL A   1      37.887  20.245  26.103  1.00  0.00     0.163 HD
ATOM     37  O   UNL A   1      40.252  20.315  26.542  1.00  0.00    -0.269 OA
BRANCH  35  38
ATOM     38  C   UNL A   1      40.091  22.645  26.798  1.00  0.00     0.039 A 
ATOM     39  C   UNL A   1      39.737  23.733  25.994  1.00  0.00     0.014 A 
ATOM     40  C   UNL A   1      40.989  22.820  27.854  1.00  0.00     0.014 A 
ATOM     41  C   UNL A   1      40.248  25.002  26.280  1.00  0.00     0.010 A 
ATOM     42  C   UNL A   1      41.437  24.097  28.184  1.00  0.00     0.010 A 
ATOM     43  C   UNL A   1      41.080  25.200  27.393  1.00  0.00    -0.014 A 
BRANCH  43  44
ATOM     44  C   UNL A   1      41.577  26.552  27.753  1.00  0.00     0.031 A 
ATOM     45  C   UNL A   1      42.997  26.949  27.453  1.00  0.00     0.074 A 
ATOM     46  C   UNL A   1      40.770  27.394  28.429  1.00  0.00     0.049 A 
ATOM     47  N   UNL A   1      43.619  28.063  27.741  1.00  0.00    -0.248 NA
ATOM     48  C   UNL A   1      43.839  25.956  26.765  1.00  0.00     0.031 C 
ATOM     49  C   UNL A   1      39.397  27.096  28.844  1.00  0.00     0.029 A 
ATOM     50  N   UNL A   1      40.993  28.661  28.907  1.00  0.00    -0.354 N 
ATOM     51  C   UNL A   1      44.929  27.892  27.311  1.00  0.00     0.074 A 
ATOM     52  C   UNL A   1      45.021  26.556  26.762  1.00  0.00     0.031 C 
ATOM     53  C   UNL A   1      38.899  28.152  29.505  1.00  0.00     0.029 A 
ATOM     54  C   UNL A   1      39.924  29.187  29.594  1.00  0.00     0.049 A 
ATOM     55  H   UNL A   1      41.839  29.147  28.772  1.00  0.00     0.167 HD
ATOM     56  C   UNL A   1      45.956  28.772  27.350  1.00  0.00     0.034 A 
ATOM     57  C   UNL A   1      39.785  30.366  30.231  1.00  0.00     0.034 A 
ATOM     58  C   UNL A   1      45.846  30.114  27.855  1.00  0.00     0.049 A 
ATOM     59  C   UNL A   1      40.926  31.345  30.215  1.00  0.00     0.074 A 
ATOM     60  C   UNL A   1      46.801  31.116  27.844  1.00  0.00     0.029 A 
ATOM     61  N   UNL A   1      44.722  30.641  28.472  1.00  0.00    -0.354 N 
ATOM     62  N   UNL A   1      42.109  31.221  29.666  1.00  0.00    -0.248 NA
ATOM     63  C   UNL A   1      40.701  32.640  30.873  1.00  0.00     0.031 C 
ATOM     64  C   UNL A   1      46.266  32.237  28.486  1.00  0.00     0.029 A 
ATOM     65  C   UNL A   1      44.963  31.947  28.860  1.00  0.00     0.049 A 
ATOM     66  H   UNL A   1      43.877  30.156  28.613  1.00  0.00     0.167 HD
ATOM     67  C   UNL A   1      42.759  32.431  29.883  1.00  0.00     0.074 A 
ATOM     68  C   UNL A   1      41.828  33.281  30.596  1.00  0.00     0.031 C 
ATOM     69  C   UNL A   1      44.016  32.799  29.530  1.00  0.00     0.034 A 
BRANCH  56  70
ATOM     70  C   UNL A   1      47.287  28.334  26.796  1.00  0.00     0.023 A 
ATOM     71  C   UNL A   1      48.355  28.058  27.675  1.00  0.00     0.012 A 
ATOM     72  C   UNL A   1      47.455  28.115  25.414  1.00  0.00     0.148 A 
ATOM     73  C   UNL A   1      49.576  27.599  27.184  1.00  0.00     0.002 A 
ATOM     74  C   UNL A   1      48.660  27.612  24.939  1.00  0.00     0.091 A 
ATOM     75  F   UNL A   1      46.434  28.401  24.593  1.00  0.00    -0.205 F 
ATOM     76  C   UNL A   1      49.725  27.364  25.820  1.00  0.00     0.022 A 
BRANCH  74  77
ATOM     77  S   UNL A   1      48.925  27.196  23.211  1.00  0.00     0.127 S 
ATOM     78  O   UNL A   1      48.294  28.329  22.535  1.00  0.00    -0.237 OA
ATOM     79  O   UNL A   1      50.385  27.171  23.123  1.00  0.00    -0.237 OA
ATOM     80  O   UNL A   1      48.279  25.909  23.002  1.00  0.00    -0.744 OA
ENDBRANCH  74  77
ENDBRANCH  56  70
BRANCH  57  81
ATOM     81  C   UNL A   1      38.486  30.707  30.877  1.00  0.00     0.023 A 
ATOM     82  C   UNL A   1      38.277  30.370  32.228  1.00  0.00     0.012 A 
ATOM     83  C   UNL A   1      37.482  31.407  30.180  1.00  0.00     0.148 A 
ATOM     84  C   UNL A   1      37.081  30.701  32.866  1.00  0.00     0.002 A 
ATOM     85  C   UNL A   1      36.317  31.783  30.837  1.00  0.00     0.091 A 
ATOM     86  F   UNL A   1      37.701  31.714  28.893  1.00  0.00    -0.205 F 
ATOM     87  C   UNL A   1      36.107  31.415  32.176  1.00  0.00     0.022 A 
BRANCH  85  88
ATOM     88  S   UNL A   1      35.065  32.819  30.072  1.00  0.00     0.127 S 
ATOM     89  O   UNL A   1      35.854  33.965  29.627  1.00  0.00    -0.237 OA
ATOM     90  O   UNL A   1      34.576  31.953  28.999  1.00  0.00    -0.237 OA
ATOM     91  O   UNL A   1      34.087  33.096  31.116  1.00  0.00    -0.744 OA
ENDBRANCH  85  88
ENDBRANCH  57  81
BRANCH  69  92
ATOM     92  C   UNL A   1      44.459  34.196  29.876  1.00  0.00     0.023 A 
ATOM     93  C   UNL A   1      45.152  34.439  31.079  1.00  0.00     0.012 A 
ATOM     94  C   UNL A   1      44.261  35.255  28.965  1.00  0.00     0.148 A 
ATOM     95  C   UNL A   1      45.611  35.719  31.385  1.00  0.00     0.002 A 
ATOM     96  C   UNL A   1      44.767  36.515  29.254  1.00  0.00     0.091 A 
ATOM     97  F   UNL A   1      43.585  35.007  27.834  1.00  0.00    -0.205 F 
ATOM     98  C   UNL A   1      45.430  36.753  30.468  1.00  0.00     0.022 A 
BRANCH  96  99
ATOM     99  S   UNL A   1      44.669  37.882  28.091  1.00  0.00     0.127 S 
ATOM    100  O   UNL A   1      45.377  37.338  26.934  1.00  0.00    -0.237 OA
ATOM    101  O   UNL A   1      43.225  38.030  27.907  1.00  0.00    -0.237 OA
ATOM    102  O   UNL A   1      45.314  39.013  28.744  1.00  0.00    -0.744 OA
ENDBRANCH  96  99
ENDBRANCH  69  92
ENDBRANCH  43  44
ENDBRANCH  35  38
ENDBRANCH  33  34
ENDBRANCH   1  33
TORSDOF 18
ENDMDL
