MODEL 1
REMARK VINA RESULT:     -11.9      0.000      0.000
REMARK SMILES COc1ccc(Cl)c2sc(N3CC(C(=O)NCCCNC(=O)c4ccc(-c5c6nc(c(-c7cccc(S(=O)(=O)[O-])c7F)c7ccc([nH]7)c(-c7cccc(S(=O)(=O)[O-])c7F)c7nc(c(-c8cccc(S(=O)(=O)[O-])c8F)c8ccc5[nH]8)C=C7)C=C6)cc4)C3)nc12
REMARK SMILES IDX 18 1 17 2 16 3 14 4 15 5 13 7 11 8 12 9 86 10 10 11 3 12
REMARK SMILES IDX 4 13 88 14 5 15 8 16 87 17 6 18 9 19 7 20 2 21 1 22 19 23
REMARK SMILES IDX 20 24 21 25 22 27 23 28 24 29 85 30 25 31 84 32 26 33 27 34
REMARK SMILES IDX 28 35 78 36 29 37 83 38 77 39 79 40 30 41 82 42 76 43 75 44
REMARK SMILES IDX 31 46 63 47 43 48 62 49 44 50 47 51 61 52 80 53 45 54 46 55
REMARK SMILES IDX 60 57 81 58 48 59 32 60 33 61 41 62 34 63 36 64 42 65 35 66
REMARK SMILES IDX 37 67 38 68 39 69 40 70 64 71 65 72 73 73 66 74 68 75 74 76
REMARK SMILES IDX 67 77 69 78 70 79 71 80 72 81 49 82 50 83 58 84 51 85 53 86
REMARK SMILES IDX 59 87 52 88 54 89 55 90 56 91 57 92
REMARK H PARENT 16 6 20 26 79 45 47 56
REMARK Flexibility Score: inf
ROOT
ATOM      1  C   UNL A   1      33.413  29.699  25.536  1.00  0.00     0.042 C 
ENDROOT
BRANCH   1   2
ATOM      2  C   UNL A   1      31.924  29.511  25.827  1.00  0.00     0.117 C 
BRANCH   2   3
ATOM      3  N   UNL A   1      31.084  29.818  24.683  1.00  0.00    -0.356 N 
ATOM      4  C   UNL A   1      30.567  29.010  23.701  1.00  0.00     0.226 C 
ATOM      5  O   UNL A   1      29.801  29.562  22.898  1.00  0.00    -0.275 OA
ATOM      6  H   UNL A   1      30.845  30.769  24.596  1.00  0.00     0.163 HD
BRANCH   4   7
ATOM      7  C   UNL A   1      30.897  27.525  23.588  1.00  0.00     0.117 C 
ATOM      8  N   UNL A   1      32.291  26.222  24.366  1.00  0.00    -0.346 N 
ATOM      9  C   UNL A   1      31.016  26.648  24.833  1.00  0.00     0.134 C 
ATOM     10  C   UNL A   1      32.290  27.042  23.196  1.00  0.00     0.134 C 
BRANCH   8  11
ATOM     11  C   UNL A   1      32.910  25.033  24.516  1.00  0.00     0.186 A 
ATOM     12  C   UNL A   1      35.735  22.928  25.270  1.00  0.00     0.146 A 
ATOM     13  C   UNL A   1      35.892  21.533  25.230  1.00  0.00     0.050 A 
ATOM     14  C   UNL A   1      34.485  23.496  24.891  1.00  0.00     0.127 A 
ATOM     15  C   UNL A   1      34.853  20.710  24.807  1.00  0.00     0.026 A 
ATOM     16  C   UNL A   1      33.439  22.642  24.528  1.00  0.00     0.079 A 
ATOM     17  N   UNL A   1      34.175  24.855  24.821  1.00  0.00    -0.216 NA
ATOM     18  C   UNL A   1      33.615  21.250  24.458  1.00  0.00     0.060 A 
ATOM     19  S   UNL A   1      32.025  23.582  24.251  1.00  0.00    -0.095 S 
ATOM     20  Cl  UNL A   1      32.353  20.189  23.962  1.00  0.00    -0.083 Cl
BRANCH  12  21
ATOM     21  O   UNL A   1      36.714  23.769  25.744  1.00  0.00    -0.494 OA
ATOM     22  C   UNL A   1      37.970  23.167  26.033  1.00  0.00     0.278 C 
ENDBRANCH  12  21
ENDBRANCH   8  11
ENDBRANCH   4   7
ENDBRANCH   2   3
ENDBRANCH   1   2
BRANCH   1  23
ATOM     23  C   UNL A   1      34.242  29.760  26.809  1.00  0.00     0.118 C 
BRANCH  23  24
ATOM     24  N   UNL A   1      34.096  31.040  27.502  1.00  0.00    -0.352 N 
ATOM     25  C   UNL A   1      34.832  31.517  28.559  1.00  0.00     0.251 C 
ATOM     26  H   UNL A   1      33.384  31.631  27.170  1.00  0.00     0.163 HD
ATOM     27  O   UNL A   1      34.417  32.469  29.225  1.00  0.00    -0.269 OA
BRANCH  25  28
ATOM     28  C   UNL A   1      36.127  30.898  28.872  1.00  0.00     0.039 A 
ATOM     29  C   UNL A   1      36.202  29.553  29.251  1.00  0.00     0.014 A 
ATOM     30  C   UNL A   1      37.274  31.693  28.821  1.00  0.00     0.014 A 
ATOM     31  C   UNL A   1      37.445  29.005  29.541  1.00  0.00     0.010 A 
ATOM     32  C   UNL A   1      38.509  31.130  29.000  1.00  0.00     0.010 A 
ATOM     33  C   UNL A   1      38.586  29.808  29.413  1.00  0.00    -0.014 A 
BRANCH  33  34
ATOM     34  C   UNL A   1      39.911  29.252  29.610  1.00  0.00     0.031 A 
ATOM     35  C   UNL A   1      40.376  29.284  31.022  1.00  0.00     0.074 A 
ATOM     36  C   UNL A   1      40.533  28.555  28.637  1.00  0.00     0.049 A 
ATOM     37  N   UNL A   1      41.333  29.995  31.520  1.00  0.00    -0.248 NA
ATOM     38  C   UNL A   1      39.584  28.561  32.033  1.00  0.00     0.031 C 
ATOM     39  C   UNL A   1      40.014  28.168  27.319  1.00  0.00     0.029 A 
ATOM     40  N   UNL A   1      41.727  27.914  28.686  1.00  0.00    -0.354 N 
ATOM     41  C   UNL A   1      41.418  29.619  32.858  1.00  0.00     0.074 A 
ATOM     42  C   UNL A   1      40.202  28.911  33.162  1.00  0.00     0.031 C 
ATOM     43  C   UNL A   1      40.775  27.171  26.814  1.00  0.00     0.029 A 
ATOM     44  C   UNL A   1      41.909  26.954  27.694  1.00  0.00     0.049 A 
ATOM     45  H   UNL A   1      42.410  28.111  29.367  1.00  0.00     0.167 HD
ATOM     46  C   UNL A   1      42.594  29.683  33.542  1.00  0.00     0.034 A 
ATOM     47  C   UNL A   1      42.890  26.017  27.663  1.00  0.00     0.034 A 
ATOM     48  C   UNL A   1      43.578  30.460  32.838  1.00  0.00     0.049 A 
ATOM     49  C   UNL A   1      43.972  26.525  28.546  1.00  0.00     0.074 A 
ATOM     50  C   UNL A   1      43.639  31.761  32.380  1.00  0.00     0.029 A 
ATOM     51  N   UNL A   1      44.525  29.763  32.126  1.00  0.00    -0.354 N 
ATOM     52  N   UNL A   1      44.646  27.616  28.304  1.00  0.00    -0.248 NA
ATOM     53  C   UNL A   1      43.978  26.075  29.930  1.00  0.00     0.031 C 
ATOM     54  C   UNL A   1      44.243  31.662  31.092  1.00  0.00     0.029 A 
ATOM     55  C   UNL A   1      44.583  30.324  30.877  1.00  0.00     0.049 A 
ATOM     56  H   UNL A   1      45.060  29.003  32.452  1.00  0.00     0.167 HD
ATOM     57  C   UNL A   1      44.777  28.224  29.545  1.00  0.00     0.074 A 
ATOM     58  C   UNL A   1      44.428  27.187  30.518  1.00  0.00     0.031 C 
ATOM     59  C   UNL A   1      44.856  29.580  29.667  1.00  0.00     0.034 A 
BRANCH  46  60
ATOM     60  C   UNL A   1      42.979  28.754  34.664  1.00  0.00     0.023 A 
ATOM     61  C   UNL A   1      43.495  29.326  35.845  1.00  0.00     0.012 A 
ATOM     62  C   UNL A   1      43.104  27.354  34.515  1.00  0.00     0.148 A 
ATOM     63  C   UNL A   1      44.117  28.544  36.824  1.00  0.00     0.002 A 
ATOM     64  C   UNL A   1      43.652  26.572  35.523  1.00  0.00     0.091 A 
ATOM     65  F   UNL A   1      42.819  26.783  33.340  1.00  0.00    -0.205 F 
ATOM     66  C   UNL A   1      44.183  27.164  36.670  1.00  0.00     0.022 A 
BRANCH  64  67
ATOM     67  S   UNL A   1      43.733  24.783  35.384  1.00  0.00     0.127 S 
ATOM     68  O   UNL A   1      44.675  24.618  34.280  1.00  0.00    -0.237 OA
ATOM     69  O   UNL A   1      44.245  24.403  36.701  1.00  0.00    -0.237 OA
ATOM     70  O   UNL A   1      42.364  24.351  35.131  1.00  0.00    -0.744 OA
ENDBRANCH  64  67
ENDBRANCH  46  60
BRANCH  47  71
ATOM     71  C   UNL A   1      42.864  24.605  27.191  1.00  0.00     0.023 A 
ATOM     72  C   UNL A   1      41.651  23.884  27.254  1.00  0.00     0.012 A 
ATOM     73  C   UNL A   1      43.912  24.058  26.416  1.00  0.00     0.148 A 
ATOM     74  C   UNL A   1      41.466  22.700  26.524  1.00  0.00     0.002 A 
ATOM     75  C   UNL A   1      43.727  22.875  25.703  1.00  0.00     0.091 A 
ATOM     76  F   UNL A   1      45.056  24.741  26.296  1.00  0.00    -0.205 F 
ATOM     77  C   UNL A   1      42.500  22.203  25.739  1.00  0.00     0.022 A 
BRANCH  75  78
ATOM     78  S   UNL A   1      45.019  22.177  24.661  1.00  0.00     0.127 S 
ATOM     79  O   UNL A   1      46.070  21.878  25.635  1.00  0.00    -0.237 OA
ATOM     80  O   UNL A   1      44.355  21.007  24.097  1.00  0.00    -0.237 OA
ATOM     81  O   UNL A   1      45.369  23.228  23.712  1.00  0.00    -0.744 OA
ENDBRANCH  75  78
ENDBRANCH  47  71
BRANCH  59  82
ATOM     82  C   UNL A   1      44.981  30.411  28.413  1.00  0.00     0.023 A 
ATOM     83  C   UNL A   1      43.848  30.845  27.689  1.00  0.00     0.012 A 
ATOM     84  C   UNL A   1      46.231  30.976  28.122  1.00  0.00     0.148 A 
ATOM     85  C   UNL A   1      43.963  31.832  26.704  1.00  0.00     0.002 A 
ATOM     86  C   UNL A   1      46.335  31.982  27.171  1.00  0.00     0.091 A 
ATOM     87  F   UNL A   1      47.288  30.562  28.838  1.00  0.00    -0.205 F 
ATOM     88  C   UNL A   1      45.205  32.413  26.457  1.00  0.00     0.022 A 
BRANCH  86  89
ATOM     89  S   UNL A   1      47.873  32.859  26.885  1.00  0.00     0.127 S 
ATOM     90  O   UNL A   1      47.501  33.791  25.823  1.00  0.00    -0.237 OA
ATOM     91  O   UNL A   1      48.120  33.480  28.187  1.00  0.00    -0.237 OA
ATOM     92  O   UNL A   1      48.854  31.849  26.504  1.00  0.00    -0.744 OA
ENDBRANCH  86  89
ENDBRANCH  59  82
ENDBRANCH  33  34
ENDBRANCH  25  28
ENDBRANCH  23  24
ENDBRANCH   1  23
TORSDOF 15
ENDMDL
MODEL 2
REMARK VINA RESULT:     -11.7      3.386      7.378
REMARK SMILES COc1ccc(Cl)c2sc(N3CC(C(=O)NCCCNC(=O)c4ccc(-c5c6nc(c(-c7cccc(S(=O)(=O)[O-])c7F)c7ccc([nH]7)c(-c7cccc(S(=O)(=O)[O-])c7F)c7nc(c(-c8cccc(S(=O)(=O)[O-])c8F)c8ccc5[nH]8)C=C7)C=C6)cc4)C3)nc12
REMARK SMILES IDX 18 1 17 2 16 3 14 4 15 5 13 7 11 8 12 9 86 10 10 11 3 12
REMARK SMILES IDX 4 13 88 14 5 15 8 16 87 17 6 18 9 19 7 20 2 21 1 22 19 23
REMARK SMILES IDX 20 24 21 25 22 27 23 28 24 29 85 30 25 31 84 32 26 33 27 34
REMARK SMILES IDX 28 35 78 36 29 37 83 38 77 39 79 40 30 41 82 42 76 43 75 44
REMARK SMILES IDX 31 46 63 47 43 48 62 49 44 50 47 51 61 52 80 53 45 54 46 55
REMARK SMILES IDX 60 57 81 58 48 59 32 60 33 61 41 62 34 63 36 64 42 65 35 66
REMARK SMILES IDX 37 67 38 68 39 69 40 70 64 71 65 72 73 73 66 74 68 75 74 76
REMARK SMILES IDX 67 77 69 78 70 79 71 80 72 81 49 82 50 83 58 84 51 85 53 86
REMARK SMILES IDX 59 87 52 88 54 89 55 90 56 91 57 92
REMARK H PARENT 16 6 20 26 79 45 47 56
REMARK Flexibility Score: inf
ROOT
ATOM      1  C   UNL A   1      33.051  31.641  27.836  1.00  0.00     0.042 C 
ENDROOT
BRANCH   1   2
ATOM      2  C   UNL A   1      33.359  30.325  27.123  1.00  0.00     0.117 C 
BRANCH   2   3
ATOM      3  N   UNL A   1      32.609  30.164  25.890  1.00  0.00    -0.356 N 
ATOM      4  C   UNL A   1      32.605  29.153  24.961  1.00  0.00     0.226 C 
ATOM      5  O   UNL A   1      31.776  29.265  24.047  1.00  0.00    -0.275 OA
ATOM      6  H   UNL A   1      31.997  30.908  25.685  1.00  0.00     0.163 HD
BRANCH   4   7
ATOM      7  C   UNL A   1      33.550  27.957  25.031  1.00  0.00     0.117 C 
ATOM      8  N   UNL A   1      33.416  25.910  24.838  1.00  0.00    -0.346 N 
ATOM      9  C   UNL A   1      33.629  26.948  23.888  1.00  0.00     0.134 C 
ATOM     10  C   UNL A   1      33.284  26.780  25.964  1.00  0.00     0.134 C 
BRANCH   8  11
ATOM     11  C   UNL A   1      33.880  24.643  24.848  1.00  0.00     0.186 A 
ATOM     12  C   UNL A   1      33.536  21.069  24.549  1.00  0.00     0.146 A 
ATOM     13  C   UNL A   1      34.464  20.029  24.720  1.00  0.00     0.050 A 
ATOM     14  C   UNL A   1      33.958  22.414  24.757  1.00  0.00     0.127 A 
ATOM     15  C   UNL A   1      35.773  20.296  25.107  1.00  0.00     0.026 A 
ATOM     16  C   UNL A   1      35.294  22.659  25.087  1.00  0.00     0.079 A 
ATOM     17  N   UNL A   1      33.160  23.557  24.683  1.00  0.00    -0.216 NA
ATOM     18  C   UNL A   1      36.206  21.610  25.289  1.00  0.00     0.060 A 
ATOM     19  S   UNL A   1      35.550  24.359  25.146  1.00  0.00    -0.095 S 
ATOM     20  Cl  UNL A   1      37.842  21.892  25.747  1.00  0.00    -0.083 Cl
BRANCH  12  21
ATOM     21  O   UNL A   1      32.254  20.852  24.104  1.00  0.00    -0.494 OA
ATOM     22  C   UNL A   1      32.084  20.791  22.692  1.00  0.00     0.278 C 
ENDBRANCH  12  21
ENDBRANCH   8  11
ENDBRANCH   4   7
ENDBRANCH   2   3
ENDBRANCH   1   2
BRANCH   1  23
ATOM     23  C   UNL A   1      32.493  32.690  26.888  1.00  0.00     0.118 C 
BRANCH  23  24
ATOM     24  N   UNL A   1      32.302  33.983  27.547  1.00  0.00    -0.352 N 
ATOM     25  C   UNL A   1      33.015  34.510  28.595  1.00  0.00     0.251 C 
ATOM     26  H   UNL A   1      31.573  34.543  27.195  1.00  0.00     0.163 HD
ATOM     27  O   UNL A   1      32.565  35.466  29.233  1.00  0.00    -0.269 OA
BRANCH  25  28
ATOM     28  C   UNL A   1      34.326  33.940  28.934  1.00  0.00     0.039 A 
ATOM     29  C   UNL A   1      34.522  33.273  30.148  1.00  0.00     0.014 A 
ATOM     30  C   UNL A   1      35.379  34.114  28.032  1.00  0.00     0.014 A 
ATOM     31  C   UNL A   1      35.777  32.750  30.431  1.00  0.00     0.010 A 
ATOM     32  C   UNL A   1      36.584  33.507  28.259  1.00  0.00     0.010 A 
ATOM     33  C   UNL A   1      36.796  32.878  29.479  1.00  0.00    -0.014 A 
BRANCH  33  34
ATOM     34  C   UNL A   1      38.092  32.262  29.690  1.00  0.00     0.031 A 
ATOM     35  C   UNL A   1      38.183  30.861  29.200  1.00  0.00     0.074 A 
ATOM     36  C   UNL A   1      39.163  32.991  30.065  1.00  0.00     0.049 A 
ATOM     37  N   UNL A   1      38.305  29.787  29.907  1.00  0.00    -0.248 NA
ATOM     38  C   UNL A   1      37.950  30.608  27.767  1.00  0.00     0.031 C 
ATOM     39  C   UNL A   1      39.262  34.445  30.240  1.00  0.00     0.029 A 
ATOM     40  N   UNL A   1      40.447  32.585  30.231  1.00  0.00    -0.354 N 
ATOM     41  C   UNL A   1      38.414  28.747  28.987  1.00  0.00     0.074 A 
ATOM     42  C   UNL A   1      37.977  29.275  27.721  1.00  0.00     0.031 C 
ATOM     43  C   UNL A   1      40.564  34.809  30.237  1.00  0.00     0.029 A 
ATOM     44  C   UNL A   1      41.386  33.613  30.212  1.00  0.00     0.049 A 
ATOM     45  H   UNL A   1      40.695  31.640  30.353  1.00  0.00     0.167 HD
ATOM     46  C   UNL A   1      39.104  27.610  29.275  1.00  0.00     0.034 A 
ATOM     47  C   UNL A   1      42.730  33.462  30.111  1.00  0.00     0.034 A 
ATOM     48  C   UNL A   1      39.390  27.503  30.681  1.00  0.00     0.049 A 
ATOM     49  C   UNL A   1      43.021  32.069  30.541  1.00  0.00     0.074 A 
ATOM     50  C   UNL A   1      38.620  27.464  31.826  1.00  0.00     0.029 A 
ATOM     51  N   UNL A   1      40.654  27.862  31.086  1.00  0.00    -0.354 N 
ATOM     52  N   UNL A   1      42.799  31.629  31.750  1.00  0.00    -0.248 NA
ATOM     53  C   UNL A   1      43.115  31.051  29.507  1.00  0.00     0.031 C 
ATOM     54  C   UNL A   1      39.321  28.283  32.759  1.00  0.00     0.029 A 
ATOM     55  C   UNL A   1      40.509  28.704  32.156  1.00  0.00     0.049 A 
ATOM     56  H   UNL A   1      41.503  27.569  30.682  1.00  0.00     0.167 HD
ATOM     57  C   UNL A   1      42.285  30.353  31.563  1.00  0.00     0.074 A 
ATOM     58  C   UNL A   1      42.588  30.018  30.171  1.00  0.00     0.031 C 
ATOM     59  C   UNL A   1      41.399  29.807  32.446  1.00  0.00     0.034 A 
BRANCH  46  60
ATOM     60  C   UNL A   1      39.837  26.776  28.257  1.00  0.00     0.023 A 
ATOM     61  C   UNL A   1      39.630  25.381  28.275  1.00  0.00     0.012 A 
ATOM     62  C   UNL A   1      40.904  27.261  27.468  1.00  0.00     0.148 A 
ATOM     63  C   UNL A   1      40.454  24.511  27.554  1.00  0.00     0.002 A 
ATOM     64  C   UNL A   1      41.671  26.401  26.692  1.00  0.00     0.091 A 
ATOM     65  F   UNL A   1      41.275  28.542  27.566  1.00  0.00    -0.205 F 
ATOM     66  C   UNL A   1      41.467  25.022  26.750  1.00  0.00     0.022 A 
BRANCH  64  67
ATOM     67  S   UNL A   1      42.971  27.015  25.614  1.00  0.00     0.127 S 
ATOM     68  O   UNL A   1      43.893  27.610  26.579  1.00  0.00    -0.237 OA
ATOM     69  O   UNL A   1      43.442  25.783  24.982  1.00  0.00    -0.237 OA
ATOM     70  O   UNL A   1      42.313  27.940  24.700  1.00  0.00    -0.744 OA
ENDBRANCH  64  67
ENDBRANCH  46  60
BRANCH  47  71
ATOM     71  C   UNL A   1      43.747  34.290  29.405  1.00  0.00     0.023 A 
ATOM     72  C   UNL A   1      44.536  35.192  30.153  1.00  0.00     0.012 A 
ATOM     73  C   UNL A   1      44.157  34.001  28.084  1.00  0.00     0.148 A 
ATOM     74  C   UNL A   1      45.719  35.734  29.631  1.00  0.00     0.002 A 
ATOM     75  C   UNL A   1      45.328  34.553  27.565  1.00  0.00     0.091 A 
ATOM     76  F   UNL A   1      43.459  33.114  27.366  1.00  0.00    -0.205 F 
ATOM     77  C   UNL A   1      46.122  35.404  28.342  1.00  0.00     0.022 A 
BRANCH  75  78
ATOM     78  S   UNL A   1      45.912  34.164  25.908  1.00  0.00     0.127 S 
ATOM     79  O   UNL A   1      44.756  34.520  25.084  1.00  0.00    -0.237 OA
ATOM     80  O   UNL A   1      47.058  35.058  25.773  1.00  0.00    -0.237 OA
ATOM     81  O   UNL A   1      46.216  32.739  25.922  1.00  0.00    -0.744 OA
ENDBRANCH  75  78
ENDBRANCH  47  71
BRANCH  59  82
ATOM     82  C   UNL A   1      41.119  30.542  33.734  1.00  0.00     0.023 A 
ATOM     83  C   UNL A   1      42.035  30.539  34.809  1.00  0.00     0.012 A 
ATOM     84  C   UNL A   1      40.053  31.452  33.751  1.00  0.00     0.148 A 
ATOM     85  C   UNL A   1      41.893  31.438  35.873  1.00  0.00     0.002 A 
ATOM     86  C   UNL A   1      39.938  32.368  34.788  1.00  0.00     0.091 A 
ATOM     87  F   UNL A   1      39.209  31.449  32.708  1.00  0.00    -0.205 F 
ATOM     88  C   UNL A   1      40.854  32.364  35.853  1.00  0.00     0.022 A 
BRANCH  86  89
ATOM     89  S   UNL A   1      38.699  33.665  34.771  1.00  0.00     0.127 S 
ATOM     90  O   UNL A   1      38.982  34.341  33.507  1.00  0.00    -0.237 OA
ATOM     91  O   UNL A   1      37.452  32.901  34.791  1.00  0.00    -0.237 OA
ATOM     92  O   UNL A   1      38.932  34.469  35.966  1.00  0.00    -0.744 OA
ENDBRANCH  86  89
ENDBRANCH  59  82
ENDBRANCH  33  34
ENDBRANCH  25  28
ENDBRANCH  23  24
ENDBRANCH   1  23
TORSDOF 15
ENDMDL
MODEL 3
REMARK VINA RESULT:     -11.7      2.946      8.933
REMARK SMILES COc1ccc(Cl)c2sc(N3CC(C(=O)NCCCNC(=O)c4ccc(-c5c6nc(c(-c7cccc(S(=O)(=O)[O-])c7F)c7ccc([nH]7)c(-c7cccc(S(=O)(=O)[O-])c7F)c7nc(c(-c8cccc(S(=O)(=O)[O-])c8F)c8ccc5[nH]8)C=C7)C=C6)cc4)C3)nc12
REMARK SMILES IDX 18 1 17 2 16 3 14 4 15 5 13 7 11 8 12 9 86 10 10 11 3 12
REMARK SMILES IDX 4 13 88 14 5 15 8 16 87 17 6 18 9 19 7 20 2 21 1 22 19 23
REMARK SMILES IDX 20 24 21 25 22 27 23 28 24 29 85 30 25 31 84 32 26 33 27 34
REMARK SMILES IDX 28 35 78 36 29 37 83 38 77 39 79 40 30 41 82 42 76 43 75 44
REMARK SMILES IDX 31 46 63 47 43 48 62 49 44 50 47 51 61 52 80 53 45 54 46 55
REMARK SMILES IDX 60 57 81 58 48 59 32 60 33 61 41 62 34 63 36 64 42 65 35 66
REMARK SMILES IDX 37 67 38 68 39 69 40 70 64 71 65 72 73 73 66 74 68 75 74 76
REMARK SMILES IDX 67 77 69 78 70 79 71 80 72 81 49 82 50 83 58 84 51 85 53 86
REMARK SMILES IDX 59 87 52 88 54 89 55 90 56 91 57 92
REMARK H PARENT 16 6 20 26 79 45 47 56
REMARK Flexibility Score: inf
ROOT
ATOM      1  C   UNL A   1      36.277  22.060  25.861  1.00  0.00     0.042 C 
ENDROOT
BRANCH   1   2
ATOM      2  C   UNL A   1      35.703  21.236  24.708  1.00  0.00     0.117 C 
BRANCH   2   3
ATOM      3  N   UNL A   1      34.762  20.224  25.155  1.00  0.00    -0.356 N 
ATOM      4  C   UNL A   1      33.398  20.265  25.307  1.00  0.00     0.226 C 
ATOM      5  O   UNL A   1      32.860  19.195  25.627  1.00  0.00    -0.275 OA
ATOM      6  H   UNL A   1      35.172  19.360  25.389  1.00  0.00     0.163 HD
BRANCH   4   7
ATOM      7  C   UNL A   1      32.576  21.533  25.098  1.00  0.00     0.117 C 
ATOM      8  N   UNL A   1      32.921  23.564  25.030  1.00  0.00    -0.346 N 
ATOM      9  C   UNL A   1      32.962  22.553  24.029  1.00  0.00     0.134 C 
ATOM     10  C   UNL A   1      32.602  22.679  26.105  1.00  0.00     0.134 C 
BRANCH   8  11
ATOM     11  C   UNL A   1      32.577  24.864  24.928  1.00  0.00     0.186 A 
ATOM     12  C   UNL A   1      32.961  28.378  25.629  1.00  0.00     0.146 A 
ATOM     13  C   UNL A   1      32.190  29.490  25.254  1.00  0.00     0.050 A 
ATOM     14  C   UNL A   1      32.549  27.078  25.215  1.00  0.00     0.127 A 
ATOM     15  C   UNL A   1      31.028  29.333  24.505  1.00  0.00     0.026 A 
ATOM     16  C   UNL A   1      31.411  26.955  24.413  1.00  0.00     0.079 A 
ATOM     17  N   UNL A   1      33.163  25.868  25.541  1.00  0.00    -0.216 NA
ATOM     18  C   UNL A   1      30.627  28.070  24.071  1.00  0.00     0.060 A 
ATOM     19  S   UNL A   1      31.228  25.307  23.957  1.00  0.00    -0.095 S 
ATOM     20  Cl  UNL A   1      29.193  27.929  23.128  1.00  0.00    -0.083 Cl
BRANCH  12  21
ATOM     21  O   UNL A   1      34.149  28.496  26.311  1.00  0.00    -0.494 OA
ATOM     22  C   UNL A   1      34.229  29.565  27.247  1.00  0.00     0.278 C 
ENDBRANCH  12  21
ENDBRANCH   8  11
ENDBRANCH   4   7
ENDBRANCH   2   3
ENDBRANCH   1   2
BRANCH   1  23
ATOM     23  C   UNL A   1      37.711  22.490  25.598  1.00  0.00     0.118 C 
BRANCH  23  24
ATOM     24  N   UNL A   1      38.680  21.530  26.127  1.00  0.00    -0.352 N 
ATOM     25  C   UNL A   1      39.913  21.789  26.675  1.00  0.00     0.251 C 
ATOM     26  H   UNL A   1      38.417  20.583  26.085  1.00  0.00     0.163 HD
ATOM     27  O   UNL A   1      40.736  20.879  26.808  1.00  0.00    -0.269 OA
BRANCH  25  28
ATOM     28  C   UNL A   1      40.231  23.151  27.122  1.00  0.00     0.039 A 
ATOM     29  C   UNL A   1      39.395  24.224  26.793  1.00  0.00     0.014 A 
ATOM     30  C   UNL A   1      41.406  23.355  27.849  1.00  0.00     0.014 A 
ATOM     31  C   UNL A   1      39.731  25.497  27.233  1.00  0.00     0.010 A 
ATOM     32  C   UNL A   1      41.683  24.588  28.376  1.00  0.00     0.010 A 
ATOM     33  C   UNL A   1      40.879  25.662  28.020  1.00  0.00    -0.014 A 
BRANCH  33  34
ATOM     34  C   UNL A   1      41.214  26.956  28.583  1.00  0.00     0.031 A 
ATOM     35  C   UNL A   1      42.499  27.515  28.087  1.00  0.00     0.074 A 
ATOM     36  C   UNL A   1      40.314  27.670  29.289  1.00  0.00     0.049 A 
ATOM     37  N   UNL A   1      43.591  27.691  28.756  1.00  0.00    -0.248 NA
ATOM     38  C   UNL A   1      42.640  27.761  26.641  1.00  0.00     0.031 C 
ATOM     39  C   UNL A   1      38.901  27.361  29.542  1.00  0.00     0.029 A 
ATOM     40  N   UNL A   1      40.444  28.914  29.813  1.00  0.00    -0.354 N 
ATOM     41  C   UNL A   1      44.475  28.301  27.869  1.00  0.00     0.074 A 
ATOM     42  C   UNL A   1      43.922  28.122  26.553  1.00  0.00     0.031 C 
ATOM     43  C   UNL A   1      38.262  28.484  29.942  1.00  0.00     0.029 A 
ATOM     44  C   UNL A   1      39.239  29.543  30.116  1.00  0.00     0.049 A 
ATOM     45  H   UNL A   1      41.318  29.339  29.966  1.00  0.00     0.167 HD
ATOM     46  C   UNL A   1      45.458  29.136  28.305  1.00  0.00     0.034 A 
ATOM     47  C   UNL A   1      39.079  30.857  30.414  1.00  0.00     0.034 A 
ATOM     48  C   UNL A   1      45.652  29.034  29.727  1.00  0.00     0.049 A 
ATOM     49  C   UNL A   1      40.412  31.343  30.855  1.00  0.00     0.074 A 
ATOM     50  C   UNL A   1      45.982  28.007  30.588  1.00  0.00     0.029 A 
ATOM     51  N   UNL A   1      45.070  30.009  30.503  1.00  0.00    -0.354 N 
ATOM     52  N   UNL A   1      41.020  30.905  31.924  1.00  0.00    -0.248 NA
ATOM     53  C   UNL A   1      41.267  31.967  29.857  1.00  0.00     0.031 C 
ATOM     54  C   UNL A   1      45.136  28.200  31.719  1.00  0.00     0.029 A 
ATOM     55  C   UNL A   1      44.401  29.371  31.514  1.00  0.00     0.049 A 
ATOM     56  H   UNL A   1      45.124  30.981  30.360  1.00  0.00     0.167 HD
ATOM     57  C   UNL A   1      42.349  30.788  31.542  1.00  0.00     0.074 A 
ATOM     58  C   UNL A   1      42.456  31.541  30.292  1.00  0.00     0.031 C 
ATOM     59  C   UNL A   1      43.169  29.850  32.099  1.00  0.00     0.034 A 
BRANCH  46  60
ATOM     60  C   UNL A   1      45.995  30.303  27.519  1.00  0.00     0.023 A 
ATOM     61  C   UNL A   1      47.390  30.512  27.518  1.00  0.00     0.012 A 
ATOM     62  C   UNL A   1      45.186  31.343  27.007  1.00  0.00     0.148 A 
ATOM     63  C   UNL A   1      47.950  31.702  27.043  1.00  0.00     0.002 A 
ATOM     64  C   UNL A   1      45.750  32.490  26.465  1.00  0.00     0.091 A 
ATOM     65  F   UNL A   1      43.859  31.291  27.164  1.00  0.00    -0.205 F 
ATOM     66  C   UNL A   1      47.131  32.687  26.502  1.00  0.00     0.022 A 
BRANCH  64  67
ATOM     67  S   UNL A   1      44.736  33.777  25.728  1.00  0.00     0.127 S 
ATOM     68  O   UNL A   1      45.740  34.785  25.396  1.00  0.00    -0.237 OA
ATOM     69  O   UNL A   1      44.154  33.080  24.581  1.00  0.00    -0.237 OA
ATOM     70  O   UNL A   1      43.770  34.146  26.754  1.00  0.00    -0.744 OA
ENDBRANCH  64  67
ENDBRANCH  46  60
BRANCH  47  71
ATOM     71  C   UNL A   1      37.976  31.799  30.075  1.00  0.00     0.023 A 
ATOM     72  C   UNL A   1      37.487  31.834  28.751  1.00  0.00     0.012 A 
ATOM     73  C   UNL A   1      37.205  32.434  31.076  1.00  0.00     0.148 A 
ATOM     74  C   UNL A   1      36.252  32.422  28.444  1.00  0.00     0.002 A 
ATOM     75  C   UNL A   1      35.983  33.027  30.762  1.00  0.00     0.091 A 
ATOM     76  F   UNL A   1      37.615  32.375  32.347  1.00  0.00    -0.205 F 
ATOM     77  C   UNL A   1      35.494  33.007  29.451  1.00  0.00     0.022 A 
BRANCH  75  78
ATOM     78  S   UNL A   1      34.947  33.796  32.017  1.00  0.00     0.127 S 
ATOM     79  O   UNL A   1      34.757  32.701  32.970  1.00  0.00    -0.237 OA
ATOM     80  O   UNL A   1      35.800  34.880  32.493  1.00  0.00    -0.237 OA
ATOM     81  O   UNL A   1      33.728  34.202  31.327  1.00  0.00    -0.744 OA
ENDBRANCH  75  78
ENDBRANCH  47  71
BRANCH  59  82
ATOM     82  C   UNL A   1      42.658  29.051  33.274  1.00  0.00     0.023 A 
ATOM     83  C   UNL A   1      41.719  28.008  33.115  1.00  0.00     0.012 A 
ATOM     84  C   UNL A   1      43.329  29.182  34.497  1.00  0.00     0.148 A 
ATOM     85  C   UNL A   1      41.469  27.106  34.155  1.00  0.00     0.002 A 
ATOM     86  C   UNL A   1      43.107  28.262  35.514  1.00  0.00     0.091 A 
ATOM     87  F   UNL A   1      44.230  30.169  34.616  1.00  0.00    -0.205 F 
ATOM     88  C   UNL A   1      42.176  27.223  35.349  1.00  0.00     0.022 A 
BRANCH  86  89
ATOM     89  S   UNL A   1      44.064  28.279  37.030  1.00  0.00     0.127 S 
ATOM     90  O   UNL A   1      43.527  27.122  37.744  1.00  0.00    -0.237 OA
ATOM     91  O   UNL A   1      45.430  28.111  36.534  1.00  0.00    -0.237 OA
ATOM     92  O   UNL A   1      43.807  29.567  37.663  1.00  0.00    -0.744 OA
ENDBRANCH  86  89
ENDBRANCH  59  82
ENDBRANCH  33  34
ENDBRANCH  25  28
ENDBRANCH  23  24
ENDBRANCH   1  23
TORSDOF 15
ENDMDL
