MODEL 1
REMARK VINA RESULT:     -10.6      0.000      0.000
REMARK SMILES Cc1cc(SCC(=O)NCCCNC(=O)c2ccc(-c3c4nc(c(-c5cccc(S(=O)(=O)[O-])c5F)c5ccc([nH]5)c(-c5cccc(S(=O)(=O)[O-])c5F)c5nc(c(-c6cccc(S(=O)(=O)[O-])c6F)c6ccc3[nH]6)C=C5)C=C4)cc2)c2cc(C(F)(F)F)ccc2n1
REMARK SMILES IDX 11 1 10 2 9 3 7 4 8 5 6 7 5 8 4 9 1 10 2 11 3 12 89 13 88 14
REMARK SMILES IDX 79 15 87 16 80 17 86 18 81 19 82 20 83 21 84 22 85 23 12 24
REMARK SMILES IDX 13 25 14 26 15 28 16 29 17 30 78 31 18 32 77 33 19 34 20 35
REMARK SMILES IDX 21 36 71 37 22 38 76 39 70 40 72 41 23 42 75 43 69 44 68 45
REMARK SMILES IDX 24 47 56 48 36 49 55 50 37 51 40 52 54 53 73 54 38 55 39 56
REMARK SMILES IDX 53 58 74 59 41 60 25 61 26 62 34 63 27 64 29 65 35 66 28 67
REMARK SMILES IDX 30 68 31 69 32 70 33 71 57 72 58 73 66 74 59 75 61 76 67 77
REMARK SMILES IDX 60 78 62 79 63 80 64 81 65 82 42 83 43 84 51 85 44 86 46 87
REMARK SMILES IDX 52 88 45 89 47 90 48 91 49 92 50 93
REMARK H PARENT 9 6 13 27 72 46 40 57
REMARK Flexibility Score: inf
ROOT
ATOM      1  C   UNL A   1      34.323  33.139  29.541  1.00  0.00     0.042 C 
ENDROOT
BRANCH   1   2
ATOM      2  C   UNL A   1      34.281  34.595  29.999  1.00  0.00     0.117 C 
BRANCH   2   3
ATOM      3  N   UNL A   1      33.122  34.873  30.826  1.00  0.00    -0.355 N 
ATOM      4  C   UNL A   1      33.032  35.049  32.173  1.00  0.00     0.230 C 
ATOM      5  O   UNL A   1      31.914  35.269  32.648  1.00  0.00    -0.274 OA
ATOM      6  H   UNL A   1      32.268  34.944  30.339  1.00  0.00     0.163 HD
BRANCH   4   7
ATOM      7  C   UNL A   1      34.266  35.081  33.053  1.00  0.00     0.174 C 
BRANCH   7   8
ATOM      8  S   UNL A   1      34.901  33.454  33.557  1.00  0.00    -0.115 SA
BRANCH   8   9
ATOM      9  C   UNL A   1      36.580  33.714  34.171  1.00  0.00     0.019 A 
ATOM     10  C   UNL A   1      38.521  34.004  37.406  1.00  0.00     0.067 C 
ATOM     11  C   UNL A   1      38.172  33.966  35.948  1.00  0.00     0.039 A 
ATOM     12  C   UNL A   1      36.861  33.788  35.535  1.00  0.00     0.039 A 
ATOM     13  N   UNL A   1      39.191  34.130  35.081  1.00  0.00    -0.253 NA
ATOM     14  C   UNL A   1      38.937  34.098  33.765  1.00  0.00     0.072 A 
ATOM     15  C   UNL A   1      37.645  33.886  33.238  1.00  0.00     0.014 A 
ATOM     16  C   UNL A   1      40.004  34.290  32.897  1.00  0.00     0.029 A 
ATOM     17  C   UNL A   1      37.502  33.874  31.821  1.00  0.00     0.024 A 
ATOM     18  C   UNL A   1      39.846  34.287  31.508  1.00  0.00     0.015 A 
ATOM     19  C   UNL A   1      38.586  34.085  30.953  1.00  0.00     0.056 A 
BRANCH  19  20
ATOM     20  C   UNL A   1      38.363  34.097  29.455  1.00  0.00     0.416 C 
ATOM     21  F   UNL A   1      37.257  34.805  29.110  1.00  0.00    -0.166 F 
ATOM     22  F   UNL A   1      39.407  34.698  28.811  1.00  0.00    -0.166 F 
ATOM     23  F   UNL A   1      38.257  32.859  28.917  1.00  0.00    -0.166 F 
ENDBRANCH  19  20
ENDBRANCH   8   9
ENDBRANCH   7   8
ENDBRANCH   4   7
ENDBRANCH   2   3
ENDBRANCH   1   2
BRANCH   1  24
ATOM     24  C   UNL A   1      34.542  32.954  28.040  1.00  0.00     0.118 C 
BRANCH  24  25
ATOM     25  N   UNL A   1      33.936  31.734  27.523  1.00  0.00    -0.352 N 
ATOM     26  C   UNL A   1      34.443  30.463  27.424  1.00  0.00     0.251 C 
ATOM     27  H   UNL A   1      33.014  31.839  27.192  1.00  0.00     0.163 HD
ATOM     28  O   UNL A   1      33.812  29.613  26.791  1.00  0.00    -0.269 OA
BRANCH  26  29
ATOM     29  C   UNL A   1      35.738  30.107  28.043  1.00  0.00     0.039 A 
ATOM     30  C   UNL A   1      35.753  29.701  29.381  1.00  0.00     0.014 A 
ATOM     31  C   UNL A   1      36.935  30.188  27.328  1.00  0.00     0.014 A 
ATOM     32  C   UNL A   1      36.954  29.305  29.976  1.00  0.00     0.010 A 
ATOM     33  C   UNL A   1      38.120  29.724  27.899  1.00  0.00     0.010 A 
ATOM     34  C   UNL A   1      38.142  29.269  29.227  1.00  0.00    -0.014 A 
BRANCH  34  35
ATOM     35  C   UNL A   1      39.393  28.705  29.799  1.00  0.00     0.031 A 
ATOM     36  C   UNL A   1      40.041  29.324  31.009  1.00  0.00     0.074 A 
ATOM     37  C   UNL A   1      39.999  27.678  29.167  1.00  0.00     0.049 A 
ATOM     38  N   UNL A   1      41.157  28.991  31.604  1.00  0.00    -0.248 NA
ATOM     39  C   UNL A   1      39.359  30.477  31.617  1.00  0.00     0.031 C 
ATOM     40  C   UNL A   1      39.518  27.040  27.939  1.00  0.00     0.029 A 
ATOM     41  N   UNL A   1      41.165  27.009  29.450  1.00  0.00    -0.354 N 
ATOM     42  C   UNL A   1      41.330  29.909  32.632  1.00  0.00     0.074 A 
ATOM     43  C   UNL A   1      40.214  30.830  32.566  1.00  0.00     0.031 C 
ATOM     44  C   UNL A   1      40.379  26.077  27.575  1.00  0.00     0.029 A 
ATOM     45  C   UNL A   1      41.491  26.051  28.518  1.00  0.00     0.049 A 
ATOM     46  H   UNL A   1      41.715  27.198  30.245  1.00  0.00     0.167 HD
ATOM     47  C   UNL A   1      42.317  29.970  33.560  1.00  0.00     0.034 A 
ATOM     48  C   UNL A   1      42.573  25.253  28.419  1.00  0.00     0.034 A 
ATOM     49  C   UNL A   1      43.408  29.036  33.643  1.00  0.00     0.049 A 
ATOM     50  C   UNL A   1      43.639  25.327  29.478  1.00  0.00     0.074 A 
ATOM     51  C   UNL A   1      44.401  28.960  34.605  1.00  0.00     0.029 A 
ATOM     52  N   UNL A   1      43.665  28.029  32.726  1.00  0.00    -0.354 N 
ATOM     53  N   UNL A   1      43.694  26.092  30.539  1.00  0.00    -0.248 NA
ATOM     54  C   UNL A   1      44.775  24.406  29.341  1.00  0.00     0.031 C 
ATOM     55  C   UNL A   1      45.279  27.932  34.249  1.00  0.00     0.029 A 
ATOM     56  C   UNL A   1      44.811  27.341  33.086  1.00  0.00     0.049 A 
ATOM     57  H   UNL A   1      43.114  27.833  31.934  1.00  0.00     0.167 HD
ATOM     58  C   UNL A   1      44.853  25.723  31.215  1.00  0.00     0.074 A 
ATOM     59  C   UNL A   1      45.454  24.647  30.455  1.00  0.00     0.031 C 
ATOM     60  C   UNL A   1      45.379  26.240  32.352  1.00  0.00     0.034 A 
BRANCH  47  61
ATOM     61  C   UNL A   1      42.246  31.061  34.596  1.00  0.00     0.023 A 
ATOM     62  C   UNL A   1      41.634  30.804  35.841  1.00  0.00     0.012 A 
ATOM     63  C   UNL A   1      42.861  32.310  34.376  1.00  0.00     0.148 A 
ATOM     64  C   UNL A   1      41.610  31.778  36.838  1.00  0.00     0.002 A 
ATOM     65  C   UNL A   1      42.874  33.261  35.391  1.00  0.00     0.091 A 
ATOM     66  F   UNL A   1      43.424  32.543  33.182  1.00  0.00    -0.205 F 
ATOM     67  C   UNL A   1      42.240  33.000  36.617  1.00  0.00     0.022 A 
BRANCH  65  68
ATOM     68  S   UNL A   1      43.728  34.834  35.239  1.00  0.00     0.127 S 
ATOM     69  O   UNL A   1      45.125  34.405  35.178  1.00  0.00    -0.237 OA
ATOM     70  O   UNL A   1      43.194  35.352  33.981  1.00  0.00    -0.237 OA
ATOM     71  O   UNL A   1      43.366  35.605  36.421  1.00  0.00    -0.744 OA
ENDBRANCH  65  68
ENDBRANCH  47  61
BRANCH  48  72
ATOM     72  C   UNL A   1      42.688  24.286  27.290  1.00  0.00     0.023 A 
ATOM     73  C   UNL A   1      43.407  24.647  26.134  1.00  0.00     0.012 A 
ATOM     74  C   UNL A   1      42.097  23.010  27.362  1.00  0.00     0.148 A 
ATOM     75  C   UNL A   1      43.503  23.768  25.054  1.00  0.00     0.002 A 
ATOM     76  C   UNL A   1      42.247  22.118  26.308  1.00  0.00     0.091 A 
ATOM     77  F   UNL A   1      41.405  22.692  28.466  1.00  0.00    -0.205 F 
ATOM     78  C   UNL A   1      42.931  22.501  25.145  1.00  0.00     0.022 A 
BRANCH  76  79
ATOM     79  S   UNL A   1      41.658  20.424  26.393  1.00  0.00     0.127 S 
ATOM     80  O   UNL A   1      42.401  19.794  25.305  1.00  0.00    -0.237 OA
ATOM     81  O   UNL A   1      42.078  20.028  27.738  1.00  0.00    -0.237 OA
ATOM     82  O   UNL A   1      40.215  20.503  26.212  1.00  0.00    -0.744 OA
ENDBRANCH  76  79
ENDBRANCH  48  72
BRANCH  60  83
ATOM     83  C   UNL A   1      46.655  25.630  32.872  1.00  0.00     0.023 A 
ATOM     84  C   UNL A   1      47.900  26.162  32.479  1.00  0.00     0.012 A 
ATOM     85  C   UNL A   1      46.618  24.572  33.801  1.00  0.00     0.148 A 
ATOM     86  C   UNL A   1      49.088  25.625  32.974  1.00  0.00     0.002 A 
ATOM     87  C   UNL A   1      47.803  24.077  34.331  1.00  0.00     0.091 A 
ATOM     88  F   UNL A   1      45.425  24.068  34.150  1.00  0.00    -0.205 F 
ATOM     89  C   UNL A   1      49.039  24.592  33.907  1.00  0.00     0.022 A 
BRANCH  87  90
ATOM     90  S   UNL A   1      47.837  22.815  35.609  1.00  0.00     0.127 S 
ATOM     91  O   UNL A   1      49.273  22.666  35.842  1.00  0.00    -0.237 OA
ATOM     92  O   UNL A   1      47.106  23.460  36.700  1.00  0.00    -0.237 OA
ATOM     93  O   UNL A   1      47.174  21.649  35.041  1.00  0.00    -0.744 OA
ENDBRANCH  87  90
ENDBRANCH  60  83
ENDBRANCH  34  35
ENDBRANCH  26  29
ENDBRANCH  24  25
ENDBRANCH   1  24
TORSDOF 16
ENDMDL
MODEL 2
REMARK VINA RESULT:     -10.6      1.906      2.275
REMARK SMILES Cc1cc(SCC(=O)NCCCNC(=O)c2ccc(-c3c4nc(c(-c5cccc(S(=O)(=O)[O-])c5F)c5ccc([nH]5)c(-c5cccc(S(=O)(=O)[O-])c5F)c5nc(c(-c6cccc(S(=O)(=O)[O-])c6F)c6ccc3[nH]6)C=C5)C=C4)cc2)c2cc(C(F)(F)F)ccc2n1
REMARK SMILES IDX 11 1 10 2 9 3 7 4 8 5 6 7 5 8 4 9 1 10 2 11 3 12 89 13 88 14
REMARK SMILES IDX 79 15 87 16 80 17 86 18 81 19 82 20 83 21 84 22 85 23 12 24
REMARK SMILES IDX 13 25 14 26 15 28 16 29 17 30 78 31 18 32 77 33 19 34 20 35
REMARK SMILES IDX 21 36 71 37 22 38 76 39 70 40 72 41 23 42 75 43 69 44 68 45
REMARK SMILES IDX 24 47 56 48 36 49 55 50 37 51 40 52 54 53 73 54 38 55 39 56
REMARK SMILES IDX 53 58 74 59 41 60 25 61 26 62 34 63 27 64 29 65 35 66 28 67
REMARK SMILES IDX 30 68 31 69 32 70 33 71 57 72 58 73 66 74 59 75 61 76 67 77
REMARK SMILES IDX 60 78 62 79 63 80 64 81 65 82 42 83 43 84 51 85 44 86 46 87
REMARK SMILES IDX 52 88 45 89 47 90 48 91 49 92 50 93
REMARK H PARENT 9 6 13 27 72 46 40 57
REMARK Flexibility Score: inf
ROOT
ATOM      1  C   UNL A   1      34.438  33.075  29.555  1.00  0.00     0.042 C 
ENDROOT
BRANCH   1   2
ATOM      2  C   UNL A   1      34.338  34.558  29.904  1.00  0.00     0.117 C 
BRANCH   2   3
ATOM      3  N   UNL A   1      33.140  34.860  30.665  1.00  0.00    -0.355 N 
ATOM      4  C   UNL A   1      32.984  35.067  32.002  1.00  0.00     0.230 C 
ATOM      5  O   UNL A   1      31.845  35.303  32.416  1.00  0.00    -0.274 OA
ATOM      6  H   UNL A   1      32.313  34.923  30.135  1.00  0.00     0.163 HD
BRANCH   4   7
ATOM      7  C   UNL A   1      34.172  35.114  32.942  1.00  0.00     0.174 C 
BRANCH   7   8
ATOM      8  S   UNL A   1      34.817  33.495  33.459  1.00  0.00    -0.115 SA
BRANCH   8   9
ATOM      9  C   UNL A   1      36.444  33.787  34.187  1.00  0.00     0.019 A 
ATOM     10  C   UNL A   1      38.145  34.156  37.546  1.00  0.00     0.067 C 
ATOM     11  C   UNL A   1      37.901  34.089  36.069  1.00  0.00     0.039 A 
ATOM     12  C   UNL A   1      36.626  33.887  35.566  1.00  0.00     0.039 A 
ATOM     13  N   UNL A   1      38.978  34.251  35.274  1.00  0.00    -0.253 NA
ATOM     14  C   UNL A   1      38.820  34.193  33.944  1.00  0.00     0.072 A 
ATOM     15  C   UNL A   1      37.572  33.957  33.330  1.00  0.00     0.014 A 
ATOM     16  C   UNL A   1      39.944  34.384  33.151  1.00  0.00     0.029 A 
ATOM     17  C   UNL A   1      37.531  33.918  31.907  1.00  0.00     0.024 A 
ATOM     18  C   UNL A   1      39.887  34.355  31.755  1.00  0.00     0.015 A 
ATOM     19  C   UNL A   1      38.671  34.127  31.115  1.00  0.00     0.056 A 
BRANCH  19  20
ATOM     20  C   UNL A   1      38.557  34.111  29.604  1.00  0.00     0.416 C 
ATOM     21  F   UNL A   1      38.360  32.858  29.123  1.00  0.00    -0.166 F 
ATOM     22  F   UNL A   1      37.483  34.845  29.188  1.00  0.00    -0.166 F 
ATOM     23  F   UNL A   1      39.634  34.641  28.979  1.00  0.00    -0.166 F 
ENDBRANCH  19  20
ENDBRANCH   8   9
ENDBRANCH   7   8
ENDBRANCH   4   7
ENDBRANCH   2   3
ENDBRANCH   1   2
BRANCH   1  24
ATOM     24  C   UNL A   1      34.646  32.788  28.069  1.00  0.00     0.118 C 
BRANCH  24  25
ATOM     25  N   UNL A   1      34.038  31.534  27.642  1.00  0.00    -0.352 N 
ATOM     26  C   UNL A   1      34.570  30.272  27.557  1.00  0.00     0.251 C 
ATOM     27  H   UNL A   1      33.093  31.604  27.372  1.00  0.00     0.163 HD
ATOM     28  O   UNL A   1      33.921  29.384  27.003  1.00  0.00    -0.269 OA
BRANCH  26  29
ATOM     29  C   UNL A   1      35.913  29.972  28.099  1.00  0.00     0.039 A 
ATOM     30  C   UNL A   1      36.019  29.517  29.417  1.00  0.00     0.014 A 
ATOM     31  C   UNL A   1      37.067  30.152  27.332  1.00  0.00     0.014 A 
ATOM     32  C   UNL A   1      37.269  29.172  29.937  1.00  0.00     0.010 A 
ATOM     33  C   UNL A   1      38.304  29.740  27.826  1.00  0.00     0.010 A 
ATOM     34  C   UNL A   1      38.418  29.236  29.131  1.00  0.00    -0.014 A 
BRANCH  34  35
ATOM     35  C   UNL A   1      39.728  28.728  29.620  1.00  0.00     0.031 A 
ATOM     36  C   UNL A   1      40.471  29.432  30.723  1.00  0.00     0.074 A 
ATOM     37  C   UNL A   1      40.293  27.670  29.001  1.00  0.00     0.049 A 
ATOM     38  N   UNL A   1      41.643  29.154  31.232  1.00  0.00    -0.248 NA
ATOM     39  C   UNL A   1      39.825  30.613  31.318  1.00  0.00     0.031 C 
ATOM     40  C   UNL A   1      39.714  26.948  27.865  1.00  0.00     0.029 A 
ATOM     41  N   UNL A   1      41.493  27.038  29.216  1.00  0.00    -0.354 N 
ATOM     42  C   UNL A   1      41.892  30.139  32.180  1.00  0.00     0.074 A 
ATOM     43  C   UNL A   1      40.757  31.038  32.159  1.00  0.00     0.031 C 
ATOM     44  C   UNL A   1      40.557  25.975  27.484  1.00  0.00     0.029 A 
ATOM     45  C   UNL A   1      41.751  26.025  28.320  1.00  0.00     0.049 A 
ATOM     46  H   UNL A   1      42.110  27.285  29.943  1.00  0.00     0.167 HD
ATOM     47  C   UNL A   1      42.957  30.274  33.007  1.00  0.00     0.034 A 
ATOM     48  C   UNL A   1      42.834  25.238  28.172  1.00  0.00     0.034 A 
ATOM     49  C   UNL A   1      44.070  29.362  33.047  1.00  0.00     0.049 A 
ATOM     50  C   UNL A   1      43.991  25.395  29.121  1.00  0.00     0.074 A 
ATOM     51  C   UNL A   1      45.148  29.362  33.916  1.00  0.00     0.029 A 
ATOM     52  N   UNL A   1      44.261  28.301  32.176  1.00  0.00    -0.354 N 
ATOM     53  N   UNL A   1      44.129  26.228  30.122  1.00  0.00    -0.248 NA
ATOM     54  C   UNL A   1      45.128  24.482  28.938  1.00  0.00     0.031 C 
ATOM     55  C   UNL A   1      46.010  28.325  33.546  1.00  0.00     0.029 A 
ATOM     56  C   UNL A   1      45.449  27.654  32.471  1.00  0.00     0.049 A 
ATOM     57  H   UNL A   1      43.644  28.047  31.452  1.00  0.00     0.167 HD
ATOM     58  C   UNL A   1      45.351  25.919  30.709  1.00  0.00     0.074 A 
ATOM     59  C   UNL A   1      45.901  24.804  29.967  1.00  0.00     0.031 C 
ATOM     60  C   UNL A   1      45.969  26.515  31.758  1.00  0.00     0.034 A 
BRANCH  47  61
ATOM     61  C   UNL A   1      42.960  31.428  33.974  1.00  0.00     0.023 A 
ATOM     62  C   UNL A   1      43.437  32.688  33.557  1.00  0.00     0.012 A 
ATOM     63  C   UNL A   1      42.410  31.292  35.264  1.00  0.00     0.148 A 
ATOM     64  C   UNL A   1      43.393  33.786  34.416  1.00  0.00     0.002 A 
ATOM     65  C   UNL A   1      42.327  32.402  36.099  1.00  0.00     0.091 A 
ATOM     66  F   UNL A   1      41.976  30.084  35.650  1.00  0.00    -0.205 F 
ATOM     67  C   UNL A   1      42.828  33.645  35.680  1.00  0.00     0.022 A 
BRANCH  65  68
ATOM     68  S   UNL A   1      41.542  32.347  37.714  1.00  0.00     0.127 S 
ATOM     69  O   UNL A   1      40.238  31.770  37.388  1.00  0.00    -0.237 OA
ATOM     70  O   UNL A   1      42.434  31.458  38.457  1.00  0.00    -0.237 OA
ATOM     71  O   UNL A   1      41.512  33.722  38.194  1.00  0.00    -0.744 OA
ENDBRANCH  65  68
ENDBRANCH  47  61
BRANCH  48  72
ATOM     72  C   UNL A   1      42.865  24.202  27.100  1.00  0.00     0.023 A 
ATOM     73  C   UNL A   1      43.557  24.459  25.902  1.00  0.00     0.012 A 
ATOM     74  C   UNL A   1      42.220  22.962  27.269  1.00  0.00     0.148 A 
ATOM     75  C   UNL A   1      43.574  23.514  24.874  1.00  0.00     0.002 A 
ATOM     76  C   UNL A   1      42.290  22.002  26.267  1.00  0.00     0.091 A 
ATOM     77  F   UNL A   1      41.554  22.742  28.413  1.00  0.00    -0.205 F 
ATOM     78  C   UNL A   1      42.949  22.284  25.060  1.00  0.00     0.022 A 
BRANCH  76  79
ATOM     79  S   UNL A   1      41.629  20.346  26.474  1.00  0.00     0.127 S 
ATOM     80  O   UNL A   1      40.191  20.584  26.370  1.00  0.00    -0.237 OA
ATOM     81  O   UNL A   1      42.222  19.642  25.337  1.00  0.00    -0.237 OA
ATOM     82  O   UNL A   1      42.104  19.897  27.776  1.00  0.00    -0.744 OA
ENDBRANCH  76  79
ENDBRANCH  48  72
BRANCH  60  83
ATOM     83  C   UNL A   1      47.299  25.958  32.195  1.00  0.00     0.023 A 
ATOM     84  C   UNL A   1      47.362  25.049  33.270  1.00  0.00     0.012 A 
ATOM     85  C   UNL A   1      48.479  26.287  31.498  1.00  0.00     0.148 A 
ATOM     86  C   UNL A   1      48.582  24.505  33.668  1.00  0.00     0.002 A 
ATOM     87  C   UNL A   1      49.683  25.700  31.865  1.00  0.00     0.091 A 
ATOM     88  F   UNL A   1      48.401  27.166  30.489  1.00  0.00    -0.205 F 
ATOM     89  C   UNL A   1      49.740  24.821  32.960  1.00  0.00     0.022 A 
BRANCH  87  90
ATOM     90  S   UNL A   1      51.207  25.970  30.954  1.00  0.00     0.127 S 
ATOM     91  O   UNL A   1      50.848  25.486  29.622  1.00  0.00    -0.237 OA
ATOM     92  O   UNL A   1      51.371  27.421  31.052  1.00  0.00    -0.237 OA
ATOM     93  O   UNL A   1      52.232  25.197  31.644  1.00  0.00    -0.744 OA
ENDBRANCH  87  90
ENDBRANCH  60  83
ENDBRANCH  34  35
ENDBRANCH  26  29
ENDBRANCH  24  25
ENDBRANCH   1  24
TORSDOF 16
ENDMDL
MODEL 3
REMARK VINA RESULT:     -10.5      4.136      7.778
REMARK SMILES Cc1cc(SCC(=O)NCCCNC(=O)c2ccc(-c3c4nc(c(-c5cccc(S(=O)(=O)[O-])c5F)c5ccc([nH]5)c(-c5cccc(S(=O)(=O)[O-])c5F)c5nc(c(-c6cccc(S(=O)(=O)[O-])c6F)c6ccc3[nH]6)C=C5)C=C4)cc2)c2cc(C(F)(F)F)ccc2n1
REMARK SMILES IDX 11 1 10 2 9 3 7 4 8 5 6 7 5 8 4 9 1 10 2 11 3 12 89 13 88 14
REMARK SMILES IDX 79 15 87 16 80 17 86 18 81 19 82 20 83 21 84 22 85 23 12 24
REMARK SMILES IDX 13 25 14 26 15 28 16 29 17 30 78 31 18 32 77 33 19 34 20 35
REMARK SMILES IDX 21 36 71 37 22 38 76 39 70 40 72 41 23 42 75 43 69 44 68 45
REMARK SMILES IDX 24 47 56 48 36 49 55 50 37 51 40 52 54 53 73 54 38 55 39 56
REMARK SMILES IDX 53 58 74 59 41 60 25 61 26 62 34 63 27 64 29 65 35 66 28 67
REMARK SMILES IDX 30 68 31 69 32 70 33 71 57 72 58 73 66 74 59 75 61 76 67 77
REMARK SMILES IDX 60 78 62 79 63 80 64 81 65 82 42 83 43 84 51 85 44 86 46 87
REMARK SMILES IDX 52 88 45 89 47 90 48 91 49 92 50 93
REMARK H PARENT 9 6 13 27 72 46 40 57
REMARK Flexibility Score: inf
ROOT
ATOM      1  C   UNL A   1      32.977  28.076  26.124  1.00  0.00     0.042 C 
ENDROOT
BRANCH   1   2
ATOM      2  C   UNL A   1      31.599  27.489  25.826  1.00  0.00     0.117 C 
BRANCH   2   3
ATOM      3  N   UNL A   1      31.309  26.332  26.652  1.00  0.00    -0.355 N 
ATOM      4  C   UNL A   1      31.564  25.014  26.428  1.00  0.00     0.230 C 
ATOM      5  O   UNL A   1      31.207  24.207  27.292  1.00  0.00    -0.274 OA
ATOM      6  H   UNL A   1      30.858  26.530  27.505  1.00  0.00     0.163 HD
BRANCH   4   7
ATOM      7  C   UNL A   1      32.349  24.552  25.217  1.00  0.00     0.174 C 
BRANCH   7   8
ATOM      8  S   UNL A   1      32.414  22.751  24.975  1.00  0.00    -0.115 SA
BRANCH   8   9
ATOM      9  C   UNL A   1      34.144  22.261  25.147  1.00  0.00     0.019 A 
ATOM     10  C   UNL A   1      37.548  23.701  25.956  1.00  0.00     0.067 C 
ATOM     11  C   UNL A   1      36.452  22.747  25.589  1.00  0.00     0.039 A 
ATOM     12  C   UNL A   1      35.144  23.185  25.446  1.00  0.00     0.039 A 
ATOM     13  N   UNL A   1      36.813  21.463  25.393  1.00  0.00    -0.253 NA
ATOM     14  C   UNL A   1      35.871  20.564  25.069  1.00  0.00     0.072 A 
ATOM     15  C   UNL A   1      34.507  20.897  24.935  1.00  0.00     0.014 A 
ATOM     16  C   UNL A   1      36.277  19.253  24.855  1.00  0.00     0.029 A 
ATOM     17  C   UNL A   1      33.602  19.854  24.587  1.00  0.00     0.024 A 
ATOM     18  C   UNL A   1      35.379  18.242  24.501  1.00  0.00     0.015 A 
ATOM     19  C   UNL A   1      34.026  18.536  24.357  1.00  0.00     0.056 A 
BRANCH  19  20
ATOM     20  C   UNL A   1      33.020  17.477  23.953  1.00  0.00     0.416 C 
ATOM     21  F   UNL A   1      31.978  17.408  24.821  1.00  0.00    -0.166 F 
ATOM     22  F   UNL A   1      32.472  17.763  22.735  1.00  0.00    -0.166 F 
ATOM     23  F   UNL A   1      33.558  16.240  23.838  1.00  0.00    -0.166 F 
ENDBRANCH  19  20
ENDBRANCH   8   9
ENDBRANCH   7   8
ENDBRANCH   4   7
ENDBRANCH   2   3
ENDBRANCH   1   2
BRANCH   1  24
ATOM     24  C   UNL A   1      33.125  28.659  27.529  1.00  0.00     0.118 C 
BRANCH  24  25
ATOM     25  N   UNL A   1      33.336  30.101  27.527  1.00  0.00    -0.352 N 
ATOM     26  C   UNL A   1      34.405  30.842  27.964  1.00  0.00     0.251 C 
ATOM     27  H   UNL A   1      32.594  30.627  27.151  1.00  0.00     0.163 HD
ATOM     28  O   UNL A   1      34.299  32.069  28.025  1.00  0.00    -0.269 OA
BRANCH  26  29
ATOM     29  C   UNL A   1      35.667  30.192  28.380  1.00  0.00     0.039 A 
ATOM     30  C   UNL A   1      36.734  30.157  27.477  1.00  0.00     0.014 A 
ATOM     31  C   UNL A   1      35.802  29.602  29.639  1.00  0.00     0.014 A 
ATOM     32  C   UNL A   1      37.955  29.599  27.864  1.00  0.00     0.010 A 
ATOM     33  C   UNL A   1      37.042  29.111  30.049  1.00  0.00     0.010 A 
ATOM     34  C   UNL A   1      38.135  29.113  29.169  1.00  0.00    -0.014 A 
BRANCH  34  35
ATOM     35  C   UNL A   1      39.471  28.659  29.642  1.00  0.00     0.031 A 
ATOM     36  C   UNL A   1      40.198  29.396  30.735  1.00  0.00     0.074 A 
ATOM     37  C   UNL A   1      40.071  27.625  29.018  1.00  0.00     0.049 A 
ATOM     38  N   UNL A   1      41.387  29.168  31.229  1.00  0.00    -0.248 NA
ATOM     39  C   UNL A   1      39.511  30.551  31.336  1.00  0.00     0.031 C 
ATOM     40  C   UNL A   1      39.508  26.876  27.891  1.00  0.00     0.029 A 
ATOM     41  N   UNL A   1      41.298  27.042  29.220  1.00  0.00    -0.354 N 
ATOM     42  C   UNL A   1      41.607  30.164  32.173  1.00  0.00     0.074 A 
ATOM     43  C   UNL A   1      40.435  31.015  32.165  1.00  0.00     0.031 C 
ATOM     44  C   UNL A   1      40.385  25.938  27.501  1.00  0.00     0.029 A 
ATOM     45  C   UNL A   1      41.586  26.039  28.322  1.00  0.00     0.049 A 
ATOM     46  H   UNL A   1      41.914  27.316  29.938  1.00  0.00     0.167 HD
ATOM     47  C   UNL A   1      42.676  30.344  32.986  1.00  0.00     0.034 A 
ATOM     48  C   UNL A   1      42.699  25.296  28.162  1.00  0.00     0.034 A 
ATOM     49  C   UNL A   1      43.825  29.478  33.015  1.00  0.00     0.049 A 
ATOM     50  C   UNL A   1      43.860  25.503  29.096  1.00  0.00     0.074 A 
ATOM     51  C   UNL A   1      44.913  29.525  33.870  1.00  0.00     0.029 A 
ATOM     52  N   UNL A   1      44.049  28.425  32.142  1.00  0.00    -0.354 N 
ATOM     53  N   UNL A   1      43.976  26.343  30.094  1.00  0.00    -0.248 NA
ATOM     54  C   UNL A   1      45.032  24.637  28.900  1.00  0.00     0.031 C 
ATOM     55  C   UNL A   1      45.812  28.523  33.490  1.00  0.00     0.029 A 
ATOM     56  C   UNL A   1      45.266  27.827  32.424  1.00  0.00     0.049 A 
ATOM     57  H   UNL A   1      43.434  28.144  31.427  1.00  0.00     0.167 HD
ATOM     58  C   UNL A   1      45.217  26.086  30.666  1.00  0.00     0.074 A 
ATOM     59  C   UNL A   1      45.803  24.993  29.919  1.00  0.00     0.031 C 
ATOM     60  C   UNL A   1      45.823  26.709  31.706  1.00  0.00     0.034 A 
BRANCH  47  61
ATOM     61  C   UNL A   1      42.643  31.500  33.952  1.00  0.00     0.023 A 
ATOM     62  C   UNL A   1      43.211  32.736  33.581  1.00  0.00     0.012 A 
ATOM     63  C   UNL A   1      41.974  31.392  35.187  1.00  0.00     0.148 A 
ATOM     64  C   UNL A   1      43.140  33.837  34.433  1.00  0.00     0.002 A 
ATOM     65  C   UNL A   1      41.866  32.506  36.012  1.00  0.00     0.091 A 
ATOM     66  F   UNL A   1      41.453  30.205  35.530  1.00  0.00    -0.205 F 
ATOM     67  C   UNL A   1      42.457  33.725  35.641  1.00  0.00     0.022 A 
BRANCH  65  68
ATOM     68  S   UNL A   1      40.938  32.491  37.550  1.00  0.00     0.127 S 
ATOM     69  O   UNL A   1      39.788  31.661  37.192  1.00  0.00    -0.237 OA
ATOM     70  O   UNL A   1      41.883  31.860  38.471  1.00  0.00    -0.237 OA
ATOM     71  O   UNL A   1      40.631  33.883  37.850  1.00  0.00    -0.744 OA
ENDBRANCH  65  68
ENDBRANCH  47  61
BRANCH  48  72
ATOM     72  C   UNL A   1      42.759  24.260  27.092  1.00  0.00     0.023 A 
ATOM     73  C   UNL A   1      43.462  24.527  25.901  1.00  0.00     0.012 A 
ATOM     74  C   UNL A   1      42.131  23.010  27.254  1.00  0.00     0.148 A 
ATOM     75  C   UNL A   1      43.505  23.582  24.875  1.00  0.00     0.002 A 
ATOM     76  C   UNL A   1      42.229  22.051  26.253  1.00  0.00     0.091 A 
ATOM     77  F   UNL A   1      41.456  22.781  28.390  1.00  0.00    -0.205 F 
ATOM     78  C   UNL A   1      42.898  22.342  25.055  1.00  0.00     0.022 A 
BRANCH  76  79
ATOM     79  S   UNL A   1      41.591  20.385  26.455  1.00  0.00     0.127 S 
ATOM     80  O   UNL A   1      42.236  19.683  25.348  1.00  0.00    -0.237 OA
ATOM     81  O   UNL A   1      42.090  20.032  27.784  1.00  0.00    -0.237 OA
ATOM     82  O   UNL A   1      40.143  20.509  26.369  1.00  0.00    -0.744 OA
ENDBRANCH  76  79
ENDBRANCH  48  72
BRANCH  60  83
ATOM     83  C   UNL A   1      47.180  26.208  32.128  1.00  0.00     0.023 A 
ATOM     84  C   UNL A   1      48.343  26.757  31.552  1.00  0.00     0.012 A 
ATOM     85  C   UNL A   1      47.303  25.237  33.142  1.00  0.00     0.148 A 
ATOM     86  C   UNL A   1      49.606  26.322  31.953  1.00  0.00     0.002 A 
ATOM     87  C   UNL A   1      48.565  24.847  33.574  1.00  0.00     0.091 A 
ATOM     88  F   UNL A   1      46.185  24.714  33.666  1.00  0.00    -0.205 F 
ATOM     89  C   UNL A   1      49.717  25.377  32.970  1.00  0.00     0.022 A 
BRANCH  87  90
ATOM     90  S   UNL A   1      48.808  23.709  34.942  1.00  0.00     0.127 S 
ATOM     91  O   UNL A   1      48.337  24.501  36.077  1.00  0.00    -0.237 OA
ATOM     92  O   UNL A   1      47.936  22.593  34.573  1.00  0.00    -0.237 OA
ATOM     93  O   UNL A   1      50.230  23.389  34.952  1.00  0.00    -0.744 OA
ENDBRANCH  87  90
ENDBRANCH  60  83
ENDBRANCH  34  35
ENDBRANCH  26  29
ENDBRANCH  24  25
ENDBRANCH   1  24
TORSDOF 16
ENDMDL
