MODEL 1
REMARK VINA RESULT:     -12.3      0.000      0.000
REMARK SMILES O=C(NCCCNC(=O)c1cc(Cl)c2c(c1)[C@H]1C=CC[C@H]1[C@H](c1ccc(S(=O)(=O)N3CCOCC3)cc1)N2)c1ccc(-c2c3nc(c(-c4cccc(S(=O)(=O)[O-])c4F)c4ccc([nH]4)c(-c4cccc(S(=O)(=O)[O-])c4F)c4nc(c(-c5cccc(S(=O)(=O)[O-])c5F)c5ccc2[nH]5)C=C4)C=C3)cc1
REMARK SMILES IDX 5 1 4 2 3 3 1 4 2 5 39 7 40 8 101 9 41 10 100 11 42 12 43 13
REMARK SMILES IDX 44 14 94 15 45 16 99 17 93 18 95 19 46 20 98 21 92 22 91 23
REMARK SMILES IDX 47 25 79 26 59 27 78 28 60 29 63 30 77 31 96 32 61 33 62 34
REMARK SMILES IDX 76 36 97 37 64 38 48 39 49 40 57 41 50 42 52 43 58 44 51 45
REMARK SMILES IDX 53 46 54 47 55 48 56 49 80 50 81 51 89 52 82 53 84 54 90 55
REMARK SMILES IDX 83 56 85 57 86 58 87 59 88 60 65 61 66 62 74 63 67 64 69 65
REMARK SMILES IDX 75 66 68 67 70 68 71 69 72 70 73 71 6 72 7 73 8 74 9 76
REMARK SMILES IDX 10 77 11 78 16 79 12 80 15 81 13 82 14 83 17 84 38 85 18 86
REMARK SMILES IDX 21 87 22 88 19 90 20 91 23 92 24 93 37 94 25 95 36 96 26 97
REMARK SMILES IDX 27 98 28 99 29 100 30 101 31 102 35 103 32 104 34 105 33 106
REMARK H PARENT 3 6 95 24 63 35 7 75 38 89
REMARK Flexibility Score: inf
ROOT
ATOM      1  C   UNL A   1      35.300  33.032  33.012  1.00  0.00     0.042 C 
ENDROOT
BRANCH   1   2
ATOM      2  C   UNL A   1      36.671  32.411  33.242  1.00  0.00     0.118 C 
BRANCH   2   3
ATOM      3  N   UNL A   1      36.627  30.956  33.250  1.00  0.00    -0.352 N 
ATOM      4  O   UNL A   1      37.098  28.868  32.565  1.00  0.00    -0.269 OA
ATOM      5  C   UNL A   1      37.434  30.047  32.613  1.00  0.00     0.251 C 
ATOM      6  H   UNL A   1      35.907  30.563  33.795  1.00  0.00     0.163 HD
BRANCH   5   7
ATOM      7  C   UNL A   1      38.689  30.495  31.976  1.00  0.00     0.039 A 
ATOM      8  C   UNL A   1      39.829  30.742  32.746  1.00  0.00     0.014 A 
ATOM      9  C   UNL A   1      38.728  30.650  30.587  1.00  0.00     0.014 A 
ATOM     10  C   UNL A   1      40.966  31.273  32.146  1.00  0.00     0.010 A 
ATOM     11  C   UNL A   1      39.892  31.123  29.978  1.00  0.00     0.010 A 
ATOM     12  C   UNL A   1      41.007  31.468  30.757  1.00  0.00    -0.014 A 
BRANCH  12  13
ATOM     13  C   UNL A   1      42.239  31.992  30.126  1.00  0.00     0.031 A 
ATOM     14  C   UNL A   1      43.346  31.066  29.713  1.00  0.00     0.074 A 
ATOM     15  C   UNL A   1      42.347  33.318  29.918  1.00  0.00     0.049 A 
ATOM     16  N   UNL A   1      44.490  31.357  29.150  1.00  0.00    -0.248 NA
ATOM     17  C   UNL A   1      43.146  29.628  29.958  1.00  0.00     0.031 C 
ATOM     18  C   UNL A   1      41.338  34.313  30.288  1.00  0.00     0.029 A 
ATOM     19  N   UNL A   1      43.351  34.057  29.349  1.00  0.00    -0.354 N 
ATOM     20  C   UNL A   1      45.155  30.149  28.992  1.00  0.00     0.074 A 
ATOM     21  C   UNL A   1      44.292  29.116  29.526  1.00  0.00     0.031 C 
ATOM     22  C   UNL A   1      41.766  35.530  29.921  1.00  0.00     0.029 A 
ATOM     23  C   UNL A   1      43.093  35.406  29.325  1.00  0.00     0.049 A 
ATOM     24  H   UNL A   1      44.177  33.659  28.991  1.00  0.00     0.167 HD
ATOM     25  C   UNL A   1      46.367  29.920  28.434  1.00  0.00     0.034 A 
ATOM     26  C   UNL A   1      43.841  36.432  28.880  1.00  0.00     0.034 A 
ATOM     27  C   UNL A   1      47.210  30.945  27.881  1.00  0.00     0.049 A 
ATOM     28  C   UNL A   1      45.185  36.151  28.275  1.00  0.00     0.074 A 
ATOM     29  C   UNL A   1      48.449  30.804  27.279  1.00  0.00     0.029 A 
ATOM     30  N   UNL A   1      46.905  32.295  27.859  1.00  0.00    -0.354 N 
ATOM     31  N   UNL A   1      45.768  34.994  28.075  1.00  0.00    -0.248 NA
ATOM     32  C   UNL A   1      45.963  37.308  27.814  1.00  0.00     0.031 C 
ATOM     33  C   UNL A   1      48.892  32.072  26.891  1.00  0.00     0.029 A 
ATOM     34  C   UNL A   1      47.926  33.000  27.246  1.00  0.00     0.049 A 
ATOM     35  H   UNL A   1      46.083  32.695  28.224  1.00  0.00     0.167 HD
ATOM     36  C   UNL A   1      46.972  35.280  27.447  1.00  0.00     0.074 A 
ATOM     37  C   UNL A   1      47.030  36.720  27.286  1.00  0.00     0.031 C 
ATOM     38  C   UNL A   1      47.947  34.427  27.052  1.00  0.00     0.034 A 
BRANCH  25  39
ATOM     39  C   UNL A   1      46.839  28.496  28.333  1.00  0.00     0.023 A 
ATOM     40  C   UNL A   1      47.604  27.956  29.385  1.00  0.00     0.012 A 
ATOM     41  C   UNL A   1      46.448  27.671  27.261  1.00  0.00     0.148 A 
ATOM     42  C   UNL A   1      47.982  26.614  29.369  1.00  0.00     0.002 A 
ATOM     43  C   UNL A   1      46.806  26.328  27.265  1.00  0.00     0.091 A 
ATOM     44  F   UNL A   1      45.732  28.213  26.266  1.00  0.00    -0.205 F 
ATOM     45  C   UNL A   1      47.575  25.800  28.316  1.00  0.00     0.022 A 
BRANCH  43  46
ATOM     46  S   UNL A   1      46.295  25.177  25.983  1.00  0.00     0.127 S 
ATOM     47  O   UNL A   1      47.160  24.030  26.257  1.00  0.00    -0.237 OA
ATOM     48  O   UNL A   1      44.884  24.969  26.304  1.00  0.00    -0.237 OA
ATOM     49  O   UNL A   1      46.542  25.851  24.716  1.00  0.00    -0.744 OA
ENDBRANCH  43  46
ENDBRANCH  25  39
BRANCH  26  50
ATOM     50  C   UNL A   1      43.286  37.809  28.939  1.00  0.00     0.023 A 
ATOM     51  C   UNL A   1      43.612  38.631  30.033  1.00  0.00     0.012 A 
ATOM     52  C   UNL A   1      42.521  38.335  27.880  1.00  0.00     0.148 A 
ATOM     53  C   UNL A   1      43.183  39.957  30.074  1.00  0.00     0.002 A 
ATOM     54  C   UNL A   1      42.131  39.667  27.908  1.00  0.00     0.091 A 
ATOM     55  F   UNL A   1      42.227  37.528  26.851  1.00  0.00    -0.205 F 
ATOM     56  C   UNL A   1      42.452  40.478  29.008  1.00  0.00     0.022 A 
BRANCH  54  57
ATOM     57  S   UNL A   1      41.282  40.459  26.537  1.00  0.00     0.127 S 
ATOM     58  O   UNL A   1      42.379  41.160  25.873  1.00  0.00    -0.237 OA
ATOM     59  O   UNL A   1      40.756  39.305  25.808  1.00  0.00    -0.237 OA
ATOM     60  O   UNL A   1      40.267  41.313  27.137  1.00  0.00    -0.744 OA
ENDBRANCH  54  57
ENDBRANCH  26  50
BRANCH  38  61
ATOM     61  C   UNL A   1      49.162  35.010  26.388  1.00  0.00     0.023 A 
ATOM     62  C   UNL A   1      49.109  35.341  25.021  1.00  0.00     0.012 A 
ATOM     63  C   UNL A   1      50.309  35.329  27.139  1.00  0.00     0.148 A 
ATOM     64  C   UNL A   1      50.189  35.973  24.406  1.00  0.00     0.002 A 
ATOM     65  C   UNL A   1      51.368  35.989  26.528  1.00  0.00     0.091 A 
ATOM     66  F   UNL A   1      50.338  34.990  28.437  1.00  0.00    -0.205 F 
ATOM     67  C   UNL A   1      51.311  36.307  25.161  1.00  0.00     0.022 A 
BRANCH  65  68
ATOM     68  S   UNL A   1      52.823  36.525  27.435  1.00  0.00     0.127 S 
ATOM     69  O   UNL A   1      53.613  37.159  26.380  1.00  0.00    -0.237 OA
ATOM     70  O   UNL A   1      52.255  37.452  28.414  1.00  0.00    -0.237 OA
ATOM     71  O   UNL A   1      53.405  35.320  28.010  1.00  0.00    -0.744 OA
ENDBRANCH  65  68
ENDBRANCH  38  61
ENDBRANCH  12  13
ENDBRANCH   5   7
ENDBRANCH   2   3
ENDBRANCH   1   2
BRANCH   1  72
ATOM     72  C   UNL A   1      34.681  32.680  31.665  1.00  0.00     0.118 C 
BRANCH  72  73
ATOM     73  N   UNL A   1      34.708  33.797  30.730  1.00  0.00    -0.352 N 
ATOM     74  C   UNL A   1      34.864  33.790  29.369  1.00  0.00     0.251 C 
ATOM     75  H   UNL A   1      34.598  34.687  31.136  1.00  0.00     0.163 HD
ATOM     76  O   UNL A   1      35.045  34.835  28.751  1.00  0.00    -0.269 OA
BRANCH  74  77
ATOM     77  C   UNL A   1      34.835  32.509  28.645  1.00  0.00     0.041 A 
ATOM     78  C   UNL A   1      35.992  31.748  28.496  1.00  0.00     0.036 A 
ATOM     79  C   UNL A   1      33.620  32.056  28.138  1.00  0.00     0.020 A 
ATOM     80  C   UNL A   1      35.948  30.593  27.724  1.00  0.00     0.065 A 
ATOM     81  C   UNL A   1      33.567  30.866  27.397  1.00  0.00    -0.015 A 
ATOM     82  Cl  UNL A   1      37.422  29.715  27.488  1.00  0.00    -0.082 Cl
ATOM     83  C   UNL A   1      34.749  30.157  27.127  1.00  0.00     0.057 A 
ATOM     84  C   UNL A   1      32.232  30.343  26.950  1.00  0.00     0.049 C 
ATOM     85  N   UNL A   1      34.717  28.997  26.364  1.00  0.00    -0.376 N 
ATOM     86  C   UNL A   1      31.573  31.116  25.838  1.00  0.00    -0.023 C 
ATOM     87  C   UNL A   1      32.254  28.910  26.372  1.00  0.00     0.031 C 
ATOM     88  C   UNL A   1      33.551  28.695  25.547  1.00  0.00     0.114 C 
ATOM     89  H   UNL A   1      35.483  28.380  26.376  1.00  0.00     0.161 HD
ATOM     90  C   UNL A   1      30.849  30.302  25.061  1.00  0.00    -0.030 C 
ATOM     91  C   UNL A   1      30.950  28.890  25.546  1.00  0.00     0.034 C 
BRANCH  88  92
ATOM     92  C   UNL A   1      33.681  27.279  25.000  1.00  0.00    -0.025 A 
ATOM     93  C   UNL A   1      33.826  26.135  25.807  1.00  0.00     0.007 A 
ATOM     94  C   UNL A   1      33.651  27.105  23.613  1.00  0.00     0.007 A 
ATOM     95  C   UNL A   1      33.916  24.855  25.241  1.00  0.00     0.022 A 
ATOM     96  C   UNL A   1      33.685  25.835  23.056  1.00  0.00     0.022 A 
ATOM     97  C   UNL A   1      33.824  24.710  23.856  1.00  0.00     0.082 A 
BRANCH  97  98
ATOM     98  S   UNL A   1      33.871  23.083  23.140  1.00  0.00     0.243 S 
ATOM     99  O   UNL A   1      32.718  22.373  23.661  1.00  0.00    -0.207 OA
ATOM    100  O   UNL A   1      34.075  23.263  21.723  1.00  0.00    -0.207 OA
BRANCH  98 101
ATOM    101  N   UNL A   1      35.251  22.363  23.769  1.00  0.00    -0.193 NA
ATOM    102  C   UNL A   1      35.195  21.213  24.697  1.00  0.00     0.131 C 
ATOM    103  C   UNL A   1      36.598  22.889  23.485  1.00  0.00     0.131 C 
ATOM    104  C   UNL A   1      36.138  21.392  25.900  1.00  0.00     0.177 C 
ATOM    105  C   UNL A   1      37.383  23.070  24.784  1.00  0.00     0.177 C 
ATOM    106  O   UNL A   1      37.445  21.844  25.524  1.00  0.00    -0.379 OA
ENDBRANCH  98 101
ENDBRANCH  97  98
ENDBRANCH  88  92
ENDBRANCH  74  77
ENDBRANCH  72  73
ENDBRANCH   1  72
TORSDOF 16
ENDMDL
MODEL 2
REMARK VINA RESULT:     -12.2      1.430      7.250
REMARK SMILES O=C(NCCCNC(=O)c1cc(Cl)c2c(c1)[C@H]1C=CC[C@H]1[C@H](c1ccc(S(=O)(=O)N3CCOCC3)cc1)N2)c1ccc(-c2c3nc(c(-c4cccc(S(=O)(=O)[O-])c4F)c4ccc([nH]4)c(-c4cccc(S(=O)(=O)[O-])c4F)c4nc(c(-c5cccc(S(=O)(=O)[O-])c5F)c5ccc2[nH]5)C=C4)C=C3)cc1
REMARK SMILES IDX 5 1 4 2 3 3 1 4 2 5 39 7 40 8 101 9 41 10 100 11 42 12 43 13
REMARK SMILES IDX 44 14 94 15 45 16 99 17 93 18 95 19 46 20 98 21 92 22 91 23
REMARK SMILES IDX 47 25 79 26 59 27 78 28 60 29 63 30 77 31 96 32 61 33 62 34
REMARK SMILES IDX 76 36 97 37 64 38 48 39 49 40 57 41 50 42 52 43 58 44 51 45
REMARK SMILES IDX 53 46 54 47 55 48 56 49 80 50 81 51 89 52 82 53 84 54 90 55
REMARK SMILES IDX 83 56 85 57 86 58 87 59 88 60 65 61 66 62 74 63 67 64 69 65
REMARK SMILES IDX 75 66 68 67 70 68 71 69 72 70 73 71 6 72 7 73 8 74 9 76
REMARK SMILES IDX 10 77 11 78 16 79 12 80 15 81 13 82 14 83 17 84 38 85 18 86
REMARK SMILES IDX 21 87 22 88 19 90 20 91 23 92 24 93 37 94 25 95 36 96 26 97
REMARK SMILES IDX 27 98 28 99 29 100 30 101 31 102 35 103 32 104 34 105 33 106
REMARK H PARENT 3 6 95 24 63 35 7 75 38 89
REMARK Flexibility Score: inf
ROOT
ATOM      1  C   UNL A   1      35.373  33.155  33.008  1.00  0.00     0.042 C 
ENDROOT
BRANCH   1   2
ATOM      2  C   UNL A   1      36.727  32.507  33.266  1.00  0.00     0.118 C 
BRANCH   2   3
ATOM      3  N   UNL A   1      36.659  31.053  33.239  1.00  0.00    -0.352 N 
ATOM      4  O   UNL A   1      37.077  28.976  32.488  1.00  0.00    -0.269 OA
ATOM      5  C   UNL A   1      37.433  30.148  32.556  1.00  0.00     0.251 C 
ATOM      6  H   UNL A   1      35.950  30.658  33.795  1.00  0.00     0.163 HD
BRANCH   5   7
ATOM      7  C   UNL A   1      38.675  30.593  31.893  1.00  0.00     0.039 A 
ATOM      8  C   UNL A   1      39.837  30.819  32.636  1.00  0.00     0.014 A 
ATOM      9  C   UNL A   1      38.681  30.767  30.506  1.00  0.00     0.014 A 
ATOM     10  C   UNL A   1      40.964  31.348  32.015  1.00  0.00     0.010 A 
ATOM     11  C   UNL A   1      39.833  31.237  29.874  1.00  0.00     0.010 A 
ATOM     12  C   UNL A   1      40.971  31.561  30.629  1.00  0.00    -0.014 A 
BRANCH  12  13
ATOM     13  C   UNL A   1      42.191  32.083  29.973  1.00  0.00     0.031 A 
ATOM     14  C   UNL A   1      42.345  33.549  29.688  1.00  0.00     0.074 A 
ATOM     15  C   UNL A   1      43.170  31.219  29.644  1.00  0.00     0.049 A 
ATOM     16  N   UNL A   1      43.345  34.172  29.120  1.00  0.00    -0.248 NA
ATOM     17  C   UNL A   1      41.239  34.432  30.093  1.00  0.00     0.031 C 
ATOM     18  C   UNL A   1      43.123  29.771  29.864  1.00  0.00     0.029 A 
ATOM     19  N   UNL A   1      44.389  31.428  29.054  1.00  0.00    -0.354 N 
ATOM     20  C   UNL A   1      42.985  35.512  29.080  1.00  0.00     0.074 A 
ATOM     21  C   UNL A   1      41.669  35.616  29.673  1.00  0.00     0.031 C 
ATOM     22  C   UNL A   1      44.269  29.225  29.431  1.00  0.00     0.029 A 
ATOM     23  C   UNL A   1      45.114  30.275  28.870  1.00  0.00     0.049 A 
ATOM     24  H   UNL A   1      44.714  32.318  28.788  1.00  0.00     0.167 HD
ATOM     25  C   UNL A   1      43.697  36.562  28.609  1.00  0.00     0.034 A 
ATOM     26  C   UNL A   1      46.320  30.081  28.307  1.00  0.00     0.034 A 
ATOM     27  C   UNL A   1      45.015  36.460  28.044  1.00  0.00     0.049 A 
ATOM     28  C   UNL A   1      47.084  31.262  27.784  1.00  0.00     0.074 A 
ATOM     29  C   UNL A   1      45.821  37.474  27.556  1.00  0.00     0.029 A 
ATOM     30  N   UNL A   1      45.722  35.279  27.893  1.00  0.00    -0.354 N 
ATOM     31  N   UNL A   1      46.753  32.530  27.815  1.00  0.00    -0.248 NA
ATOM     32  C   UNL A   1      48.391  30.992  27.172  1.00  0.00     0.031 C 
ATOM     33  C   UNL A   1      47.017  36.904  27.111  1.00  0.00     0.029 A 
ATOM     34  C   UNL A   1      46.959  35.537  27.328  1.00  0.00     0.049 A 
ATOM     35  H   UNL A   1      45.395  34.386  28.151  1.00  0.00     0.167 HD
ATOM     36  C   UNL A   1      47.819  33.213  27.246  1.00  0.00     0.074 A 
ATOM     37  C   UNL A   1      48.813  32.219  26.891  1.00  0.00     0.031 C 
ATOM     38  C   UNL A   1      47.955  34.543  27.025  1.00  0.00     0.034 A 
BRANCH  25  39
ATOM     39  C   UNL A   1      43.096  37.935  28.736  1.00  0.00     0.023 A 
ATOM     40  C   UNL A   1      42.175  38.367  27.762  1.00  0.00     0.012 A 
ATOM     41  C   UNL A   1      43.361  38.748  29.855  1.00  0.00     0.148 A 
ATOM     42  C   UNL A   1      41.528  39.595  27.895  1.00  0.00     0.002 A 
ATOM     43  C   UNL A   1      42.693  39.959  29.993  1.00  0.00     0.091 A 
ATOM     44  F   UNL A   1      44.252  38.320  30.759  1.00  0.00    -0.205 F 
ATOM     45  C   UNL A   1      41.780  40.385  29.014  1.00  0.00     0.022 A 
BRANCH  43  46
ATOM     46  S   UNL A   1      42.904  41.033  31.419  1.00  0.00     0.127 S 
ATOM     47  O   UNL A   1      44.290  41.471  31.253  1.00  0.00    -0.237 OA
ATOM     48  O   UNL A   1      41.903  42.069  31.173  1.00  0.00    -0.237 OA
ATOM     49  O   UNL A   1      42.653  40.202  32.589  1.00  0.00    -0.744 OA
ENDBRANCH  43  46
ENDBRANCH  25  39
BRANCH  26  50
ATOM     50  C   UNL A   1      46.893  28.710  28.280  1.00  0.00     0.023 A 
ATOM     51  C   UNL A   1      47.600  28.242  29.403  1.00  0.00     0.012 A 
ATOM     52  C   UNL A   1      46.662  27.843  27.196  1.00  0.00     0.148 A 
ATOM     53  C   UNL A   1      48.072  26.931  29.446  1.00  0.00     0.002 A 
ATOM     54  C   UNL A   1      47.099  26.526  27.261  1.00  0.00     0.091 A 
ATOM     55  F   UNL A   1      45.985  28.317  26.140  1.00  0.00    -0.205 F 
ATOM     56  C   UNL A   1      47.813  26.071  28.382  1.00  0.00     0.022 A 
BRANCH  54  57
ATOM     57  S   UNL A   1      46.722  25.313  25.991  1.00  0.00     0.127 S 
ATOM     58  O   UNL A   1      47.414  25.872  24.832  1.00  0.00    -0.237 OA
ATOM     59  O   UNL A   1      47.328  24.104  26.547  1.00  0.00    -0.237 OA
ATOM     60  O   UNL A   1      45.270  25.277  25.895  1.00  0.00    -0.744 OA
ENDBRANCH  54  57
ENDBRANCH  26  50
BRANCH  38  61
ATOM     61  C   UNL A   1      49.227  35.020  26.384  1.00  0.00     0.023 A 
ATOM     62  C   UNL A   1      49.249  35.275  25.000  1.00  0.00     0.012 A 
ATOM     63  C   UNL A   1      50.359  35.318  27.166  1.00  0.00     0.148 A 
ATOM     64  C   UNL A   1      50.387  35.811  24.399  1.00  0.00     0.002 A 
ATOM     65  C   UNL A   1      51.478  35.883  26.567  1.00  0.00     0.091 A 
ATOM     66  F   UNL A   1      50.316  35.052  28.480  1.00  0.00    -0.205 F 
ATOM     67  C   UNL A   1      51.495  36.126  25.183  1.00  0.00     0.022 A 
BRANCH  65  68
ATOM     68  S   UNL A   1      52.923  36.390  27.505  1.00  0.00     0.127 S 
ATOM     69  O   UNL A   1      53.246  35.167  28.238  1.00  0.00    -0.237 OA
ATOM     70  O   UNL A   1      53.874  36.739  26.449  1.00  0.00    -0.237 OA
ATOM     71  O   UNL A   1      52.494  37.514  28.327  1.00  0.00    -0.744 OA
ENDBRANCH  65  68
ENDBRANCH  38  61
ENDBRANCH  12  13
ENDBRANCH   5   7
ENDBRANCH   2   3
ENDBRANCH   1   2
BRANCH   1  72
ATOM     72  C   UNL A   1      34.733  32.746  31.688  1.00  0.00     0.118 C 
BRANCH  72  73
ATOM     73  N   UNL A   1      34.505  33.880  30.804  1.00  0.00    -0.352 N 
ATOM     74  C   UNL A   1      34.492  33.928  29.434  1.00  0.00     0.251 C 
ATOM     75  H   UNL A   1      34.335  34.738  31.256  1.00  0.00     0.163 HD
ATOM     76  O   UNL A   1      34.463  35.003  28.843  1.00  0.00    -0.269 OA
BRANCH  74  77
ATOM     77  C   UNL A   1      34.534  32.673  28.666  1.00  0.00     0.041 A 
ATOM     78  C   UNL A   1      35.728  31.971  28.515  1.00  0.00     0.036 A 
ATOM     79  C   UNL A   1      33.351  32.184  28.120  1.00  0.00     0.020 A 
ATOM     80  C   UNL A   1      35.751  30.842  27.703  1.00  0.00     0.065 A 
ATOM     81  C   UNL A   1      33.366  31.019  27.339  1.00  0.00    -0.015 A 
ATOM     82  Cl  UNL A   1      37.267  30.039  27.468  1.00  0.00    -0.082 Cl
ATOM     83  C   UNL A   1      34.583  30.374  27.069  1.00  0.00     0.057 A 
ATOM     84  C   UNL A   1      32.065  30.453  26.847  1.00  0.00     0.049 C 
ATOM     85  N   UNL A   1      34.618  29.241  26.266  1.00  0.00    -0.376 N 
ATOM     86  C   UNL A   1      31.392  31.234  25.749  1.00  0.00    -0.023 C 
ATOM     87  C   UNL A   1      32.162  29.044  26.222  1.00  0.00     0.031 C 
ATOM     88  C   UNL A   1      33.483  28.916  25.416  1.00  0.00     0.114 C 
ATOM     89  H   UNL A   1      35.411  28.658  26.272  1.00  0.00     0.161 HD
ATOM     90  C   UNL A   1      30.720  30.416  24.931  1.00  0.00    -0.030 C 
ATOM     91  C   UNL A   1      30.876  28.993  25.370  1.00  0.00     0.034 C 
BRANCH  88  92
ATOM     92  C   UNL A   1      33.687  27.526  24.824  1.00  0.00    -0.025 A 
ATOM     93  C   UNL A   1      33.984  26.382  25.589  1.00  0.00     0.007 A 
ATOM     94  C   UNL A   1      33.569  27.379  23.439  1.00  0.00     0.007 A 
ATOM     95  C   UNL A   1      34.136  25.126  24.984  1.00  0.00     0.022 A 
ATOM     96  C   UNL A   1      33.666  26.128  22.848  1.00  0.00     0.022 A 
ATOM     97  C   UNL A   1      33.955  25.002  23.606  1.00  0.00     0.082 A 
BRANCH  97  98
ATOM     98  S   UNL A   1      34.082  23.399  22.846  1.00  0.00     0.243 S 
ATOM     99  O   UNL A   1      33.652  23.564  21.470  1.00  0.00    -0.207 OA
ATOM    100  O   UNL A   1      35.392  22.890  23.177  1.00  0.00    -0.207 OA
BRANCH  98 101
ATOM    101  N   UNL A   1      32.947  22.446  23.634  1.00  0.00    -0.193 NA
ATOM    102  C   UNL A   1      31.542  22.870  23.816  1.00  0.00     0.131 C 
ATOM    103  C   UNL A   1      33.311  21.159  24.253  1.00  0.00     0.131 C 
ATOM    104  C   UNL A   1      31.045  22.626  25.252  1.00  0.00     0.177 C 
ATOM    105  C   UNL A   1      32.802  21.098  25.692  1.00  0.00     0.177 C 
ATOM    106  O   UNL A   1      31.387  21.325  25.749  1.00  0.00    -0.379 OA
ENDBRANCH  98 101
ENDBRANCH  97  98
ENDBRANCH  88  92
ENDBRANCH  74  77
ENDBRANCH  72  73
ENDBRANCH   1  72
TORSDOF 16
ENDMDL
MODEL 3
REMARK VINA RESULT:     -11.9      3.183      8.022
REMARK SMILES O=C(NCCCNC(=O)c1cc(Cl)c2c(c1)[C@H]1C=CC[C@H]1[C@H](c1ccc(S(=O)(=O)N3CCOCC3)cc1)N2)c1ccc(-c2c3nc(c(-c4cccc(S(=O)(=O)[O-])c4F)c4ccc([nH]4)c(-c4cccc(S(=O)(=O)[O-])c4F)c4nc(c(-c5cccc(S(=O)(=O)[O-])c5F)c5ccc2[nH]5)C=C4)C=C3)cc1
REMARK SMILES IDX 5 1 4 2 3 3 1 4 2 5 39 7 40 8 101 9 41 10 100 11 42 12 43 13
REMARK SMILES IDX 44 14 94 15 45 16 99 17 93 18 95 19 46 20 98 21 92 22 91 23
REMARK SMILES IDX 47 25 79 26 59 27 78 28 60 29 63 30 77 31 96 32 61 33 62 34
REMARK SMILES IDX 76 36 97 37 64 38 48 39 49 40 57 41 50 42 52 43 58 44 51 45
REMARK SMILES IDX 53 46 54 47 55 48 56 49 80 50 81 51 89 52 82 53 84 54 90 55
REMARK SMILES IDX 83 56 85 57 86 58 87 59 88 60 65 61 66 62 74 63 67 64 69 65
REMARK SMILES IDX 75 66 68 67 70 68 71 69 72 70 73 71 6 72 7 73 8 74 9 76
REMARK SMILES IDX 10 77 11 78 16 79 12 80 15 81 13 82 14 83 17 84 38 85 18 86
REMARK SMILES IDX 21 87 22 88 19 90 20 91 23 92 24 93 37 94 25 95 36 96 26 97
REMARK SMILES IDX 27 98 28 99 29 100 30 101 31 102 35 103 32 104 34 105 33 106
REMARK H PARENT 3 6 95 24 63 35 7 75 38 89
REMARK Flexibility Score: inf
ROOT
ATOM      1  C   UNL A   1      35.089  34.340  31.883  1.00  0.00     0.042 C 
ENDROOT
BRANCH   1   2
ATOM      2  C   UNL A   1      35.247  32.923  32.416  1.00  0.00     0.118 C 
BRANCH   2   3
ATOM      3  N   UNL A   1      35.828  32.895  33.751  1.00  0.00    -0.352 N 
ATOM      4  O   UNL A   1      37.207  32.221  35.393  1.00  0.00    -0.269 OA
ATOM      5  C   UNL A   1      37.001  32.332  34.188  1.00  0.00     0.251 C 
ATOM      6  H   UNL A   1      35.299  33.348  34.446  1.00  0.00     0.163 HD
BRANCH   5   7
ATOM      7  C   UNL A   1      37.996  31.848  33.211  1.00  0.00     0.039 A 
ATOM      8  C   UNL A   1      38.891  30.830  33.551  1.00  0.00     0.014 A 
ATOM      9  C   UNL A   1      38.020  32.409  31.931  1.00  0.00     0.014 A 
ATOM     10  C   UNL A   1      39.896  30.466  32.660  1.00  0.00     0.010 A 
ATOM     11  C   UNL A   1      38.990  31.998  31.015  1.00  0.00     0.010 A 
ATOM     12  C   UNL A   1      39.954  31.047  31.385  1.00  0.00    -0.014 A 
BRANCH  12  13
ATOM     13  C   UNL A   1      41.001  30.620  30.431  1.00  0.00     0.031 A 
ATOM     14  C   UNL A   1      42.194  31.490  30.155  1.00  0.00     0.074 A 
ATOM     15  C   UNL A   1      40.872  29.428  29.818  1.00  0.00     0.049 A 
ATOM     16  N   UNL A   1      43.200  31.270  29.350  1.00  0.00    -0.248 NA
ATOM     17  C   UNL A   1      42.272  32.771  30.878  1.00  0.00     0.031 C 
ATOM     18  C   UNL A   1      39.750  28.505  30.002  1.00  0.00     0.029 A 
ATOM     19  N   UNL A   1      41.686  28.791  28.918  1.00  0.00    -0.354 N 
ATOM     20  C   UNL A   1      44.019  32.387  29.449  1.00  0.00     0.074 A 
ATOM     21  C   UNL A   1      43.391  33.291  30.388  1.00  0.00     0.031 C 
ATOM     22  C   UNL A   1      39.955  27.412  29.251  1.00  0.00     0.029 A 
ATOM     23  C   UNL A   1      41.201  27.573  28.508  1.00  0.00     0.049 A 
ATOM     24  H   UNL A   1      42.537  29.168  28.597  1.00  0.00     0.167 HD
ATOM     25  C   UNL A   1      45.198  32.625  28.829  1.00  0.00     0.034 A 
ATOM     26  C   UNL A   1      41.696  26.685  27.626  1.00  0.00     0.034 A 
ATOM     27  C   UNL A   1      45.833  31.712  27.917  1.00  0.00     0.049 A 
ATOM     28  C   UNL A   1      43.001  26.979  26.945  1.00  0.00     0.074 A 
ATOM     29  C   UNL A   1      47.038  31.863  27.252  1.00  0.00     0.029 A 
ATOM     30  N   UNL A   1      45.319  30.482  27.542  1.00  0.00    -0.354 N 
ATOM     31  N   UNL A   1      43.793  28.012  27.102  1.00  0.00    -0.248 NA
ATOM     32  C   UNL A   1      43.491  25.981  25.985  1.00  0.00     0.031 C 
ATOM     33  C   UNL A   1      47.253  30.720  26.476  1.00  0.00     0.029 A 
ATOM     34  C   UNL A   1      46.185  29.857  26.662  1.00  0.00     0.049 A 
ATOM     35  H   UNL A   1      44.464  30.107  27.856  1.00  0.00     0.167 HD
ATOM     36  C   UNL A   1      44.885  27.780  26.278  1.00  0.00     0.074 A 
ATOM     37  C   UNL A   1      44.661  26.502  25.633  1.00  0.00     0.031 C 
ATOM     38  C   UNL A   1      45.970  28.564  26.066  1.00  0.00     0.034 A 
BRANCH  25  39
ATOM     39  C   UNL A   1      45.921  33.902  29.157  1.00  0.00     0.023 A 
ATOM     40  C   UNL A   1      46.826  33.914  30.236  1.00  0.00     0.012 A 
ATOM     41  C   UNL A   1      45.786  35.047  28.349  1.00  0.00     0.148 A 
ATOM     42  C   UNL A   1      47.582  35.051  30.514  1.00  0.00     0.002 A 
ATOM     43  C   UNL A   1      46.562  36.168  28.616  1.00  0.00     0.091 A 
ATOM     44  F   UNL A   1      44.908  35.014  27.337  1.00  0.00    -0.205 F 
ATOM     45  C   UNL A   1      47.458  36.173  29.698  1.00  0.00     0.022 A 
BRANCH  43  46
ATOM     46  S   UNL A   1      46.518  37.650  27.600  1.00  0.00     0.127 S 
ATOM     47  O   UNL A   1      46.495  37.082  26.253  1.00  0.00    -0.237 OA
ATOM     48  O   UNL A   1      45.264  38.273  28.022  1.00  0.00    -0.237 OA
ATOM     49  O   UNL A   1      47.719  38.403  27.935  1.00  0.00    -0.744 OA
ENDBRANCH  43  46
ENDBRANCH  25  39
BRANCH  26  50
ATOM     50  C   UNL A   1      40.972  25.407  27.402  1.00  0.00     0.023 A 
ATOM     51  C   UNL A   1      39.679  25.442  26.849  1.00  0.00     0.012 A 
ATOM     52  C   UNL A   1      41.590  24.165  27.645  1.00  0.00     0.148 A 
ATOM     53  C   UNL A   1      39.009  24.259  26.543  1.00  0.00     0.002 A 
ATOM     54  C   UNL A   1      40.933  22.991  27.300  1.00  0.00     0.091 A 
ATOM     55  F   UNL A   1      42.822  24.164  28.172  1.00  0.00    -0.205 F 
ATOM     56  C   UNL A   1      39.639  23.035  26.758  1.00  0.00     0.022 A 
BRANCH  54  57
ATOM     57  S   UNL A   1      41.701  21.373  27.438  1.00  0.00     0.127 S 
ATOM     58  O   UNL A   1      40.583  20.552  27.898  1.00  0.00    -0.237 OA
ATOM     59  O   UNL A   1      42.120  21.126  26.058  1.00  0.00    -0.237 OA
ATOM     60  O   UNL A   1      42.793  21.530  28.387  1.00  0.00    -0.744 OA
ENDBRANCH  54  57
ENDBRANCH  26  50
BRANCH  38  61
ATOM     61  C   UNL A   1      47.017  28.067  25.111  1.00  0.00     0.023 A 
ATOM     62  C   UNL A   1      46.795  28.178  23.725  1.00  0.00     0.012 A 
ATOM     63  C   UNL A   1      48.256  27.594  25.583  1.00  0.00     0.148 A 
ATOM     64  C   UNL A   1      47.790  27.814  22.819  1.00  0.00     0.002 A 
ATOM     65  C   UNL A   1      49.256  27.265  24.676  1.00  0.00     0.091 A 
ATOM     66  F   UNL A   1      48.436  27.485  26.907  1.00  0.00    -0.205 F 
ATOM     67  C   UNL A   1      49.023  27.371  23.294  1.00  0.00     0.022 A 
BRANCH  65  68
ATOM     68  S   UNL A   1      50.899  26.755  25.193  1.00  0.00     0.127 S 
ATOM     69  O   UNL A   1      50.619  25.486  25.863  1.00  0.00    -0.237 OA
ATOM     70  O   UNL A   1      51.602  26.631  23.916  1.00  0.00    -0.237 OA
ATOM     71  O   UNL A   1      51.396  27.819  26.056  1.00  0.00    -0.744 OA
ENDBRANCH  65  68
ENDBRANCH  38  61
ENDBRANCH  12  13
ENDBRANCH   5   7
ENDBRANCH   2   3
ENDBRANCH   1   2
BRANCH   1  72
ATOM     72  C   UNL A   1      33.670  34.683  31.449  1.00  0.00     0.118 C 
BRANCH  72  73
ATOM     73  N   UNL A   1      33.630  35.770  30.480  1.00  0.00    -0.352 N 
ATOM     74  C   UNL A   1      33.670  35.719  29.112  1.00  0.00     0.251 C 
ATOM     75  H   UNL A   1      33.565  36.674  30.865  1.00  0.00     0.163 HD
ATOM     76  O   UNL A   1      33.809  36.741  28.448  1.00  0.00    -0.269 OA
BRANCH  74  77
ATOM     77  C   UNL A   1      33.565  34.417  28.433  1.00  0.00     0.041 A 
ATOM     78  C   UNL A   1      32.447  34.104  27.663  1.00  0.00     0.036 A 
ATOM     79  C   UNL A   1      34.619  33.515  28.551  1.00  0.00     0.020 A 
ATOM     80  C   UNL A   1      32.336  32.830  27.117  1.00  0.00     0.065 A 
ATOM     81  C   UNL A   1      34.527  32.245  27.961  1.00  0.00    -0.015 A 
ATOM     82  Cl  UNL A   1      30.897  32.445  26.235  1.00  0.00    -0.082 Cl
ATOM     83  C   UNL A   1      33.351  31.868  27.293  1.00  0.00     0.057 A 
ATOM     84  C   UNL A   1      35.715  31.329  28.011  1.00  0.00     0.049 C 
ATOM     85  N   UNL A   1      33.231  30.601  26.736  1.00  0.00    -0.376 N 
ATOM     86  C   UNL A   1      36.014  30.729  29.361  1.00  0.00    -0.023 C 
ATOM     87  C   UNL A   1      35.607  30.071  27.121  1.00  0.00     0.031 C 
ATOM     88  C   UNL A   1      34.148  29.543  27.132  1.00  0.00     0.114 C 
ATOM     89  H   UNL A   1      32.527  30.420  26.074  1.00  0.00     0.161 HD
ATOM     90  C   UNL A   1      36.540  29.507  29.228  1.00  0.00    -0.030 C 
ATOM     91  C   UNL A   1      36.640  29.134  27.782  1.00  0.00     0.034 C 
BRANCH  88  92
ATOM     92  C   UNL A   1      33.943  28.340  26.219  1.00  0.00    -0.025 A 
ATOM     93  C   UNL A   1      33.735  27.027  26.683  1.00  0.00     0.007 A 
ATOM     94  C   UNL A   1      33.959  28.554  24.838  1.00  0.00     0.007 A 
ATOM     95  C   UNL A   1      33.528  25.968  25.788  1.00  0.00     0.022 A 
ATOM     96  C   UNL A   1      33.701  27.516  23.955  1.00  0.00     0.022 A 
ATOM     97  C   UNL A   1      33.492  26.224  24.417  1.00  0.00     0.082 A 
BRANCH  97  98
ATOM     98  S   UNL A   1      33.164  24.893  23.285  1.00  0.00     0.243 S 
ATOM     99  O   UNL A   1      31.761  24.558  23.442  1.00  0.00    -0.207 OA
ATOM    100  O   UNL A   1      33.711  25.294  22.010  1.00  0.00    -0.207 OA
BRANCH  98 101
ATOM    101  N   UNL A   1      34.072  23.599  23.848  1.00  0.00    -0.193 NA
ATOM    102  C   UNL A   1      33.613  22.725  24.949  1.00  0.00     0.131 C 
ATOM    103  C   UNL A   1      35.417  23.308  23.321  1.00  0.00     0.131 C 
ATOM    104  C   UNL A   1      34.722  22.464  25.984  1.00  0.00     0.177 C 
ATOM    105  C   UNL A   1      36.413  23.139  24.468  1.00  0.00     0.177 C 
ATOM    106  O   UNL A   1      35.978  22.124  25.383  1.00  0.00    -0.379 OA
ENDBRANCH  98 101
ENDBRANCH  97  98
ENDBRANCH  88  92
ENDBRANCH  74  77
ENDBRANCH  72  73
ENDBRANCH   1  72
TORSDOF 16
ENDMDL
