MODEL 1
REMARK VINA RESULT:     -12.4      0.000      0.000
REMARK SMILES Cc1ccccc1OCCN1C(=O)CC[C@H](C(=O)NCCCNC(=O)c2ccc(-c3c4nc(c(-c5cccc(S(=O)(=O)[O-])c5F)c5ccc([nH]5)c(-c5cccc(S(=O)(=O)[O-])c5F)c5nc(c(-c6cccc(S(=O)(=O)[O-])c6F)c6ccc3[nH]6)C=C5)C=C4)cc2)[C@@H]1c1ccco1
REMARK SMILES IDX 20 1 19 2 17 3 18 4 16 6 11 7 12 8 89 9 13 10 14 11 15 12
REMARK SMILES IDX 10 13 9 14 8 15 7 16 1 17 2 18 3 19 4 20 6 21 5 22 90 23
REMARK SMILES IDX 91 24 94 25 92 26 93 27 21 28 22 29 23 30 24 31 25 33 26 34
REMARK SMILES IDX 27 35 88 36 28 37 87 38 29 39 30 40 31 41 81 42 32 43 86 44
REMARK SMILES IDX 80 45 82 46 33 47 85 48 79 49 78 50 34 52 66 53 46 54 65 55
REMARK SMILES IDX 47 56 50 57 64 58 83 59 48 60 49 61 63 63 84 64 51 65 35 66
REMARK SMILES IDX 36 67 44 68 37 69 39 70 45 71 38 72 40 73 41 74 42 75 43 76
REMARK SMILES IDX 67 77 68 78 76 79 69 80 71 81 77 82 70 83 72 84 73 85 74 86
REMARK SMILES IDX 75 87 52 88 53 89 61 90 54 91 56 92 62 93 55 94 57 95 58 96
REMARK SMILES IDX 59 97 60 98
REMARK H PARENT 19 5 23 32 82 51 50 62
REMARK Flexibility Score: inf
ROOT
ATOM      1  C   UNL A   1      34.863  23.712  26.435  1.00  0.00     0.117 C 
ENDROOT
BRANCH   1   2
ATOM      2  N   UNL A   1      33.546  23.196  26.101  1.00  0.00    -0.356 N 
ATOM      3  C   UNL A   1      33.040  23.025  24.838  1.00  0.00     0.225 C 
ATOM      4  O   UNL A   1      32.115  22.230  24.657  1.00  0.00    -0.275 OA
ATOM      5  H   UNL A   1      32.962  22.945  26.853  1.00  0.00     0.163 HD
BRANCH   3   6
ATOM      6  C   UNL A   1      33.588  23.840  23.669  1.00  0.00     0.109 C 
ATOM      7  N   UNL A   1      33.238  25.827  22.167  1.00  0.00    -0.328 N 
ATOM      8  C   UNL A   1      33.019  25.071  21.030  1.00  0.00     0.223 C 
ATOM      9  C   UNL A   1      33.058  25.284  23.527  1.00  0.00     0.164 C 
ATOM     10  O   UNL A   1      32.779  25.572  19.928  1.00  0.00    -0.275 OA
ATOM     11  C   UNL A   1      33.073  23.571  21.147  1.00  0.00     0.101 C 
ATOM     12  C   UNL A   1      33.673  22.984  22.403  1.00  0.00     0.026 C 
BRANCH   7  13
ATOM     13  C   UNL A   1      33.304  27.280  21.995  1.00  0.00     0.162 C 
BRANCH  13  14
ATOM     14  C   UNL A   1      34.251  28.018  22.957  1.00  0.00     0.251 C 
BRANCH  14  15
ATOM     15  O   UNL A   1      33.738  29.166  23.633  1.00  0.00    -0.491 OA
BRANCH  15  16
ATOM     16  C   UNL A   1      33.213  29.074  24.892  1.00  0.00     0.122 A 
ATOM     17  C   UNL A   1      30.752  29.617  24.388  1.00  0.00     0.048 C 
ATOM     18  C   UNL A   1      31.877  29.214  25.293  1.00  0.00    -0.009 A 
ATOM     19  C   UNL A   1      31.551  28.977  26.646  1.00  0.00     0.007 A 
ATOM     20  C   UNL A   1      32.531  28.681  27.594  1.00  0.00     0.001 A 
ATOM     21  C   UNL A   1      34.196  28.837  25.869  1.00  0.00     0.047 A 
ATOM     22  C   UNL A   1      33.862  28.638  27.210  1.00  0.00     0.004 A 
ENDBRANCH  15  16
ENDBRANCH  14  15
ENDBRANCH  13  14
ENDBRANCH   7  13
BRANCH   9  23
ATOM     23  C   UNL A   1      31.642  25.547  23.987  1.00  0.00     0.127 A 
ATOM     24  C   UNL A   1      30.441  25.728  23.324  1.00  0.00     0.048 A 
ATOM     25  O   UNL A   1      31.433  25.673  25.337  1.00  0.00    -0.467 OA
ATOM     26  C   UNL A   1      29.473  26.041  24.313  1.00  0.00     0.042 A 
ATOM     27  C   UNL A   1      30.126  25.987  25.521  1.00  0.00     0.195 A 
ENDBRANCH   9  23
ENDBRANCH   3   6
ENDBRANCH   1   2
BRANCH   1  28
ATOM     28  C   UNL A   1      36.084  22.884  26.058  1.00  0.00     0.042 C 
BRANCH  28  29
ATOM     29  C   UNL A   1      37.354  23.692  25.914  1.00  0.00     0.118 C 
BRANCH  29  30
ATOM     30  N   UNL A   1      38.534  22.953  26.399  1.00  0.00    -0.352 N 
ATOM     31  C   UNL A   1      39.795  23.421  26.719  1.00  0.00     0.251 C 
ATOM     32  H   UNL A   1      38.406  21.983  26.511  1.00  0.00     0.163 HD
ATOM     33  O   UNL A   1      40.751  22.635  26.689  1.00  0.00    -0.269 OA
BRANCH  31  34
ATOM     34  C   UNL A   1      39.933  24.819  27.140  1.00  0.00     0.039 A 
ATOM     35  C   UNL A   1      40.413  25.871  26.357  1.00  0.00     0.014 A 
ATOM     36  C   UNL A   1      39.559  25.050  28.452  1.00  0.00     0.014 A 
ATOM     37  C   UNL A   1      40.515  27.135  26.943  1.00  0.00     0.010 A 
ATOM     38  C   UNL A   1      39.257  26.303  28.842  1.00  0.00     0.010 A 
ATOM     39  C   UNL A   1      39.955  27.311  28.208  1.00  0.00    -0.014 A 
BRANCH  39  40
ATOM     40  C   UNL A   1      40.084  28.448  29.090  1.00  0.00     0.031 A 
ATOM     41  C   UNL A   1      39.103  29.523  28.987  1.00  0.00     0.074 A 
ATOM     42  C   UNL A   1      40.941  28.282  30.131  1.00  0.00     0.049 A 
ATOM     43  N   UNL A   1      39.351  30.740  29.301  1.00  0.00    -0.248 NA
ATOM     44  C   UNL A   1      37.745  29.296  28.495  1.00  0.00     0.031 C 
ATOM     45  C   UNL A   1      40.969  28.960  31.415  1.00  0.00     0.029 A 
ATOM     46  N   UNL A   1      41.980  27.353  30.278  1.00  0.00    -0.354 N 
ATOM     47  C   UNL A   1      38.125  31.360  29.390  1.00  0.00     0.074 A 
ATOM     48  C   UNL A   1      37.190  30.492  28.712  1.00  0.00     0.031 C 
ATOM     49  C   UNL A   1      42.128  28.655  32.038  1.00  0.00     0.029 A 
ATOM     50  C   UNL A   1      42.951  27.920  31.091  1.00  0.00     0.049 A 
ATOM     51  H   UNL A   1      42.015  26.455  29.875  1.00  0.00     0.167 HD
ATOM     52  C   UNL A   1      37.976  32.390  30.266  1.00  0.00     0.034 A 
ATOM     53  C   UNL A   1      44.168  28.315  30.600  1.00  0.00     0.034 A 
ATOM     54  C   UNL A   1      39.203  32.549  31.067  1.00  0.00     0.049 A 
ATOM     55  C   UNL A   1      44.316  29.828  30.652  1.00  0.00     0.074 A 
ATOM     56  C   UNL A   1      39.555  32.073  32.323  1.00  0.00     0.029 A 
ATOM     57  N   UNL A   1      40.391  32.921  30.449  1.00  0.00    -0.354 N 
ATOM     58  N   UNL A   1      43.332  30.643  30.917  1.00  0.00    -0.248 NA
ATOM     59  C   UNL A   1      45.566  30.542  30.418  1.00  0.00     0.031 C 
ATOM     60  C   UNL A   1      40.970  32.127  32.437  1.00  0.00     0.029 A 
ATOM     61  C   UNL A   1      41.485  32.648  31.262  1.00  0.00     0.049 A 
ATOM     62  H   UNL A   1      40.451  33.326  29.555  1.00  0.00     0.167 HD
ATOM     63  C   UNL A   1      43.735  31.941  30.777  1.00  0.00     0.074 A 
ATOM     64  C   UNL A   1      45.166  31.821  30.547  1.00  0.00     0.031 C 
ATOM     65  C   UNL A   1      42.838  32.979  30.814  1.00  0.00     0.034 A 
BRANCH  52  66
ATOM     66  C   UNL A   1      36.631  32.954  30.671  1.00  0.00     0.023 A 
ATOM     67  C   UNL A   1      36.142  32.615  31.950  1.00  0.00     0.012 A 
ATOM     68  C   UNL A   1      35.805  33.789  29.882  1.00  0.00     0.148 A 
ATOM     69  C   UNL A   1      34.875  33.001  32.396  1.00  0.00     0.002 A 
ATOM     70  C   UNL A   1      34.511  34.121  30.299  1.00  0.00     0.091 A 
ATOM     71  F   UNL A   1      36.289  34.325  28.753  1.00  0.00    -0.205 F 
ATOM     72  C   UNL A   1      34.046  33.727  31.557  1.00  0.00     0.022 A 
BRANCH  70  73
ATOM     73  S   UNL A   1      33.337  34.981  29.236  1.00  0.00     0.127 S 
ATOM     74  O   UNL A   1      32.325  35.435  30.193  1.00  0.00    -0.237 OA
ATOM     75  O   UNL A   1      34.152  36.051  28.665  1.00  0.00    -0.237 OA
ATOM     76  O   UNL A   1      32.848  33.982  28.293  1.00  0.00    -0.744 OA
ENDBRANCH  70  73
ENDBRANCH  52  66
BRANCH  53  77
ATOM     77  C   UNL A   1      44.661  27.432  29.489  1.00  0.00     0.023 A 
ATOM     78  C   UNL A   1      44.769  26.051  29.787  1.00  0.00     0.012 A 
ATOM     79  C   UNL A   1      44.540  27.822  28.144  1.00  0.00     0.148 A 
ATOM     80  C   UNL A   1      44.517  25.088  28.805  1.00  0.00     0.002 A 
ATOM     81  C   UNL A   1      44.306  26.854  27.166  1.00  0.00     0.091 A 
ATOM     82  F   UNL A   1      44.590  29.126  27.842  1.00  0.00    -0.205 F 
ATOM     83  C   UNL A   1      44.228  25.494  27.506  1.00  0.00     0.022 A 
BRANCH  81  84
ATOM     84  S   UNL A   1      43.987  27.328  25.461  1.00  0.00     0.127 S 
ATOM     85  O   UNL A   1      43.063  28.445  25.637  1.00  0.00    -0.237 OA
ATOM     86  O   UNL A   1      45.312  27.710  24.976  1.00  0.00    -0.237 OA
ATOM     87  O   UNL A   1      43.445  26.129  24.841  1.00  0.00    -0.744 OA
ENDBRANCH  81  84
ENDBRANCH  53  77
BRANCH  65  88
ATOM     88  C   UNL A   1      43.137  34.420  30.434  1.00  0.00     0.023 A 
ATOM     89  C   UNL A   1      43.478  35.400  31.381  1.00  0.00     0.012 A 
ATOM     90  C   UNL A   1      43.212  34.814  29.069  1.00  0.00     0.148 A 
ATOM     91  C   UNL A   1      43.804  36.710  31.013  1.00  0.00     0.002 A 
ATOM     92  C   UNL A   1      43.676  36.072  28.703  1.00  0.00     0.091 A 
ATOM     93  F   UNL A   1      42.801  33.983  28.100  1.00  0.00    -0.205 F 
ATOM     94  C   UNL A   1      43.932  37.039  29.673  1.00  0.00     0.022 A 
BRANCH  92  95
ATOM     95  S   UNL A   1      44.113  36.448  27.000  1.00  0.00     0.127 S 
ATOM     96  O   UNL A   1      45.044  35.366  26.685  1.00  0.00    -0.237 OA
ATOM     97  O   UNL A   1      42.818  36.355  26.323  1.00  0.00    -0.237 OA
ATOM     98  O   UNL A   1      44.674  37.790  27.032  1.00  0.00    -0.744 OA
ENDBRANCH  92  95
ENDBRANCH  65  88
ENDBRANCH  39  40
ENDBRANCH  31  34
ENDBRANCH  29  30
ENDBRANCH  28  29
ENDBRANCH   1  28
TORSDOF 18
ENDMDL
MODEL 2
REMARK VINA RESULT:     -12.3      3.789      8.996
REMARK SMILES Cc1ccccc1OCCN1C(=O)CC[C@H](C(=O)NCCCNC(=O)c2ccc(-c3c4nc(c(-c5cccc(S(=O)(=O)[O-])c5F)c5ccc([nH]5)c(-c5cccc(S(=O)(=O)[O-])c5F)c5nc(c(-c6cccc(S(=O)(=O)[O-])c6F)c6ccc3[nH]6)C=C5)C=C4)cc2)[C@@H]1c1ccco1
REMARK SMILES IDX 20 1 19 2 17 3 18 4 16 6 11 7 12 8 89 9 13 10 14 11 15 12
REMARK SMILES IDX 10 13 9 14 8 15 7 16 1 17 2 18 3 19 4 20 6 21 5 22 90 23
REMARK SMILES IDX 91 24 94 25 92 26 93 27 21 28 22 29 23 30 24 31 25 33 26 34
REMARK SMILES IDX 27 35 88 36 28 37 87 38 29 39 30 40 31 41 81 42 32 43 86 44
REMARK SMILES IDX 80 45 82 46 33 47 85 48 79 49 78 50 34 52 66 53 46 54 65 55
REMARK SMILES IDX 47 56 50 57 64 58 83 59 48 60 49 61 63 63 84 64 51 65 35 66
REMARK SMILES IDX 36 67 44 68 37 69 39 70 45 71 38 72 40 73 41 74 42 75 43 76
REMARK SMILES IDX 67 77 68 78 76 79 69 80 71 81 77 82 70 83 72 84 73 85 74 86
REMARK SMILES IDX 75 87 52 88 53 89 61 90 54 91 56 92 62 93 55 94 57 95 58 96
REMARK SMILES IDX 59 97 60 98
REMARK H PARENT 19 5 23 32 82 51 50 62
REMARK Flexibility Score: inf
ROOT
ATOM      1  C   UNL A   1      32.356  29.625  25.590  1.00  0.00     0.117 C 
ENDROOT
BRANCH   1   2
ATOM      2  N   UNL A   1      33.427  29.567  24.609  1.00  0.00    -0.356 N 
ATOM      3  C   UNL A   1      33.791  28.470  23.872  1.00  0.00     0.225 C 
ATOM      4  O   UNL A   1      34.410  28.624  22.818  1.00  0.00    -0.275 OA
ATOM      5  H   UNL A   1      33.938  30.395  24.458  1.00  0.00     0.163 HD
BRANCH   3   6
ATOM      6  C   UNL A   1      33.471  27.063  24.372  1.00  0.00     0.109 C 
ATOM      7  N   UNL A   1      31.702  25.294  24.634  1.00  0.00    -0.328 N 
ATOM      8  C   UNL A   1      31.671  25.370  26.015  1.00  0.00     0.223 C 
ATOM      9  C   UNL A   1      32.206  26.395  23.791  1.00  0.00     0.164 C 
ATOM     10  O   UNL A   1      30.925  24.673  26.707  1.00  0.00    -0.275 OA
ATOM     11  C   UNL A   1      32.588  26.349  26.698  1.00  0.00     0.101 C 
ATOM     12  C   UNL A   1      33.704  26.956  25.881  1.00  0.00     0.026 C 
BRANCH   7  13
ATOM     13  C   UNL A   1      30.893  24.245  24.009  1.00  0.00     0.162 C 
BRANCH  13  14
ATOM     14  C   UNL A   1      31.675  23.022  23.500  1.00  0.00     0.251 C 
BRANCH  14  15
ATOM     15  O   UNL A   1      32.479  22.315  24.444  1.00  0.00    -0.491 OA
BRANCH  15  16
ATOM     16  C   UNL A   1      33.755  22.713  24.729  1.00  0.00     0.122 A 
ATOM     17  C   UNL A   1      33.670  22.675  27.297  1.00  0.00     0.048 C 
ATOM     18  C   UNL A   1      34.369  22.847  25.982  1.00  0.00    -0.009 A 
ATOM     19  C   UNL A   1      35.740  23.181  26.029  1.00  0.00     0.007 A 
ATOM     20  C   UNL A   1      36.469  23.449  24.870  1.00  0.00     0.001 A 
ATOM     21  C   UNL A   1      34.486  23.047  23.575  1.00  0.00     0.047 A 
ATOM     22  C   UNL A   1      35.832  23.409  23.639  1.00  0.00     0.004 A 
ENDBRANCH  15  16
ENDBRANCH  14  15
ENDBRANCH  13  14
ENDBRANCH   7  13
BRANCH   9  23
ATOM     23  C   UNL A   1      31.057  27.304  23.417  1.00  0.00     0.127 A 
ATOM     24  C   UNL A   1      29.841  27.598  24.009  1.00  0.00     0.048 A 
ATOM     25  O   UNL A   1      31.161  27.997  22.238  1.00  0.00    -0.467 OA
ATOM     26  C   UNL A   1      29.151  28.458  23.116  1.00  0.00     0.042 A 
ATOM     27  C   UNL A   1      30.000  28.675  22.058  1.00  0.00     0.195 A 
ENDBRANCH   9  23
ENDBRANCH   3   6
ENDBRANCH   1   2
BRANCH   1  28
ATOM     28  C   UNL A   1      32.700  30.027  27.017  1.00  0.00     0.042 C 
BRANCH  28  29
ATOM     29  C   UNL A   1      34.184  30.183  27.271  1.00  0.00     0.118 C 
BRANCH  29  30
ATOM     30  N   UNL A   1      34.494  31.450  27.957  1.00  0.00    -0.352 N 
ATOM     31  C   UNL A   1      35.347  31.690  29.018  1.00  0.00     0.251 C 
ATOM     32  H   UNL A   1      34.025  32.243  27.608  1.00  0.00     0.163 HD
ATOM     33  O   UNL A   1      35.161  32.692  29.722  1.00  0.00    -0.269 OA
BRANCH  31  34
ATOM     34  C   UNL A   1      36.473  30.775  29.228  1.00  0.00     0.039 A 
ATOM     35  C   UNL A   1      36.534  29.744  30.168  1.00  0.00     0.014 A 
ATOM     36  C   UNL A   1      37.557  31.021  28.403  1.00  0.00     0.014 A 
ATOM     37  C   UNL A   1      37.712  28.998  30.253  1.00  0.00     0.010 A 
ATOM     38  C   UNL A   1      38.469  30.051  28.204  1.00  0.00     0.010 A 
ATOM     39  C   UNL A   1      38.681  29.201  29.271  1.00  0.00    -0.014 A 
BRANCH  39  40
ATOM     40  C   UNL A   1      40.035  28.698  29.238  1.00  0.00     0.031 A 
ATOM     41  C   UNL A   1      40.246  27.291  28.921  1.00  0.00     0.074 A 
ATOM     42  C   UNL A   1      41.007  29.647  29.223  1.00  0.00     0.049 A 
ATOM     43  N   UNL A   1      41.257  26.617  29.329  1.00  0.00    -0.248 NA
ATOM     44  C   UNL A   1      39.301  26.521  28.114  1.00  0.00     0.031 C 
ATOM     45  C   UNL A   1      42.370  29.560  28.730  1.00  0.00     0.029 A 
ATOM     46  N   UNL A   1      40.930  30.994  29.607  1.00  0.00    -0.354 N 
ATOM     47  C   UNL A   1      41.275  25.471  28.568  1.00  0.00     0.074 A 
ATOM     48  C   UNL A   1      39.963  25.369  27.971  1.00  0.00     0.031 C 
ATOM     49  C   UNL A   1      43.047  30.655  29.136  1.00  0.00     0.029 A 
ATOM     50  C   UNL A   1      42.185  31.385  30.053  1.00  0.00     0.049 A 
ATOM     51  H   UNL A   1      40.127  31.563  29.566  1.00  0.00     0.167 HD
ATOM     52  C   UNL A   1      42.472  24.886  28.294  1.00  0.00     0.034 A 
ATOM     53  C   UNL A   1      42.439  31.636  31.376  1.00  0.00     0.034 A 
ATOM     54  C   UNL A   1      43.569  25.728  28.803  1.00  0.00     0.049 A 
ATOM     55  C   UNL A   1      43.386  30.599  31.959  1.00  0.00     0.074 A 
ATOM     56  C   UNL A   1      44.361  26.687  28.185  1.00  0.00     0.029 A 
ATOM     57  N   UNL A   1      43.705  25.940  30.170  1.00  0.00    -0.354 N 
ATOM     58  N   UNL A   1      43.727  29.501  31.342  1.00  0.00    -0.248 NA
ATOM     59  C   UNL A   1      44.026  30.711  33.265  1.00  0.00     0.031 C 
ATOM     60  C   UNL A   1      44.942  27.500  29.195  1.00  0.00     0.029 A 
ATOM     61  C   UNL A   1      44.521  27.034  30.429  1.00  0.00     0.049 A 
ATOM     62  H   UNL A   1      43.280  25.386  30.864  1.00  0.00     0.167 HD
ATOM     63  C   UNL A   1      44.492  28.713  32.154  1.00  0.00     0.074 A 
ATOM     64  C   UNL A   1      44.720  29.557  33.317  1.00  0.00     0.031 C 
ATOM     65  C   UNL A   1      44.816  27.425  31.808  1.00  0.00     0.034 A 
BRANCH  52  66
ATOM     66  C   UNL A   1      42.656  23.812  27.244  1.00  0.00     0.023 A 
ATOM     67  C   UNL A   1      43.232  24.197  26.015  1.00  0.00     0.012 A 
ATOM     68  C   UNL A   1      42.299  22.449  27.372  1.00  0.00     0.148 A 
ATOM     69  C   UNL A   1      43.367  23.315  24.940  1.00  0.00     0.002 A 
ATOM     70  C   UNL A   1      42.371  21.581  26.277  1.00  0.00     0.091 A 
ATOM     71  F   UNL A   1      41.948  21.966  28.572  1.00  0.00    -0.205 F 
ATOM     72  C   UNL A   1      42.906  22.014  25.060  1.00  0.00     0.022 A 
BRANCH  70  73
ATOM     73  S   UNL A   1      41.711  19.905  26.320  1.00  0.00     0.127 S 
ATOM     74  O   UNL A   1      42.358  19.285  25.160  1.00  0.00    -0.237 OA
ATOM     75  O   UNL A   1      42.184  19.411  27.611  1.00  0.00    -0.237 OA
ATOM     76  O   UNL A   1      40.266  20.042  26.181  1.00  0.00    -0.744 OA
ENDBRANCH  70  73
ENDBRANCH  52  66
BRANCH  53  77
ATOM     77  C   UNL A   1      41.260  32.234  32.091  1.00  0.00     0.023 A 
ATOM     78  C   UNL A   1      40.757  33.449  31.562  1.00  0.00     0.012 A 
ATOM     79  C   UNL A   1      40.408  31.439  32.877  1.00  0.00     0.148 A 
ATOM     80  C   UNL A   1      39.390  33.736  31.610  1.00  0.00     0.002 A 
ATOM     81  C   UNL A   1      39.047  31.741  32.933  1.00  0.00     0.091 A 
ATOM     82  F   UNL A   1      40.916  30.370  33.502  1.00  0.00    -0.205 F 
ATOM     83  C   UNL A   1      38.527  32.850  32.246  1.00  0.00     0.022 A 
BRANCH  81  84
ATOM     84  S   UNL A   1      37.900  30.656  33.796  1.00  0.00     0.127 S 
ATOM     85  O   UNL A   1      38.114  31.052  35.185  1.00  0.00    -0.237 OA
ATOM     86  O   UNL A   1      36.603  31.051  33.248  1.00  0.00    -0.237 OA
ATOM     87  O   UNL A   1      38.320  29.312  33.432  1.00  0.00    -0.744 OA
ENDBRANCH  81  84
ENDBRANCH  53  77
BRANCH  65  88
ATOM     88  C   UNL A   1      45.447  26.393  32.729  1.00  0.00     0.023 A 
ATOM     89  C   UNL A   1      46.836  26.200  32.813  1.00  0.00     0.012 A 
ATOM     90  C   UNL A   1      44.654  25.659  33.653  1.00  0.00     0.148 A 
ATOM     91  C   UNL A   1      47.407  25.285  33.704  1.00  0.00     0.002 A 
ATOM     92  C   UNL A   1      45.235  24.862  34.633  1.00  0.00     0.091 A 
ATOM     93  F   UNL A   1      43.316  25.695  33.577  1.00  0.00    -0.205 F 
ATOM     94  C   UNL A   1      46.610  24.637  34.635  1.00  0.00     0.022 A 
BRANCH  92  95
ATOM     95  S   UNL A   1      44.274  24.227  36.012  1.00  0.00     0.127 S 
ATOM     96  O   UNL A   1      45.289  23.508  36.780  1.00  0.00    -0.237 OA
ATOM     97  O   UNL A   1      43.790  25.457  36.643  1.00  0.00    -0.237 OA
ATOM     98  O   UNL A   1      43.227  23.414  35.412  1.00  0.00    -0.744 OA
ENDBRANCH  92  95
ENDBRANCH  65  88
ENDBRANCH  39  40
ENDBRANCH  31  34
ENDBRANCH  29  30
ENDBRANCH  28  29
ENDBRANCH   1  28
TORSDOF 18
ENDMDL
MODEL 3
REMARK VINA RESULT:     -12.2      4.002      9.258
REMARK SMILES Cc1ccccc1OCCN1C(=O)CC[C@H](C(=O)NCCCNC(=O)c2ccc(-c3c4nc(c(-c5cccc(S(=O)(=O)[O-])c5F)c5ccc([nH]5)c(-c5cccc(S(=O)(=O)[O-])c5F)c5nc(c(-c6cccc(S(=O)(=O)[O-])c6F)c6ccc3[nH]6)C=C5)C=C4)cc2)[C@@H]1c1ccco1
REMARK SMILES IDX 20 1 19 2 17 3 18 4 16 6 11 7 12 8 89 9 13 10 14 11 15 12
REMARK SMILES IDX 10 13 9 14 8 15 7 16 1 17 2 18 3 19 4 20 6 21 5 22 90 23
REMARK SMILES IDX 91 24 94 25 92 26 93 27 21 28 22 29 23 30 24 31 25 33 26 34
REMARK SMILES IDX 27 35 88 36 28 37 87 38 29 39 30 40 31 41 81 42 32 43 86 44
REMARK SMILES IDX 80 45 82 46 33 47 85 48 79 49 78 50 34 52 66 53 46 54 65 55
REMARK SMILES IDX 47 56 50 57 64 58 83 59 48 60 49 61 63 63 84 64 51 65 35 66
REMARK SMILES IDX 36 67 44 68 37 69 39 70 45 71 38 72 40 73 41 74 42 75 43 76
REMARK SMILES IDX 67 77 68 78 76 79 69 80 71 81 77 82 70 83 72 84 73 85 74 86
REMARK SMILES IDX 75 87 52 88 53 89 61 90 54 91 56 92 62 93 55 94 57 95 58 96
REMARK SMILES IDX 59 97 60 98
REMARK H PARENT 19 5 23 32 82 51 50 62
REMARK Flexibility Score: inf
ROOT
ATOM      1  C   UNL A   1      32.332  27.203  26.542  1.00  0.00     0.117 C 
ENDROOT
BRANCH   1   2
ATOM      2  N   UNL A   1      30.991  26.702  26.792  1.00  0.00    -0.356 N 
ATOM      3  C   UNL A   1      30.370  25.680  26.120  1.00  0.00     0.225 C 
ATOM      4  O   UNL A   1      29.434  25.082  26.654  1.00  0.00    -0.275 OA
ATOM      5  H   UNL A   1      30.480  27.137  27.513  1.00  0.00     0.163 HD
BRANCH   3   6
ATOM      6  C   UNL A   1      30.805  25.310  24.704  1.00  0.00     0.109 C 
ATOM      7  N   UNL A   1      32.421  23.995  23.295  1.00  0.00    -0.328 N 
ATOM      8  C   UNL A   1      33.054  25.111  22.778  1.00  0.00     0.223 C 
ATOM      9  C   UNL A   1      31.656  24.030  24.556  1.00  0.00     0.164 C 
ATOM     10  O   UNL A   1      33.992  25.040  21.980  1.00  0.00    -0.275 OA
ATOM     11  C   UNL A   1      32.577  26.470  23.216  1.00  0.00     0.101 C 
ATOM     12  C   UNL A   1      31.249  26.554  23.929  1.00  0.00     0.026 C 
BRANCH   7  13
ATOM     13  C   UNL A   1      32.823  22.695  22.754  1.00  0.00     0.162 C 
BRANCH  13  14
ATOM     14  C   UNL A   1      31.860  21.530  23.045  1.00  0.00     0.251 C 
BRANCH  14  15
ATOM     15  O   UNL A   1      32.163  20.690  24.159  1.00  0.00    -0.491 OA
BRANCH  15  16
ATOM     16  C   UNL A   1      32.961  19.589  24.022  1.00  0.00     0.122 A 
ATOM     17  C   UNL A   1      35.072  20.417  25.232  1.00  0.00     0.048 C 
ATOM     18  C   UNL A   1      34.255  19.380  24.521  1.00  0.00    -0.009 A 
ATOM     19  C   UNL A   1      34.852  18.115  24.337  1.00  0.00     0.007 A 
ATOM     20  C   UNL A   1      34.218  17.104  23.614  1.00  0.00     0.001 A 
ATOM     21  C   UNL A   1      32.362  18.582  23.243  1.00  0.00     0.047 A 
ATOM     22  C   UNL A   1      32.980  17.347  23.041  1.00  0.00     0.004 A 
ENDBRANCH  15  16
ENDBRANCH  14  15
ENDBRANCH  13  14
ENDBRANCH   7  13
BRANCH   9  23
ATOM     23  C   UNL A   1      32.571  23.673  25.705  1.00  0.00     0.127 A 
ATOM     24  C   UNL A   1      33.878  24.001  26.023  1.00  0.00     0.048 A 
ATOM     25  O   UNL A   1      32.076  22.826  26.663  1.00  0.00    -0.467 OA
ATOM     26  C   UNL A   1      34.209  23.268  27.191  1.00  0.00     0.042 A 
ATOM     27  C   UNL A   1      33.076  22.574  27.544  1.00  0.00     0.195 A 
ENDBRANCH   9  23
ENDBRANCH   3   6
ENDBRANCH   1   2
BRANCH   1  28
ATOM     28  C   UNL A   1      32.645  28.649  26.899  1.00  0.00     0.042 C 
BRANCH  28  29
ATOM     29  C   UNL A   1      34.060  28.870  27.386  1.00  0.00     0.118 C 
BRANCH  29  30
ATOM     30  N   UNL A   1      34.405  30.303  27.445  1.00  0.00    -0.352 N 
ATOM     31  C   UNL A   1      35.380  30.943  28.185  1.00  0.00     0.251 C 
ATOM     32  H   UNL A   1      33.858  30.890  26.873  1.00  0.00     0.163 HD
ATOM     33  O   UNL A   1      35.247  32.147  28.438  1.00  0.00    -0.269 OA
BRANCH  31  34
ATOM     34  C   UNL A   1      36.564  30.177  28.589  1.00  0.00     0.039 A 
ATOM     35  C   UNL A   1      36.739  29.510  29.804  1.00  0.00     0.014 A 
ATOM     36  C   UNL A   1      37.576  30.169  27.646  1.00  0.00     0.014 A 
ATOM     37  C   UNL A   1      37.957  28.866  30.032  1.00  0.00     0.010 A 
ATOM     38  C   UNL A   1      38.521  29.212  27.699  1.00  0.00     0.010 A 
ATOM     39  C   UNL A   1      38.847  28.762  28.963  1.00  0.00    -0.014 A 
BRANCH  39  40
ATOM     40  C   UNL A   1      40.220  28.313  28.986  1.00  0.00     0.031 A 
ATOM     41  C   UNL A   1      40.495  26.906  28.719  1.00  0.00     0.074 A 
ATOM     42  C   UNL A   1      41.155  29.299  28.971  1.00  0.00     0.049 A 
ATOM     43  N   UNL A   1      41.518  26.285  29.179  1.00  0.00    -0.248 NA
ATOM     44  C   UNL A   1      39.606  26.076  27.908  1.00  0.00     0.031 C 
ATOM     45  C   UNL A   1      42.535  29.250  28.523  1.00  0.00     0.029 A 
ATOM     46  N   UNL A   1      41.014  30.652  29.310  1.00  0.00    -0.354 N 
ATOM     47  C   UNL A   1      41.603  25.118  28.454  1.00  0.00     0.074 A 
ATOM     48  C   UNL A   1      40.316  24.947  27.822  1.00  0.00     0.031 C 
ATOM     49  C   UNL A   1      43.156  30.383  28.915  1.00  0.00     0.029 A 
ATOM     50  C   UNL A   1      42.238  31.105  29.782  1.00  0.00     0.049 A 
ATOM     51  H   UNL A   1      40.191  31.187  29.228  1.00  0.00     0.167 HD
ATOM     52  C   UNL A   1      42.830  24.573  28.235  1.00  0.00     0.034 A 
ATOM     53  C   UNL A   1      42.440  31.406  31.104  1.00  0.00     0.034 A 
ATOM     54  C   UNL A   1      43.877  25.473  28.750  1.00  0.00     0.049 A 
ATOM     55  C   UNL A   1      43.409  30.425  31.747  1.00  0.00     0.074 A 
ATOM     56  C   UNL A   1      44.651  26.443  28.127  1.00  0.00     0.029 A 
ATOM     57  N   UNL A   1      43.962  25.730  30.114  1.00  0.00    -0.354 N 
ATOM     58  N   UNL A   1      43.811  29.323  31.175  1.00  0.00    -0.248 NA
ATOM     59  C   UNL A   1      44.002  30.600  33.068  1.00  0.00     0.031 C 
ATOM     60  C   UNL A   1      45.169  27.308  29.129  1.00  0.00     0.029 A 
ATOM     61  C   UNL A   1      44.727  26.863  30.363  1.00  0.00     0.049 A 
ATOM     62  H   UNL A   1      43.538  25.181  30.811  1.00  0.00     0.167 HD
ATOM     63  C   UNL A   1      44.580  28.590  32.034  1.00  0.00     0.074 A 
ATOM     64  C   UNL A   1      44.738  29.477  33.176  1.00  0.00     0.031 C 
ATOM     65  C   UNL A   1      44.964  27.306  31.737  1.00  0.00     0.034 A 
BRANCH  52  66
ATOM     66  C   UNL A   1      43.089  23.477  27.225  1.00  0.00     0.023 A 
ATOM     67  C   UNL A   1      43.829  23.816  26.072  1.00  0.00     0.012 A 
ATOM     68  C   UNL A   1      42.652  22.134  27.319  1.00  0.00     0.148 A 
ATOM     69  C   UNL A   1      44.050  22.913  25.029  1.00  0.00     0.002 A 
ATOM     70  C   UNL A   1      42.815  21.248  26.248  1.00  0.00     0.091 A 
ATOM     71  F   UNL A   1      42.134  21.686  28.471  1.00  0.00    -0.205 F 
ATOM     72  C   UNL A   1      43.516  21.637  25.103  1.00  0.00     0.022 A 
BRANCH  70  73
ATOM     73  S   UNL A   1      42.073  19.606  26.224  1.00  0.00     0.127 S 
ATOM     74  O   UNL A   1      40.647  19.911  26.080  1.00  0.00    -0.237 OA
ATOM     75  O   UNL A   1      42.683  19.001  25.043  1.00  0.00    -0.237 OA
ATOM     76  O   UNL A   1      42.416  18.995  27.502  1.00  0.00    -0.744 OA
ENDBRANCH  70  73
ENDBRANCH  52  66
BRANCH  53  77
ATOM     77  C   UNL A   1      41.218  31.977  31.764  1.00  0.00     0.023 A 
ATOM     78  C   UNL A   1      40.633  33.103  31.131  1.00  0.00     0.012 A 
ATOM     79  C   UNL A   1      40.419  31.195  32.616  1.00  0.00     0.148 A 
ATOM     80  C   UNL A   1      39.248  33.294  31.154  1.00  0.00     0.002 A 
ATOM     81  C   UNL A   1      39.040  31.402  32.646  1.00  0.00     0.091 A 
ATOM     82  F   UNL A   1      40.999  30.223  33.333  1.00  0.00    -0.205 F 
ATOM     83  C   UNL A   1      38.447  32.408  31.865  1.00  0.00     0.022 A 
BRANCH  81  84
ATOM     84  S   UNL A   1      37.968  30.318  33.600  1.00  0.00     0.127 S 
ATOM     85  O   UNL A   1      36.661  30.621  33.026  1.00  0.00    -0.237 OA
ATOM     86  O   UNL A   1      38.478  28.987  33.273  1.00  0.00    -0.237 OA
ATOM     87  O   UNL A   1      38.179  30.716  34.983  1.00  0.00    -0.744 OA
ENDBRANCH  81  84
ENDBRANCH  53  77
BRANCH  65  88
ATOM     88  C   UNL A   1      45.604  26.328  32.708  1.00  0.00     0.023 A 
ATOM     89  C   UNL A   1      46.996  26.207  32.855  1.00  0.00     0.012 A 
ATOM     90  C   UNL A   1      44.809  25.575  33.616  1.00  0.00     0.148 A 
ATOM     91  C   UNL A   1      47.573  25.342  33.791  1.00  0.00     0.002 A 
ATOM     92  C   UNL A   1      45.387  24.830  34.638  1.00  0.00     0.091 A 
ATOM     93  F   UNL A   1      43.476  25.542  33.483  1.00  0.00    -0.205 F 
ATOM     94  C   UNL A   1      46.770  24.675  34.703  1.00  0.00     0.022 A 
BRANCH  92  95
ATOM     95  S   UNL A   1      44.400  24.178  35.991  1.00  0.00     0.127 S 
ATOM     96  O   UNL A   1      45.426  23.619  36.869  1.00  0.00    -0.237 OA
ATOM     97  O   UNL A   1      43.747  25.384  36.505  1.00  0.00    -0.237 OA
ATOM     98  O   UNL A   1      43.488  23.222  35.379  1.00  0.00    -0.744 OA
ENDBRANCH  92  95
ENDBRANCH  65  88
ENDBRANCH  39  40
ENDBRANCH  31  34
ENDBRANCH  29  30
ENDBRANCH  28  29
ENDBRANCH   1  28
TORSDOF 18
ENDMDL
