MODEL 1
REMARK VINA RESULT:     -12.1      0.000      0.000
REMARK SMILES Cn1cc(NC(=O)N2Cc3nc[nH]c3C[C@@H]2C(=O)NCCCNC(=O)c2ccc(-c3c4nc(c(-c5cccc(S(=O)(=O)[O-])c5F)c5ccc([nH]5)c(-c5cccc(S(=O)(=O)[O-])c5F)c5nc(c(-c6cccc(S(=O)(=O)[O-])c6F)c6ccc3[nH]6)C=C5)C=C4)cc2)cn1
REMARK SMILES IDX 21 1 20 2 19 3 17 4 18 5 16 7 8 8 9 9 10 10 15 11 11 12
REMARK SMILES IDX 14 13 12 14 13 15 6 17 5 18 7 20 4 21 1 22 2 23 3 24 90 25
REMARK SMILES IDX 89 26 22 27 23 28 24 29 25 31 26 32 27 33 88 34 28 35 87 36
REMARK SMILES IDX 29 37 30 38 31 39 81 40 32 41 86 42 80 43 82 44 33 45 85 46
REMARK SMILES IDX 79 47 78 48 34 50 66 51 46 52 65 53 47 54 50 55 64 56 83 57
REMARK SMILES IDX 48 58 49 59 63 61 84 62 51 63 35 64 36 65 44 66 37 67 39 68
REMARK SMILES IDX 45 69 38 70 40 71 41 72 42 73 43 74 67 75 68 76 76 77 69 78
REMARK SMILES IDX 71 79 77 80 70 81 72 82 73 83 74 84 75 85 52 86 53 87 61 88
REMARK SMILES IDX 54 89 56 90 62 91 55 92 57 93 58 94 59 95 60 96
REMARK H PARENT 19 6 13 16 5 19 23 30 82 49 50 60
REMARK Flexibility Score: inf
ROOT
ATOM      1  C   UNL A   1      37.211  21.811  24.183  1.00  0.00     0.042 C 
ENDROOT
BRANCH   1   2
ATOM      2  C   UNL A   1      35.790  22.262  24.517  1.00  0.00     0.117 C 
BRANCH   2   3
ATOM      3  N   UNL A   1      35.531  22.425  25.937  1.00  0.00    -0.354 N 
ATOM      4  C   UNL A   1      34.585  23.063  26.684  1.00  0.00     0.243 C 
ATOM      5  O   UNL A   1      34.530  22.635  27.846  1.00  0.00    -0.273 OA
ATOM      6  H   UNL A   1      36.198  21.965  26.495  1.00  0.00     0.163 HD
BRANCH   4   7
ATOM      7  C   UNL A   1      33.747  24.320  26.239  1.00  0.00     0.182 C 
ATOM      8  N   UNL A   1      32.326  23.948  25.802  1.00  0.00    -0.306 N 
ATOM      9  C   UNL A   1      31.630  24.584  24.664  1.00  0.00     0.180 C 
ATOM     10  C   UNL A   1      32.296  25.836  24.241  1.00  0.00     0.081 A 
ATOM     11  C   UNL A   1      34.502  25.166  25.189  1.00  0.00     0.091 C 
ATOM     12  N   UNL A   1      31.750  26.841  23.487  1.00  0.00    -0.240 NA
ATOM     13  C   UNL A   1      33.608  26.105  24.506  1.00  0.00     0.042 A 
ATOM     14  C   UNL A   1      32.730  27.703  23.307  1.00  0.00     0.197 A 
ATOM     15  N   UNL A   1      33.887  27.300  23.921  1.00  0.00    -0.348 N 
ATOM     16  H   UNL A   1      34.747  27.779  23.935  1.00  0.00     0.167 HD
BRANCH   8  17
ATOM     17  C   UNL A   1      31.533  23.039  26.470  1.00  0.00     0.322 C 
ATOM     18  N   UNL A   1      31.182  21.879  25.858  1.00  0.00    -0.305 N 
ATOM     19  H   UNL A   1      30.256  21.576  25.991  1.00  0.00     0.171 HD
ATOM     20  O   UNL A   1      31.154  23.259  27.624  1.00  0.00    -0.248 OA
BRANCH  18  21
ATOM     21  C   UNL A   1      31.982  21.081  25.069  1.00  0.00     0.081 A 
ATOM     22  C   UNL A   1      34.281  18.376  24.497  1.00  0.00     0.173 C 
ATOM     23  N   UNL A   1      33.398  19.517  24.486  1.00  0.00    -0.274 N 
ATOM     24  C   UNL A   1      32.769  20.069  25.563  1.00  0.00     0.134 A 
ATOM     25  N   UNL A   1      33.122  20.143  23.323  1.00  0.00    -0.180 NA
ATOM     26  C   UNL A   1      32.266  21.103  23.687  1.00  0.00     0.161 A 
ENDBRANCH  18  21
ENDBRANCH   8  17
ENDBRANCH   4   7
ENDBRANCH   2   3
ENDBRANCH   1   2
BRANCH   1  27
ATOM     27  C   UNL A   1      38.058  21.620  25.437  1.00  0.00     0.118 C 
BRANCH  27  28
ATOM     28  N   UNL A   1      38.751  20.330  25.427  1.00  0.00    -0.352 N 
ATOM     29  C   UNL A   1      40.029  20.022  25.834  1.00  0.00     0.251 C 
ATOM     30  H   UNL A   1      38.227  19.572  25.078  1.00  0.00     0.163 HD
ATOM     31  O   UNL A   1      40.516  18.923  25.573  1.00  0.00    -0.269 OA
BRANCH  29  32
ATOM     32  C   UNL A   1      40.822  21.048  26.525  1.00  0.00     0.039 A 
ATOM     33  C   UNL A   1      41.348  22.110  25.790  1.00  0.00     0.014 A 
ATOM     34  C   UNL A   1      40.930  21.011  27.914  1.00  0.00     0.014 A 
ATOM     35  C   UNL A   1      41.874  23.203  26.472  1.00  0.00     0.010 A 
ATOM     36  C   UNL A   1      41.348  22.143  28.587  1.00  0.00     0.010 A 
ATOM     37  C   UNL A   1      41.826  23.245  27.876  1.00  0.00    -0.014 A 
BRANCH  37  38
ATOM     38  C   UNL A   1      42.136  24.506  28.560  1.00  0.00     0.031 A 
ATOM     39  C   UNL A   1      41.166  25.617  28.332  1.00  0.00     0.074 A 
ATOM     40  C   UNL A   1      43.096  24.667  29.495  1.00  0.00     0.049 A 
ATOM     41  N   UNL A   1      41.377  26.731  27.709  1.00  0.00    -0.248 NA
ATOM     42  C   UNL A   1      39.774  25.432  28.768  1.00  0.00     0.031 C 
ATOM     43  C   UNL A   1      43.932  23.626  30.103  1.00  0.00     0.029 A 
ATOM     44  N   UNL A   1      43.436  25.788  30.203  1.00  0.00    -0.354 N 
ATOM     45  C   UNL A   1      40.216  27.485  27.879  1.00  0.00     0.074 A 
ATOM     46  C   UNL A   1      39.214  26.579  28.377  1.00  0.00     0.031 C 
ATOM     47  C   UNL A   1      44.469  24.098  31.247  1.00  0.00     0.029 A 
ATOM     48  C   UNL A   1      44.188  25.518  31.337  1.00  0.00     0.049 A 
ATOM     49  H   UNL A   1      43.172  26.698  29.933  1.00  0.00     0.167 HD
ATOM     50  C   UNL A   1      40.248  28.846  27.845  1.00  0.00     0.034 A 
ATOM     51  C   UNL A   1      44.576  26.382  32.300  1.00  0.00     0.034 A 
ATOM     52  C   UNL A   1      41.517  29.334  27.373  1.00  0.00     0.049 A 
ATOM     53  C   UNL A   1      44.604  27.740  31.721  1.00  0.00     0.074 A 
ATOM     54  C   UNL A   1      42.168  29.501  26.174  1.00  0.00     0.029 A 
ATOM     55  N   UNL A   1      42.440  29.490  28.369  1.00  0.00    -0.354 N 
ATOM     56  N   UNL A   1      45.434  28.097  30.779  1.00  0.00    -0.248 NA
ATOM     57  C   UNL A   1      43.533  28.687  32.002  1.00  0.00     0.031 C 
ATOM     58  C   UNL A   1      43.558  29.599  26.486  1.00  0.00     0.029 A 
ATOM     59  C   UNL A   1      43.712  29.487  27.867  1.00  0.00     0.049 A 
ATOM     60  H   UNL A   1      42.219  29.590  29.324  1.00  0.00     0.167 HD
ATOM     61  C   UNL A   1      44.740  29.058  30.071  1.00  0.00     0.074 A 
ATOM     62  C   UNL A   1      43.696  29.523  30.973  1.00  0.00     0.031 C 
ATOM     63  C   UNL A   1      44.833  29.135  28.713  1.00  0.00     0.034 A 
BRANCH  50  64
ATOM     64  C   UNL A   1      39.349  29.785  28.629  1.00  0.00     0.023 A 
ATOM     65  C   UNL A   1      39.670  29.992  29.993  1.00  0.00     0.012 A 
ATOM     66  C   UNL A   1      38.072  30.214  28.207  1.00  0.00     0.148 A 
ATOM     67  C   UNL A   1      38.756  30.550  30.895  1.00  0.00     0.002 A 
ATOM     68  C   UNL A   1      37.194  30.838  29.092  1.00  0.00     0.091 A 
ATOM     69  F   UNL A   1      37.629  29.898  26.987  1.00  0.00    -0.205 F 
ATOM     70  C   UNL A   1      37.518  30.982  30.442  1.00  0.00     0.022 A 
BRANCH  68  71
ATOM     71  S   UNL A   1      35.602  31.460  28.537  1.00  0.00     0.127 S 
ATOM     72  O   UNL A   1      34.988  30.252  27.996  1.00  0.00    -0.237 OA
ATOM     73  O   UNL A   1      35.014  31.950  29.783  1.00  0.00    -0.237 OA
ATOM     74  O   UNL A   1      35.920  32.510  27.577  1.00  0.00    -0.744 OA
ENDBRANCH  68  71
ENDBRANCH  50  64
BRANCH  51  75
ATOM     75  C   UNL A   1      44.897  26.122  33.715  1.00  0.00     0.023 A 
ATOM     76  C   UNL A   1      46.239  26.067  34.132  1.00  0.00     0.012 A 
ATOM     77  C   UNL A   1      43.884  26.172  34.698  1.00  0.00     0.148 A 
ATOM     78  C   UNL A   1      46.567  26.095  35.491  1.00  0.00     0.002 A 
ATOM     79  C   UNL A   1      44.216  26.201  36.049  1.00  0.00     0.091 A 
ATOM     80  F   UNL A   1      42.607  26.273  34.301  1.00  0.00    -0.205 F 
ATOM     81  C   UNL A   1      45.558  26.174  36.448  1.00  0.00     0.022 A 
BRANCH  79  82
ATOM     82  S   UNL A   1      42.974  26.333  37.343  1.00  0.00     0.127 S 
ATOM     83  O   UNL A   1      42.319  27.598  37.006  1.00  0.00    -0.237 OA
ATOM     84  O   UNL A   1      42.163  25.142  37.106  1.00  0.00    -0.237 OA
ATOM     85  O   UNL A   1      43.708  26.355  38.601  1.00  0.00    -0.744 OA
ENDBRANCH  79  82
ENDBRANCH  51  75
BRANCH  63  86
ATOM     86  C   UNL A   1      46.061  28.575  28.056  1.00  0.00     0.023 A 
ATOM     87  C   UNL A   1      47.266  29.298  27.969  1.00  0.00     0.012 A 
ATOM     88  C   UNL A   1      46.028  27.247  27.597  1.00  0.00     0.148 A 
ATOM     89  C   UNL A   1      48.407  28.718  27.409  1.00  0.00     0.002 A 
ATOM     90  C   UNL A   1      47.176  26.659  27.081  1.00  0.00     0.091 A 
ATOM     91  F   UNL A   1      44.869  26.574  27.680  1.00  0.00    -0.205 F 
ATOM     92  C   UNL A   1      48.365  27.395  26.975  1.00  0.00     0.022 A 
BRANCH  90  93
ATOM     93  S   UNL A   1      47.207  24.925  26.622  1.00  0.00     0.127 S 
ATOM     94  O   UNL A   1      46.354  24.906  25.436  1.00  0.00    -0.237 OA
ATOM     95  O   UNL A   1      48.628  24.692  26.355  1.00  0.00    -0.237 OA
ATOM     96  O   UNL A   1      46.698  24.202  27.780  1.00  0.00    -0.744 OA
ENDBRANCH  90  93
ENDBRANCH  63  86
ENDBRANCH  37  38
ENDBRANCH  29  32
ENDBRANCH  27  28
ENDBRANCH   1  27
TORSDOF 15
ENDMDL
MODEL 2
REMARK VINA RESULT:     -11.8      3.207      7.820
REMARK SMILES Cn1cc(NC(=O)N2Cc3nc[nH]c3C[C@@H]2C(=O)NCCCNC(=O)c2ccc(-c3c4nc(c(-c5cccc(S(=O)(=O)[O-])c5F)c5ccc([nH]5)c(-c5cccc(S(=O)(=O)[O-])c5F)c5nc(c(-c6cccc(S(=O)(=O)[O-])c6F)c6ccc3[nH]6)C=C5)C=C4)cc2)cn1
REMARK SMILES IDX 21 1 20 2 19 3 17 4 18 5 16 7 8 8 9 9 10 10 15 11 11 12
REMARK SMILES IDX 14 13 12 14 13 15 6 17 5 18 7 20 4 21 1 22 2 23 3 24 90 25
REMARK SMILES IDX 89 26 22 27 23 28 24 29 25 31 26 32 27 33 88 34 28 35 87 36
REMARK SMILES IDX 29 37 30 38 31 39 81 40 32 41 86 42 80 43 82 44 33 45 85 46
REMARK SMILES IDX 79 47 78 48 34 50 66 51 46 52 65 53 47 54 50 55 64 56 83 57
REMARK SMILES IDX 48 58 49 59 63 61 84 62 51 63 35 64 36 65 44 66 37 67 39 68
REMARK SMILES IDX 45 69 38 70 40 71 41 72 42 73 43 74 67 75 68 76 76 77 69 78
REMARK SMILES IDX 71 79 77 80 70 81 72 82 73 83 74 84 75 85 52 86 53 87 61 88
REMARK SMILES IDX 54 89 56 90 62 91 55 92 57 93 58 94 59 95 60 96
REMARK H PARENT 19 6 13 16 5 19 23 30 82 49 50 60
REMARK Flexibility Score: inf
ROOT
ATOM      1  C   UNL A   1      34.006  30.044  26.911  1.00  0.00     0.042 C 
ENDROOT
BRANCH   1   2
ATOM      2  C   UNL A   1      33.976  28.551  27.236  1.00  0.00     0.117 C 
BRANCH   2   3
ATOM      3  N   UNL A   1      34.009  27.683  26.072  1.00  0.00    -0.354 N 
ATOM      4  C   UNL A   1      33.394  27.667  24.855  1.00  0.00     0.243 C 
ATOM      5  O   UNL A   1      33.990  26.958  24.032  1.00  0.00    -0.273 OA
ATOM      6  H   UNL A   1      34.624  26.924  26.190  1.00  0.00     0.163 HD
BRANCH   4   7
ATOM      7  C   UNL A   1      31.996  28.309  24.517  1.00  0.00     0.182 C 
ATOM      8  N   UNL A   1      30.848  27.302  24.640  1.00  0.00    -0.306 N 
ATOM      9  C   UNL A   1      29.701  27.256  23.709  1.00  0.00     0.180 C 
ATOM     10  C   UNL A   1      29.602  28.487  22.895  1.00  0.00     0.081 A 
ATOM     11  C   UNL A   1      32.019  29.039  23.155  1.00  0.00     0.091 C 
ATOM     12  N   UNL A   1      28.501  28.934  22.213  1.00  0.00    -0.240 NA
ATOM     13  C   UNL A   1      30.665  29.312  22.663  1.00  0.00     0.042 A 
ATOM     14  C   UNL A   1      28.906  30.018  21.582  1.00  0.00     0.197 A 
ATOM     15  N   UNL A   1      30.224  30.296  21.835  1.00  0.00    -0.348 N 
ATOM     16  H   UNL A   1      30.746  31.054  21.487  1.00  0.00     0.167 HD
BRANCH   8  17
ATOM     17  C   UNL A   1      30.735  26.392  25.669  1.00  0.00     0.322 C 
ATOM     18  N   UNL A   1      30.825  25.064  25.402  1.00  0.00    -0.305 N 
ATOM     19  H   UNL A   1      30.198  24.477  25.882  1.00  0.00     0.171 HD
ATOM     20  O   UNL A   1      30.572  26.771  26.833  1.00  0.00    -0.248 OA
BRANCH  18  21
ATOM     21  C   UNL A   1      31.698  24.449  24.531  1.00  0.00     0.081 A 
ATOM     22  C   UNL A   1      34.668  22.597  23.707  1.00  0.00     0.173 C 
ATOM     23  N   UNL A   1      33.448  23.363  23.791  1.00  0.00    -0.274 N 
ATOM     24  C   UNL A   1      32.873  23.855  24.925  1.00  0.00     0.134 A 
ATOM     25  N   UNL A   1      32.755  23.649  22.668  1.00  0.00    -0.180 NA
ATOM     26  C   UNL A   1      31.695  24.322  23.126  1.00  0.00     0.161 A 
ENDBRANCH  18  21
ENDBRANCH   8  17
ENDBRANCH   4   7
ENDBRANCH   2   3
ENDBRANCH   1   2
BRANCH   1  27
ATOM     27  C   UNL A   1      35.131  30.764  27.646  1.00  0.00     0.118 C 
BRANCH  27  28
ATOM     28  N   UNL A   1      34.612  31.663  28.679  1.00  0.00    -0.352 N 
ATOM     29  C   UNL A   1      35.069  31.880  29.959  1.00  0.00     0.251 C 
ATOM     30  H   UNL A   1      33.819  32.188  28.422  1.00  0.00     0.163 HD
ATOM     31  O   UNL A   1      34.395  32.526  30.758  1.00  0.00    -0.269 OA
BRANCH  29  32
ATOM     32  C   UNL A   1      36.342  31.272  30.371  1.00  0.00     0.039 A 
ATOM     33  C   UNL A   1      36.378  29.914  30.685  1.00  0.00     0.014 A 
ATOM     34  C   UNL A   1      37.511  32.030  30.322  1.00  0.00     0.014 A 
ATOM     35  C   UNL A   1      37.614  29.290  30.825  1.00  0.00     0.010 A 
ATOM     36  C   UNL A   1      38.733  31.387  30.350  1.00  0.00     0.010 A 
ATOM     37  C   UNL A   1      38.797  30.016  30.604  1.00  0.00    -0.014 A 
BRANCH  37  38
ATOM     38  C   UNL A   1      40.066  29.287  30.494  1.00  0.00     0.031 A 
ATOM     39  C   UNL A   1      40.761  29.006  31.785  1.00  0.00     0.074 A 
ATOM     40  C   UNL A   1      40.536  28.710  29.368  1.00  0.00     0.049 A 
ATOM     41  N   UNL A   1      41.893  29.483  32.190  1.00  0.00    -0.248 NA
ATOM     42  C   UNL A   1      40.077  28.167  32.780  1.00  0.00     0.031 C 
ATOM     43  C   UNL A   1      39.848  28.583  28.079  1.00  0.00     0.029 A 
ATOM     44  N   UNL A   1      41.685  27.991  29.177  1.00  0.00    -0.354 N 
ATOM     45  C   UNL A   1      42.175  28.824  33.386  1.00  0.00     0.074 A 
ATOM     46  C   UNL A   1      40.957  28.169  33.785  1.00  0.00     0.031 C 
ATOM     47  C   UNL A   1      40.451  27.623  27.346  1.00  0.00     0.029 A 
ATOM     48  C   UNL A   1      41.672  27.227  28.019  1.00  0.00     0.049 A 
ATOM     49  H   UNL A   1      42.446  28.014  29.802  1.00  0.00     0.167 HD
ATOM     50  C   UNL A   1      43.457  28.656  33.812  1.00  0.00     0.034 A 
ATOM     51  C   UNL A   1      42.591  26.325  27.611  1.00  0.00     0.034 A 
ATOM     52  C   UNL A   1      44.381  29.440  33.037  1.00  0.00     0.049 A 
ATOM     53  C   UNL A   1      43.884  26.664  28.239  1.00  0.00     0.074 A 
ATOM     54  C   UNL A   1      44.802  30.747  32.960  1.00  0.00     0.029 A 
ATOM     55  N   UNL A   1      44.831  28.795  31.918  1.00  0.00    -0.354 N 
ATOM     56  N   UNL A   1      44.541  27.760  27.975  1.00  0.00    -0.248 NA
ATOM     57  C   UNL A   1      44.375  25.901  29.379  1.00  0.00     0.031 C 
ATOM     58  C   UNL A   1      45.384  30.902  31.665  1.00  0.00     0.029 A 
ATOM     59  C   UNL A   1      45.298  29.685  30.991  1.00  0.00     0.049 A 
ATOM     60  H   UNL A   1      44.819  27.818  31.795  1.00  0.00     0.167 HD
ATOM     61  C   UNL A   1      45.207  28.041  29.150  1.00  0.00     0.074 A 
ATOM     62  C   UNL A   1      45.242  26.783  29.883  1.00  0.00     0.031 C 
ATOM     63  C   UNL A   1      45.349  29.323  29.590  1.00  0.00     0.034 A 
BRANCH  50  64
ATOM     64  C   UNL A   1      43.990  27.483  34.616  1.00  0.00     0.023 A 
ATOM     65  C   UNL A   1      44.815  27.787  35.727  1.00  0.00     0.012 A 
ATOM     66  C   UNL A   1      43.987  26.141  34.179  1.00  0.00     0.148 A 
ATOM     67  C   UNL A   1      45.626  26.823  36.335  1.00  0.00     0.002 A 
ATOM     68  C   UNL A   1      44.739  25.168  34.835  1.00  0.00     0.091 A 
ATOM     69  F   UNL A   1      43.376  25.810  33.037  1.00  0.00    -0.205 F 
ATOM     70  C   UNL A   1      45.582  25.507  35.894  1.00  0.00     0.022 A 
BRANCH  68  71
ATOM     71  S   UNL A   1      44.673  23.445  34.331  1.00  0.00     0.127 S 
ATOM     72  O   UNL A   1      45.108  23.529  32.941  1.00  0.00    -0.237 OA
ATOM     73  O   UNL A   1      45.630  22.822  35.244  1.00  0.00    -0.237 OA
ATOM     74  O   UNL A   1      43.290  23.039  34.554  1.00  0.00    -0.744 OA
ENDBRANCH  68  71
ENDBRANCH  50  64
BRANCH  51  75
ATOM     75  C   UNL A   1      42.426  25.155  26.730  1.00  0.00     0.023 A 
ATOM     76  C   UNL A   1      43.309  24.955  25.654  1.00  0.00     0.012 A 
ATOM     77  C   UNL A   1      41.551  24.106  27.093  1.00  0.00     0.148 A 
ATOM     78  C   UNL A   1      43.347  23.731  24.978  1.00  0.00     0.002 A 
ATOM     79  C   UNL A   1      41.594  22.890  26.418  1.00  0.00     0.091 A 
ATOM     80  F   UNL A   1      40.743  24.279  28.148  1.00  0.00    -0.205 F 
ATOM     81  C   UNL A   1      42.499  22.697  25.366  1.00  0.00     0.022 A 
BRANCH  79  82
ATOM     82  S   UNL A   1      40.555  21.497  26.878  1.00  0.00     0.127 S 
ATOM     83  O   UNL A   1      40.803  21.396  28.317  1.00  0.00    -0.237 OA
ATOM     84  O   UNL A   1      39.224  21.980  26.519  1.00  0.00    -0.237 OA
ATOM     85  O   UNL A   1      41.042  20.362  26.105  1.00  0.00    -0.744 OA
ENDBRANCH  79  82
ENDBRANCH  51  75
BRANCH  63  86
ATOM     86  C   UNL A   1      45.284  30.428  28.576  1.00  0.00     0.023 A 
ATOM     87  C   UNL A   1      44.064  30.957  28.114  1.00  0.00     0.012 A 
ATOM     88  C   UNL A   1      46.487  31.014  28.145  1.00  0.00     0.148 A 
ATOM     89  C   UNL A   1      44.043  32.030  27.219  1.00  0.00     0.002 A 
ATOM     90  C   UNL A   1      46.462  32.108  27.290  1.00  0.00     0.091 A 
ATOM     91  F   UNL A   1      47.643  30.493  28.588  1.00  0.00    -0.205 F 
ATOM     92  C   UNL A   1      45.243  32.612  26.815  1.00  0.00     0.022 A 
BRANCH  90  93
ATOM     93  S   UNL A   1      47.970  32.969  26.837  1.00  0.00     0.127 S 
ATOM     94  O   UNL A   1      47.508  33.860  25.775  1.00  0.00    -0.237 OA
ATOM     95  O   UNL A   1      48.338  33.643  28.083  1.00  0.00    -0.237 OA
ATOM     96  O   UNL A   1      48.908  31.931  26.429  1.00  0.00    -0.744 OA
ENDBRANCH  90  93
ENDBRANCH  63  86
ENDBRANCH  37  38
ENDBRANCH  29  32
ENDBRANCH  27  28
ENDBRANCH   1  27
TORSDOF 15
ENDMDL
MODEL 3
REMARK VINA RESULT:     -11.5      3.143      7.803
REMARK SMILES Cn1cc(NC(=O)N2Cc3nc[nH]c3C[C@@H]2C(=O)NCCCNC(=O)c2ccc(-c3c4nc(c(-c5cccc(S(=O)(=O)[O-])c5F)c5ccc([nH]5)c(-c5cccc(S(=O)(=O)[O-])c5F)c5nc(c(-c6cccc(S(=O)(=O)[O-])c6F)c6ccc3[nH]6)C=C5)C=C4)cc2)cn1
REMARK SMILES IDX 21 1 20 2 19 3 17 4 18 5 16 7 8 8 9 9 10 10 15 11 11 12
REMARK SMILES IDX 14 13 12 14 13 15 6 17 5 18 7 20 4 21 1 22 2 23 3 24 90 25
REMARK SMILES IDX 89 26 22 27 23 28 24 29 25 31 26 32 27 33 88 34 28 35 87 36
REMARK SMILES IDX 29 37 30 38 31 39 81 40 32 41 86 42 80 43 82 44 33 45 85 46
REMARK SMILES IDX 79 47 78 48 34 50 66 51 46 52 65 53 47 54 50 55 64 56 83 57
REMARK SMILES IDX 48 58 49 59 63 61 84 62 51 63 35 64 36 65 44 66 37 67 39 68
REMARK SMILES IDX 45 69 38 70 40 71 41 72 42 73 43 74 67 75 68 76 76 77 69 78
REMARK SMILES IDX 71 79 77 80 70 81 72 82 73 83 74 84 75 85 52 86 53 87 61 88
REMARK SMILES IDX 54 89 56 90 62 91 55 92 57 93 58 94 59 95 60 96
REMARK H PARENT 19 6 13 16 5 19 23 30 82 49 50 60
REMARK Flexibility Score: inf
ROOT
ATOM      1  C   UNL A   1      32.611  30.708  27.100  1.00  0.00     0.042 C 
ENDROOT
BRANCH   1   2
ATOM      2  C   UNL A   1      32.809  29.236  26.738  1.00  0.00     0.117 C 
BRANCH   2   3
ATOM      3  N   UNL A   1      32.328  28.873  25.416  1.00  0.00    -0.354 N 
ATOM      4  C   UNL A   1      31.675  27.803  24.881  1.00  0.00     0.243 C 
ATOM      5  O   UNL A   1      31.134  28.070  23.799  1.00  0.00    -0.273 OA
ATOM      6  H   UNL A   1      32.520  29.567  24.745  1.00  0.00     0.163 HD
BRANCH   4   7
ATOM      7  C   UNL A   1      31.710  26.327  25.432  1.00  0.00     0.182 C 
ATOM      8  N   UNL A   1      32.203  25.325  24.383  1.00  0.00    -0.306 N 
ATOM      9  C   UNL A   1      31.636  23.971  24.220  1.00  0.00     0.180 C 
ATOM     10  C   UNL A   1      30.819  23.571  25.387  1.00  0.00     0.081 A 
ATOM     11  C   UNL A   1      30.360  25.924  26.068  1.00  0.00     0.091 C 
ATOM     12  N   UNL A   1      30.452  22.297  25.734  1.00  0.00    -0.240 NA
ATOM     13  C   UNL A   1      30.256  24.473  26.243  1.00  0.00     0.042 A 
ATOM     14  C   UNL A   1      29.678  22.441  26.790  1.00  0.00     0.197 A 
ATOM     15  N   UNL A   1      29.535  23.757  27.146  1.00  0.00    -0.348 N 
ATOM     16  H   UNL A   1      29.015  24.112  27.903  1.00  0.00     0.167 HD
BRANCH   8  17
ATOM     17  C   UNL A   1      33.269  25.562  23.540  1.00  0.00     0.322 C 
ATOM     18  N   UNL A   1      34.529  25.282  23.960  1.00  0.00    -0.305 N 
ATOM     19  H   UNL A   1      35.226  25.933  23.719  1.00  0.00     0.171 HD
ATOM     20  O   UNL A   1      33.088  26.007  22.403  1.00  0.00    -0.248 OA
BRANCH  18  21
ATOM     21  C   UNL A   1      34.939  24.185  24.687  1.00  0.00     0.081 A 
ATOM     22  C   UNL A   1      36.261  20.862  25.047  1.00  0.00     0.173 C 
ATOM     23  N   UNL A   1      35.693  22.184  25.150  1.00  0.00    -0.274 N 
ATOM     24  C   UNL A   1      35.381  23.016  24.116  1.00  0.00     0.134 A 
ATOM     25  N   UNL A   1      35.427  22.709  26.363  1.00  0.00    -0.180 NA
ATOM     26  C   UNL A   1      34.956  23.926  26.074  1.00  0.00     0.161 A 
ENDBRANCH  18  21
ENDBRANCH   8  17
ENDBRANCH   4   7
ENDBRANCH   2   3
ENDBRANCH   1   2
BRANCH   1  27
ATOM     27  C   UNL A   1      33.934  31.407  27.390  1.00  0.00     0.118 C 
BRANCH  27  28
ATOM     28  N   UNL A   1      33.974  31.940  28.753  1.00  0.00    -0.352 N 
ATOM     29  C   UNL A   1      34.958  31.825  29.708  1.00  0.00     0.251 C 
ATOM     30  H   UNL A   1      33.181  32.457  29.027  1.00  0.00     0.163 HD
ATOM     31  O   UNL A   1      34.742  32.172  30.868  1.00  0.00    -0.269 OA
BRANCH  29  32
ATOM     32  C   UNL A   1      36.244  31.222  29.333  1.00  0.00     0.039 A 
ATOM     33  C   UNL A   1      37.410  31.979  29.449  1.00  0.00     0.014 A 
ATOM     34  C   UNL A   1      36.295  29.873  28.988  1.00  0.00     0.014 A 
ATOM     35  C   UNL A   1      38.640  31.338  29.341  1.00  0.00     0.010 A 
ATOM     36  C   UNL A   1      37.513  29.221  28.993  1.00  0.00     0.010 A 
ATOM     37  C   UNL A   1      38.694  29.945  29.165  1.00  0.00    -0.014 A 
BRANCH  37  38
ATOM     38  C   UNL A   1      39.982  29.259  29.320  1.00  0.00     0.031 A 
ATOM     39  C   UNL A   1      40.435  29.051  30.728  1.00  0.00     0.074 A 
ATOM     40  C   UNL A   1      40.668  28.657  28.325  1.00  0.00     0.049 A 
ATOM     41  N   UNL A   1      41.459  29.583  31.312  1.00  0.00    -0.248 NA
ATOM     42  C   UNL A   1      39.604  28.225  31.616  1.00  0.00     0.031 C 
ATOM     43  C   UNL A   1      40.233  28.458  26.939  1.00  0.00     0.029 A 
ATOM     44  N   UNL A   1      41.852  27.973  28.379  1.00  0.00    -0.354 N 
ATOM     45  C   UNL A   1      41.535  28.979  32.567  1.00  0.00     0.074 A 
ATOM     46  C   UNL A   1      40.283  28.296  32.764  1.00  0.00     0.031 C 
ATOM     47  C   UNL A   1      40.987  27.494  26.370  1.00  0.00     0.029 A 
ATOM     48  C   UNL A   1      42.074  27.167  27.272  1.00  0.00     0.049 A 
ATOM     49  H   UNL A   1      42.484  28.047  29.131  1.00  0.00     0.167 HD
ATOM     50  C   UNL A   1      42.721  28.873  33.227  1.00  0.00     0.034 A 
ATOM     51  C   UNL A   1      43.078  26.285  27.078  1.00  0.00     0.034 A 
ATOM     52  C   UNL A   1      43.749  29.661  32.600  1.00  0.00     0.049 A 
ATOM     53  C   UNL A   1      44.223  26.693  27.916  1.00  0.00     0.074 A 
ATOM     54  C   UNL A   1      44.139  30.978  32.546  1.00  0.00     0.029 A 
ATOM     55  N   UNL A   1      44.415  28.992  31.612  1.00  0.00    -0.354 N 
ATOM     56  N   UNL A   1      44.886  27.802  27.730  1.00  0.00    -0.248 NA
ATOM     57  C   UNL A   1      44.518  25.991  29.159  1.00  0.00     0.031 C 
ATOM     58  C   UNL A   1      44.945  31.106  31.374  1.00  0.00     0.029 A 
ATOM     59  C   UNL A   1      45.020  29.863  30.748  1.00  0.00     0.049 A 
ATOM     60  H   UNL A   1      44.454  28.010  31.531  1.00  0.00     0.167 HD
ATOM     61  C   UNL A   1      45.316  28.149  28.995  1.00  0.00     0.074 A 
ATOM     62  C   UNL A   1      45.251  26.922  29.774  1.00  0.00     0.031 C 
ATOM     63  C   UNL A   1      45.338  29.451  29.397  1.00  0.00     0.034 A 
BRANCH  50  64
ATOM     64  C   UNL A   1      43.129  27.751  34.165  1.00  0.00     0.023 A 
ATOM     65  C   UNL A   1      43.334  28.092  35.524  1.00  0.00     0.012 A 
ATOM     66  C   UNL A   1      43.612  26.491  33.749  1.00  0.00     0.148 A 
ATOM     67  C   UNL A   1      44.022  27.250  36.406  1.00  0.00     0.002 A 
ATOM     68  C   UNL A   1      44.229  25.624  34.648  1.00  0.00     0.091 A 
ATOM     69  F   UNL A   1      43.615  26.171  32.451  1.00  0.00    -0.205 F 
ATOM     70  C   UNL A   1      44.463  26.008  35.969  1.00  0.00     0.022 A 
BRANCH  68  71
ATOM     71  S   UNL A   1      44.770  23.988  34.139  1.00  0.00     0.127 S 
ATOM     72  O   UNL A   1      45.887  24.309  33.257  1.00  0.00    -0.237 OA
ATOM     73  O   UNL A   1      45.143  23.378  35.416  1.00  0.00    -0.237 OA
ATOM     74  O   UNL A   1      43.601  23.382  33.511  1.00  0.00    -0.744 OA
ENDBRANCH  68  71
ENDBRANCH  50  64
BRANCH  51  75
ATOM     75  C   UNL A   1      43.111  25.078  26.233  1.00  0.00     0.023 A 
ATOM     76  C   UNL A   1      44.045  24.978  25.186  1.00  0.00     0.012 A 
ATOM     77  C   UNL A   1      42.389  23.922  26.609  1.00  0.00     0.148 A 
ATOM     78  C   UNL A   1      44.281  23.754  24.552  1.00  0.00     0.002 A 
ATOM     79  C   UNL A   1      42.629  22.707  25.976  1.00  0.00     0.091 A 
ATOM     80  F   UNL A   1      41.534  24.006  27.638  1.00  0.00    -0.205 F 
ATOM     81  C   UNL A   1      43.583  22.618  24.954  1.00  0.00     0.022 A 
BRANCH  79  82
ATOM     82  S   UNL A   1      41.792  21.190  26.457  1.00  0.00     0.127 S 
ATOM     83  O   UNL A   1      42.420  20.205  25.576  1.00  0.00    -0.237 OA
ATOM     84  O   UNL A   1      42.161  21.075  27.865  1.00  0.00    -0.237 OA
ATOM     85  O   UNL A   1      40.376  21.413  26.193  1.00  0.00    -0.744 OA
ENDBRANCH  79  82
ENDBRANCH  51  75
BRANCH  63  86
ATOM     86  C   UNL A   1      45.430  30.515  28.341  1.00  0.00     0.023 A 
ATOM     87  C   UNL A   1      44.289  31.068  27.728  1.00  0.00     0.012 A 
ATOM     88  C   UNL A   1      46.695  31.038  28.025  1.00  0.00     0.148 A 
ATOM     89  C   UNL A   1      44.410  32.102  26.797  1.00  0.00     0.002 A 
ATOM     90  C   UNL A   1      46.808  32.097  27.133  1.00  0.00     0.091 A 
ATOM     91  F   UNL A   1      47.773  30.495  28.614  1.00  0.00    -0.205 F 
ATOM     92  C   UNL A   1      45.670  32.624  26.508  1.00  0.00     0.022 A 
BRANCH  90  93
ATOM     93  S   UNL A   1      48.390  32.883  26.819  1.00  0.00     0.127 S 
ATOM     94  O   UNL A   1      48.046  33.870  25.798  1.00  0.00    -0.237 OA
ATOM     95  O   UNL A   1      48.729  33.449  28.126  1.00  0.00    -0.237 OA
ATOM     96  O   UNL A   1      49.282  31.814  26.390  1.00  0.00    -0.744 OA
ENDBRANCH  90  93
ENDBRANCH  63  86
ENDBRANCH  37  38
ENDBRANCH  29  32
ENDBRANCH  27  28
ENDBRANCH   1  27
TORSDOF 15
ENDMDL
