MODEL 1
REMARK VINA RESULT:     -12.5      0.000      0.000
REMARK SMILES Cc1nsc(NC(=O)[C@H]2Cc3[nH]cnc3C[NH2+]2)c1C(=O)NCCCNC(=O)c1ccc(-c2c3nc(c(-c4cccc(S(=O)(=O)[O-])c4F)c4ccc([nH]4)c(-c4cccc(S(=O)(=O)[O-])c4F)c4nc(c(-c5cccc(S(=O)(=O)[O-])c5F)c5ccc2[nH]5)C=C4)C=C3)cc1
REMARK SMILES IDX 23 1 22 2 21 3 19 4 20 5 18 7 1 8 2 9 3 10 4 11 5 12 6 13
REMARK SMILES IDX 7 14 8 16 9 17 10 18 17 19 11 20 16 21 12 24 15 25 13 26
REMARK SMILES IDX 14 28 24 29 25 30 26 31 27 33 28 34 29 35 90 36 30 37 89 38
REMARK SMILES IDX 31 39 32 40 33 41 83 42 34 43 88 44 82 45 84 46 35 47 87 48
REMARK SMILES IDX 81 49 80 50 36 52 68 53 48 54 67 55 49 56 52 57 66 58 85 59
REMARK SMILES IDX 50 60 51 61 65 63 86 64 53 65 37 66 38 67 46 68 39 69 41 70
REMARK SMILES IDX 47 71 40 72 42 73 43 74 44 75 45 76 69 77 70 78 78 79 71 80
REMARK SMILES IDX 73 81 79 82 72 83 74 84 75 85 76 86 77 87 54 88 55 89 63 90
REMARK SMILES IDX 56 91 58 92 64 93 57 94 59 95 60 96 61 97 62 98
REMARK H PARENT 21 6 6 15 17 22 17 23 12 27 25 32 84 51 52 62
REMARK Flexibility Score: inf
ROOT
ATOM      1  C   UNL A   1      37.725  20.270  24.861  1.00  0.00     0.042 C 
ENDROOT
BRANCH   1   2
ATOM      2  C   UNL A   1      36.405  20.837  25.378  1.00  0.00     0.118 C 
BRANCH   2   3
ATOM      3  N   UNL A   1      35.226  20.027  25.159  1.00  0.00    -0.352 N 
ATOM      4  C   UNL A   1      33.947  20.362  24.790  1.00  0.00     0.256 C 
ATOM      5  O   UNL A   1      33.339  19.522  24.124  1.00  0.00    -0.269 OA
ATOM      6  H   UNL A   1      35.368  19.063  25.298  1.00  0.00     0.163 HD
BRANCH   4   7
ATOM      7  C   UNL A   1      33.255  21.530  25.318  1.00  0.00     0.097 A 
ATOM      8  C   UNL A   1      34.016  22.173  27.775  1.00  0.00     0.069 C 
ATOM      9  C   UNL A   1      33.086  22.143  26.615  1.00  0.00     0.066 A 
ATOM     10  N   UNL A   1      31.960  22.862  26.758  1.00  0.00    -0.195 NA
ATOM     11  S   UNL A   1      31.243  22.953  25.245  1.00  0.00    -0.017 S 
ATOM     12  C   UNL A   1      32.692  22.470  24.457  1.00  0.00     0.129 A 
BRANCH  12  13
ATOM     13  N   UNL A   1      32.865  22.704  23.122  1.00  0.00    -0.311 N 
ATOM     14  C   UNL A   1      33.128  23.891  22.496  1.00  0.00     0.283 C 
ATOM     15  H   UNL A   1      32.790  21.917  22.535  1.00  0.00     0.171 HD
ATOM     16  O   UNL A   1      33.323  23.805  21.272  1.00  0.00    -0.268 OA
BRANCH  14  17
ATOM     17  C   UNL A   1      33.226  25.309  23.168  1.00  0.00     0.279 C 
ATOM     18  C   UNL A   1      34.093  25.545  24.427  1.00  0.00     0.131 C 
ATOM     19  N   UNL A   1      33.680  26.309  22.112  1.00  0.00    -0.331 N 
ATOM     20  C   UNL A   1      33.853  26.942  24.848  1.00  0.00     0.050 A 
ATOM     21  C   UNL A   1      33.510  27.742  22.488  1.00  0.00     0.320 C 
ATOM     22  H   UNL A   1      33.142  26.138  21.262  1.00  0.00     0.347 HD
ATOM     23  H   UNL A   1      34.683  26.162  21.991  1.00  0.00     0.347 HD
ATOM     24  N   UNL A   1      33.544  27.406  26.090  1.00  0.00    -0.348 N 
ATOM     25  C   UNL A   1      33.558  27.949  23.967  1.00  0.00     0.116 A 
ATOM     26  C   UNL A   1      33.044  28.670  25.910  1.00  0.00     0.197 A 
ATOM     27  H   UNL A   1      33.656  26.931  26.945  1.00  0.00     0.167 HD
ATOM     28  N   UNL A   1      33.080  29.042  24.645  1.00  0.00    -0.236 NA
ENDBRANCH  14  17
ENDBRANCH  12  13
ENDBRANCH   4   7
ENDBRANCH   2   3
ENDBRANCH   1   2
BRANCH   1  29
ATOM     29  C   UNL A   1      38.912  20.564  25.756  1.00  0.00     0.118 C 
BRANCH  29  30
ATOM     30  N   UNL A   1      39.904  19.487  25.702  1.00  0.00    -0.352 N 
ATOM     31  C   UNL A   1      41.271  19.559  25.892  1.00  0.00     0.251 C 
ATOM     32  H   UNL A   1      39.549  18.590  25.505  1.00  0.00     0.163 HD
ATOM     33  O   UNL A   1      42.003  18.660  25.531  1.00  0.00    -0.269 OA
BRANCH  31  34
ATOM     34  C   UNL A   1      41.809  20.777  26.520  1.00  0.00     0.039 A 
ATOM     35  C   UNL A   1      42.056  21.915  25.751  1.00  0.00     0.014 A 
ATOM     36  C   UNL A   1      41.928  20.797  27.907  1.00  0.00     0.014 A 
ATOM     37  C   UNL A   1      42.315  23.113  26.406  1.00  0.00     0.010 A 
ATOM     38  C   UNL A   1      42.022  22.007  28.547  1.00  0.00     0.010 A 
ATOM     39  C   UNL A   1      42.252  23.164  27.808  1.00  0.00    -0.014 A 
BRANCH  39  40
ATOM     40  C   UNL A   1      42.301  24.449  28.498  1.00  0.00     0.031 A 
ATOM     41  C   UNL A   1      41.104  25.316  28.315  1.00  0.00     0.074 A 
ATOM     42  C   UNL A   1      43.266  24.783  29.380  1.00  0.00     0.049 A 
ATOM     43  N   UNL A   1      41.033  26.396  27.610  1.00  0.00    -0.248 NA
ATOM     44  C   UNL A   1      39.811  24.871  28.852  1.00  0.00     0.031 C 
ATOM     45  C   UNL A   1      44.359  23.950  29.895  1.00  0.00     0.029 A 
ATOM     46  N   UNL A   1      43.390  25.924  30.110  1.00  0.00    -0.354 N 
ATOM     47  C   UNL A   1      39.751  26.902  27.815  1.00  0.00     0.074 A 
ATOM     48  C   UNL A   1      38.993  25.833  28.410  1.00  0.00     0.031 C 
ATOM     49  C   UNL A   1      44.855  24.503  31.023  1.00  0.00     0.029 A 
ATOM     50  C   UNL A   1      44.256  25.812  31.190  1.00  0.00     0.049 A 
ATOM     51  H   UNL A   1      42.909  26.755  29.892  1.00  0.00     0.167 HD
ATOM     52  C   UNL A   1      39.495  28.236  27.700  1.00  0.00     0.034 A 
ATOM     53  C   UNL A   1      44.452  26.724  32.170  1.00  0.00     0.034 A 
ATOM     54  C   UNL A   1      40.601  28.930  27.085  1.00  0.00     0.049 A 
ATOM     55  C   UNL A   1      44.038  28.036  31.629  1.00  0.00     0.074 A 
ATOM     56  C   UNL A   1      41.274  28.837  25.882  1.00  0.00     0.029 A 
ATOM     57  N   UNL A   1      41.426  29.639  27.926  1.00  0.00    -0.354 N 
ATOM     58  N   UNL A   1      44.671  28.639  30.661  1.00  0.00    -0.248 NA
ATOM     59  C   UNL A   1      42.677  28.489  31.863  1.00  0.00     0.031 C 
ATOM     60  C   UNL A   1      42.643  29.071  26.211  1.00  0.00     0.029 A 
ATOM     61  C   UNL A   1      42.718  29.357  27.576  1.00  0.00     0.049 A 
ATOM     62  H   UNL A   1      41.137  30.242  28.649  1.00  0.00     0.167 HD
ATOM     63  C   UNL A   1      43.661  29.178  29.876  1.00  0.00     0.074 A 
ATOM     64  C   UNL A   1      42.478  29.175  30.734  1.00  0.00     0.031 C 
ATOM     65  C   UNL A   1      43.812  29.295  28.522  1.00  0.00     0.034 A 
BRANCH  52  66
ATOM     66  C   UNL A   1      38.440  29.007  28.463  1.00  0.00     0.023 A 
ATOM     67  C   UNL A   1      37.661  29.933  27.730  1.00  0.00     0.012 A 
ATOM     68  C   UNL A   1      38.363  29.086  29.872  1.00  0.00     0.148 A 
ATOM     69  C   UNL A   1      36.908  30.929  28.360  1.00  0.00     0.002 A 
ATOM     70  C   UNL A   1      37.552  30.028  30.496  1.00  0.00     0.091 A 
ATOM     71  F   UNL A   1      39.175  28.345  30.630  1.00  0.00    -0.205 F 
ATOM     72  C   UNL A   1      36.851  30.975  29.746  1.00  0.00     0.022 A 
BRANCH  70  73
ATOM     73  S   UNL A   1      37.400  30.101  32.286  1.00  0.00     0.127 S 
ATOM     74  O   UNL A   1      38.718  30.594  32.671  1.00  0.00    -0.237 OA
ATOM     75  O   UNL A   1      36.305  31.056  32.454  1.00  0.00    -0.237 OA
ATOM     76  O   UNL A   1      37.075  28.742  32.703  1.00  0.00    -0.744 OA
ENDBRANCH  70  73
ENDBRANCH  52  66
BRANCH  53  77
ATOM     77  C   UNL A   1      44.806  26.524  33.589  1.00  0.00     0.023 A 
ATOM     78  C   UNL A   1      46.112  26.806  34.031  1.00  0.00     0.012 A 
ATOM     79  C   UNL A   1      43.797  26.330  34.558  1.00  0.00     0.148 A 
ATOM     80  C   UNL A   1      46.397  26.936  35.395  1.00  0.00     0.002 A 
ATOM     81  C   UNL A   1      44.084  26.459  35.912  1.00  0.00     0.091 A 
ATOM     82  F   UNL A   1      42.540  26.113  34.145  1.00  0.00    -0.205 F 
ATOM     83  C   UNL A   1      45.381  26.775  36.334  1.00  0.00     0.022 A 
BRANCH  81  84
ATOM     84  S   UNL A   1      42.816  26.305  37.178  1.00  0.00     0.127 S 
ATOM     85  O   UNL A   1      43.602  26.413  38.407  1.00  0.00    -0.237 OA
ATOM     86  O   UNL A   1      41.964  27.455  36.891  1.00  0.00    -0.237 OA
ATOM     87  O   UNL A   1      42.204  24.998  36.970  1.00  0.00    -0.744 OA
ENDBRANCH  81  84
ENDBRANCH  53  77
BRANCH  65  88
ATOM     88  C   UNL A   1      45.189  29.075  27.942  1.00  0.00     0.023 A 
ATOM     89  C   UNL A   1      46.182  30.078  27.950  1.00  0.00     0.012 A 
ATOM     90  C   UNL A   1      45.542  27.781  27.525  1.00  0.00     0.148 A 
ATOM     91  C   UNL A   1      47.484  29.808  27.519  1.00  0.00     0.002 A 
ATOM     92  C   UNL A   1      46.849  27.503  27.141  1.00  0.00     0.091 A 
ATOM     93  F   UNL A   1      44.595  26.831  27.529  1.00  0.00    -0.205 F 
ATOM     94  C   UNL A   1      47.820  28.517  27.126  1.00  0.00     0.022 A 
BRANCH  92  95
ATOM     95  S   UNL A   1      47.373  25.833  26.746  1.00  0.00     0.127 S 
ATOM     96  O   UNL A   1      47.039  25.110  27.971  1.00  0.00    -0.237 OA
ATOM     97  O   UNL A   1      46.536  25.503  25.592  1.00  0.00    -0.237 OA
ATOM     98  O   UNL A   1      48.795  25.926  26.437  1.00  0.00    -0.744 OA
ENDBRANCH  92  95
ENDBRANCH  65  88
ENDBRANCH  39  40
ENDBRANCH  31  34
ENDBRANCH  29  30
ENDBRANCH   1  29
TORSDOF 15
ENDMDL
MODEL 2
REMARK VINA RESULT:     -12.4      3.038      7.930
REMARK SMILES Cc1nsc(NC(=O)[C@H]2Cc3[nH]cnc3C[NH2+]2)c1C(=O)NCCCNC(=O)c1ccc(-c2c3nc(c(-c4cccc(S(=O)(=O)[O-])c4F)c4ccc([nH]4)c(-c4cccc(S(=O)(=O)[O-])c4F)c4nc(c(-c5cccc(S(=O)(=O)[O-])c5F)c5ccc2[nH]5)C=C4)C=C3)cc1
REMARK SMILES IDX 23 1 22 2 21 3 19 4 20 5 18 7 1 8 2 9 3 10 4 11 5 12 6 13
REMARK SMILES IDX 7 14 8 16 9 17 10 18 17 19 11 20 16 21 12 24 15 25 13 26
REMARK SMILES IDX 14 28 24 29 25 30 26 31 27 33 28 34 29 35 90 36 30 37 89 38
REMARK SMILES IDX 31 39 32 40 33 41 83 42 34 43 88 44 82 45 84 46 35 47 87 48
REMARK SMILES IDX 81 49 80 50 36 52 68 53 48 54 67 55 49 56 52 57 66 58 85 59
REMARK SMILES IDX 50 60 51 61 65 63 86 64 53 65 37 66 38 67 46 68 39 69 41 70
REMARK SMILES IDX 47 71 40 72 42 73 43 74 44 75 45 76 69 77 70 78 78 79 71 80
REMARK SMILES IDX 73 81 79 82 72 83 74 84 75 85 76 86 77 87 54 88 55 89 63 90
REMARK SMILES IDX 56 91 58 92 64 93 57 94 59 95 60 96 61 97 62 98
REMARK H PARENT 21 6 6 15 17 22 17 23 12 27 25 32 84 51 52 62
REMARK Flexibility Score: inf
ROOT
ATOM      1  C   UNL A   1      32.437  31.148  26.910  1.00  0.00     0.042 C 
ENDROOT
BRANCH   1   2
ATOM      2  C   UNL A   1      32.161  29.848  26.158  1.00  0.00     0.118 C 
BRANCH   2   3
ATOM      3  N   UNL A   1      31.694  28.732  26.951  1.00  0.00    -0.352 N 
ATOM      4  C   UNL A   1      31.762  27.376  26.745  1.00  0.00     0.256 C 
ATOM      5  O   UNL A   1      31.845  26.679  27.757  1.00  0.00    -0.269 OA
ATOM      6  H   UNL A   1      31.249  28.992  27.790  1.00  0.00     0.163 HD
BRANCH   4   7
ATOM      7  C   UNL A   1      31.535  26.765  25.442  1.00  0.00     0.097 A 
ATOM      8  C   UNL A   1      33.615  26.976  23.812  1.00  0.00     0.069 C 
ATOM      9  C   UNL A   1      32.178  26.799  24.149  1.00  0.00     0.066 A 
ATOM     10  N   UNL A   1      31.366  26.546  23.108  1.00  0.00    -0.195 NA
ATOM     11  S   UNL A   1      29.893  26.062  23.743  1.00  0.00    -0.017 S 
ATOM     12  C   UNL A   1      30.584  25.759  25.288  1.00  0.00     0.129 A 
BRANCH  12  13
ATOM     13  N   UNL A   1      29.932  24.971  26.195  1.00  0.00    -0.311 N 
ATOM     14  C   UNL A   1      30.346  23.787  26.740  1.00  0.00     0.283 C 
ATOM     15  H   UNL A   1      29.053  25.297  26.494  1.00  0.00     0.171 HD
ATOM     16  O   UNL A   1      29.592  23.320  27.609  1.00  0.00    -0.268 OA
BRANCH  14  17
ATOM     17  C   UNL A   1      31.661  22.998  26.393  1.00  0.00     0.279 C 
ATOM     18  C   UNL A   1      32.724  22.691  27.475  1.00  0.00     0.131 C 
ATOM     19  N   UNL A   1      31.269  21.671  25.755  1.00  0.00    -0.331 N 
ATOM     20  C   UNL A   1      33.862  22.055  26.777  1.00  0.00     0.050 A 
ATOM     21  C   UNL A   1      32.381  20.949  25.072  1.00  0.00     0.320 C 
ATOM     22  H   UNL A   1      30.539  21.855  25.066  1.00  0.00     0.347 HD
ATOM     23  H   UNL A   1      30.961  21.067  26.518  1.00  0.00     0.347 HD
ATOM     24  N   UNL A   1      35.185  22.366  26.866  1.00  0.00    -0.348 N 
ATOM     25  C   UNL A   1      33.715  21.278  25.659  1.00  0.00     0.116 A 
ATOM     26  C   UNL A   1      35.785  21.788  25.777  1.00  0.00     0.197 A 
ATOM     27  H   UNL A   1      35.622  22.899  27.568  1.00  0.00     0.167 HD
ATOM     28  N   UNL A   1      34.931  21.088  25.054  1.00  0.00    -0.236 NA
ENDBRANCH  14  17
ENDBRANCH  12  13
ENDBRANCH   4   7
ENDBRANCH   2   3
ENDBRANCH   1   2
BRANCH   1  29
ATOM     29  C   UNL A   1      33.867  31.284  27.394  1.00  0.00     0.118 C 
BRANCH  29  30
ATOM     30  N   UNL A   1      33.934  31.996  28.673  1.00  0.00    -0.352 N 
ATOM     31  C   UNL A   1      34.907  31.925  29.653  1.00  0.00     0.251 C 
ATOM     32  H   UNL A   1      33.186  32.607  28.861  1.00  0.00     0.163 HD
ATOM     33  O   UNL A   1      34.697  32.334  30.777  1.00  0.00    -0.269 OA
BRANCH  31  34
ATOM     34  C   UNL A   1      36.196  31.313  29.291  1.00  0.00     0.039 A 
ATOM     35  C   UNL A   1      37.352  32.091  29.231  1.00  0.00     0.014 A 
ATOM     36  C   UNL A   1      36.243  29.929  29.148  1.00  0.00     0.014 A 
ATOM     37  C   UNL A   1      38.581  31.446  29.141  1.00  0.00     0.010 A 
ATOM     38  C   UNL A   1      37.458  29.295  29.224  1.00  0.00     0.010 A 
ATOM     39  C   UNL A   1      38.631  30.044  29.184  1.00  0.00    -0.014 A 
BRANCH  39  40
ATOM     40  C   UNL A   1      39.914  29.360  29.313  1.00  0.00     0.031 A 
ATOM     41  C   UNL A   1      40.381  29.141  30.711  1.00  0.00     0.074 A 
ATOM     42  C   UNL A   1      40.568  28.803  28.273  1.00  0.00     0.049 A 
ATOM     43  N   UNL A   1      41.348  29.756  31.307  1.00  0.00    -0.248 NA
ATOM     44  C   UNL A   1      39.610  28.252  31.591  1.00  0.00     0.031 C 
ATOM     45  C   UNL A   1      40.123  28.671  26.881  1.00  0.00     0.029 A 
ATOM     46  N   UNL A   1      41.738  28.108  28.280  1.00  0.00    -0.354 N 
ATOM     47  C   UNL A   1      41.468  29.155  32.557  1.00  0.00     0.074 A 
ATOM     48  C   UNL A   1      40.263  28.392  32.749  1.00  0.00     0.031 C 
ATOM     49  C   UNL A   1      40.865  27.731  26.257  1.00  0.00     0.029 A 
ATOM     50  C   UNL A   1      41.949  27.346  27.138  1.00  0.00     0.049 A 
ATOM     51  H   UNL A   1      42.377  28.142  29.028  1.00  0.00     0.167 HD
ATOM     52  C   UNL A   1      42.661  29.143  33.220  1.00  0.00     0.034 A 
ATOM     53  C   UNL A   1      42.936  26.443  26.937  1.00  0.00     0.034 A 
ATOM     54  C   UNL A   1      43.608  30.042  32.606  1.00  0.00     0.049 A 
ATOM     55  C   UNL A   1      44.035  26.790  27.864  1.00  0.00     0.074 A 
ATOM     56  C   UNL A   1      43.644  31.395  32.330  1.00  0.00     0.029 A 
ATOM     57  N   UNL A   1      44.578  29.469  31.817  1.00  0.00    -0.354 N 
ATOM     58  N   UNL A   1      44.737  27.884  27.758  1.00  0.00    -0.248 NA
ATOM     59  C   UNL A   1      44.084  26.138  29.161  1.00  0.00     0.031 C 
ATOM     60  C   UNL A   1      44.286  31.490  31.059  1.00  0.00     0.029 A 
ATOM     61  C   UNL A   1      44.664  30.204  30.666  1.00  0.00     0.049 A 
ATOM     62  H   UNL A   1      45.112  28.673  32.041  1.00  0.00     0.167 HD
ATOM     63  C   UNL A   1      44.909  28.307  29.069  1.00  0.00     0.074 A 
ATOM     64  C   UNL A   1      44.612  27.130  29.884  1.00  0.00     0.031 C 
ATOM     65  C   UNL A   1      44.982  29.638  29.373  1.00  0.00     0.034 A 
BRANCH  52  66
ATOM     66  C   UNL A   1      43.134  28.070  34.177  1.00  0.00     0.023 A 
ATOM     67  C   UNL A   1      43.571  28.493  35.455  1.00  0.00     0.012 A 
ATOM     68  C   UNL A   1      43.441  26.742  33.807  1.00  0.00     0.148 A 
ATOM     69  C   UNL A   1      44.333  27.667  36.286  1.00  0.00     0.002 A 
ATOM     70  C   UNL A   1      44.132  25.897  34.670  1.00  0.00     0.091 A 
ATOM     71  F   UNL A   1      43.191  26.316  32.567  1.00  0.00    -0.205 F 
ATOM     72  C   UNL A   1      44.612  26.365  35.895  1.00  0.00     0.022 A 
BRANCH  70  73
ATOM     73  S   UNL A   1      44.477  24.187  34.236  1.00  0.00     0.127 S 
ATOM     74  O   UNL A   1      45.397  23.795  35.299  1.00  0.00    -0.237 OA
ATOM     75  O   UNL A   1      43.146  23.586  34.310  1.00  0.00    -0.237 OA
ATOM     76  O   UNL A   1      45.035  24.233  32.889  1.00  0.00    -0.744 OA
ENDBRANCH  70  73
ENDBRANCH  52  66
BRANCH  53  77
ATOM     77  C   UNL A   1      42.934  25.206  26.131  1.00  0.00     0.023 A 
ATOM     78  C   UNL A   1      43.910  25.020  25.133  1.00  0.00     0.012 A 
ATOM     79  C   UNL A   1      42.159  24.095  26.529  1.00  0.00     0.148 A 
ATOM     80  C   UNL A   1      44.137  23.755  24.580  1.00  0.00     0.002 A 
ATOM     81  C   UNL A   1      42.388  22.840  25.975  1.00  0.00     0.091 A 
ATOM     82  F   UNL A   1      41.265  24.251  27.515  1.00  0.00    -0.205 F 
ATOM     83  C   UNL A   1      43.387  22.664  25.009  1.00  0.00     0.022 A 
BRANCH  81  84
ATOM     84  S   UNL A   1      41.486  21.379  26.509  1.00  0.00     0.127 S 
ATOM     85  O   UNL A   1      41.842  21.307  27.926  1.00  0.00    -0.237 OA
ATOM     86  O   UNL A   1      40.104  21.766  26.242  1.00  0.00    -0.237 OA
ATOM     87  O   UNL A   1      42.001  20.279  25.703  1.00  0.00    -0.744 OA
ENDBRANCH  81  84
ENDBRANCH  53  77
BRANCH  65  88
ATOM     88  C   UNL A   1      45.139  30.616  28.233  1.00  0.00     0.023 A 
ATOM     89  C   UNL A   1      44.036  31.116  27.508  1.00  0.00     0.012 A 
ATOM     90  C   UNL A   1      46.409  31.165  27.990  1.00  0.00     0.148 A 
ATOM     91  C   UNL A   1      44.200  32.111  26.540  1.00  0.00     0.002 A 
ATOM     92  C   UNL A   1      46.562  32.187  27.061  1.00  0.00     0.091 A 
ATOM     93  F   UNL A   1      47.451  30.690  28.689  1.00  0.00    -0.205 F 
ATOM     94  C   UNL A   1      45.462  32.656  26.326  1.00  0.00     0.022 A 
BRANCH  92  95
ATOM     95  S   UNL A   1      48.137  33.015  26.832  1.00  0.00     0.127 S 
ATOM     96  O   UNL A   1      47.825  33.984  25.783  1.00  0.00    -0.237 OA
ATOM     97  O   UNL A   1      48.384  33.598  28.151  1.00  0.00    -0.237 OA
ATOM     98  O   UNL A   1      49.084  31.970  26.461  1.00  0.00    -0.744 OA
ENDBRANCH  92  95
ENDBRANCH  65  88
ENDBRANCH  39  40
ENDBRANCH  31  34
ENDBRANCH  29  30
ENDBRANCH   1  29
TORSDOF 15
ENDMDL
MODEL 3
REMARK VINA RESULT:     -12.3      3.857      9.351
REMARK SMILES Cc1nsc(NC(=O)[C@H]2Cc3[nH]cnc3C[NH2+]2)c1C(=O)NCCCNC(=O)c1ccc(-c2c3nc(c(-c4cccc(S(=O)(=O)[O-])c4F)c4ccc([nH]4)c(-c4cccc(S(=O)(=O)[O-])c4F)c4nc(c(-c5cccc(S(=O)(=O)[O-])c5F)c5ccc2[nH]5)C=C4)C=C3)cc1
REMARK SMILES IDX 23 1 22 2 21 3 19 4 20 5 18 7 1 8 2 9 3 10 4 11 5 12 6 13
REMARK SMILES IDX 7 14 8 16 9 17 10 18 17 19 11 20 16 21 12 24 15 25 13 26
REMARK SMILES IDX 14 28 24 29 25 30 26 31 27 33 28 34 29 35 90 36 30 37 89 38
REMARK SMILES IDX 31 39 32 40 33 41 83 42 34 43 88 44 82 45 84 46 35 47 87 48
REMARK SMILES IDX 81 49 80 50 36 52 68 53 48 54 67 55 49 56 52 57 66 58 85 59
REMARK SMILES IDX 50 60 51 61 65 63 86 64 53 65 37 66 38 67 46 68 39 69 41 70
REMARK SMILES IDX 47 71 40 72 42 73 43 74 44 75 45 76 69 77 70 78 78 79 71 80
REMARK SMILES IDX 73 81 79 82 72 83 74 84 75 85 76 86 77 87 54 88 55 89 63 90
REMARK SMILES IDX 56 91 58 92 64 93 57 94 59 95 60 96 61 97 62 98
REMARK H PARENT 21 6 6 15 17 22 17 23 12 27 25 32 84 51 52 62
REMARK Flexibility Score: inf
ROOT
ATOM      1  C   UNL A   1      31.643  31.799  26.687  1.00  0.00     0.042 C 
ENDROOT
BRANCH   1   2
ATOM      2  C   UNL A   1      31.961  30.425  26.099  1.00  0.00     0.118 C 
BRANCH   2   3
ATOM      3  N   UNL A   1      31.529  29.280  26.870  1.00  0.00    -0.352 N 
ATOM      4  C   UNL A   1      31.744  27.935  26.700  1.00  0.00     0.256 C 
ATOM      5  O   UNL A   1      31.796  27.261  27.731  1.00  0.00    -0.269 OA
ATOM      6  H   UNL A   1      30.983  29.506  27.657  1.00  0.00     0.163 HD
BRANCH   4   7
ATOM      7  C   UNL A   1      31.700  27.288  25.395  1.00  0.00     0.097 A 
ATOM      8  C   UNL A   1      33.817  27.824  23.892  1.00  0.00     0.069 C 
ATOM      9  C   UNL A   1      32.409  27.418  24.144  1.00  0.00     0.066 A 
ATOM     10  N   UNL A   1      31.716  27.032  23.059  1.00  0.00    -0.195 NA
ATOM     11  S   UNL A   1      30.303  26.319  23.611  1.00  0.00    -0.017 S 
ATOM     12  C   UNL A   1      30.935  26.140  25.199  1.00  0.00     0.129 A 
BRANCH  12  13
ATOM     13  N   UNL A   1      30.364  25.262  26.076  1.00  0.00    -0.311 N 
ATOM     14  C   UNL A   1      30.877  24.088  26.555  1.00  0.00     0.283 C 
ATOM     15  H   UNL A   1      29.469  25.505  26.407  1.00  0.00     0.171 HD
ATOM     16  O   UNL A   1      30.178  23.523  27.412  1.00  0.00    -0.268 OA
BRANCH  14  17
ATOM     17  C   UNL A   1      32.240  23.419  26.146  1.00  0.00     0.279 C 
ATOM     18  C   UNL A   1      33.567  24.214  26.175  1.00  0.00     0.131 C 
ATOM     19  N   UNL A   1      32.439  22.175  27.004  1.00  0.00    -0.331 N 
ATOM     20  C   UNL A   1      34.606  23.319  25.620  1.00  0.00     0.050 A 
ATOM     21  C   UNL A   1      33.506  21.247  26.529  1.00  0.00     0.320 C 
ATOM     22  H   UNL A   1      31.558  21.661  27.026  1.00  0.00     0.347 HD
ATOM     23  H   UNL A   1      32.736  22.506  27.923  1.00  0.00     0.347 HD
ATOM     24  N   UNL A   1      35.523  23.592  24.651  1.00  0.00    -0.348 N 
ATOM     25  C   UNL A   1      34.569  21.956  25.755  1.00  0.00     0.116 A 
ATOM     26  C   UNL A   1      35.986  22.378  24.214  1.00  0.00     0.197 A 
ATOM     27  H   UNL A   1      35.797  24.480  24.329  1.00  0.00     0.167 HD
ATOM     28  N   UNL A   1      35.462  21.374  24.892  1.00  0.00    -0.236 NA
ENDBRANCH  14  17
ENDBRANCH  12  13
ENDBRANCH   4   7
ENDBRANCH   2   3
ENDBRANCH   1   2
BRANCH   1  29
ATOM     29  C   UNL A   1      32.826  32.468  27.357  1.00  0.00     0.118 C 
BRANCH  29  30
ATOM     30  N   UNL A   1      32.487  33.815  27.824  1.00  0.00    -0.352 N 
ATOM     31  C   UNL A   1      33.090  34.564  28.817  1.00  0.00     0.251 C 
ATOM     32  H   UNL A   1      31.728  34.244  27.369  1.00  0.00     0.163 HD
ATOM     33  O   UNL A   1      32.533  35.529  29.299  1.00  0.00    -0.269 OA
BRANCH  31  34
ATOM     34  C   UNL A   1      34.417  34.133  29.285  1.00  0.00     0.039 A 
ATOM     35  C   UNL A   1      34.533  33.091  30.206  1.00  0.00     0.014 A 
ATOM     36  C   UNL A   1      35.537  34.699  28.683  1.00  0.00     0.014 A 
ATOM     37  C   UNL A   1      35.791  32.542  30.430  1.00  0.00     0.010 A 
ATOM     38  C   UNL A   1      36.743  34.051  28.784  1.00  0.00     0.010 A 
ATOM     39  C   UNL A   1      36.888  32.996  29.681  1.00  0.00    -0.014 A 
BRANCH  39  40
ATOM     40  C   UNL A   1      38.162  32.286  29.742  1.00  0.00     0.031 A 
ATOM     41  C   UNL A   1      38.164  30.929  29.129  1.00  0.00     0.074 A 
ATOM     42  C   UNL A   1      39.311  32.856  30.160  1.00  0.00     0.049 A 
ATOM     43  N   UNL A   1      38.209  29.799  29.755  1.00  0.00    -0.248 NA
ATOM     44  C   UNL A   1      37.952  30.798  27.682  1.00  0.00     0.031 C 
ATOM     45  C   UNL A   1      39.554  34.256  30.526  1.00  0.00     0.029 A 
ATOM     46  N   UNL A   1      40.556  32.311  30.218  1.00  0.00    -0.354 N 
ATOM     47  C   UNL A   1      38.282  28.820  28.768  1.00  0.00     0.074 A 
ATOM     48  C   UNL A   1      37.918  29.469  27.536  1.00  0.00     0.031 C 
ATOM     49  C   UNL A   1      40.882  34.504  30.505  1.00  0.00     0.029 A 
ATOM     50  C   UNL A   1      41.578  33.246  30.322  1.00  0.00     0.049 A 
ATOM     51  H   UNL A   1      40.718  31.340  30.189  1.00  0.00     0.167 HD
ATOM     52  C   UNL A   1      38.874  27.616  29.014  1.00  0.00     0.034 A 
ATOM     53  C   UNL A   1      42.907  33.007  30.242  1.00  0.00     0.034 A 
ATOM     54  C   UNL A   1      39.112  27.430  30.425  1.00  0.00     0.049 A 
ATOM     55  C   UNL A   1      43.111  31.581  30.575  1.00  0.00     0.074 A 
ATOM     56  C   UNL A   1      38.326  27.406  31.560  1.00  0.00     0.029 A 
ATOM     57  N   UNL A   1      40.401  27.622  30.862  1.00  0.00    -0.354 N 
ATOM     58  N   UNL A   1      42.888  31.088  31.762  1.00  0.00    -0.248 NA
ATOM     59  C   UNL A   1      43.154  30.612  29.494  1.00  0.00     0.031 C 
ATOM     60  C   UNL A   1      39.108  28.059  32.559  1.00  0.00     0.029 A 
ATOM     61  C   UNL A   1      40.346  28.382  31.999  1.00  0.00     0.049 A 
ATOM     62  H   UNL A   1      41.217  27.275  30.433  1.00  0.00     0.167 HD
ATOM     63  C   UNL A   1      42.294  29.859  31.514  1.00  0.00     0.074 A 
ATOM     64  C   UNL A   1      42.612  29.563  30.119  1.00  0.00     0.031 C 
ATOM     65  C   UNL A   1      41.358  29.347  32.370  1.00  0.00     0.034 A 
BRANCH  52  66
ATOM     66  C   UNL A   1      39.593  26.756  27.997  1.00  0.00     0.023 A 
ATOM     67  C   UNL A   1      39.312  25.369  28.012  1.00  0.00     0.012 A 
ATOM     68  C   UNL A   1      40.714  27.169  27.243  1.00  0.00     0.148 A 
ATOM     69  C   UNL A   1      40.140  24.439  27.375  1.00  0.00     0.002 A 
ATOM     70  C   UNL A   1      41.490  26.249  26.546  1.00  0.00     0.091 A 
ATOM     71  F   UNL A   1      41.127  28.437  27.298  1.00  0.00    -0.205 F 
ATOM     72  C   UNL A   1      41.230  24.880  26.637  1.00  0.00     0.022 A 
BRANCH  70  73
ATOM     73  S   UNL A   1      42.883  26.769  25.535  1.00  0.00     0.127 S 
ATOM     74  O   UNL A   1      43.799  27.288  26.544  1.00  0.00    -0.237 OA
ATOM     75  O   UNL A   1      43.289  25.507  24.915  1.00  0.00    -0.237 OA
ATOM     76  O   UNL A   1      42.339  27.744  24.598  1.00  0.00    -0.744 OA
ENDBRANCH  70  73
ENDBRANCH  52  66
BRANCH  53  77
ATOM     77  C   UNL A   1      43.992  33.870  29.733  1.00  0.00     0.023 A 
ATOM     78  C   UNL A   1      44.814  34.567  30.639  1.00  0.00     0.012 A 
ATOM     79  C   UNL A   1      44.400  33.786  28.384  1.00  0.00     0.148 A 
ATOM     80  C   UNL A   1      46.027  35.126  30.223  1.00  0.00     0.002 A 
ATOM     81  C   UNL A   1      45.606  34.344  27.975  1.00  0.00     0.091 A 
ATOM     82  F   UNL A   1      43.650  33.079  27.526  1.00  0.00    -0.205 F 
ATOM     83  C   UNL A   1      46.429  35.004  28.896  1.00  0.00     0.022 A 
BRANCH  81  84
ATOM     84  S   UNL A   1      46.208  34.190  26.288  1.00  0.00     0.127 S 
ATOM     85  O   UNL A   1      47.535  34.800  26.384  1.00  0.00    -0.237 OA
ATOM     86  O   UNL A   1      46.209  32.743  26.100  1.00  0.00    -0.237 OA
ATOM     87  O   UNL A   1      45.264  34.933  25.461  1.00  0.00    -0.744 OA
ENDBRANCH  81  84
ENDBRANCH  53  77
BRANCH  65  88
ATOM     88  C   UNL A   1      41.185  30.018  33.712  1.00  0.00     0.023 A 
ATOM     89  C   UNL A   1      42.074  29.801  34.786  1.00  0.00     0.012 A 
ATOM     90  C   UNL A   1      40.199  31.010  33.844  1.00  0.00     0.148 A 
ATOM     91  C   UNL A   1      41.960  30.528  35.975  1.00  0.00     0.002 A 
ATOM     92  C   UNL A   1      40.118  31.764  35.009  1.00  0.00     0.091 A 
ATOM     93  F   UNL A   1      39.363  31.216  32.815  1.00  0.00    -0.205 F 
ATOM     94  C   UNL A   1      40.990  31.518  36.081  1.00  0.00     0.022 A 
BRANCH  92  95
ATOM     95  S   UNL A   1      38.972  33.137  35.157  1.00  0.00     0.127 S 
ATOM     96  O   UNL A   1      37.677  32.459  35.134  1.00  0.00    -0.237 OA
ATOM     97  O   UNL A   1      39.337  33.717  36.450  1.00  0.00    -0.237 OA
ATOM     98  O   UNL A   1      39.247  34.007  34.020  1.00  0.00    -0.744 OA
ENDBRANCH  92  95
ENDBRANCH  65  88
ENDBRANCH  39  40
ENDBRANCH  31  34
ENDBRANCH  29  30
ENDBRANCH   1  29
TORSDOF 15
ENDMDL
