MODEL 1
REMARK VINA RESULT:     -12.6      0.000      0.000
REMARK SMILES Cc1ccc(NC(=O)C[C@@H]2C[NH2+]CCO2)c(C(=O)NCCCNC(=O)c2ccc(-c3c4nc(c(-c5cccc(S(=O)(=O)[O-])c5F)c5ccc([nH]5)c(-c5cccc(S(=O)(=O)[O-])c5F)c5nc(c(-c6cccc(S(=O)(=O)[O-])c6F)c6ccc3[nH]6)C=C5)C=C4)cc2)c1
REMARK SMILES IDX 21 1 20 2 19 3 17 4 18 5 16 7 1 8 2 9 3 10 89 11 4 12 5 13
REMARK SMILES IDX 6 14 7 15 8 17 9 18 10 19 11 20 15 21 12 22 14 23 13 24
REMARK SMILES IDX 22 27 23 28 24 29 25 31 26 32 27 33 88 34 28 35 87 36 29 37
REMARK SMILES IDX 30 38 31 39 81 40 32 41 86 42 80 43 82 44 33 45 85 46 79 47
REMARK SMILES IDX 78 48 34 50 66 51 46 52 65 53 47 54 50 55 64 56 83 57 48 58
REMARK SMILES IDX 49 59 63 61 84 62 51 63 35 64 36 65 44 66 37 67 39 68 45 69
REMARK SMILES IDX 38 70 40 71 41 72 42 73 43 74 67 75 68 76 76 77 69 78 71 79
REMARK SMILES IDX 77 80 70 81 72 82 73 83 74 84 75 85 52 86 53 87 61 88 54 89
REMARK SMILES IDX 56 90 62 91 55 92 57 93 58 94 59 95 60 96
REMARK H PARENT 19 6 6 16 12 25 12 26 23 30 82 49 50 60
REMARK Flexibility Score: inf
ROOT
ATOM      1  C   UNL A   1      32.601  30.610  27.076  1.00  0.00     0.042 C 
ENDROOT
BRANCH   1   2
ATOM      2  C   UNL A   1      31.877  29.292  27.337  1.00  0.00     0.118 C 
BRANCH   2   3
ATOM      3  N   UNL A   1      32.636  28.165  26.813  1.00  0.00    -0.352 N 
ATOM      4  C   UNL A   1      32.369  27.276  25.794  1.00  0.00     0.253 C 
ATOM      5  O   UNL A   1      33.250  26.468  25.499  1.00  0.00    -0.269 OA
ATOM      6  H   UNL A   1      33.495  28.009  27.270  1.00  0.00     0.163 HD
BRANCH   4   7
ATOM      7  C   UNL A   1      31.105  27.322  24.987  1.00  0.00     0.063 A 
ATOM      8  C   UNL A   1      29.461  29.632  22.434  1.00  0.00     0.044 C 
ATOM      9  C   UNL A   1      29.723  28.421  23.279  1.00  0.00    -0.050 A 
ATOM     10  C   UNL A   1      28.876  27.323  23.271  1.00  0.00     0.005 A 
ATOM     11  C   UNL A   1      30.816  28.406  24.148  1.00  0.00     0.019 A 
ATOM     12  C   UNL A   1      29.076  26.283  24.186  1.00  0.00     0.027 A 
ATOM     13  C   UNL A   1      30.124  26.320  25.118  1.00  0.00     0.054 A 
BRANCH  13  14
ATOM     14  N   UNL A   1      30.171  25.444  26.229  1.00  0.00    -0.325 N 
ATOM     15  C   UNL A   1      30.523  24.125  26.321  1.00  0.00     0.227 C 
ATOM     16  H   UNL A   1      29.903  25.855  27.082  1.00  0.00     0.169 HD
ATOM     17  O   UNL A   1      30.426  23.561  27.418  1.00  0.00    -0.275 OA
BRANCH  15  18
ATOM     18  C   UNL A   1      31.024  23.322  25.138  1.00  0.00     0.138 C 
BRANCH  18  19
ATOM     19  C   UNL A   1      32.499  22.880  25.164  1.00  0.00     0.182 C 
ATOM     20  C   UNL A   1      32.546  21.331  25.260  1.00  0.00     0.293 C 
ATOM     21  O   UNL A   1      33.214  23.471  26.252  1.00  0.00    -0.366 OA
ATOM     22  N   UNL A   1      33.905  20.780  25.416  1.00  0.00    -0.342 N 
ATOM     23  C   UNL A   1      34.546  22.974  26.385  1.00  0.00     0.222 C 
ATOM     24  C   UNL A   1      34.542  21.453  26.566  1.00  0.00     0.289 C 
ATOM     25  H   UNL A   1      34.449  20.952  24.570  1.00  0.00     0.346 HD
ATOM     26  H   UNL A   1      33.864  19.773  25.574  1.00  0.00     0.346 HD
ENDBRANCH  18  19
ENDBRANCH  15  18
ENDBRANCH  13  14
ENDBRANCH   4   7
ENDBRANCH   2   3
ENDBRANCH   1   2
BRANCH   1  27
ATOM     27  C   UNL A   1      34.105  30.478  26.989  1.00  0.00     0.118 C 
BRANCH  27  28
ATOM     28  N   UNL A   1      34.816  31.531  27.692  1.00  0.00    -0.352 N 
ATOM     29  C   UNL A   1      35.950  31.432  28.476  1.00  0.00     0.251 C 
ATOM     30  H   UNL A   1      34.439  32.435  27.600  1.00  0.00     0.163 HD
ATOM     31  O   UNL A   1      36.308  32.411  29.128  1.00  0.00    -0.269 OA
BRANCH  29  32
ATOM     32  C   UNL A   1      36.790  30.213  28.384  1.00  0.00     0.039 A 
ATOM     33  C   UNL A   1      37.008  29.501  29.569  1.00  0.00     0.014 A 
ATOM     34  C   UNL A   1      37.574  29.962  27.261  1.00  0.00     0.014 A 
ATOM     35  C   UNL A   1      38.182  28.770  29.718  1.00  0.00     0.010 A 
ATOM     36  C   UNL A   1      38.783  29.330  27.436  1.00  0.00     0.010 A 
ATOM     37  C   UNL A   1      39.116  28.811  28.691  1.00  0.00    -0.014 A 
BRANCH  37  38
ATOM     38  C   UNL A   1      40.496  28.376  28.812  1.00  0.00     0.031 A 
ATOM     39  C   UNL A   1      40.821  26.950  28.661  1.00  0.00     0.074 A 
ATOM     40  C   UNL A   1      41.458  29.324  28.838  1.00  0.00     0.049 A 
ATOM     41  N   UNL A   1      41.970  26.430  28.916  1.00  0.00    -0.248 NA
ATOM     42  C   UNL A   1      39.824  25.981  28.230  1.00  0.00     0.031 C 
ATOM     43  C   UNL A   1      42.875  29.166  28.534  1.00  0.00     0.029 A 
ATOM     44  N   UNL A   1      41.368  30.615  29.374  1.00  0.00    -0.354 N 
ATOM     45  C   UNL A   1      41.957  25.142  28.422  1.00  0.00     0.074 A 
ATOM     46  C   UNL A   1      40.575  24.884  28.103  1.00  0.00     0.031 C 
ATOM     47  C   UNL A   1      43.554  30.161  29.128  1.00  0.00     0.029 A 
ATOM     48  C   UNL A   1      42.609  30.844  29.996  1.00  0.00     0.049 A 
ATOM     49  H   UNL A   1      40.602  31.230  29.326  1.00  0.00     0.167 HD
ATOM     50  C   UNL A   1      43.150  24.516  28.207  1.00  0.00     0.034 A 
ATOM     51  C   UNL A   1      42.754  30.994  31.349  1.00  0.00     0.034 A 
ATOM     52  C   UNL A   1      44.253  25.313  28.771  1.00  0.00     0.049 A 
ATOM     53  C   UNL A   1      43.724  29.995  31.963  1.00  0.00     0.074 A 
ATOM     54  C   UNL A   1      45.157  26.209  28.221  1.00  0.00     0.029 A 
ATOM     55  N   UNL A   1      44.339  25.469  30.150  1.00  0.00    -0.354 N 
ATOM     56  N   UNL A   1      44.185  28.943  31.344  1.00  0.00    -0.248 NA
ATOM     57  C   UNL A   1      44.231  30.091  33.330  1.00  0.00     0.031 C 
ATOM     58  C   UNL A   1      45.704  26.984  29.282  1.00  0.00     0.029 A 
ATOM     59  C   UNL A   1      45.167  26.532  30.475  1.00  0.00     0.049 A 
ATOM     60  H   UNL A   1      43.875  24.900  30.807  1.00  0.00     0.167 HD
ATOM     61  C   UNL A   1      44.917  28.172  32.208  1.00  0.00     0.074 A 
ATOM     62  C   UNL A   1      44.982  28.978  33.416  1.00  0.00     0.031 C 
ATOM     63  C   UNL A   1      45.347  26.915  31.873  1.00  0.00     0.034 A 
BRANCH  50  64
ATOM     64  C   UNL A   1      43.383  23.351  27.251  1.00  0.00     0.023 A 
ATOM     65  C   UNL A   1      44.179  23.604  26.109  1.00  0.00     0.012 A 
ATOM     66  C   UNL A   1      42.818  22.054  27.319  1.00  0.00     0.148 A 
ATOM     67  C   UNL A   1      44.327  22.679  25.066  1.00  0.00     0.002 A 
ATOM     68  C   UNL A   1      42.923  21.145  26.260  1.00  0.00     0.091 A 
ATOM     69  F   UNL A   1      42.228  21.640  28.437  1.00  0.00    -0.205 F 
ATOM     70  C   UNL A   1      43.673  21.459  25.127  1.00  0.00     0.022 A 
BRANCH  68  71
ATOM     71  S   UNL A   1      42.059  19.561  26.256  1.00  0.00     0.127 S 
ATOM     72  O   UNL A   1      42.528  18.958  25.007  1.00  0.00    -0.237 OA
ATOM     73  O   UNL A   1      42.568  18.923  27.467  1.00  0.00    -0.237 OA
ATOM     74  O   UNL A   1      40.634  19.869  26.268  1.00  0.00    -0.744 OA
ENDBRANCH  68  71
ENDBRANCH  50  64
BRANCH  51  75
ATOM     75  C   UNL A   1      41.534  31.532  32.029  1.00  0.00     0.023 A 
ATOM     76  C   UNL A   1      41.111  32.831  31.656  1.00  0.00     0.012 A 
ATOM     77  C   UNL A   1      40.617  30.683  32.674  1.00  0.00     0.148 A 
ATOM     78  C   UNL A   1      39.771  33.209  31.766  1.00  0.00     0.002 A 
ATOM     79  C   UNL A   1      39.283  31.076  32.796  1.00  0.00     0.091 A 
ATOM     80  F   UNL A   1      41.035  29.482  33.095  1.00  0.00    -0.205 F 
ATOM     81  C   UNL A   1      38.850  32.314  32.299  1.00  0.00     0.022 A 
BRANCH  79  82
ATOM     82  S   UNL A   1      38.042  29.965  33.478  1.00  0.00     0.127 S 
ATOM     83  O   UNL A   1      38.521  28.669  33.009  1.00  0.00    -0.237 OA
ATOM     84  O   UNL A   1      38.175  30.186  34.919  1.00  0.00    -0.237 OA
ATOM     85  O   UNL A   1      36.783  30.436  32.920  1.00  0.00    -0.744 OA
ENDBRANCH  79  82
ENDBRANCH  51  75
BRANCH  63  86
ATOM     86  C   UNL A   1      45.946  25.901  32.833  1.00  0.00     0.023 A 
ATOM     87  C   UNL A   1      47.335  25.776  33.029  1.00  0.00     0.012 A 
ATOM     88  C   UNL A   1      45.112  25.145  33.701  1.00  0.00     0.148 A 
ATOM     89  C   UNL A   1      47.873  24.912  33.991  1.00  0.00     0.002 A 
ATOM     90  C   UNL A   1      45.650  24.379  34.732  1.00  0.00     0.091 A 
ATOM     91  F   UNL A   1      43.782  25.151  33.524  1.00  0.00    -0.205 F 
ATOM     92  C   UNL A   1      47.031  24.232  34.861  1.00  0.00     0.022 A 
BRANCH  90  93
ATOM     93  S   UNL A   1      44.595  23.701  36.022  1.00  0.00     0.127 S 
ATOM     94  O   UNL A   1      43.853  22.669  35.301  1.00  0.00    -0.237 OA
ATOM     95  O   UNL A   1      45.566  23.186  36.990  1.00  0.00    -0.237 OA
ATOM     96  O   UNL A   1      43.819  24.835  36.506  1.00  0.00    -0.744 OA
ENDBRANCH  90  93
ENDBRANCH  63  86
ENDBRANCH  37  38
ENDBRANCH  29  32
ENDBRANCH  27  28
ENDBRANCH   1  27
TORSDOF 16
ENDMDL
MODEL 2
REMARK VINA RESULT:     -12.6      1.737      2.759
REMARK SMILES Cc1ccc(NC(=O)C[C@@H]2C[NH2+]CCO2)c(C(=O)NCCCNC(=O)c2ccc(-c3c4nc(c(-c5cccc(S(=O)(=O)[O-])c5F)c5ccc([nH]5)c(-c5cccc(S(=O)(=O)[O-])c5F)c5nc(c(-c6cccc(S(=O)(=O)[O-])c6F)c6ccc3[nH]6)C=C5)C=C4)cc2)c1
REMARK SMILES IDX 21 1 20 2 19 3 17 4 18 5 16 7 1 8 2 9 3 10 89 11 4 12 5 13
REMARK SMILES IDX 6 14 7 15 8 17 9 18 10 19 11 20 15 21 12 22 14 23 13 24
REMARK SMILES IDX 22 27 23 28 24 29 25 31 26 32 27 33 88 34 28 35 87 36 29 37
REMARK SMILES IDX 30 38 31 39 81 40 32 41 86 42 80 43 82 44 33 45 85 46 79 47
REMARK SMILES IDX 78 48 34 50 66 51 46 52 65 53 47 54 50 55 64 56 83 57 48 58
REMARK SMILES IDX 49 59 63 61 84 62 51 63 35 64 36 65 44 66 37 67 39 68 45 69
REMARK SMILES IDX 38 70 40 71 41 72 42 73 43 74 67 75 68 76 76 77 69 78 71 79
REMARK SMILES IDX 77 80 70 81 72 82 73 83 74 84 75 85 52 86 53 87 61 88 54 89
REMARK SMILES IDX 56 90 62 91 55 92 57 93 58 94 59 95 60 96
REMARK H PARENT 19 6 6 16 12 25 12 26 23 30 82 49 50 60
REMARK Flexibility Score: inf
ROOT
ATOM      1  C   UNL A   1      33.521  29.284  26.187  1.00  0.00     0.042 C 
ENDROOT
BRANCH   1   2
ATOM      2  C   UNL A   1      33.774  27.783  26.305  1.00  0.00     0.118 C 
BRANCH   2   3
ATOM      3  N   UNL A   1      32.951  27.038  25.362  1.00  0.00    -0.352 N 
ATOM      4  C   UNL A   1      32.951  25.707  25.000  1.00  0.00     0.253 C 
ATOM      5  O   UNL A   1      32.063  25.326  24.237  1.00  0.00    -0.269 OA
ATOM      6  H   UNL A   1      32.273  27.582  24.899  1.00  0.00     0.163 HD
BRANCH   4   7
ATOM      7  C   UNL A   1      33.917  24.711  25.569  1.00  0.00     0.063 A 
ATOM      8  C   UNL A   1      37.594  23.783  25.157  1.00  0.00     0.044 C 
ATOM      9  C   UNL A   1      36.204  23.827  25.717  1.00  0.00    -0.050 A 
ATOM     10  C   UNL A   1      35.818  23.034  26.788  1.00  0.00     0.005 A 
ATOM     11  C   UNL A   1      35.241  24.642  25.118  1.00  0.00     0.019 A 
ATOM     12  C   UNL A   1      34.475  22.996  27.177  1.00  0.00     0.027 A 
ATOM     13  C   UNL A   1      33.498  23.750  26.509  1.00  0.00     0.054 A 
BRANCH  13  14
ATOM     14  N   UNL A   1      32.114  23.508  26.685  1.00  0.00    -0.325 N 
ATOM     15  C   UNL A   1      31.257  22.666  26.032  1.00  0.00     0.227 C 
ATOM     16  H   UNL A   1      31.697  24.039  27.402  1.00  0.00     0.169 HD
ATOM     17  O   UNL A   1      30.060  22.680  26.344  1.00  0.00    -0.275 OA
BRANCH  15  18
ATOM     18  C   UNL A   1      31.708  21.718  24.940  1.00  0.00     0.138 C 
BRANCH  18  19
ATOM     19  C   UNL A   1      32.567  20.514  25.367  1.00  0.00     0.182 C 
ATOM     20  C   UNL A   1      33.947  20.621  24.662  1.00  0.00     0.293 C 
ATOM     21  O   UNL A   1      31.939  19.270  25.051  1.00  0.00    -0.366 OA
ATOM     22  N   UNL A   1      34.829  19.460  24.890  1.00  0.00    -0.342 N 
ATOM     23  C   UNL A   1      32.771  18.138  25.308  1.00  0.00     0.222 C 
ATOM     24  C   UNL A   1      34.083  18.240  24.524  1.00  0.00     0.289 C 
ATOM     25  H   UNL A   1      35.101  19.419  25.872  1.00  0.00     0.346 HD
ATOM     26  H   UNL A   1      35.674  19.541  24.324  1.00  0.00     0.346 HD
ENDBRANCH  18  19
ENDBRANCH  15  18
ENDBRANCH  13  14
ENDBRANCH   4   7
ENDBRANCH   2   3
ENDBRANCH   1   2
BRANCH   1  27
ATOM     27  C   UNL A   1      33.401  29.991  27.519  1.00  0.00     0.118 C 
BRANCH  27  28
ATOM     28  N   UNL A   1      34.245  31.169  27.621  1.00  0.00    -0.352 N 
ATOM     29  C   UNL A   1      35.535  31.266  28.106  1.00  0.00     0.251 C 
ATOM     30  H   UNL A   1      33.843  32.010  27.304  1.00  0.00     0.163 HD
ATOM     31  O   UNL A   1      36.026  32.382  28.270  1.00  0.00    -0.269 OA
BRANCH  29  32
ATOM     32  C   UNL A   1      36.346  30.033  28.260  1.00  0.00     0.039 A 
ATOM     33  C   UNL A   1      36.711  29.673  29.562  1.00  0.00     0.014 A 
ATOM     34  C   UNL A   1      36.974  29.444  27.167  1.00  0.00     0.014 A 
ATOM     35  C   UNL A   1      37.888  28.960  29.766  1.00  0.00     0.010 A 
ATOM     36  C   UNL A   1      38.191  28.832  27.364  1.00  0.00     0.010 A 
ATOM     37  C   UNL A   1      38.680  28.671  28.663  1.00  0.00    -0.014 A 
BRANCH  37  38
ATOM     38  C   UNL A   1      40.061  28.226  28.732  1.00  0.00     0.031 A 
ATOM     39  C   UNL A   1      40.364  26.791  28.629  1.00  0.00     0.074 A 
ATOM     40  C   UNL A   1      41.032  29.163  28.666  1.00  0.00     0.049 A 
ATOM     41  N   UNL A   1      41.520  26.269  28.847  1.00  0.00    -0.248 NA
ATOM     42  C   UNL A   1      39.337  25.815  28.294  1.00  0.00     0.031 C 
ATOM     43  C   UNL A   1      42.429  28.975  28.296  1.00  0.00     0.029 A 
ATOM     44  N   UNL A   1      40.982  30.477  29.147  1.00  0.00    -0.354 N 
ATOM     45  C   UNL A   1      41.470  24.961  28.413  1.00  0.00     0.074 A 
ATOM     46  C   UNL A   1      40.070  24.705  28.178  1.00  0.00     0.031 C 
ATOM     47  C   UNL A   1      43.147  29.988  28.808  1.00  0.00     0.029 A 
ATOM     48  C   UNL A   1      42.256  30.719  29.693  1.00  0.00     0.049 A 
ATOM     49  H   UNL A   1      40.219  31.098  29.111  1.00  0.00     0.167 HD
ATOM     50  C   UNL A   1      42.644  24.313  28.165  1.00  0.00     0.034 A 
ATOM     51  C   UNL A   1      42.472  30.928  31.029  1.00  0.00     0.034 A 
ATOM     52  C   UNL A   1      43.783  25.120  28.634  1.00  0.00     0.049 A 
ATOM     53  C   UNL A   1      43.464  29.946  31.636  1.00  0.00     0.074 A 
ATOM     54  C   UNL A   1      44.664  25.981  27.999  1.00  0.00     0.029 A 
ATOM     55  N   UNL A   1      43.941  25.336  29.998  1.00  0.00    -0.354 N 
ATOM     56  N   UNL A   1      43.882  28.862  31.042  1.00  0.00    -0.248 NA
ATOM     57  C   UNL A   1      44.042  30.096  32.969  1.00  0.00     0.031 C 
ATOM     58  C   UNL A   1      45.273  26.796  28.993  1.00  0.00     0.029 A 
ATOM     59  C   UNL A   1      44.795  26.403  30.232  1.00  0.00     0.049 A 
ATOM     60  H   UNL A   1      43.507  24.803  30.703  1.00  0.00     0.167 HD
ATOM     61  C   UNL A   1      44.651  28.121  31.900  1.00  0.00     0.074 A 
ATOM     62  C   UNL A   1      44.787  28.980  33.066  1.00  0.00     0.031 C 
ATOM     63  C   UNL A   1      45.052  26.846  31.601  1.00  0.00     0.034 A 
BRANCH  50  64
ATOM     64  C   UNL A   1      42.816  23.103  27.251  1.00  0.00     0.023 A 
ATOM     65  C   UNL A   1      42.129  21.920  27.614  1.00  0.00     0.012 A 
ATOM     66  C   UNL A   1      43.662  22.989  26.122  1.00  0.00     0.148 A 
ATOM     67  C   UNL A   1      42.335  20.693  26.967  1.00  0.00     0.002 A 
ATOM     68  C   UNL A   1      43.908  21.758  25.503  1.00  0.00     0.091 A 
ATOM     69  F   UNL A   1      44.193  24.078  25.571  1.00  0.00    -0.205 F 
ATOM     70  C   UNL A   1      43.250  20.605  25.930  1.00  0.00     0.022 A 
BRANCH  68  71
ATOM     71  S   UNL A   1      45.120  21.565  24.180  1.00  0.00     0.127 S 
ATOM     72  O   UNL A   1      46.367  21.396  24.928  1.00  0.00    -0.237 OA
ATOM     73  O   UNL A   1      44.652  20.359  23.500  1.00  0.00    -0.237 OA
ATOM     74  O   UNL A   1      45.063  22.787  23.388  1.00  0.00    -0.744 OA
ENDBRANCH  68  71
ENDBRANCH  50  64
BRANCH  51  75
ATOM     75  C   UNL A   1      41.294  31.509  31.746  1.00  0.00     0.023 A 
ATOM     76  C   UNL A   1      40.839  32.777  31.310  1.00  0.00     0.012 A 
ATOM     77  C   UNL A   1      40.427  30.705  32.507  1.00  0.00     0.148 A 
ATOM     78  C   UNL A   1      39.506  33.158  31.479  1.00  0.00     0.002 A 
ATOM     79  C   UNL A   1      39.101  31.103  32.687  1.00  0.00     0.091 A 
ATOM     80  F   UNL A   1      40.880  29.539  32.984  1.00  0.00    -0.205 F 
ATOM     81  C   UNL A   1      38.628  32.301  32.132  1.00  0.00     0.022 A 
BRANCH  79  82
ATOM     82  S   UNL A   1      37.915  30.039  33.525  1.00  0.00     0.127 S 
ATOM     83  O   UNL A   1      38.179  30.354  34.925  1.00  0.00    -0.237 OA
ATOM     84  O   UNL A   1      36.633  30.529  33.015  1.00  0.00    -0.237 OA
ATOM     85  O   UNL A   1      38.254  28.695  33.084  1.00  0.00    -0.744 OA
ENDBRANCH  79  82
ENDBRANCH  51  75
BRANCH  63  86
ATOM     86  C   UNL A   1      45.691  25.869  32.573  1.00  0.00     0.023 A 
ATOM     87  C   UNL A   1      47.086  25.772  32.738  1.00  0.00     0.012 A 
ATOM     88  C   UNL A   1      44.890  25.124  33.481  1.00  0.00     0.148 A 
ATOM     89  C   UNL A   1      47.661  24.944  33.709  1.00  0.00     0.002 A 
ATOM     90  C   UNL A   1      45.467  24.395  34.519  1.00  0.00     0.091 A 
ATOM     91  F   UNL A   1      43.557  25.103  33.336  1.00  0.00    -0.205 F 
ATOM     92  C   UNL A   1      46.853  24.275  34.618  1.00  0.00     0.022 A 
BRANCH  90  93
ATOM     93  S   UNL A   1      44.454  23.736  35.853  1.00  0.00     0.127 S 
ATOM     94  O   UNL A   1      43.760  24.930  36.330  1.00  0.00    -0.237 OA
ATOM     95  O   UNL A   1      43.597  22.775  35.155  1.00  0.00    -0.237 OA
ATOM     96  O   UNL A   1      45.401  23.126  36.776  1.00  0.00    -0.744 OA
ENDBRANCH  90  93
ENDBRANCH  63  86
ENDBRANCH  37  38
ENDBRANCH  29  32
ENDBRANCH  27  28
ENDBRANCH   1  27
TORSDOF 16
ENDMDL
MODEL 3
REMARK VINA RESULT:     -12.4      1.838      2.317
REMARK SMILES Cc1ccc(NC(=O)C[C@@H]2C[NH2+]CCO2)c(C(=O)NCCCNC(=O)c2ccc(-c3c4nc(c(-c5cccc(S(=O)(=O)[O-])c5F)c5ccc([nH]5)c(-c5cccc(S(=O)(=O)[O-])c5F)c5nc(c(-c6cccc(S(=O)(=O)[O-])c6F)c6ccc3[nH]6)C=C5)C=C4)cc2)c1
REMARK SMILES IDX 21 1 20 2 19 3 17 4 18 5 16 7 1 8 2 9 3 10 89 11 4 12 5 13
REMARK SMILES IDX 6 14 7 15 8 17 9 18 10 19 11 20 15 21 12 22 14 23 13 24
REMARK SMILES IDX 22 27 23 28 24 29 25 31 26 32 27 33 88 34 28 35 87 36 29 37
REMARK SMILES IDX 30 38 31 39 81 40 32 41 86 42 80 43 82 44 33 45 85 46 79 47
REMARK SMILES IDX 78 48 34 50 66 51 46 52 65 53 47 54 50 55 64 56 83 57 48 58
REMARK SMILES IDX 49 59 63 61 84 62 51 63 35 64 36 65 44 66 37 67 39 68 45 69
REMARK SMILES IDX 38 70 40 71 41 72 42 73 43 74 67 75 68 76 76 77 69 78 71 79
REMARK SMILES IDX 77 80 70 81 72 82 73 83 74 84 75 85 52 86 53 87 61 88 54 89
REMARK SMILES IDX 56 90 62 91 55 92 57 93 58 94 59 95 60 96
REMARK H PARENT 19 6 6 16 12 25 12 26 23 30 82 49 50 60
REMARK Flexibility Score: inf
ROOT
ATOM      1  C   UNL A   1      34.988  29.495  26.966  1.00  0.00     0.042 C 
ENDROOT
BRANCH   1   2
ATOM      2  C   UNL A   1      33.878  28.783  26.197  1.00  0.00     0.118 C 
BRANCH   2   3
ATOM      3  N   UNL A   1      32.789  28.399  27.085  1.00  0.00    -0.352 N 
ATOM      4  C   UNL A   1      31.553  27.844  26.830  1.00  0.00     0.253 C 
ATOM      5  O   UNL A   1      30.861  27.528  27.798  1.00  0.00    -0.269 OA
ATOM      6  H   UNL A   1      32.967  28.568  28.039  1.00  0.00     0.163 HD
BRANCH   4   7
ATOM      7  C   UNL A   1      31.075  27.530  25.443  1.00  0.00     0.063 A 
ATOM      8  C   UNL A   1      30.331  29.418  22.212  1.00  0.00     0.044 C 
ATOM      9  C   UNL A   1      30.563  28.279  23.160  1.00  0.00    -0.050 A 
ATOM     10  C   UNL A   1      30.425  26.956  22.767  1.00  0.00     0.005 A 
ATOM     11  C   UNL A   1      30.873  28.542  24.496  1.00  0.00     0.019 A 
ATOM     12  C   UNL A   1      30.503  25.935  23.721  1.00  0.00     0.027 A 
ATOM     13  C   UNL A   1      30.723  26.217  25.077  1.00  0.00     0.054 A 
BRANCH  13  14
ATOM     14  N   UNL A   1      30.513  25.248  26.088  1.00  0.00    -0.325 N 
ATOM     15  C   UNL A   1      31.356  24.321  26.637  1.00  0.00     0.227 C 
ATOM     16  H   UNL A   1      29.600  25.238  26.458  1.00  0.00     0.169 HD
ATOM     17  O   UNL A   1      30.907  23.538  27.483  1.00  0.00    -0.275 OA
BRANCH  15  18
ATOM     18  C   UNL A   1      32.817  24.208  26.252  1.00  0.00     0.138 C 
BRANCH  18  19
ATOM     19  C   UNL A   1      33.160  23.299  25.058  1.00  0.00     0.182 C 
ATOM     20  C   UNL A   1      34.067  24.093  24.080  1.00  0.00     0.293 C 
ATOM     21  O   UNL A   1      31.987  22.834  24.386  1.00  0.00    -0.366 OA
ATOM     22  N   UNL A   1      34.372  23.377  22.826  1.00  0.00    -0.342 N 
ATOM     23  C   UNL A   1      32.274  22.103  23.194  1.00  0.00     0.222 C 
ATOM     24  C   UNL A   1      33.094  22.954  22.220  1.00  0.00     0.289 C 
ATOM     25  H   UNL A   1      34.948  22.560  23.025  1.00  0.00     0.346 HD
ATOM     26  H   UNL A   1      34.883  23.985  22.186  1.00  0.00     0.346 HD
ENDBRANCH  18  19
ENDBRANCH  15  18
ENDBRANCH  13  14
ENDBRANCH   4   7
ENDBRANCH   2   3
ENDBRANCH   1   2
BRANCH   1  27
ATOM     27  C   UNL A   1      34.517  30.701  27.747  1.00  0.00     0.118 C 
BRANCH  27  28
ATOM     28  N   UNL A   1      35.549  31.708  27.926  1.00  0.00    -0.352 N 
ATOM     29  C   UNL A   1      36.871  31.533  28.288  1.00  0.00     0.251 C 
ATOM     30  H   UNL A   1      35.269  32.638  27.770  1.00  0.00     0.163 HD
ATOM     31  O   UNL A   1      37.550  32.523  28.555  1.00  0.00    -0.269 OA
BRANCH  29  32
ATOM     32  C   UNL A   1      37.477  30.182  28.189  1.00  0.00     0.039 A 
ATOM     33  C   UNL A   1      37.425  29.378  29.333  1.00  0.00     0.014 A 
ATOM     34  C   UNL A   1      38.323  29.849  27.136  1.00  0.00     0.014 A 
ATOM     35  C   UNL A   1      38.419  28.428  29.543  1.00  0.00     0.010 A 
ATOM     36  C   UNL A   1      39.367  28.988  27.383  1.00  0.00     0.010 A 
ATOM     37  C   UNL A   1      39.455  28.347  28.622  1.00  0.00    -0.014 A 
BRANCH  37  38
ATOM     38  C   UNL A   1      40.709  27.650  28.849  1.00  0.00     0.031 A 
ATOM     39  C   UNL A   1      40.761  26.188  28.694  1.00  0.00     0.074 A 
ATOM     40  C   UNL A   1      41.831  28.391  28.975  1.00  0.00     0.049 A 
ATOM     41  N   UNL A   1      41.761  25.452  29.033  1.00  0.00    -0.248 NA
ATOM     42  C   UNL A   1      39.636  25.435  28.160  1.00  0.00     0.031 C 
ATOM     43  C   UNL A   1      43.210  27.961  28.787  1.00  0.00     0.029 A 
ATOM     44  N   UNL A   1      41.948  29.672  29.530  1.00  0.00    -0.354 N 
ATOM     45  C   UNL A   1      41.541  24.194  28.512  1.00  0.00     0.074 A 
ATOM     46  C   UNL A   1      40.167  24.213  28.073  1.00  0.00     0.031 C 
ATOM     47  C   UNL A   1      44.016  28.800  29.457  1.00  0.00     0.029 A 
ATOM     48  C   UNL A   1      43.151  29.650  30.259  1.00  0.00     0.049 A 
ATOM     49  H   UNL A   1      41.322  30.425  29.431  1.00  0.00     0.167 HD
ATOM     50  C   UNL A   1      42.603  23.348  28.384  1.00  0.00     0.034 A 
ATOM     51  C   UNL A   1      43.205  29.763  31.622  1.00  0.00     0.034 A 
ATOM     52  C   UNL A   1      43.788  23.910  29.055  1.00  0.00     0.049 A 
ATOM     53  C   UNL A   1      43.906  28.590  32.293  1.00  0.00     0.074 A 
ATOM     54  C   UNL A   1      44.892  24.616  28.602  1.00  0.00     0.029 A 
ATOM     55  N   UNL A   1      43.783  24.040  30.439  1.00  0.00    -0.354 N 
ATOM     56  N   UNL A   1      44.205  27.471  31.692  1.00  0.00    -0.248 NA
ATOM     57  C   UNL A   1      44.302  28.578  33.699  1.00  0.00     0.031 C 
ATOM     58  C   UNL A   1      45.486  25.264  29.721  1.00  0.00     0.029 A 
ATOM     59  C   UNL A   1      44.771  24.919  30.855  1.00  0.00     0.049 A 
ATOM     60  H   UNL A   1      43.162  23.570  31.042  1.00  0.00     0.167 HD
ATOM     61  C   UNL A   1      44.696  26.567  32.596  1.00  0.00     0.074 A 
ATOM     62  C   UNL A   1      44.812  27.339  33.823  1.00  0.00     0.031 C 
ATOM     63  C   UNL A   1      44.901  25.253  32.272  1.00  0.00     0.034 A 
BRANCH  50  64
ATOM     64  C   UNL A   1      42.686  22.164  27.425  1.00  0.00     0.023 A 
ATOM     65  C   UNL A   1      41.809  21.080  27.664  1.00  0.00     0.012 A 
ATOM     66  C   UNL A   1      43.608  21.974  26.368  1.00  0.00     0.148 A 
ATOM     67  C   UNL A   1      41.899  19.864  26.973  1.00  0.00     0.002 A 
ATOM     68  C   UNL A   1      43.735  20.746  25.708  1.00  0.00     0.091 A 
ATOM     69  F   UNL A   1      44.336  22.995  25.924  1.00  0.00    -0.205 F 
ATOM     70  C   UNL A   1      42.884  19.685  26.015  1.00  0.00     0.022 A 
BRANCH  68  71
ATOM     71  S   UNL A   1      45.024  20.433  24.485  1.00  0.00     0.127 S 
ATOM     72  O   UNL A   1      44.662  21.359  23.411  1.00  0.00    -0.237 OA
ATOM     73  O   UNL A   1      46.239  20.792  25.213  1.00  0.00    -0.237 OA
ATOM     74  O   UNL A   1      44.912  19.027  24.119  1.00  0.00    -0.744 OA
ENDBRANCH  68  71
ENDBRANCH  50  64
BRANCH  51  75
ATOM     75  C   UNL A   1      42.059  30.525  32.209  1.00  0.00     0.023 A 
ATOM     76  C   UNL A   1      41.923  31.880  31.821  1.00  0.00     0.012 A 
ATOM     77  C   UNL A   1      40.947  29.868  32.766  1.00  0.00     0.148 A 
ATOM     78  C   UNL A   1      40.676  32.508  31.828  1.00  0.00     0.002 A 
ATOM     79  C   UNL A   1      39.708  30.510  32.786  1.00  0.00     0.091 A 
ATOM     80  F   UNL A   1      41.093  28.611  33.202  1.00  0.00    -0.205 F 
ATOM     81  C   UNL A   1      39.561  31.807  32.273  1.00  0.00     0.022 A 
BRANCH  79  82
ATOM     82  S   UNL A   1      38.226  29.658  33.351  1.00  0.00     0.127 S 
ATOM     83  O   UNL A   1      37.183  30.372  32.623  1.00  0.00    -0.237 OA
ATOM     84  O   UNL A   1      38.459  28.284  32.905  1.00  0.00    -0.237 OA
ATOM     85  O   UNL A   1      38.240  29.822  34.797  1.00  0.00    -0.744 OA
ENDBRANCH  79  82
ENDBRANCH  51  75
BRANCH  63  86
ATOM     86  C   UNL A   1      45.206  24.136  33.256  1.00  0.00     0.023 A 
ATOM     87  C   UNL A   1      44.321  23.064  33.479  1.00  0.00     0.012 A 
ATOM     88  C   UNL A   1      46.483  24.044  33.872  1.00  0.00     0.148 A 
ATOM     89  C   UNL A   1      44.656  21.986  34.308  1.00  0.00     0.002 A 
ATOM     90  C   UNL A   1      46.853  22.914  34.599  1.00  0.00     0.091 A 
ATOM     91  F   UNL A   1      47.350  25.063  33.771  1.00  0.00    -0.205 F 
ATOM     92  C   UNL A   1      45.932  21.897  34.848  1.00  0.00     0.022 A 
BRANCH  90  93
ATOM     93  S   UNL A   1      48.565  22.656  35.089  1.00  0.00     0.127 S 
ATOM     94  O   UNL A   1      48.727  23.630  36.165  1.00  0.00    -0.237 OA
ATOM     95  O   UNL A   1      48.562  21.259  35.530  1.00  0.00    -0.237 OA
ATOM     96  O   UNL A   1      49.341  22.894  33.879  1.00  0.00    -0.744 OA
ENDBRANCH  90  93
ENDBRANCH  63  86
ENDBRANCH  37  38
ENDBRANCH  29  32
ENDBRANCH  27  28
ENDBRANCH   1  27
TORSDOF 16
ENDMDL
