MODEL 1
REMARK VINA RESULT:      -9.8      0.000      0.000
REMARK SMILES C#CC[C@]1(C(=O)NCCCNC(=O)c2ccc(-c3c4nc(c(-c5cccc(S(=O)(=O)[O-])c5F)c5ccc([nH]5)c(-c5cccc(S(=O)(=O)[O-])c5F)c5nc(c(-c6cccc(S(=O)(=O)[O-])c6F)c6ccc3[nH]6)C=C5)C=C4)cc2)CC[C@@H](C)C1
REMARK SMILES IDX 9 1 8 2 7 3 5 4 6 5 4 7 77 8 81 9 78 10 79 11 80 12 3 13
REMARK SMILES IDX 2 14 1 15 10 16 11 17 12 18 13 20 14 21 15 22 76 23 16 24
REMARK SMILES IDX 75 25 17 26 18 27 19 28 69 29 20 30 74 31 68 32 70 33 21 34
REMARK SMILES IDX 73 35 67 36 66 37 22 39 54 40 34 41 53 42 35 43 38 44 52 45
REMARK SMILES IDX 71 46 36 47 37 48 51 50 72 51 39 52 23 53 24 54 32 55 25 56
REMARK SMILES IDX 27 57 33 58 26 59 28 60 29 61 30 62 31 63 55 64 56 65 64 66
REMARK SMILES IDX 57 67 59 68 65 69 58 70 60 71 61 72 62 73 63 74 40 75 41 76
REMARK SMILES IDX 49 77 42 78 44 79 50 80 43 81 45 82 46 83 47 84 48 85
REMARK H PARENT 7 6 11 19 70 38 38 49
REMARK Flexibility Score: inf
ROOT
ATOM      1  C   UNL A   1      41.953  20.970  26.689  1.00  0.00     0.042 C 
ENDROOT
BRANCH   1   2
ATOM      2  C   UNL A   1      42.544  22.030  25.775  1.00  0.00     0.117 C 
BRANCH   2   3
ATOM      3  N   UNL A   1      43.981  21.941  25.626  1.00  0.00    -0.356 N 
ATOM      4  C   UNL A   1      45.011  22.641  26.158  1.00  0.00     0.227 C 
ATOM      5  O   UNL A   1      46.113  22.080  26.068  1.00  0.00    -0.274 OA
ATOM      6  H   UNL A   1      44.267  21.228  25.012  1.00  0.00     0.163 HD
BRANCH   4   7
ATOM      7  C   UNL A   1      44.914  24.017  26.866  1.00  0.00     0.060 C 
ATOM      8  C   UNL A   1      46.056  24.402  27.834  1.00  0.00     0.018 C 
ATOM      9  C   UNL A   1      44.944  25.151  25.812  1.00  0.00     0.021 C 
ATOM     10  C   UNL A   1      46.960  25.416  27.120  1.00  0.00     0.004 C 
ATOM     11  C   UNL A   1      46.388  25.646  25.723  1.00  0.00    -0.013 C 
ATOM     12  C   UNL A   1      47.183  24.992  24.595  1.00  0.00     0.007 C 
BRANCH   7  13
ATOM     13  C   UNL A   1      43.484  23.969  27.535  1.00  0.00     0.106 C 
BRANCH  13  14
ATOM     14  C   UNL A   1      43.543  23.559  28.996  1.00  0.00    -0.106 C 
ATOM     15  C   UNL A   1      43.595  23.205  30.251  1.00  0.00     0.004 C 
ENDBRANCH  13  14
ENDBRANCH   7  13
ENDBRANCH   4   7
ENDBRANCH   2   3
ENDBRANCH   1   2
BRANCH   1  16
ATOM     16  C   UNL A   1      40.789  21.496  27.508  1.00  0.00     0.118 C 
BRANCH  16  17
ATOM     17  N   UNL A   1      39.595  21.729  26.690  1.00  0.00    -0.352 N 
ATOM     18  C   UNL A   1      38.894  22.887  26.462  1.00  0.00     0.251 C 
ATOM     19  H   UNL A   1      39.240  20.932  26.235  1.00  0.00     0.163 HD
ATOM     20  O   UNL A   1      37.811  22.850  25.895  1.00  0.00    -0.269 OA
BRANCH  18  21
ATOM     21  C   UNL A   1      39.458  24.172  26.920  1.00  0.00     0.039 A 
ATOM     22  C   UNL A   1      40.121  24.998  26.008  1.00  0.00     0.014 A 
ATOM     23  C   UNL A   1      39.301  24.563  28.250  1.00  0.00     0.014 A 
ATOM     24  C   UNL A   1      40.561  26.258  26.419  1.00  0.00     0.010 A 
ATOM     25  C   UNL A   1      39.642  25.850  28.624  1.00  0.00     0.010 A 
ATOM     26  C   UNL A   1      40.290  26.705  27.720  1.00  0.00    -0.014 A 
BRANCH  26  27
ATOM     27  C   UNL A   1      40.686  28.046  28.209  1.00  0.00     0.031 A 
ATOM     28  C   UNL A   1      42.149  28.345  28.393  1.00  0.00     0.074 A 
ATOM     29  C   UNL A   1      39.749  28.908  28.647  1.00  0.00     0.049 A 
ATOM     30  N   UNL A   1      42.718  29.324  29.041  1.00  0.00    -0.248 NA
ATOM     31  C   UNL A   1      43.096  27.367  27.826  1.00  0.00     0.031 C 
ATOM     32  C   UNL A   1      38.302  28.688  28.598  1.00  0.00     0.029 A 
ATOM     33  N   UNL A   1      39.878  30.124  29.269  1.00  0.00    -0.354 N 
ATOM     34  C   UNL A   1      44.077  29.036  29.034  1.00  0.00     0.074 A 
ATOM     35  C   UNL A   1      44.244  27.778  28.341  1.00  0.00     0.031 C 
ATOM     36  C   UNL A   1      37.679  29.726  29.175  1.00  0.00     0.029 A 
ATOM     37  C   UNL A   1      38.679  30.667  29.668  1.00  0.00     0.049 A 
ATOM     38  H   UNL A   1      40.746  30.565  29.415  1.00  0.00     0.167 HD
ATOM     39  C   UNL A   1      45.099  29.768  29.537  1.00  0.00     0.034 A 
ATOM     40  C   UNL A   1      38.421  31.789  30.368  1.00  0.00     0.034 A 
ATOM     41  C   UNL A   1      44.924  31.064  30.131  1.00  0.00     0.049 A 
ATOM     42  C   UNL A   1      39.573  32.654  30.802  1.00  0.00     0.074 A 
ATOM     43  C   UNL A   1      45.893  31.953  30.558  1.00  0.00     0.029 A 
ATOM     44  N   UNL A   1      43.695  31.663  30.362  1.00  0.00    -0.354 N 
ATOM     45  N   UNL A   1      40.859  32.439  30.662  1.00  0.00    -0.248 NA
ATOM     46  C   UNL A   1      39.245  33.929  31.453  1.00  0.00     0.031 C 
ATOM     47  C   UNL A   1      45.246  33.094  31.044  1.00  0.00     0.029 A 
ATOM     48  C   UNL A   1      43.878  32.917  30.912  1.00  0.00     0.049 A 
ATOM     49  H   UNL A   1      42.822  31.255  30.162  1.00  0.00     0.167 HD
ATOM     50  C   UNL A   1      41.494  33.566  31.172  1.00  0.00     0.074 A 
ATOM     51  C   UNL A   1      40.448  34.466  31.615  1.00  0.00     0.031 C 
ATOM     52  C   UNL A   1      42.819  33.825  31.275  1.00  0.00     0.034 A 
BRANCH  39  53
ATOM     53  C   UNL A   1      46.489  29.209  29.400  1.00  0.00     0.023 A 
ATOM     54  C   UNL A   1      47.025  28.411  30.431  1.00  0.00     0.012 A 
ATOM     55  C   UNL A   1      47.262  29.457  28.249  1.00  0.00     0.148 A 
ATOM     56  C   UNL A   1      48.323  27.910  30.343  1.00  0.00     0.002 A 
ATOM     57  C   UNL A   1      48.539  28.914  28.147  1.00  0.00     0.091 A 
ATOM     58  F   UNL A   1      46.753  30.241  27.287  1.00  0.00    -0.205 F 
ATOM     59  C   UNL A   1      49.076  28.154  29.199  1.00  0.00     0.022 A 
BRANCH  57  60
ATOM     60  S   UNL A   1      49.545  29.111  26.671  1.00  0.00     0.127 S 
ATOM     61  O   UNL A   1      48.717  28.459  25.659  1.00  0.00    -0.237 OA
ATOM     62  O   UNL A   1      49.630  30.567  26.541  1.00  0.00    -0.237 OA
ATOM     63  O   UNL A   1      50.813  28.462  26.972  1.00  0.00    -0.744 OA
ENDBRANCH  57  60
ENDBRANCH  39  53
BRANCH  40  64
ATOM     64  C   UNL A   1      37.007  32.190  30.614  1.00  0.00     0.023 A 
ATOM     65  C   UNL A   1      36.459  32.006  31.898  1.00  0.00     0.012 A 
ATOM     66  C   UNL A   1      36.233  32.822  29.620  1.00  0.00     0.148 A 
ATOM     67  C   UNL A   1      35.160  32.425  32.185  1.00  0.00     0.002 A 
ATOM     68  C   UNL A   1      34.957  33.282  29.927  1.00  0.00     0.091 A 
ATOM     69  F   UNL A   1      36.773  32.986  28.405  1.00  0.00    -0.205 F 
ATOM     70  C   UNL A   1      34.414  33.072  31.205  1.00  0.00     0.022 A 
BRANCH  68  71
ATOM     71  S   UNL A   1      33.971  34.245  28.772  1.00  0.00     0.127 S 
ATOM     72  O   UNL A   1      33.641  33.249  27.757  1.00  0.00    -0.237 OA
ATOM     73  O   UNL A   1      32.848  34.664  29.613  1.00  0.00    -0.237 OA
ATOM     74  O   UNL A   1      34.831  35.336  28.334  1.00  0.00    -0.744 OA
ENDBRANCH  68  71
ENDBRANCH  40  64
BRANCH  52  75
ATOM     75  C   UNL A   1      43.234  35.154  31.844  1.00  0.00     0.023 A 
ATOM     76  C   UNL A   1      43.440  35.285  33.230  1.00  0.00     0.012 A 
ATOM     77  C   UNL A   1      43.541  36.230  30.989  1.00  0.00     0.148 A 
ATOM     78  C   UNL A   1      43.936  36.476  33.760  1.00  0.00     0.002 A 
ATOM     79  C   UNL A   1      44.074  37.398  31.519  1.00  0.00     0.091 A 
ATOM     80  F   UNL A   1      43.316  36.087  29.674  1.00  0.00    -0.205 F 
ATOM     81  C   UNL A   1      44.266  37.525  32.904  1.00  0.00     0.022 A 
BRANCH  79  82
ATOM     82  S   UNL A   1      44.619  38.761  30.483  1.00  0.00     0.127 S 
ATOM     83  O   UNL A   1      43.364  39.184  29.863  1.00  0.00    -0.237 OA
ATOM     84  O   UNL A   1      45.161  39.701  31.465  1.00  0.00    -0.237 OA
ATOM     85  O   UNL A   1      45.609  38.202  29.572  1.00  0.00    -0.744 OA
ENDBRANCH  79  82
ENDBRANCH  52  75
ENDBRANCH  26  27
ENDBRANCH  18  21
ENDBRANCH  16  17
ENDBRANCH   1  16
TORSDOF 15
ENDMDL
MODEL 2
REMARK VINA RESULT:      -9.6      5.763      9.002
REMARK SMILES C#CC[C@]1(C(=O)NCCCNC(=O)c2ccc(-c3c4nc(c(-c5cccc(S(=O)(=O)[O-])c5F)c5ccc([nH]5)c(-c5cccc(S(=O)(=O)[O-])c5F)c5nc(c(-c6cccc(S(=O)(=O)[O-])c6F)c6ccc3[nH]6)C=C5)C=C4)cc2)CC[C@@H](C)C1
REMARK SMILES IDX 9 1 8 2 7 3 5 4 6 5 4 7 77 8 81 9 78 10 79 11 80 12 3 13
REMARK SMILES IDX 2 14 1 15 10 16 11 17 12 18 13 20 14 21 15 22 76 23 16 24
REMARK SMILES IDX 75 25 17 26 18 27 19 28 69 29 20 30 74 31 68 32 70 33 21 34
REMARK SMILES IDX 73 35 67 36 66 37 22 39 54 40 34 41 53 42 35 43 38 44 52 45
REMARK SMILES IDX 71 46 36 47 37 48 51 50 72 51 39 52 23 53 24 54 32 55 25 56
REMARK SMILES IDX 27 57 33 58 26 59 28 60 29 61 30 62 31 63 55 64 56 65 64 66
REMARK SMILES IDX 57 67 59 68 65 69 58 70 60 71 61 72 62 73 63 74 40 75 41 76
REMARK SMILES IDX 49 77 42 78 44 79 50 80 43 81 45 82 46 83 47 84 48 85
REMARK H PARENT 7 6 11 19 70 38 38 49
REMARK Flexibility Score: inf
ROOT
ATOM      1  C   UNL A   1      33.025  27.603  25.718  1.00  0.00     0.042 C 
ENDROOT
BRANCH   1   2
ATOM      2  C   UNL A   1      32.323  26.849  24.601  1.00  0.00     0.117 C 
BRANCH   2   3
ATOM      3  N   UNL A   1      33.224  26.164  23.699  1.00  0.00    -0.356 N 
ATOM      4  C   UNL A   1      33.452  24.854  23.438  1.00  0.00     0.227 C 
ATOM      5  O   UNL A   1      34.052  24.641  22.374  1.00  0.00    -0.274 OA
ATOM      6  H   UNL A   1      33.784  26.773  23.168  1.00  0.00     0.163 HD
BRANCH   4   7
ATOM      7  C   UNL A   1      33.012  23.656  24.318  1.00  0.00     0.060 C 
ATOM      8  C   UNL A   1      33.554  22.258  23.939  1.00  0.00     0.018 C 
ATOM      9  C   UNL A   1      33.525  23.854  25.766  1.00  0.00     0.021 C 
ATOM     10  C   UNL A   1      34.675  21.901  24.924  1.00  0.00     0.004 C 
ATOM     11  C   UNL A   1      34.832  23.071  25.894  1.00  0.00    -0.013 C 
ATOM     12  C   UNL A   1      36.075  23.927  25.662  1.00  0.00     0.007 C 
BRANCH   7  13
ATOM     13  C   UNL A   1      31.437  23.768  24.306  1.00  0.00     0.106 C 
BRANCH  13  14
ATOM     14  C   UNL A   1      30.817  23.336  25.624  1.00  0.00    -0.106 C 
ATOM     15  C   UNL A   1      30.286  22.966  26.756  1.00  0.00     0.004 C 
ENDBRANCH  13  14
ENDBRANCH   7  13
ENDBRANCH   4   7
ENDBRANCH   2   3
ENDBRANCH   1   2
BRANCH   1  16
ATOM     16  C   UNL A   1      33.623  28.915  25.244  1.00  0.00     0.118 C 
BRANCH  16  17
ATOM     17  N   UNL A   1      32.929  30.077  25.805  1.00  0.00    -0.352 N 
ATOM     18  C   UNL A   1      33.258  30.870  26.875  1.00  0.00     0.251 C 
ATOM     19  H   UNL A   1      32.096  30.328  25.343  1.00  0.00     0.163 HD
ATOM     20  O   UNL A   1      32.458  31.686  27.308  1.00  0.00    -0.269 OA
BRANCH  18  21
ATOM     21  C   UNL A   1      34.587  30.716  27.503  1.00  0.00     0.039 A 
ATOM     22  C   UNL A   1      35.424  31.828  27.626  1.00  0.00     0.014 A 
ATOM     23  C   UNL A   1      34.981  29.471  27.992  1.00  0.00     0.014 A 
ATOM     24  C   UNL A   1      36.634  31.702  28.312  1.00  0.00     0.010 A 
ATOM     25  C   UNL A   1      36.126  29.375  28.761  1.00  0.00     0.010 A 
ATOM     26  C   UNL A   1      36.973  30.483  28.916  1.00  0.00    -0.014 A 
BRANCH  26  27
ATOM     27  C   UNL A   1      38.217  30.291  29.698  1.00  0.00     0.031 A 
ATOM     28  C   UNL A   1      39.272  29.363  29.160  1.00  0.00     0.074 A 
ATOM     29  C   UNL A   1      38.316  30.796  30.942  1.00  0.00     0.049 A 
ATOM     30  N   UNL A   1      40.301  28.840  29.768  1.00  0.00    -0.248 NA
ATOM     31  C   UNL A   1      39.102  28.912  27.766  1.00  0.00     0.031 C 
ATOM     32  C   UNL A   1      37.315  31.637  31.599  1.00  0.00     0.029 A 
ATOM     33  N   UNL A   1      39.287  30.628  31.896  1.00  0.00    -0.354 N 
ATOM     34  C   UNL A   1      40.848  27.937  28.865  1.00  0.00     0.074 A 
ATOM     35  C   UNL A   1      40.023  27.965  27.678  1.00  0.00     0.031 C 
ATOM     36  C   UNL A   1      37.717  31.903  32.852  1.00  0.00     0.029 A 
ATOM     37  C   UNL A   1      38.983  31.222  33.099  1.00  0.00     0.049 A 
ATOM     38  H   UNL A   1      40.121  30.130  31.735  1.00  0.00     0.167 HD
ATOM     39  C   UNL A   1      41.957  27.171  29.002  1.00  0.00     0.034 A 
ATOM     40  C   UNL A   1      39.646  31.203  34.272  1.00  0.00     0.034 A 
ATOM     41  C   UNL A   1      42.822  27.233  30.146  1.00  0.00     0.049 A 
ATOM     42  C   UNL A   1      40.946  30.450  34.358  1.00  0.00     0.074 A 
ATOM     43  C   UNL A   1      44.038  26.604  30.341  1.00  0.00     0.029 A 
ATOM     44  N   UNL A   1      42.570  27.987  31.282  1.00  0.00    -0.354 N 
ATOM     45  N   UNL A   1      41.529  29.712  33.444  1.00  0.00    -0.248 NA
ATOM     46  C   UNL A   1      41.699  30.555  35.615  1.00  0.00     0.031 C 
ATOM     47  C   UNL A   1      44.522  26.982  31.598  1.00  0.00     0.029 A 
ATOM     48  C   UNL A   1      43.612  27.851  32.179  1.00  0.00     0.049 A 
ATOM     49  H   UNL A   1      41.767  28.537  31.428  1.00  0.00     0.167 HD
ATOM     50  C   UNL A   1      42.733  29.296  33.999  1.00  0.00     0.074 A 
ATOM     51  C   UNL A   1      42.800  29.874  35.327  1.00  0.00     0.031 C 
ATOM     52  C   UNL A   1      43.690  28.498  33.464  1.00  0.00     0.034 A 
BRANCH  39  53
ATOM     53  C   UNL A   1      42.322  26.264  27.858  1.00  0.00     0.023 A 
ATOM     54  C   UNL A   1      43.181  26.733  26.844  1.00  0.00     0.012 A 
ATOM     55  C   UNL A   1      41.833  24.945  27.791  1.00  0.00     0.148 A 
ATOM     56  C   UNL A   1      43.507  25.924  25.756  1.00  0.00     0.002 A 
ATOM     57  C   UNL A   1      42.201  24.128  26.727  1.00  0.00     0.091 A 
ATOM     58  F   UNL A   1      40.994  24.519  28.747  1.00  0.00    -0.205 F 
ATOM     59  C   UNL A   1      43.025  24.620  25.702  1.00  0.00     0.022 A 
BRANCH  57  60
ATOM     60  S   UNL A   1      41.690  22.408  26.624  1.00  0.00     0.127 S 
ATOM     61  O   UNL A   1      42.322  21.984  25.377  1.00  0.00    -0.237 OA
ATOM     62  O   UNL A   1      42.282  21.832  27.832  1.00  0.00    -0.237 OA
ATOM     63  O   UNL A   1      40.234  22.432  26.624  1.00  0.00    -0.744 OA
ENDBRANCH  57  60
ENDBRANCH  39  53
BRANCH  40  64
ATOM     64  C   UNL A   1      39.126  31.997  35.421  1.00  0.00     0.023 A 
ATOM     65  C   UNL A   1      39.189  33.403  35.362  1.00  0.00     0.012 A 
ATOM     66  C   UNL A   1      38.500  31.383  36.523  1.00  0.00     0.148 A 
ATOM     67  C   UNL A   1      38.657  34.183  36.388  1.00  0.00     0.002 A 
ATOM     68  C   UNL A   1      37.928  32.167  37.519  1.00  0.00     0.091 A 
ATOM     69  F   UNL A   1      38.453  30.044  36.561  1.00  0.00    -0.205 F 
ATOM     70  C   UNL A   1      38.018  33.567  37.460  1.00  0.00     0.022 A 
BRANCH  68  71
ATOM     71  S   UNL A   1      36.968  31.471  38.869  1.00  0.00     0.127 S 
ATOM     72  O   UNL A   1      37.889  31.607  39.994  1.00  0.00    -0.237 OA
ATOM     73  O   UNL A   1      35.810  32.366  38.909  1.00  0.00    -0.237 OA
ATOM     74  O   UNL A   1      36.656  30.105  38.468  1.00  0.00    -0.744 OA
ENDBRANCH  68  71
ENDBRANCH  40  64
BRANCH  52  75
ATOM     75  C   UNL A   1      44.922  28.232  34.283  1.00  0.00     0.023 A 
ATOM     76  C   UNL A   1      46.020  29.109  34.197  1.00  0.00     0.012 A 
ATOM     77  C   UNL A   1      44.937  27.186  35.227  1.00  0.00     0.148 A 
ATOM     78  C   UNL A   1      47.123  28.942  35.033  1.00  0.00     0.002 A 
ATOM     79  C   UNL A   1      46.021  27.052  36.085  1.00  0.00     0.091 A 
ATOM     80  F   UNL A   1      43.888  26.352  35.274  1.00  0.00    -0.205 F 
ATOM     81  C   UNL A   1      47.116  27.924  35.986  1.00  0.00     0.022 A 
BRANCH  79  82
ATOM     82  S   UNL A   1      46.055  25.833  37.405  1.00  0.00     0.127 S 
ATOM     83  O   UNL A   1      47.447  25.912  37.846  1.00  0.00    -0.237 OA
ATOM     84  O   UNL A   1      45.082  26.375  38.354  1.00  0.00    -0.237 OA
ATOM     85  O   UNL A   1      45.663  24.569  36.795  1.00  0.00    -0.744 OA
ENDBRANCH  79  82
ENDBRANCH  52  75
ENDBRANCH  26  27
ENDBRANCH  18  21
ENDBRANCH  16  17
ENDBRANCH   1  16
TORSDOF 15
ENDMDL
MODEL 3
REMARK VINA RESULT:      -9.6      5.387      8.880
REMARK SMILES C#CC[C@]1(C(=O)NCCCNC(=O)c2ccc(-c3c4nc(c(-c5cccc(S(=O)(=O)[O-])c5F)c5ccc([nH]5)c(-c5cccc(S(=O)(=O)[O-])c5F)c5nc(c(-c6cccc(S(=O)(=O)[O-])c6F)c6ccc3[nH]6)C=C5)C=C4)cc2)CC[C@@H](C)C1
REMARK SMILES IDX 9 1 8 2 7 3 5 4 6 5 4 7 77 8 81 9 78 10 79 11 80 12 3 13
REMARK SMILES IDX 2 14 1 15 10 16 11 17 12 18 13 20 14 21 15 22 76 23 16 24
REMARK SMILES IDX 75 25 17 26 18 27 19 28 69 29 20 30 74 31 68 32 70 33 21 34
REMARK SMILES IDX 73 35 67 36 66 37 22 39 54 40 34 41 53 42 35 43 38 44 52 45
REMARK SMILES IDX 71 46 36 47 37 48 51 50 72 51 39 52 23 53 24 54 32 55 25 56
REMARK SMILES IDX 27 57 33 58 26 59 28 60 29 61 30 62 31 63 55 64 56 65 64 66
REMARK SMILES IDX 57 67 59 68 65 69 58 70 60 71 61 72 62 73 63 74 40 75 41 76
REMARK SMILES IDX 49 77 42 78 44 79 50 80 43 81 45 82 46 83 47 84 48 85
REMARK H PARENT 7 6 11 19 70 38 38 49
REMARK Flexibility Score: inf
ROOT
ATOM      1  C   UNL A   1      33.004  27.587  25.533  1.00  0.00     0.042 C 
ENDROOT
BRANCH   1   2
ATOM      2  C   UNL A   1      32.281  26.934  24.367  1.00  0.00     0.117 C 
BRANCH   2   3
ATOM      3  N   UNL A   1      33.156  26.235  23.450  1.00  0.00    -0.356 N 
ATOM      4  C   UNL A   1      33.708  24.999  23.460  1.00  0.00     0.227 C 
ATOM      5  O   UNL A   1      34.131  24.618  22.359  1.00  0.00    -0.274 OA
ATOM      6  H   UNL A   1      33.398  26.767  22.659  1.00  0.00     0.163 HD
BRANCH   4   7
ATOM      7  C   UNL A   1      33.819  24.056  24.686  1.00  0.00     0.060 C 
ATOM      8  C   UNL A   1      32.551  23.856  25.547  1.00  0.00     0.018 C 
ATOM      9  C   UNL A   1      34.157  22.620  24.213  1.00  0.00     0.021 C 
ATOM     10  C   UNL A   1      31.954  22.485  25.201  1.00  0.00     0.004 C 
ATOM     11  C   UNL A   1      32.839  21.850  24.130  1.00  0.00    -0.013 C 
ATOM     12  C   UNL A   1      32.231  21.841  22.728  1.00  0.00     0.007 C 
BRANCH   7  13
ATOM     13  C   UNL A   1      35.054  24.646  25.474  1.00  0.00     0.106 C 
BRANCH  13  14
ATOM     14  C   UNL A   1      36.206  23.659  25.565  1.00  0.00    -0.106 C 
ATOM     15  C   UNL A   1      37.194  22.811  25.642  1.00  0.00     0.004 C 
ENDBRANCH  13  14
ENDBRANCH   7  13
ENDBRANCH   4   7
ENDBRANCH   2   3
ENDBRANCH   1   2
BRANCH   1  16
ATOM     16  C   UNL A   1      33.648  28.907  25.148  1.00  0.00     0.118 C 
BRANCH  16  17
ATOM     17  N   UNL A   1      32.945  30.056  25.725  1.00  0.00    -0.352 N 
ATOM     18  C   UNL A   1      33.276  30.843  26.800  1.00  0.00     0.251 C 
ATOM     19  H   UNL A   1      32.106  30.302  25.273  1.00  0.00     0.163 HD
ATOM     20  O   UNL A   1      32.470  31.646  27.247  1.00  0.00    -0.269 OA
BRANCH  18  21
ATOM     21  C   UNL A   1      34.611  30.698  27.415  1.00  0.00     0.039 A 
ATOM     22  C   UNL A   1      35.399  31.832  27.628  1.00  0.00     0.014 A 
ATOM     23  C   UNL A   1      35.061  29.436  27.802  1.00  0.00     0.014 A 
ATOM     24  C   UNL A   1      36.614  31.705  28.303  1.00  0.00     0.010 A 
ATOM     25  C   UNL A   1      36.211  29.329  28.563  1.00  0.00     0.010 A 
ATOM     26  C   UNL A   1      37.008  30.457  28.808  1.00  0.00    -0.014 A 
BRANCH  26  27
ATOM     27  C   UNL A   1      38.261  30.257  29.574  1.00  0.00     0.031 A 
ATOM     28  C   UNL A   1      39.302  29.321  29.023  1.00  0.00     0.074 A 
ATOM     29  C   UNL A   1      38.380  30.764  30.815  1.00  0.00     0.049 A 
ATOM     30  N   UNL A   1      40.335  28.792  29.619  1.00  0.00    -0.248 NA
ATOM     31  C   UNL A   1      39.111  28.869  27.633  1.00  0.00     0.031 C 
ATOM     32  C   UNL A   1      37.394  31.614  31.484  1.00  0.00     0.029 A 
ATOM     33  N   UNL A   1      39.363  30.591  31.757  1.00  0.00    -0.354 N 
ATOM     34  C   UNL A   1      40.864  27.883  28.711  1.00  0.00     0.074 A 
ATOM     35  C   UNL A   1      40.024  27.915  27.535  1.00  0.00     0.031 C 
ATOM     36  C   UNL A   1      37.815  31.880  32.730  1.00  0.00     0.029 A 
ATOM     37  C   UNL A   1      39.080  31.190  32.962  1.00  0.00     0.049 A 
ATOM     38  H   UNL A   1      40.192  30.088  31.585  1.00  0.00     0.167 HD
ATOM     39  C   UNL A   1      41.969  27.110  28.834  1.00  0.00     0.034 A 
ATOM     40  C   UNL A   1      39.758  31.168  34.126  1.00  0.00     0.034 A 
ATOM     41  C   UNL A   1      42.850  27.168  29.966  1.00  0.00     0.049 A 
ATOM     42  C   UNL A   1      41.053  30.407  34.196  1.00  0.00     0.074 A 
ATOM     43  C   UNL A   1      44.064  26.530  30.146  1.00  0.00     0.029 A 
ATOM     44  N   UNL A   1      42.619  27.925  31.104  1.00  0.00    -0.354 N 
ATOM     45  N   UNL A   1      41.619  29.663  33.276  1.00  0.00    -0.248 NA
ATOM     46  C   UNL A   1      41.824  30.509  35.443  1.00  0.00     0.031 C 
ATOM     47  C   UNL A   1      44.568  26.907  31.396  1.00  0.00     0.029 A 
ATOM     48  C   UNL A   1      43.672  27.785  31.987  1.00  0.00     0.049 A 
ATOM     49  H   UNL A   1      41.821  28.482  31.260  1.00  0.00     0.167 HD
ATOM     50  C   UNL A   1      42.828  29.239  33.816  1.00  0.00     0.074 A 
ATOM     51  C   UNL A   1      42.917  29.819  35.141  1.00  0.00     0.031 C 
ATOM     52  C   UNL A   1      43.771  28.434  33.270  1.00  0.00     0.034 A 
BRANCH  39  53
ATOM     53  C   UNL A   1      42.312  26.198  27.687  1.00  0.00     0.023 A 
ATOM     54  C   UNL A   1      43.033  26.703  26.587  1.00  0.00     0.012 A 
ATOM     55  C   UNL A   1      41.939  24.840  27.702  1.00  0.00     0.148 A 
ATOM     56  C   UNL A   1      43.334  25.888  25.497  1.00  0.00     0.002 A 
ATOM     57  C   UNL A   1      42.284  24.020  26.631  1.00  0.00     0.091 A 
ATOM     58  F   UNL A   1      41.229  24.377  28.740  1.00  0.00    -0.205 F 
ATOM     59  C   UNL A   1      42.968  24.545  25.523  1.00  0.00     0.022 A 
BRANCH  57  60
ATOM     60  S   UNL A   1      41.923  22.260  26.623  1.00  0.00     0.127 S 
ATOM     61  O   UNL A   1      40.462  22.257  26.613  1.00  0.00    -0.237 OA
ATOM     62  O   UNL A   1      42.540  21.819  25.371  1.00  0.00    -0.237 OA
ATOM     63  O   UNL A   1      42.553  21.725  27.821  1.00  0.00    -0.744 OA
ENDBRANCH  57  60
ENDBRANCH  39  53
BRANCH  40  64
ATOM     64  C   UNL A   1      39.259  31.969  35.280  1.00  0.00     0.023 A 
ATOM     65  C   UNL A   1      38.370  31.368  36.193  1.00  0.00     0.012 A 
ATOM     66  C   UNL A   1      39.715  33.279  35.525  1.00  0.00     0.148 A 
ATOM     67  C   UNL A   1      37.929  32.062  37.319  1.00  0.00     0.002 A 
ATOM     68  C   UNL A   1      39.310  33.948  36.676  1.00  0.00     0.091 A 
ATOM     69  F   UNL A   1      40.558  33.832  34.643  1.00  0.00    -0.205 F 
ATOM     70  C   UNL A   1      38.406  33.346  37.566  1.00  0.00     0.022 A 
BRANCH  68  71
ATOM     71  S   UNL A   1      39.973  35.550  37.149  1.00  0.00     0.127 S 
ATOM     72  O   UNL A   1      39.267  35.808  38.401  1.00  0.00    -0.237 OA
ATOM     73  O   UNL A   1      41.399  35.253  37.295  1.00  0.00    -0.237 OA
ATOM     74  O   UNL A   1      39.658  36.449  36.047  1.00  0.00    -0.744 OA
ENDBRANCH  68  71
ENDBRANCH  40  64
BRANCH  52  75
ATOM     75  C   UNL A   1      45.013  28.160  34.072  1.00  0.00     0.023 A 
ATOM     76  C   UNL A   1      46.101  29.049  33.999  1.00  0.00     0.012 A 
ATOM     77  C   UNL A   1      45.045  27.092  34.991  1.00  0.00     0.148 A 
ATOM     78  C   UNL A   1      47.212  28.873  34.822  1.00  0.00     0.002 A 
ATOM     79  C   UNL A   1      46.137  26.948  35.838  1.00  0.00     0.091 A 
ATOM     80  F   UNL A   1      44.004  26.247  35.027  1.00  0.00    -0.205 F 
ATOM     81  C   UNL A   1      47.223  27.834  35.751  1.00  0.00     0.022 A 
BRANCH  79  82
ATOM     82  S   UNL A   1      46.193  25.699  37.128  1.00  0.00     0.127 S 
ATOM     83  O   UNL A   1      44.855  25.810  37.707  1.00  0.00    -0.237 OA
ATOM     84  O   UNL A   1      46.428  24.473  36.365  1.00  0.00    -0.237 OA
ATOM     85  O   UNL A   1      47.290  26.081  38.009  1.00  0.00    -0.744 OA
ENDBRANCH  79  82
ENDBRANCH  52  75
ENDBRANCH  26  27
ENDBRANCH  18  21
ENDBRANCH  16  17
ENDBRANCH   1  16
TORSDOF 15
ENDMDL
