MODEL 1
REMARK VINA RESULT:     -11.3      0.000      0.000
REMARK SMILES C[C@H](NC(N)=O)C(=O)N[C@@H](CO)C(=O)NCCCNC(=O)c1ccc(-c2c3nc(c(-c4cccc(S(=O)(=O)[O-])c4F)c4ccc([nH]4)c(-c4cccc(S(=O)(=O)[O-])c4F)c4nc(c(-c5cccc(S(=O)(=O)[O-])c5F)c5ccc2[nH]5)C=C4)C=C3)cc1
REMARK SMILES IDX 17 1 16 2 15 3 13 4 14 5 10 7 9 8 7 9 8 10 2 12 1 13 3 14
REMARK SMILES IDX 4 15 5 17 6 18 11 21 12 22 18 24 19 25 20 26 21 28 22 29
REMARK SMILES IDX 23 30 84 31 24 32 83 33 25 34 26 35 27 36 77 37 28 38 82 39
REMARK SMILES IDX 76 40 78 41 29 42 81 43 75 44 74 45 30 47 62 48 42 49 61 50
REMARK SMILES IDX 43 51 46 52 60 53 79 54 44 55 45 56 59 58 80 59 47 60 31 61
REMARK SMILES IDX 32 62 40 63 33 64 35 65 41 66 34 67 36 68 37 69 38 70 39 71
REMARK SMILES IDX 63 72 64 73 72 74 65 75 67 76 73 77 66 78 68 79 69 80 70 81
REMARK SMILES IDX 71 82 48 83 49 84 57 85 50 86 52 87 58 88 51 89 53 90 54 91
REMARK SMILES IDX 55 92 56 93
REMARK H PARENT 15 6 9 11 3 16 5 19 5 20 12 23 19 27 78 46 46 57
REMARK Flexibility Score: inf
ROOT
ATOM      1  C   UNL A   1      37.673  20.375  25.007  1.00  0.00     0.042 C 
ENDROOT
BRANCH   1   2
ATOM      2  C   UNL A   1      36.687  21.528  24.928  1.00  0.00     0.117 C 
BRANCH   2   3
ATOM      3  N   UNL A   1      35.898  21.661  26.137  1.00  0.00    -0.354 N 
ATOM      4  C   UNL A   1      34.597  21.370  26.390  1.00  0.00     0.244 C 
ATOM      5  O   UNL A   1      34.236  21.415  27.571  1.00  0.00    -0.273 OA
ATOM      6  H   UNL A   1      36.390  22.026  26.907  1.00  0.00     0.163 HD
BRANCH   4   7
ATOM      7  C   UNL A   1      33.616  20.911  25.300  1.00  0.00     0.197 C 
BRANCH   7   8
ATOM      8  N   UNL A   1      32.791  19.762  25.692  1.00  0.00    -0.340 N 
ATOM      9  C   UNL A   1      32.905  18.457  25.300  1.00  0.00     0.243 C 
ATOM     10  O   UNL A   1      32.189  17.627  25.858  1.00  0.00    -0.273 OA
ATOM     11  H   UNL A   1      32.058  19.957  26.320  1.00  0.00     0.164 HD
BRANCH   9  12
ATOM     12  C   UNL A   1      33.916  18.038  24.215  1.00  0.00     0.170 C 
ATOM     13  C   UNL A   1      33.225  17.184  23.153  1.00  0.00     0.041 C 
BRANCH  12  14
ATOM     14  N   UNL A   1      35.084  17.489  24.911  1.00  0.00    -0.327 N 
ATOM     15  C   UNL A   1      35.272  16.217  25.333  1.00  0.00     0.312 C 
ATOM     16  H   UNL A   1      35.818  18.121  25.092  1.00  0.00     0.166 HD
ATOM     17  N   UNL A   1      36.406  16.079  26.062  1.00  0.00    -0.352 N 
ATOM     18  O   UNL A   1      34.514  15.272  25.170  1.00  0.00    -0.249 OA
ATOM     19  H   UNL A   1      37.009  16.848  26.185  1.00  0.00     0.161 HD
ATOM     20  H   UNL A   1      36.628  15.210  26.468  1.00  0.00     0.161 HD
ENDBRANCH  12  14
ENDBRANCH   9  12
ENDBRANCH   7   8
BRANCH   7  21
ATOM     21  C   UNL A   1      32.809  22.068  24.693  1.00  0.00     0.191 C 
BRANCH  21  22
ATOM     22  O   UNL A   1      33.006  23.325  25.332  1.00  0.00    -0.394 OA
ATOM     23  H   UNL A   1      32.400  23.979  24.951  1.00  0.00     0.210 HD
ENDBRANCH  21  22
ENDBRANCH   7  21
ENDBRANCH   4   7
ENDBRANCH   2   3
ENDBRANCH   1   2
BRANCH   1  24
ATOM     24  C   UNL A   1      38.862  20.640  25.920  1.00  0.00     0.118 C 
BRANCH  24  25
ATOM     25  N   UNL A   1      39.828  19.548  25.925  1.00  0.00    -0.352 N 
ATOM     26  C   UNL A   1      41.197  19.574  26.051  1.00  0.00     0.251 C 
ATOM     27  H   UNL A   1      39.438  18.649  25.821  1.00  0.00     0.163 HD
ATOM     28  O   UNL A   1      41.847  18.555  25.840  1.00  0.00    -0.269 OA
BRANCH  26  29
ATOM     29  C   UNL A   1      41.884  20.834  26.408  1.00  0.00     0.039 A 
ATOM     30  C   UNL A   1      42.290  21.697  25.387  1.00  0.00     0.014 A 
ATOM     31  C   UNL A   1      42.108  21.175  27.743  1.00  0.00     0.014 A 
ATOM     32  C   UNL A   1      42.824  22.946  25.711  1.00  0.00     0.010 A 
ATOM     33  C   UNL A   1      42.549  22.454  28.063  1.00  0.00     0.010 A 
ATOM     34  C   UNL A   1      42.901  23.360  27.051  1.00  0.00    -0.014 A 
BRANCH  34  35
ATOM     35  C   UNL A   1      43.288  24.748  27.413  1.00  0.00     0.031 A 
ATOM     36  C   UNL A   1      42.277  25.694  28.006  1.00  0.00     0.074 A 
ATOM     37  C   UNL A   1      44.525  25.189  27.103  1.00  0.00     0.049 A 
ATOM     38  N   UNL A   1      42.417  26.957  28.311  1.00  0.00    -0.248 NA
ATOM     39  C   UNL A   1      40.929  25.161  28.269  1.00  0.00     0.031 C 
ATOM     40  C   UNL A   1      45.570  24.392  26.454  1.00  0.00     0.029 A 
ATOM     41  N   UNL A   1      45.106  26.423  27.263  1.00  0.00    -0.354 N 
ATOM     42  C   UNL A   1      41.170  27.382  28.757  1.00  0.00     0.074 A 
ATOM     43  C   UNL A   1      40.280  26.246  28.669  1.00  0.00     0.031 C 
ATOM     44  C   UNL A   1      46.660  25.154  26.275  1.00  0.00     0.029 A 
ATOM     45  C   UNL A   1      46.383  26.503  26.753  1.00  0.00     0.049 A 
ATOM     46  H   UNL A   1      44.653  27.179  27.701  1.00  0.00     0.167 HD
ATOM     47  C   UNL A   1      40.808  28.603  29.214  1.00  0.00     0.034 A 
ATOM     48  C   UNL A   1      47.226  27.550  26.658  1.00  0.00     0.034 A 
ATOM     49  C   UNL A   1      41.707  29.717  29.344  1.00  0.00     0.049 A 
ATOM     50  C   UNL A   1      46.792  28.889  27.191  1.00  0.00     0.074 A 
ATOM     51  C   UNL A   1      41.461  30.954  29.911  1.00  0.00     0.029 A 
ATOM     52  N   UNL A   1      43.012  29.741  28.880  1.00  0.00    -0.354 N 
ATOM     53  N   UNL A   1      45.673  29.214  27.790  1.00  0.00    -0.248 NA
ATOM     54  C   UNL A   1      47.746  30.000  27.058  1.00  0.00     0.031 C 
ATOM     55  C   UNL A   1      42.602  31.745  29.747  1.00  0.00     0.029 A 
ATOM     56  C   UNL A   1      43.572  30.985  29.115  1.00  0.00     0.049 A 
ATOM     57  H   UNL A   1      43.473  28.985  28.448  1.00  0.00     0.167 HD
ATOM     58  C   UNL A   1      45.801  30.556  28.132  1.00  0.00     0.074 A 
ATOM     59  C   UNL A   1      47.119  30.974  27.702  1.00  0.00     0.031 C 
ATOM     60  C   UNL A   1      44.902  31.375  28.728  1.00  0.00     0.034 A 
BRANCH  47  61
ATOM     61  C   UNL A   1      39.381  28.808  29.650  1.00  0.00     0.023 A 
ATOM     62  C   UNL A   1      38.993  28.472  30.962  1.00  0.00     0.012 A 
ATOM     63  C   UNL A   1      38.458  29.442  28.794  1.00  0.00     0.148 A 
ATOM     64  C   UNL A   1      37.703  28.750  31.411  1.00  0.00     0.002 A 
ATOM     65  C   UNL A   1      37.190  29.757  29.264  1.00  0.00     0.091 A 
ATOM     66  F   UNL A   1      38.845  29.737  27.545  1.00  0.00    -0.205 F 
ATOM     67  C   UNL A   1      36.807  29.403  30.568  1.00  0.00     0.022 A 
BRANCH  65  68
ATOM     68  S   UNL A   1      35.991  30.673  28.288  1.00  0.00     0.127 S 
ATOM     69  O   UNL A   1      34.969  30.977  29.288  1.00  0.00    -0.237 OA
ATOM     70  O   UNL A   1      36.775  31.826  27.848  1.00  0.00    -0.237 OA
ATOM     71  O   UNL A   1      35.567  29.776  27.222  1.00  0.00    -0.744 OA
ENDBRANCH  65  68
ENDBRANCH  47  61
BRANCH  48  72
ATOM     72  C   UNL A   1      48.581  27.382  26.054  1.00  0.00     0.023 A 
ATOM     73  C   UNL A   1      49.671  27.048  26.880  1.00  0.00     0.012 A 
ATOM     74  C   UNL A   1      48.800  27.572  24.676  1.00  0.00     0.148 A 
ATOM     75  C   UNL A   1      50.962  26.956  26.357  1.00  0.00     0.002 A 
ATOM     76  C   UNL A   1      50.078  27.418  24.150  1.00  0.00     0.091 A 
ATOM     77  F   UNL A   1      47.755  27.903  23.905  1.00  0.00    -0.205 F 
ATOM     78  C   UNL A   1      51.164  27.133  24.991  1.00  0.00     0.022 A 
BRANCH  76  79
ATOM     79  S   UNL A   1      50.404  27.496  22.385  1.00  0.00     0.127 S 
ATOM     80  O   UNL A   1      51.795  27.056  22.318  1.00  0.00    -0.237 OA
ATOM     81  O   UNL A   1      49.429  26.543  21.855  1.00  0.00    -0.237 OA
ATOM     82  O   UNL A   1      50.155  28.881  22.004  1.00  0.00    -0.744 OA
ENDBRANCH  76  79
ENDBRANCH  48  72
BRANCH  60  83
ATOM     83  C   UNL A   1      45.313  32.802  28.980  1.00  0.00     0.023 A 
ATOM     84  C   UNL A   1      46.035  33.126  30.146  1.00  0.00     0.012 A 
ATOM     85  C   UNL A   1      45.053  33.805  28.026  1.00  0.00     0.148 A 
ATOM     86  C   UNL A   1      46.462  34.434  30.374  1.00  0.00     0.002 A 
ATOM     87  C   UNL A   1      45.529  35.094  28.234  1.00  0.00     0.091 A 
ATOM     88  F   UNL A   1      44.353  33.478  26.929  1.00  0.00    -0.205 F 
ATOM     89  C   UNL A   1      46.221  35.413  29.413  1.00  0.00     0.022 A 
BRANCH  87  90
ATOM     90  S   UNL A   1      45.352  36.399  27.014  1.00  0.00     0.127 S 
ATOM     91  O   UNL A   1      45.942  37.541  27.712  1.00  0.00    -0.237 OA
ATOM     92  O   UNL A   1      46.148  35.888  25.898  1.00  0.00    -0.237 OA
ATOM     93  O   UNL A   1      43.925  36.509  26.743  1.00  0.00    -0.744 OA
ENDBRANCH  87  90
ENDBRANCH  60  83
ENDBRANCH  34  35
ENDBRANCH  26  29
ENDBRANCH  24  25
ENDBRANCH   1  24
TORSDOF 18
ENDMDL
MODEL 2
REMARK VINA RESULT:     -10.9      2.731      8.423
REMARK SMILES C[C@H](NC(N)=O)C(=O)N[C@@H](CO)C(=O)NCCCNC(=O)c1ccc(-c2c3nc(c(-c4cccc(S(=O)(=O)[O-])c4F)c4ccc([nH]4)c(-c4cccc(S(=O)(=O)[O-])c4F)c4nc(c(-c5cccc(S(=O)(=O)[O-])c5F)c5ccc2[nH]5)C=C4)C=C3)cc1
REMARK SMILES IDX 17 1 16 2 15 3 13 4 14 5 10 7 9 8 7 9 8 10 2 12 1 13 3 14
REMARK SMILES IDX 4 15 5 17 6 18 11 21 12 22 18 24 19 25 20 26 21 28 22 29
REMARK SMILES IDX 23 30 84 31 24 32 83 33 25 34 26 35 27 36 77 37 28 38 82 39
REMARK SMILES IDX 76 40 78 41 29 42 81 43 75 44 74 45 30 47 62 48 42 49 61 50
REMARK SMILES IDX 43 51 46 52 60 53 79 54 44 55 45 56 59 58 80 59 47 60 31 61
REMARK SMILES IDX 32 62 40 63 33 64 35 65 41 66 34 67 36 68 37 69 38 70 39 71
REMARK SMILES IDX 63 72 64 73 72 74 65 75 67 76 73 77 66 78 68 79 69 80 70 81
REMARK SMILES IDX 71 82 48 83 49 84 57 85 50 86 52 87 58 88 51 89 53 90 54 91
REMARK SMILES IDX 55 92 56 93
REMARK H PARENT 15 6 9 11 3 16 5 19 5 20 12 23 19 27 78 46 46 57
REMARK Flexibility Score: inf
ROOT
ATOM      1  C   UNL A   1      36.627  22.180  24.232  1.00  0.00     0.042 C 
ENDROOT
BRANCH   1   2
ATOM      2  C   UNL A   1      36.171  20.939  24.979  1.00  0.00     0.117 C 
BRANCH   2   3
ATOM      3  N   UNL A   1      35.382  21.260  26.152  1.00  0.00    -0.354 N 
ATOM      4  C   UNL A   1      34.053  21.132  26.397  1.00  0.00     0.244 C 
ATOM      5  O   UNL A   1      33.681  21.319  27.561  1.00  0.00    -0.273 OA
ATOM      6  H   UNL A   1      35.899  21.638  26.900  1.00  0.00     0.163 HD
BRANCH   4   7
ATOM      7  C   UNL A   1      33.045  20.685  25.327  1.00  0.00     0.197 C 
BRANCH   7   8
ATOM      8  N   UNL A   1      32.410  19.394  25.615  1.00  0.00    -0.340 N 
ATOM      9  C   UNL A   1      32.785  18.147  25.199  1.00  0.00     0.243 C 
ATOM     10  O   UNL A   1      32.185  17.181  25.671  1.00  0.00    -0.273 OA
ATOM     11  H   UNL A   1      31.606  19.431  26.184  1.00  0.00     0.164 HD
BRANCH   9  12
ATOM     12  C   UNL A   1      33.936  17.957  24.194  1.00  0.00     0.170 C 
ATOM     13  C   UNL A   1      33.455  17.153  22.986  1.00  0.00     0.041 C 
BRANCH  12  14
ATOM     14  N   UNL A   1      35.088  17.463  24.954  1.00  0.00    -0.327 N 
ATOM     15  C   UNL A   1      35.343  16.190  25.335  1.00  0.00     0.312 C 
ATOM     16  H   UNL A   1      35.755  18.138  25.219  1.00  0.00     0.166 HD
ATOM     17  N   UNL A   1      36.427  16.101  26.143  1.00  0.00    -0.352 N 
ATOM     18  O   UNL A   1      34.675  15.200  25.073  1.00  0.00    -0.249 OA
ATOM     19  H   UNL A   1      36.957  16.906  26.347  1.00  0.00     0.161 HD
ATOM     20  H   UNL A   1      36.685  15.232  26.528  1.00  0.00     0.161 HD
ENDBRANCH  12  14
ENDBRANCH   9  12
ENDBRANCH   7   8
BRANCH   7  21
ATOM     21  C   UNL A   1      32.049  21.788  24.943  1.00  0.00     0.191 C 
BRANCH  21  22
ATOM     22  O   UNL A   1      32.276  23.038  25.585  1.00  0.00    -0.394 OA
ATOM     23  H   UNL A   1      32.157  22.936  26.542  1.00  0.00     0.210 HD
ENDBRANCH  21  22
ENDBRANCH   7  21
ENDBRANCH   4   7
ENDBRANCH   2   3
ENDBRANCH   1   2
BRANCH   1  24
ATOM     24  C   UNL A   1      37.632  23.028  24.999  1.00  0.00     0.118 C 
BRANCH  24  25
ATOM     25  N   UNL A   1      38.663  22.231  25.655  1.00  0.00    -0.352 N 
ATOM     26  C   UNL A   1      39.735  22.624  26.420  1.00  0.00     0.251 C 
ATOM     27  H   UNL A   1      38.577  21.258  25.528  1.00  0.00     0.163 HD
ATOM     28  O   UNL A   1      40.597  21.805  26.725  1.00  0.00    -0.269 OA
BRANCH  26  29
ATOM     29  C   UNL A   1      39.865  24.034  26.846  1.00  0.00     0.039 A 
ATOM     30  C   UNL A   1      39.543  24.377  28.161  1.00  0.00     0.014 A 
ATOM     31  C   UNL A   1      40.325  25.010  25.960  1.00  0.00     0.014 A 
ATOM     32  C   UNL A   1      39.782  25.676  28.613  1.00  0.00     0.010 A 
ATOM     33  C   UNL A   1      40.652  26.275  26.437  1.00  0.00     0.010 A 
ATOM     34  C   UNL A   1      40.396  26.619  27.773  1.00  0.00    -0.014 A 
BRANCH  34  35
ATOM     35  C   UNL A   1      40.831  27.946  28.283  1.00  0.00     0.031 A 
ATOM     36  C   UNL A   1      42.293  28.248  28.478  1.00  0.00     0.074 A 
ATOM     37  C   UNL A   1      39.898  28.838  28.676  1.00  0.00     0.049 A 
ATOM     38  N   UNL A   1      42.849  29.318  28.981  1.00  0.00    -0.248 NA
ATOM     39  C   UNL A   1      43.256  27.206  28.078  1.00  0.00     0.031 C 
ATOM     40  C   UNL A   1      38.448  28.632  28.613  1.00  0.00     0.029 A 
ATOM     41  N   UNL A   1      40.027  30.086  29.235  1.00  0.00    -0.354 N 
ATOM     42  C   UNL A   1      44.216  29.065  29.002  1.00  0.00     0.074 A 
ATOM     43  C   UNL A   1      44.406  27.732  28.474  1.00  0.00     0.031 C 
ATOM     44  C   UNL A   1      37.826  29.713  29.107  1.00  0.00     0.029 A 
ATOM     45  C   UNL A   1      38.824  30.670  29.566  1.00  0.00     0.049 A 
ATOM     46  H   UNL A   1      40.897  30.522  29.385  1.00  0.00     0.167 HD
ATOM     47  C   UNL A   1      45.219  29.877  29.407  1.00  0.00     0.034 A 
ATOM     48  C   UNL A   1      38.556  31.834  30.190  1.00  0.00     0.034 A 
ATOM     49  C   UNL A   1      45.030  31.218  29.888  1.00  0.00     0.049 A 
ATOM     50  C   UNL A   1      39.700  32.717  30.613  1.00  0.00     0.074 A 
ATOM     51  C   UNL A   1      45.993  32.158  30.205  1.00  0.00     0.029 A 
ATOM     52  N   UNL A   1      43.800  31.801  30.146  1.00  0.00    -0.354 N 
ATOM     53  N   UNL A   1      40.987  32.539  30.440  1.00  0.00    -0.248 NA
ATOM     54  C   UNL A   1      39.354  33.973  31.294  1.00  0.00     0.031 C 
ATOM     55  C   UNL A   1      45.348  33.294  30.701  1.00  0.00     0.029 A 
ATOM     56  C   UNL A   1      43.982  33.076  30.653  1.00  0.00     0.049 A 
ATOM     57  H   UNL A   1      42.927  31.373  29.991  1.00  0.00     0.167 HD
ATOM     58  C   UNL A   1      41.600  33.672  30.962  1.00  0.00     0.074 A 
ATOM     59  C   UNL A   1      40.543  34.544  31.429  1.00  0.00     0.031 C 
ATOM     60  C   UNL A   1      42.921  33.956  31.068  1.00  0.00     0.034 A 
BRANCH  47  61
ATOM     61  C   UNL A   1      46.633  29.364  29.321  1.00  0.00     0.023 A 
ATOM     62  C   UNL A   1      47.192  28.664  30.409  1.00  0.00     0.012 A 
ATOM     63  C   UNL A   1      47.361  29.476  28.120  1.00  0.00     0.148 A 
ATOM     64  C   UNL A   1      48.461  28.095  30.308  1.00  0.00     0.002 A 
ATOM     65  C   UNL A   1      48.605  28.868  28.012  1.00  0.00     0.091 A 
ATOM     66  F   UNL A   1      46.816  30.161  27.105  1.00  0.00    -0.205 F 
ATOM     67  C   UNL A   1      49.161  28.186  29.106  1.00  0.00     0.022 A 
BRANCH  65  68
ATOM     68  S   UNL A   1      49.550  28.853  26.483  1.00  0.00     0.127 S 
ATOM     69  O   UNL A   1      50.531  27.803  26.756  1.00  0.00    -0.237 OA
ATOM     70  O   UNL A   1      48.530  28.492  25.500  1.00  0.00    -0.237 OA
ATOM     71  O   UNL A   1      50.100  30.192  26.334  1.00  0.00    -0.744 OA
ENDBRANCH  65  68
ENDBRANCH  47  61
BRANCH  48  72
ATOM     72  C   UNL A   1      37.146  32.256  30.439  1.00  0.00     0.023 A 
ATOM     73  C   UNL A   1      36.552  31.984  31.686  1.00  0.00     0.012 A 
ATOM     74  C   UNL A   1      36.386  32.902  29.445  1.00  0.00     0.148 A 
ATOM     75  C   UNL A   1      35.213  32.300  31.922  1.00  0.00     0.002 A 
ATOM     76  C   UNL A   1      35.072  33.271  29.708  1.00  0.00     0.091 A 
ATOM     77  F   UNL A   1      36.962  33.142  28.259  1.00  0.00    -0.205 F 
ATOM     78  C   UNL A   1      34.476  32.950  30.937  1.00  0.00     0.022 A 
BRANCH  76  79
ATOM     79  S   UNL A   1      34.094  34.230  28.546  1.00  0.00     0.127 S 
ATOM     80  O   UNL A   1      34.903  35.436  28.398  1.00  0.00    -0.237 OA
ATOM     81  O   UNL A   1      34.070  33.354  27.375  1.00  0.00    -0.237 OA
ATOM     82  O   UNL A   1      32.796  34.408  29.185  1.00  0.00    -0.744 OA
ENDBRANCH  76  79
ENDBRANCH  48  72
BRANCH  60  83
ATOM     83  C   UNL A   1      43.307  35.274  31.686  1.00  0.00     0.023 A 
ATOM     84  C   UNL A   1      43.482  35.368  33.081  1.00  0.00     0.012 A 
ATOM     85  C   UNL A   1      43.574  36.396  30.878  1.00  0.00     0.148 A 
ATOM     86  C   UNL A   1      43.883  36.569  33.665  1.00  0.00     0.002 A 
ATOM     87  C   UNL A   1      44.026  37.574  31.461  1.00  0.00     0.091 A 
ATOM     88  F   UNL A   1      43.389  36.289  29.554  1.00  0.00    -0.205 F 
ATOM     89  C   UNL A   1      44.167  37.666  32.856  1.00  0.00     0.022 A 
BRANCH  87  90
ATOM     90  S   UNL A   1      44.508  39.009  30.496  1.00  0.00     0.127 S 
ATOM     91  O   UNL A   1      45.343  39.741  31.448  1.00  0.00    -0.237 OA
ATOM     92  O   UNL A   1      45.240  38.401  29.385  1.00  0.00    -0.237 OA
ATOM     93  O   UNL A   1      43.270  39.677  30.117  1.00  0.00    -0.744 OA
ENDBRANCH  87  90
ENDBRANCH  60  83
ENDBRANCH  34  35
ENDBRANCH  26  29
ENDBRANCH  24  25
ENDBRANCH   1  24
TORSDOF 18
ENDMDL
MODEL 3
REMARK VINA RESULT:     -10.8      2.041      3.034
REMARK SMILES C[C@H](NC(N)=O)C(=O)N[C@@H](CO)C(=O)NCCCNC(=O)c1ccc(-c2c3nc(c(-c4cccc(S(=O)(=O)[O-])c4F)c4ccc([nH]4)c(-c4cccc(S(=O)(=O)[O-])c4F)c4nc(c(-c5cccc(S(=O)(=O)[O-])c5F)c5ccc2[nH]5)C=C4)C=C3)cc1
REMARK SMILES IDX 17 1 16 2 15 3 13 4 14 5 10 7 9 8 7 9 8 10 2 12 1 13 3 14
REMARK SMILES IDX 4 15 5 17 6 18 11 21 12 22 18 24 19 25 20 26 21 28 22 29
REMARK SMILES IDX 23 30 84 31 24 32 83 33 25 34 26 35 27 36 77 37 28 38 82 39
REMARK SMILES IDX 76 40 78 41 29 42 81 43 75 44 74 45 30 47 62 48 42 49 61 50
REMARK SMILES IDX 43 51 46 52 60 53 79 54 44 55 45 56 59 58 80 59 47 60 31 61
REMARK SMILES IDX 32 62 40 63 33 64 35 65 41 66 34 67 36 68 37 69 38 70 39 71
REMARK SMILES IDX 63 72 64 73 72 74 65 75 67 76 73 77 66 78 68 79 69 80 70 81
REMARK SMILES IDX 71 82 48 83 49 84 57 85 50 86 52 87 58 88 51 89 53 90 54 91
REMARK SMILES IDX 55 92 56 93
REMARK H PARENT 15 6 9 11 3 16 5 19 5 20 12 23 19 27 78 46 46 57
REMARK Flexibility Score: inf
ROOT
ATOM      1  C   UNL A   1      36.812  21.989  23.888  1.00  0.00     0.042 C 
ENDROOT
BRANCH   1   2
ATOM      2  C   UNL A   1      35.930  23.201  23.643  1.00  0.00     0.117 C 
BRANCH   2   3
ATOM      3  N   UNL A   1      34.741  22.872  22.883  1.00  0.00    -0.354 N 
ATOM      4  C   UNL A   1      33.510  23.444  22.858  1.00  0.00     0.244 C 
ATOM      5  O   UNL A   1      32.737  23.064  21.972  1.00  0.00    -0.273 OA
ATOM      6  H   UNL A   1      34.842  22.101  22.280  1.00  0.00     0.163 HD
BRANCH   4   7
ATOM      7  C   UNL A   1      33.096  24.578  23.809  1.00  0.00     0.197 C 
BRANCH   7   8
ATOM      8  N   UNL A   1      33.540  24.381  25.193  1.00  0.00    -0.340 N 
ATOM      9  C   UNL A   1      33.115  23.451  26.101  1.00  0.00     0.243 C 
ATOM     10  O   UNL A   1      33.722  23.375  27.170  1.00  0.00    -0.273 OA
ATOM     11  H   UNL A   1      34.237  25.001  25.510  1.00  0.00     0.164 HD
BRANCH   9  12
ATOM     12  C   UNL A   1      31.935  22.513  25.786  1.00  0.00     0.170 C 
ATOM     13  C   UNL A   1      30.631  23.112  26.310  1.00  0.00     0.041 C 
BRANCH  12  14
ATOM     14  N   UNL A   1      32.325  21.173  26.234  1.00  0.00    -0.327 N 
ATOM     15  C   UNL A   1      33.064  20.260  25.561  1.00  0.00     0.312 C 
ATOM     16  H   UNL A   1      32.013  20.906  27.129  1.00  0.00     0.166 HD
ATOM     17  N   UNL A   1      33.125  19.070  26.208  1.00  0.00    -0.352 N 
ATOM     18  O   UNL A   1      33.584  20.403  24.464  1.00  0.00    -0.249 OA
ATOM     19  H   UNL A   1      32.702  18.967  27.091  1.00  0.00     0.161 HD
ATOM     20  H   UNL A   1      33.592  18.308  25.795  1.00  0.00     0.161 HD
ENDBRANCH  12  14
ENDBRANCH   9  12
ENDBRANCH   7   8
BRANCH   7  21
ATOM     21  C   UNL A   1      33.415  25.973  23.254  1.00  0.00     0.191 C 
BRANCH  21  22
ATOM     22  O   UNL A   1      33.917  25.978  21.921  1.00  0.00    -0.394 OA
ATOM     23  H   UNL A   1      33.976  25.067  21.595  1.00  0.00     0.210 HD
ENDBRANCH  21  22
ENDBRANCH   7  21
ENDBRANCH   4   7
ENDBRANCH   2   3
ENDBRANCH   1   2
BRANCH   1  24
ATOM     24  C   UNL A   1      36.971  21.629  25.359  1.00  0.00     0.118 C 
BRANCH  24  25
ATOM     25  N   UNL A   1      38.011  20.633  25.590  1.00  0.00    -0.352 N 
ATOM     26  C   UNL A   1      39.286  20.781  26.083  1.00  0.00     0.251 C 
ATOM     27  H   UNL A   1      37.761  19.710  25.355  1.00  0.00     0.163 HD
ATOM     28  O   UNL A   1      40.074  19.841  26.022  1.00  0.00    -0.269 OA
BRANCH  26  29
ATOM     29  C   UNL A   1      39.716  22.075  26.653  1.00  0.00     0.039 A 
ATOM     30  C   UNL A   1      40.700  22.086  27.644  1.00  0.00     0.014 A 
ATOM     31  C   UNL A   1      39.168  23.276  26.197  1.00  0.00     0.014 A 
ATOM     32  C   UNL A   1      41.206  23.305  28.100  1.00  0.00     0.010 A 
ATOM     33  C   UNL A   1      39.739  24.484  26.581  1.00  0.00     0.010 A 
ATOM     34  C   UNL A   1      40.774  24.513  27.528  1.00  0.00    -0.014 A 
BRANCH  34  35
ATOM     35  C   UNL A   1      41.427  25.806  27.860  1.00  0.00     0.031 A 
ATOM     36  C   UNL A   1      40.678  26.869  28.619  1.00  0.00     0.074 A 
ATOM     37  C   UNL A   1      42.661  26.062  27.377  1.00  0.00     0.049 A 
ATOM     38  N   UNL A   1      41.062  28.079  28.929  1.00  0.00    -0.248 NA
ATOM     39  C   UNL A   1      39.314  26.540  29.070  1.00  0.00     0.031 C 
ATOM     40  C   UNL A   1      43.459  25.144  26.560  1.00  0.00     0.029 A 
ATOM     41  N   UNL A   1      43.450  27.182  27.476  1.00  0.00    -0.354 N 
ATOM     42  C   UNL A   1      39.978  28.671  29.567  1.00  0.00     0.074 A 
ATOM     43  C   UNL A   1      38.914  27.693  29.588  1.00  0.00     0.031 C 
ATOM     44  C   UNL A   1      44.620  25.734  26.237  1.00  0.00     0.029 A 
ATOM     45  C   UNL A   1      44.636  27.086  26.782  1.00  0.00     0.049 A 
ATOM     46  H   UNL A   1      43.192  27.979  27.995  1.00  0.00     0.167 HD
ATOM     47  C   UNL A   1      39.887  29.911  30.102  1.00  0.00     0.034 A 
ATOM     48  C   UNL A   1      45.613  27.993  26.585  1.00  0.00     0.034 A 
ATOM     49  C   UNL A   1      40.963  30.864  30.120  1.00  0.00     0.049 A 
ATOM     50  C   UNL A   1      45.482  29.357  27.209  1.00  0.00     0.074 A 
ATOM     51  C   UNL A   1      41.003  32.097  30.746  1.00  0.00     0.029 A 
ATOM     52  N   UNL A   1      42.173  30.707  29.466  1.00  0.00    -0.354 N 
ATOM     53  N   UNL A   1      44.528  29.824  27.977  1.00  0.00    -0.248 NA
ATOM     54  C   UNL A   1      46.573  30.310  26.959  1.00  0.00     0.031 C 
ATOM     55  C   UNL A   1      42.220  32.707  30.430  1.00  0.00     0.029 A 
ATOM     56  C   UNL A   1      42.953  31.836  29.642  1.00  0.00     0.049 A 
ATOM     57  H   UNL A   1      42.439  29.910  28.952  1.00  0.00     0.167 HD
ATOM     58  C   UNL A   1      44.919  31.111  28.326  1.00  0.00     0.074 A 
ATOM     59  C   UNL A   1      46.211  31.339  27.713  1.00  0.00     0.031 C 
ATOM     60  C   UNL A   1      44.259  32.032  29.069  1.00  0.00     0.034 A 
BRANCH  47  61
ATOM     61  C   UNL A   1      38.589  30.315  30.751  1.00  0.00     0.023 A 
ATOM     62  C   UNL A   1      38.394  30.090  32.128  1.00  0.00     0.012 A 
ATOM     63  C   UNL A   1      37.615  31.023  30.019  1.00  0.00     0.148 A 
ATOM     64  C   UNL A   1      37.243  30.549  32.765  1.00  0.00     0.002 A 
ATOM     65  C   UNL A   1      36.492  31.517  30.670  1.00  0.00     0.091 A 
ATOM     66  F   UNL A   1      37.815  31.210  28.707  1.00  0.00    -0.205 F 
ATOM     67  C   UNL A   1      36.299  31.273  32.039  1.00  0.00     0.022 A 
BRANCH  65  68
ATOM     68  S   UNL A   1      35.261  32.534  29.846  1.00  0.00     0.127 S 
ATOM     69  O   UNL A   1      34.331  32.813  30.941  1.00  0.00    -0.237 OA
ATOM     70  O   UNL A   1      36.055  33.683  29.415  1.00  0.00    -0.237 OA
ATOM     71  O   UNL A   1      34.721  31.721  28.767  1.00  0.00    -0.744 OA
ENDBRANCH  65  68
ENDBRANCH  47  61
BRANCH  48  72
ATOM     72  C   UNL A   1      46.822  27.644  25.780  1.00  0.00     0.023 A 
ATOM     73  C   UNL A   1      46.821  27.880  24.392  1.00  0.00     0.012 A 
ATOM     74  C   UNL A   1      47.958  27.064  26.375  1.00  0.00     0.148 A 
ATOM     75  C   UNL A   1      47.907  27.497  23.603  1.00  0.00     0.002 A 
ATOM     76  C   UNL A   1      49.062  26.742  25.593  1.00  0.00     0.091 A 
ATOM     77  F   UNL A   1      47.938  26.834  27.696  1.00  0.00    -0.205 F 
ATOM     78  C   UNL A   1      49.030  26.936  24.204  1.00  0.00     0.022 A 
BRANCH  76  79
ATOM     79  S   UNL A   1      50.598  26.141  26.303  1.00  0.00     0.127 S 
ATOM     80  O   UNL A   1      50.171  24.892  26.927  1.00  0.00    -0.237 OA
ATOM     81  O   UNL A   1      51.439  25.983  25.116  1.00  0.00    -0.237 OA
ATOM     82  O   UNL A   1      51.042  27.189  27.214  1.00  0.00    -0.744 OA
ENDBRANCH  76  79
ENDBRANCH  48  72
BRANCH  60  83
ATOM     83  C   UNL A   1      44.926  33.365  29.289  1.00  0.00     0.023 A 
ATOM     84  C   UNL A   1      45.756  33.553  30.412  1.00  0.00     0.012 A 
ATOM     85  C   UNL A   1      44.794  34.400  28.344  1.00  0.00     0.148 A 
ATOM     86  C   UNL A   1      46.418  34.765  30.608  1.00  0.00     0.002 A 
ATOM     87  C   UNL A   1      45.498  35.585  28.517  1.00  0.00     0.091 A 
ATOM     88  F   UNL A   1      43.988  34.204  27.290  1.00  0.00    -0.205 F 
ATOM     89  C   UNL A   1      46.299  35.775  29.656  1.00  0.00     0.022 A 
BRANCH  87  90
ATOM     90  S   UNL A   1      45.486  36.906  27.301  1.00  0.00     0.127 S 
ATOM     91  O   UNL A   1      46.123  36.260  26.153  1.00  0.00    -0.237 OA
ATOM     92  O   UNL A   1      44.055  37.163  27.140  1.00  0.00    -0.237 OA
ATOM     93  O   UNL A   1      46.239  38.005  27.890  1.00  0.00    -0.744 OA
ENDBRANCH  87  90
ENDBRANCH  60  83
ENDBRANCH  34  35
ENDBRANCH  26  29
ENDBRANCH  24  25
ENDBRANCH   1  24
TORSDOF 18
ENDMDL
