MODEL 1
REMARK VINA RESULT:     -11.0      0.000      0.000
REMARK SMILES C[C@@H](C(=O)NCCCNC(=O)c1ccc(-c2c3nc(c(-c4cccc(S(=O)(=O)[O-])c4F)c4ccc([nH]4)c(-c4cccc(S(=O)(=O)[O-])c4F)c4nc(c(-c5cccc(S(=O)(=O)[O-])c5F)c5ccc2[nH]5)C=C4)C=C3)cc1)c1ccc(=O)n(C(F)F)c1
REMARK SMILES IDX 7 1 6 2 5 3 3 4 4 5 2 7 1 8 75 9 76 10 84 11 77 12 80 13
REMARK SMILES IDX 78 14 79 15 81 16 82 17 83 18 8 19 9 20 10 21 11 23 12 24
REMARK SMILES IDX 13 25 74 26 14 27 73 28 15 29 16 30 17 31 67 32 18 33 72 34
REMARK SMILES IDX 66 35 68 36 19 37 71 38 65 39 64 40 20 42 52 43 32 44 51 45
REMARK SMILES IDX 33 46 36 47 50 48 69 49 34 50 35 51 49 53 70 54 37 55 21 56
REMARK SMILES IDX 22 57 30 58 23 59 25 60 31 61 24 62 26 63 27 64 28 65 29 66
REMARK SMILES IDX 53 67 54 68 62 69 55 70 57 71 63 72 56 73 58 74 59 75 60 76
REMARK SMILES IDX 61 77 38 78 39 79 47 80 40 81 42 82 48 83 41 84 43 85 44 86
REMARK SMILES IDX 45 87 46 88
REMARK H PARENT 5 6 9 22 68 41 36 52
REMARK Flexibility Score: inf
ROOT
ATOM      1  C   UNL A   1      34.837  34.721  28.246  1.00  0.00     0.042 C 
ENDROOT
BRANCH   1   2
ATOM      2  C   UNL A   1      33.453  35.045  28.801  1.00  0.00     0.117 C 
BRANCH   2   3
ATOM      3  N   UNL A   1      33.434  36.324  29.488  1.00  0.00    -0.356 N 
ATOM      4  C   UNL A   1      33.000  36.649  30.739  1.00  0.00     0.227 C 
ATOM      5  O   UNL A   1      33.033  37.843  31.043  1.00  0.00    -0.274 OA
ATOM      6  H   UNL A   1      33.793  37.077  28.966  1.00  0.00     0.163 HD
BRANCH   4   7
ATOM      7  C   UNL A   1      32.532  35.544  31.708  1.00  0.00     0.107 C 
ATOM      8  C   UNL A   1      31.593  36.075  32.794  1.00  0.00     0.023 C 
BRANCH   7   9
ATOM      9  C   UNL A   1      33.719  34.844  32.360  1.00  0.00    -0.019 A 
ATOM     10  C   UNL A   1      34.367  35.488  33.486  1.00  0.00     0.012 A 
ATOM     11  C   UNL A   1      34.232  33.687  31.905  1.00  0.00     0.099 A 
ATOM     12  C   UNL A   1      35.468  34.960  34.039  1.00  0.00     0.072 A 
ATOM     13  N   UNL A   1      35.358  33.111  32.465  1.00  0.00    -0.258 N 
ATOM     14  C   UNL A   1      36.049  33.694  33.513  1.00  0.00     0.254 A 
ATOM     15  O   UNL A   1      37.075  33.264  34.030  1.00  0.00    -0.269 OA
BRANCH  13  16
ATOM     16  C   UNL A   1      35.892  31.892  31.916  1.00  0.00     0.451 C 
ATOM     17  F   UNL A   1      36.975  32.150  31.143  1.00  0.00    -0.185 F 
ATOM     18  F   UNL A   1      36.277  31.035  32.894  1.00  0.00    -0.185 F 
ENDBRANCH  13  16
ENDBRANCH   7   9
ENDBRANCH   4   7
ENDBRANCH   2   3
ENDBRANCH   1   2
BRANCH   1  19
ATOM     19  C   UNL A   1      35.281  33.281  28.481  1.00  0.00     0.118 C 
BRANCH  19  20
ATOM     20  N   UNL A   1      34.352  32.309  27.920  1.00  0.00    -0.352 N 
ATOM     21  C   UNL A   1      34.551  30.977  27.641  1.00  0.00     0.251 C 
ATOM     22  H   UNL A   1      33.454  32.654  27.711  1.00  0.00     0.163 HD
ATOM     23  O   UNL A   1      33.704  30.353  27.006  1.00  0.00    -0.269 OA
BRANCH  21  24
ATOM     24  C   UNL A   1      35.788  30.305  28.091  1.00  0.00     0.039 A 
ATOM     25  C   UNL A   1      36.936  30.384  27.297  1.00  0.00     0.014 A 
ATOM     26  C   UNL A   1      35.814  29.598  29.296  1.00  0.00     0.014 A 
ATOM     27  C   UNL A   1      38.130  29.810  27.743  1.00  0.00     0.010 A 
ATOM     28  C   UNL A   1      37.019  29.095  29.772  1.00  0.00     0.010 A 
ATOM     29  C   UNL A   1      38.187  29.189  29.000  1.00  0.00    -0.014 A 
BRANCH  29  30
ATOM     30  C   UNL A   1      39.444  28.613  29.544  1.00  0.00     0.031 A 
ATOM     31  C   UNL A   1      40.163  29.325  30.656  1.00  0.00     0.074 A 
ATOM     32  C   UNL A   1      40.007  27.544  28.950  1.00  0.00     0.049 A 
ATOM     33  N   UNL A   1      41.356  29.105  31.143  1.00  0.00    -0.248 NA
ATOM     34  C   UNL A   1      39.460  30.461  31.275  1.00  0.00     0.031 C 
ATOM     35  C   UNL A   1      39.438  26.807  27.821  1.00  0.00     0.029 A 
ATOM     36  N   UNL A   1      41.211  26.923  29.181  1.00  0.00    -0.354 N 
ATOM     37  C   UNL A   1      41.570  30.107  32.083  1.00  0.00     0.074 A 
ATOM     38  C   UNL A   1      40.394  30.949  32.078  1.00  0.00     0.031 C 
ATOM     39  C   UNL A   1      40.300  25.848  27.444  1.00  0.00     0.029 A 
ATOM     40  C   UNL A   1      41.497  25.928  28.276  1.00  0.00     0.049 A 
ATOM     41  H   UNL A   1      41.810  27.169  29.923  1.00  0.00     0.167 HD
ATOM     42  C   UNL A   1      42.639  30.297  32.892  1.00  0.00     0.034 A 
ATOM     43  C   UNL A   1      42.609  25.182  28.115  1.00  0.00     0.034 A 
ATOM     44  C   UNL A   1      43.783  29.429  32.925  1.00  0.00     0.049 A 
ATOM     45  C   UNL A   1      43.767  25.378  29.056  1.00  0.00     0.074 A 
ATOM     46  C   UNL A   1      44.877  29.479  33.771  1.00  0.00     0.029 A 
ATOM     47  N   UNL A   1      43.984  28.354  32.072  1.00  0.00    -0.354 N 
ATOM     48  N   UNL A   1      43.895  26.243  30.031  1.00  0.00    -0.248 NA
ATOM     49  C   UNL A   1      44.916  24.475  28.898  1.00  0.00     0.031 C 
ATOM     50  C   UNL A   1      45.750  28.446  33.413  1.00  0.00     0.029 A 
ATOM     51  C   UNL A   1      45.185  27.735  32.366  1.00  0.00     0.049 A 
ATOM     52  H   UNL A   1      43.364  28.073  31.362  1.00  0.00     0.167 HD
ATOM     53  C   UNL A   1      45.117  25.962  30.632  1.00  0.00     0.074 A 
ATOM     54  C   UNL A   1      45.689  24.843  29.912  1.00  0.00     0.031 C 
ATOM     55  C   UNL A   1      45.713  26.581  31.681  1.00  0.00     0.034 A 
BRANCH  42  56
ATOM     56  C   UNL A   1      42.596  31.471  33.836  1.00  0.00     0.023 A 
ATOM     57  C   UNL A   1      43.173  32.699  33.450  1.00  0.00     0.012 A 
ATOM     58  C   UNL A   1      41.964  31.371  35.090  1.00  0.00     0.148 A 
ATOM     59  C   UNL A   1      43.169  33.791  34.318  1.00  0.00     0.002 A 
ATOM     60  C   UNL A   1      41.920  32.478  35.930  1.00  0.00     0.091 A 
ATOM     61  F   UNL A   1      41.439  30.191  35.452  1.00  0.00    -0.205 F 
ATOM     62  C   UNL A   1      42.535  33.683  35.552  1.00  0.00     0.022 A 
BRANCH  60  63
ATOM     63  S   UNL A   1      41.053  32.459  37.502  1.00  0.00     0.127 S 
ATOM     64  O   UNL A   1      41.905  31.578  38.299  1.00  0.00    -0.237 OA
ATOM     65  O   UNL A   1      41.093  33.867  37.898  1.00  0.00    -0.237 OA
ATOM     66  O   UNL A   1      39.718  31.953  37.212  1.00  0.00    -0.744 OA
ENDBRANCH  60  63
ENDBRANCH  42  56
BRANCH  43  67
ATOM     67  C   UNL A   1      42.644  24.143  27.048  1.00  0.00     0.023 A 
ATOM     68  C   UNL A   1      43.343  24.403  25.853  1.00  0.00     0.012 A 
ATOM     69  C   UNL A   1      42.051  22.880  27.237  1.00  0.00     0.148 A 
ATOM     70  C   UNL A   1      43.432  23.431  24.857  1.00  0.00     0.002 A 
ATOM     71  C   UNL A   1      42.191  21.897  26.265  1.00  0.00     0.091 A 
ATOM     72  F   UNL A   1      41.388  22.655  28.380  1.00  0.00    -0.205 F 
ATOM     73  C   UNL A   1      42.868  22.176  25.066  1.00  0.00     0.022 A 
BRANCH  71  74
ATOM     74  S   UNL A   1      41.621  20.209  26.503  1.00  0.00     0.127 S 
ATOM     75  O   UNL A   1      42.244  19.521  25.376  1.00  0.00    -0.237 OA
ATOM     76  O   UNL A   1      42.185  19.885  27.813  1.00  0.00    -0.237 OA
ATOM     77  O   UNL A   1      40.166  20.275  26.474  1.00  0.00    -0.744 OA
ENDBRANCH  71  74
ENDBRANCH  43  67
BRANCH  55  78
ATOM     78  C   UNL A   1      47.029  26.038  32.171  1.00  0.00     0.023 A 
ATOM     79  C   UNL A   1      48.237  26.524  31.636  1.00  0.00     0.012 A 
ATOM     80  C   UNL A   1      47.063  25.129  33.249  1.00  0.00     0.148 A 
ATOM     81  C   UNL A   1      49.460  26.100  32.155  1.00  0.00     0.002 A 
ATOM     82  C   UNL A   1      48.283  24.750  33.792  1.00  0.00     0.091 A 
ATOM     83  F   UNL A   1      45.900  24.666  33.729  1.00  0.00    -0.205 F 
ATOM     84  C   UNL A   1      49.483  25.228  33.242  1.00  0.00     0.022 A 
BRANCH  82  85
ATOM     85  S   UNL A   1      48.408  23.712  35.254  1.00  0.00     0.127 S 
ATOM     86  O   UNL A   1      47.548  24.425  36.198  1.00  0.00    -0.237 OA
ATOM     87  O   UNL A   1      47.867  22.439  34.777  1.00  0.00    -0.237 OA
ATOM     88  O   UNL A   1      49.822  23.675  35.603  1.00  0.00    -0.744 OA
ENDBRANCH  82  85
ENDBRANCH  55  78
ENDBRANCH  29  30
ENDBRANCH  21  24
ENDBRANCH  19  20
ENDBRANCH   1  19
TORSDOF 15
ENDMDL
MODEL 2
REMARK VINA RESULT:     -10.8      1.836      2.359
REMARK SMILES C[C@@H](C(=O)NCCCNC(=O)c1ccc(-c2c3nc(c(-c4cccc(S(=O)(=O)[O-])c4F)c4ccc([nH]4)c(-c4cccc(S(=O)(=O)[O-])c4F)c4nc(c(-c5cccc(S(=O)(=O)[O-])c5F)c5ccc2[nH]5)C=C4)C=C3)cc1)c1ccc(=O)n(C(F)F)c1
REMARK SMILES IDX 7 1 6 2 5 3 3 4 4 5 2 7 1 8 75 9 76 10 84 11 77 12 80 13
REMARK SMILES IDX 78 14 79 15 81 16 82 17 83 18 8 19 9 20 10 21 11 23 12 24
REMARK SMILES IDX 13 25 74 26 14 27 73 28 15 29 16 30 17 31 67 32 18 33 72 34
REMARK SMILES IDX 66 35 68 36 19 37 71 38 65 39 64 40 20 42 52 43 32 44 51 45
REMARK SMILES IDX 33 46 36 47 50 48 69 49 34 50 35 51 49 53 70 54 37 55 21 56
REMARK SMILES IDX 22 57 30 58 23 59 25 60 31 61 24 62 26 63 27 64 28 65 29 66
REMARK SMILES IDX 53 67 54 68 62 69 55 70 57 71 63 72 56 73 58 74 59 75 60 76
REMARK SMILES IDX 61 77 38 78 39 79 47 80 40 81 42 82 48 83 41 84 43 85 44 86
REMARK SMILES IDX 45 87 46 88
REMARK H PARENT 5 6 9 22 68 41 36 52
REMARK Flexibility Score: inf
ROOT
ATOM      1  C   UNL A   1      34.812  34.671  29.026  1.00  0.00     0.042 C 
ENDROOT
BRANCH   1   2
ATOM      2  C   UNL A   1      33.987  34.400  30.281  1.00  0.00     0.117 C 
BRANCH   2   3
ATOM      3  N   UNL A   1      34.231  35.394  31.310  1.00  0.00    -0.356 N 
ATOM      4  C   UNL A   1      34.890  35.292  32.500  1.00  0.00     0.227 C 
ATOM      5  O   UNL A   1      34.882  36.290  33.225  1.00  0.00    -0.274 OA
ATOM      6  H   UNL A   1      33.859  36.285  31.118  1.00  0.00     0.163 HD
BRANCH   4   7
ATOM      7  C   UNL A   1      35.628  33.989  32.867  1.00  0.00     0.107 C 
ATOM      8  C   UNL A   1      35.380  33.563  34.316  1.00  0.00     0.023 C 
BRANCH   7   9
ATOM      9  C   UNL A   1      37.128  34.118  32.625  1.00  0.00    -0.019 A 
ATOM     10  C   UNL A   1      37.991  34.385  33.759  1.00  0.00     0.012 A 
ATOM     11  C   UNL A   1      37.684  34.054  31.401  1.00  0.00     0.099 A 
ATOM     12  C   UNL A   1      39.303  34.595  33.590  1.00  0.00     0.072 A 
ATOM     13  N   UNL A   1      39.037  34.252  31.198  1.00  0.00    -0.258 N 
ATOM     14  C   UNL A   1      39.909  34.553  32.231  1.00  0.00     0.254 A 
ATOM     15  O   UNL A   1      41.109  34.782  32.119  1.00  0.00    -0.269 OA
BRANCH  13  16
ATOM     16  C   UNL A   1      39.578  34.214  29.864  1.00  0.00     0.451 C 
ATOM     17  F   UNL A   1      40.381  33.132  29.705  1.00  0.00    -0.185 F 
ATOM     18  F   UNL A   1      38.596  34.140  28.933  1.00  0.00    -0.185 F 
ENDBRANCH  13  16
ENDBRANCH   7   9
ENDBRANCH   4   7
ENDBRANCH   2   3
ENDBRANCH   1   2
BRANCH   1  19
ATOM     19  C   UNL A   1      35.449  33.427  28.418  1.00  0.00     0.118 C 
BRANCH  19  20
ATOM     20  N   UNL A   1      34.463  32.457  27.959  1.00  0.00    -0.352 N 
ATOM     21  C   UNL A   1      34.597  31.102  27.774  1.00  0.00     0.251 C 
ATOM     22  H   UNL A   1      33.574  32.825  27.752  1.00  0.00     0.163 HD
ATOM     23  O   UNL A   1      33.705  30.471  27.213  1.00  0.00    -0.269 OA
BRANCH  21  24
ATOM     24  C   UNL A   1      35.820  30.411  28.235  1.00  0.00     0.039 A 
ATOM     25  C   UNL A   1      36.958  30.422  27.423  1.00  0.00     0.014 A 
ATOM     26  C   UNL A   1      35.842  29.754  29.468  1.00  0.00     0.014 A 
ATOM     27  C   UNL A   1      38.141  29.830  27.877  1.00  0.00     0.010 A 
ATOM     28  C   UNL A   1      37.038  29.234  29.949  1.00  0.00     0.010 A 
ATOM     29  C   UNL A   1      38.198  29.260  29.157  1.00  0.00    -0.014 A 
BRANCH  29  30
ATOM     30  C   UNL A   1      39.444  28.669  29.708  1.00  0.00     0.031 A 
ATOM     31  C   UNL A   1      40.164  29.369  30.827  1.00  0.00     0.074 A 
ATOM     32  C   UNL A   1      40.000  27.595  29.114  1.00  0.00     0.049 A 
ATOM     33  N   UNL A   1      41.351  29.135  31.321  1.00  0.00    -0.248 NA
ATOM     34  C   UNL A   1      39.470  30.511  31.444  1.00  0.00     0.031 C 
ATOM     35  C   UNL A   1      39.429  26.867  27.980  1.00  0.00     0.029 A 
ATOM     36  N   UNL A   1      41.195  26.960  29.352  1.00  0.00    -0.354 N 
ATOM     37  C   UNL A   1      41.570  30.132  32.265  1.00  0.00     0.074 A 
ATOM     38  C   UNL A   1      40.404  30.987  32.255  1.00  0.00     0.031 C 
ATOM     39  C   UNL A   1      40.283  25.900  27.605  1.00  0.00     0.029 A 
ATOM     40  C   UNL A   1      41.476  25.964  28.446  1.00  0.00     0.049 A 
ATOM     41  H   UNL A   1      41.792  27.197  30.098  1.00  0.00     0.167 HD
ATOM     42  C   UNL A   1      42.636  30.307  33.081  1.00  0.00     0.034 A 
ATOM     43  C   UNL A   1      42.580  25.207  28.289  1.00  0.00     0.034 A 
ATOM     44  C   UNL A   1      43.770  29.427  33.120  1.00  0.00     0.049 A 
ATOM     45  C   UNL A   1      43.734  25.387  29.239  1.00  0.00     0.074 A 
ATOM     46  C   UNL A   1      44.860  29.462  33.972  1.00  0.00     0.029 A 
ATOM     47  N   UNL A   1      43.965  28.352  32.265  1.00  0.00    -0.354 N 
ATOM     48  N   UNL A   1      43.866  26.248  30.217  1.00  0.00    -0.248 NA
ATOM     49  C   UNL A   1      44.874  24.472  29.085  1.00  0.00     0.031 C 
ATOM     50  C   UNL A   1      45.723  28.421  33.617  1.00  0.00     0.029 A 
ATOM     51  C   UNL A   1      45.157  27.719  32.565  1.00  0.00     0.049 A 
ATOM     52  H   UNL A   1      43.346  28.080  31.549  1.00  0.00     0.167 HD
ATOM     53  C   UNL A   1      45.081  25.952  30.825  1.00  0.00     0.074 A 
ATOM     54  C   UNL A   1      45.644  24.828  30.106  1.00  0.00     0.031 C 
ATOM     55  C   UNL A   1      45.677  26.560  31.880  1.00  0.00     0.034 A 
BRANCH  42  56
ATOM     56  C   UNL A   1      42.600  31.480  34.028  1.00  0.00     0.023 A 
ATOM     57  C   UNL A   1      43.272  32.673  33.689  1.00  0.00     0.012 A 
ATOM     58  C   UNL A   1      41.883  31.412  35.239  1.00  0.00     0.148 A 
ATOM     59  C   UNL A   1      43.274  33.761  34.562  1.00  0.00     0.002 A 
ATOM     60  C   UNL A   1      41.849  32.518  36.080  1.00  0.00     0.091 A 
ATOM     61  F   UNL A   1      41.268  30.265  35.557  1.00  0.00    -0.205 F 
ATOM     62  C   UNL A   1      42.556  33.686  35.751  1.00  0.00     0.022 A 
BRANCH  60  63
ATOM     63  S   UNL A   1      40.882  32.545  37.593  1.00  0.00     0.127 S 
ATOM     64  O   UNL A   1      39.640  31.904  37.161  1.00  0.00    -0.237 OA
ATOM     65  O   UNL A   1      41.700  31.739  38.500  1.00  0.00    -0.237 OA
ATOM     66  O   UNL A   1      40.770  33.947  37.968  1.00  0.00    -0.744 OA
ENDBRANCH  60  63
ENDBRANCH  42  56
BRANCH  43  67
ATOM     67  C   UNL A   1      42.611  24.170  27.220  1.00  0.00     0.023 A 
ATOM     68  C   UNL A   1      43.310  24.430  26.026  1.00  0.00     0.012 A 
ATOM     69  C   UNL A   1      42.012  22.909  27.406  1.00  0.00     0.148 A 
ATOM     70  C   UNL A   1      43.396  23.460  25.027  1.00  0.00     0.002 A 
ATOM     71  C   UNL A   1      42.148  21.928  26.431  1.00  0.00     0.091 A 
ATOM     72  F   UNL A   1      41.348  22.685  28.549  1.00  0.00    -0.205 F 
ATOM     73  C   UNL A   1      42.826  22.207  25.233  1.00  0.00     0.022 A 
BRANCH  71  74
ATOM     74  S   UNL A   1      41.570  20.242  26.665  1.00  0.00     0.127 S 
ATOM     75  O   UNL A   1      42.302  19.838  27.861  1.00  0.00    -0.237 OA
ATOM     76  O   UNL A   1      40.133  20.443  26.858  1.00  0.00    -0.237 OA
ATOM     77  O   UNL A   1      41.919  19.531  25.442  1.00  0.00    -0.744 OA
ENDBRANCH  71  74
ENDBRANCH  43  67
BRANCH  55  78
ATOM     78  C   UNL A   1      46.983  26.002  32.377  1.00  0.00     0.023 A 
ATOM     79  C   UNL A   1      46.999  25.088  33.447  1.00  0.00     0.012 A 
ATOM     80  C   UNL A   1      48.184  26.297  31.698  1.00  0.00     0.148 A 
ATOM     81  C   UNL A   1      48.194  24.488  33.846  1.00  0.00     0.002 A 
ATOM     82  C   UNL A   1      49.360  25.660  32.069  1.00  0.00     0.091 A 
ATOM     83  F   UNL A   1      48.146  27.185  30.694  1.00  0.00    -0.205 F 
ATOM     84  C   UNL A   1      49.368  24.761  33.148  1.00  0.00     0.022 A 
BRANCH  82  85
ATOM     85  S   UNL A   1      50.898  25.871  31.166  1.00  0.00     0.127 S 
ATOM     86  O   UNL A   1      50.479  25.585  29.795  1.00  0.00    -0.237 OA
ATOM     87  O   UNL A   1      51.219  27.275  31.426  1.00  0.00    -0.237 OA
ATOM     88  O   UNL A   1      51.838  24.919  31.742  1.00  0.00    -0.744 OA
ENDBRANCH  82  85
ENDBRANCH  55  78
ENDBRANCH  29  30
ENDBRANCH  21  24
ENDBRANCH  19  20
ENDBRANCH   1  19
TORSDOF 15
ENDMDL
MODEL 3
REMARK VINA RESULT:     -10.7      4.008     10.236
REMARK SMILES C[C@@H](C(=O)NCCCNC(=O)c1ccc(-c2c3nc(c(-c4cccc(S(=O)(=O)[O-])c4F)c4ccc([nH]4)c(-c4cccc(S(=O)(=O)[O-])c4F)c4nc(c(-c5cccc(S(=O)(=O)[O-])c5F)c5ccc2[nH]5)C=C4)C=C3)cc1)c1ccc(=O)n(C(F)F)c1
REMARK SMILES IDX 7 1 6 2 5 3 3 4 4 5 2 7 1 8 75 9 76 10 84 11 77 12 80 13
REMARK SMILES IDX 78 14 79 15 81 16 82 17 83 18 8 19 9 20 10 21 11 23 12 24
REMARK SMILES IDX 13 25 74 26 14 27 73 28 15 29 16 30 17 31 67 32 18 33 72 34
REMARK SMILES IDX 66 35 68 36 19 37 71 38 65 39 64 40 20 42 52 43 32 44 51 45
REMARK SMILES IDX 33 46 36 47 50 48 69 49 34 50 35 51 49 53 70 54 37 55 21 56
REMARK SMILES IDX 22 57 30 58 23 59 25 60 31 61 24 62 26 63 27 64 28 65 29 66
REMARK SMILES IDX 53 67 54 68 62 69 55 70 57 71 63 72 56 73 58 74 59 75 60 76
REMARK SMILES IDX 61 77 38 78 39 79 47 80 40 81 42 82 48 83 41 84 43 85 44 86
REMARK SMILES IDX 45 87 46 88
REMARK H PARENT 5 6 9 22 68 41 36 52
REMARK Flexibility Score: inf
ROOT
ATOM      1  C   UNL A   1      32.865  27.747  25.980  1.00  0.00     0.042 C 
ENDROOT
BRANCH   1   2
ATOM      2  C   UNL A   1      31.390  27.395  25.809  1.00  0.00     0.117 C 
BRANCH   2   3
ATOM      3  N   UNL A   1      31.029  26.208  26.562  1.00  0.00    -0.356 N 
ATOM      4  C   UNL A   1      31.077  24.890  26.212  1.00  0.00     0.227 C 
ATOM      5  O   UNL A   1      30.633  24.084  27.032  1.00  0.00    -0.274 OA
ATOM      6  H   UNL A   1      30.696  26.383  27.471  1.00  0.00     0.163 HD
BRANCH   4   7
ATOM      7  C   UNL A   1      31.698  24.468  24.864  1.00  0.00     0.107 C 
ATOM      8  C   UNL A   1      30.649  23.969  23.868  1.00  0.00     0.023 C 
BRANCH   7   9
ATOM      9  C   UNL A   1      32.765  23.398  25.060  1.00  0.00    -0.019 A 
ATOM     10  C   UNL A   1      34.096  23.813  25.457  1.00  0.00     0.012 A 
ATOM     11  C   UNL A   1      32.547  22.091  24.826  1.00  0.00     0.099 A 
ATOM     12  C   UNL A   1      35.093  22.924  25.556  1.00  0.00     0.072 A 
ATOM     13  N   UNL A   1      33.553  21.148  24.936  1.00  0.00    -0.258 N 
ATOM     14  C   UNL A   1      34.855  21.482  25.268  1.00  0.00     0.254 A 
ATOM     15  O   UNL A   1      35.803  20.708  25.341  1.00  0.00    -0.269 OA
BRANCH  13  16
ATOM     16  C   UNL A   1      33.280  19.766  24.636  1.00  0.00     0.451 C 
ATOM     17  F   UNL A   1      32.900  19.100  25.754  1.00  0.00    -0.185 F 
ATOM     18  F   UNL A   1      32.285  19.644  23.723  1.00  0.00    -0.185 F 
ENDBRANCH  13  16
ENDBRANCH   7   9
ENDBRANCH   4   7
ENDBRANCH   2   3
ENDBRANCH   1   2
BRANCH   1  19
ATOM     19  C   UNL A   1      33.289  29.024  25.263  1.00  0.00     0.118 C 
BRANCH  19  20
ATOM     20  N   UNL A   1      32.657  30.215  25.815  1.00  0.00    -0.352 N 
ATOM     21  C   UNL A   1      33.053  30.998  26.873  1.00  0.00     0.251 C 
ATOM     22  H   UNL A   1      31.828  30.499  25.366  1.00  0.00     0.163 HD
ATOM     23  O   UNL A   1      32.298  31.865  27.307  1.00  0.00    -0.269 OA
BRANCH  21  24
ATOM     24  C   UNL A   1      34.376  30.785  27.495  1.00  0.00     0.039 A 
ATOM     25  C   UNL A   1      35.253  31.866  27.626  1.00  0.00     0.014 A 
ATOM     26  C   UNL A   1      34.750  29.518  27.951  1.00  0.00     0.014 A 
ATOM     27  C   UNL A   1      36.479  31.692  28.274  1.00  0.00     0.010 A 
ATOM     28  C   UNL A   1      35.935  29.364  28.662  1.00  0.00     0.010 A 
ATOM     29  C   UNL A   1      36.815  30.446  28.825  1.00  0.00    -0.014 A 
BRANCH  29  30
ATOM     30  C   UNL A   1      38.080  30.224  29.571  1.00  0.00     0.031 A 
ATOM     31  C   UNL A   1      39.097  29.256  29.031  1.00  0.00     0.074 A 
ATOM     32  C   UNL A   1      38.249  30.773  30.788  1.00  0.00     0.049 A 
ATOM     33  N   UNL A   1      40.167  28.774  29.607  1.00  0.00    -0.248 NA
ATOM     34  C   UNL A   1      38.853  28.730  27.678  1.00  0.00     0.031 C 
ATOM     35  C   UNL A   1      37.305  31.678  31.446  1.00  0.00     0.029 A 
ATOM     36  N   UNL A   1      39.254  30.611  31.711  1.00  0.00    -0.354 N 
ATOM     37  C   UNL A   1      40.691  27.848  28.713  1.00  0.00     0.074 A 
ATOM     38  C   UNL A   1      39.808  27.818  27.568  1.00  0.00     0.031 C 
ATOM     39  C   UNL A   1      37.763  31.973  32.674  1.00  0.00     0.029 A 
ATOM     40  C   UNL A   1      39.011  31.249  32.905  1.00  0.00     0.049 A 
ATOM     41  H   UNL A   1      40.069  30.087  31.534  1.00  0.00     0.167 HD
ATOM     42  C   UNL A   1      41.819  27.107  28.824  1.00  0.00     0.034 A 
ATOM     43  C   UNL A   1      39.698  31.233  34.064  1.00  0.00     0.034 A 
ATOM     44  C   UNL A   1      42.718  27.177  29.943  1.00  0.00     0.049 A 
ATOM     45  C   UNL A   1      40.974  30.439  34.150  1.00  0.00     0.074 A 
ATOM     46  C   UNL A   1      43.933  26.537  30.113  1.00  0.00     0.029 A 
ATOM     47  N   UNL A   1      42.498  27.930  31.086  1.00  0.00    -0.354 N 
ATOM     48  N   UNL A   1      41.529  29.675  33.242  1.00  0.00    -0.248 NA
ATOM     49  C   UNL A   1      41.735  30.531  35.404  1.00  0.00     0.031 C 
ATOM     50  C   UNL A   1      44.436  26.887  31.369  1.00  0.00     0.029 A 
ATOM     51  C   UNL A   1      43.551  27.769  31.968  1.00  0.00     0.049 A 
ATOM     52  H   UNL A   1      41.709  28.496  31.247  1.00  0.00     0.167 HD
ATOM     53  C   UNL A   1      42.724  29.230  33.795  1.00  0.00     0.074 A 
ATOM     54  C   UNL A   1      42.814  29.814  35.117  1.00  0.00     0.031 C 
ATOM     55  C   UNL A   1      43.658  28.407  33.257  1.00  0.00     0.034 A 
BRANCH  42  56
ATOM     56  C   UNL A   1      42.158  26.184  27.682  1.00  0.00     0.023 A 
ATOM     57  C   UNL A   1      42.894  26.673  26.583  1.00  0.00     0.012 A 
ATOM     58  C   UNL A   1      41.773  24.829  27.705  1.00  0.00     0.148 A 
ATOM     59  C   UNL A   1      43.196  25.844  25.503  1.00  0.00     0.002 A 
ATOM     60  C   UNL A   1      42.121  23.997  26.647  1.00  0.00     0.091 A 
ATOM     61  F   UNL A   1      41.055  24.384  28.746  1.00  0.00    -0.205 F 
ATOM     62  C   UNL A   1      42.818  24.505  25.540  1.00  0.00     0.022 A 
BRANCH  60  63
ATOM     63  S   UNL A   1      41.751  22.239  26.646  1.00  0.00     0.127 S 
ATOM     64  O   UNL A   1      42.329  21.817  25.371  1.00  0.00    -0.237 OA
ATOM     65  O   UNL A   1      42.474  21.768  27.828  1.00  0.00    -0.237 OA
ATOM     66  O   UNL A   1      40.302  22.139  26.746  1.00  0.00    -0.744 OA
ENDBRANCH  60  63
ENDBRANCH  42  56
BRANCH  43  67
ATOM     67  C   UNL A   1      39.212  32.046  35.215  1.00  0.00     0.023 A 
ATOM     68  C   UNL A   1      38.321  31.470  36.140  1.00  0.00     0.012 A 
ATOM     69  C   UNL A   1      39.679  33.356  35.433  1.00  0.00     0.148 A 
ATOM     70  C   UNL A   1      37.887  32.191  37.252  1.00  0.00     0.002 A 
ATOM     71  C   UNL A   1      39.286  34.049  36.572  1.00  0.00     0.091 A 
ATOM     72  F   UNL A   1      40.524  33.886  34.537  1.00  0.00    -0.205 F 
ATOM     73  C   UNL A   1      38.377  33.475  37.474  1.00  0.00     0.022 A 
BRANCH  71  74
ATOM     74  S   UNL A   1      39.971  35.651  37.016  1.00  0.00     0.127 S 
ATOM     75  O   UNL A   1      41.386  35.335  37.184  1.00  0.00    -0.237 OA
ATOM     76  O   UNL A   1      39.654  36.450  35.832  1.00  0.00    -0.237 OA
ATOM     77  O   UNL A   1      39.269  36.061  38.225  1.00  0.00    -0.744 OA
ENDBRANCH  71  74
ENDBRANCH  43  67
BRANCH  55  78
ATOM     78  C   UNL A   1      44.900  28.123  34.059  1.00  0.00     0.023 A 
ATOM     79  C   UNL A   1      46.004  28.993  33.985  1.00  0.00     0.012 A 
ATOM     80  C   UNL A   1      44.920  27.053  34.978  1.00  0.00     0.148 A 
ATOM     81  C   UNL A   1      47.117  28.793  34.801  1.00  0.00     0.002 A 
ATOM     82  C   UNL A   1      46.011  26.889  35.821  1.00  0.00     0.091 A 
ATOM     83  F   UNL A   1      43.865  26.227  35.017  1.00  0.00    -0.205 F 
ATOM     84  C   UNL A   1      47.114  27.753  35.728  1.00  0.00     0.022 A 
BRANCH  82  85
ATOM     85  S   UNL A   1      46.052  25.642  37.114  1.00  0.00     0.127 S 
ATOM     86  O   UNL A   1      46.034  24.405  36.334  1.00  0.00    -0.237 OA
ATOM     87  O   UNL A   1      47.324  25.927  37.778  1.00  0.00    -0.237 OA
ATOM     88  O   UNL A   1      44.874  25.876  37.938  1.00  0.00    -0.744 OA
ENDBRANCH  82  85
ENDBRANCH  55  78
ENDBRANCH  29  30
ENDBRANCH  21  24
ENDBRANCH  19  20
ENDBRANCH   1  19
TORSDOF 15
ENDMDL
