MODEL 1
REMARK VINA RESULT:     -10.4      0.000      0.000
REMARK SMILES C#CC[N@H+](CC(=O)NCCCNC(=O)c1ccc(-c2c3nc(c(-c4cccc(S(=O)(=O)[O-])c4F)c4ccc([nH]4)c(-c4cccc(S(=O)(=O)[O-])c4F)c4nc(c(-c5cccc(S(=O)(=O)[O-])c5F)c5ccc2[nH]5)C=C4)C=C3)cc1)[C@H](C)C(=O)NCCC
REMARK SMILES IDX 9 1 8 2 6 3 7 4 5 6 4 7 3 9 2 10 1 11 78 12 79 13 80 14
REMARK SMILES IDX 81 15 82 16 83 18 84 19 85 20 10 21 11 22 12 23 13 24 14 26
REMARK SMILES IDX 15 27 16 28 77 29 17 30 76 31 18 32 19 33 20 34 70 35 21 36
REMARK SMILES IDX 75 37 69 38 71 39 22 40 74 41 68 42 67 43 23 45 55 46 35 47
REMARK SMILES IDX 54 48 36 49 39 50 53 51 72 52 37 53 38 54 52 56 73 57 40 58
REMARK SMILES IDX 24 59 25 60 33 61 26 62 28 63 34 64 27 65 29 66 30 67 31 68
REMARK SMILES IDX 32 69 56 70 57 71 65 72 58 73 60 74 66 75 59 76 61 77 62 78
REMARK SMILES IDX 63 79 64 80 41 81 42 82 50 83 43 84 45 85 51 86 44 87 46 88
REMARK SMILES IDX 47 89 48 90 49 91
REMARK H PARENT 8 5 4 8 82 17 12 25 71 44 39 55
REMARK Flexibility Score: inf
ROOT
ATOM      1  C   UNL A   1      36.449  20.271  24.661  1.00  0.00     0.118 C 
ENDROOT
BRANCH   1   2
ATOM      2  N   UNL A   1      35.157  19.712  25.044  1.00  0.00    -0.351 N 
ATOM      3  C   UNL A   1      33.894  20.249  24.981  1.00  0.00     0.275 C 
ATOM      4  O   UNL A   1      32.954  19.556  25.374  1.00  0.00    -0.269 OA
ATOM      5  H   UNL A   1      35.198  18.799  25.408  1.00  0.00     0.163 HD
BRANCH   3   6
ATOM      6  C   UNL A   1      33.685  21.660  24.407  1.00  0.00     0.364 C 
BRANCH   6   7
ATOM      7  N   UNL A   1      33.386  22.737  25.394  1.00  0.00    -0.307 N 
ATOM      8  H   UNL A   1      33.554  22.405  26.344  1.00  0.00     0.350 HD
BRANCH   7   9
ATOM      9  C   UNL A   1      34.338  23.833  25.313  1.00  0.00     0.355 C 
BRANCH   9  10
ATOM     10  C   UNL A   1      35.755  23.639  25.635  1.00  0.00    -0.047 C 
ATOM     11  C   UNL A   1      36.920  23.736  25.899  1.00  0.00     0.010 C 
ENDBRANCH   9  10
ENDBRANCH   7   9
BRANCH   7  12
ATOM     12  C   UNL A   1      31.918  23.049  25.446  1.00  0.00     0.272 C 
ATOM     13  C   UNL A   1      31.198  23.658  24.224  1.00  0.00     0.086 C 
BRANCH  12  14
ATOM     14  C   UNL A   1      31.388  23.733  26.725  1.00  0.00     0.278 C 
ATOM     15  O   UNL A   1      30.847  23.058  27.608  1.00  0.00    -0.268 OA
ATOM     16  N   UNL A   1      31.408  25.090  26.903  1.00  0.00    -0.351 N 
ATOM     17  H   UNL A   1      30.864  25.404  27.661  1.00  0.00     0.163 HD
BRANCH  16  18
ATOM     18  C   UNL A   1      32.088  26.154  26.179  1.00  0.00     0.116 C 
BRANCH  18  19
ATOM     19  C   UNL A   1      31.155  27.299  25.803  1.00  0.00     0.018 C 
ATOM     20  C   UNL A   1      31.821  28.658  25.970  1.00  0.00     0.006 C 
ENDBRANCH  18  19
ENDBRANCH  16  18
ENDBRANCH  12  14
ENDBRANCH   7  12
ENDBRANCH   6   7
ENDBRANCH   3   6
ENDBRANCH   1   2
BRANCH   1  21
ATOM     21  C   UNL A   1      37.624  19.347  24.986  1.00  0.00     0.042 C 
BRANCH  21  22
ATOM     22  C   UNL A   1      38.832  20.043  25.578  1.00  0.00     0.118 C 
BRANCH  22  23
ATOM     23  N   UNL A   1      39.897  19.105  25.866  1.00  0.00    -0.352 N 
ATOM     24  C   UNL A   1      41.224  19.355  26.117  1.00  0.00     0.251 C 
ATOM     25  H   UNL A   1      39.633  18.157  25.885  1.00  0.00     0.163 HD
ATOM     26  O   UNL A   1      42.025  18.426  26.051  1.00  0.00    -0.269 OA
BRANCH  24  27
ATOM     27  C   UNL A   1      41.693  20.723  26.445  1.00  0.00     0.039 A 
ATOM     28  C   UNL A   1      41.996  21.596  25.397  1.00  0.00     0.014 A 
ATOM     29  C   UNL A   1      41.873  21.145  27.767  1.00  0.00     0.014 A 
ATOM     30  C   UNL A   1      42.438  22.893  25.676  1.00  0.00     0.010 A 
ATOM     31  C   UNL A   1      42.214  22.468  28.042  1.00  0.00     0.010 A 
ATOM     32  C   UNL A   1      42.523  23.352  26.999  1.00  0.00    -0.014 A 
BRANCH  32  33
ATOM     33  C   UNL A   1      42.938  24.749  27.300  1.00  0.00     0.031 A 
ATOM     34  C   UNL A   1      41.979  25.707  27.960  1.00  0.00     0.074 A 
ATOM     35  C   UNL A   1      44.163  25.174  26.929  1.00  0.00     0.049 A 
ATOM     36  N   UNL A   1      42.161  26.964  28.273  1.00  0.00    -0.248 NA
ATOM     37  C   UNL A   1      40.638  25.199  28.296  1.00  0.00     0.031 C 
ATOM     38  C   UNL A   1      45.159  24.367  26.219  1.00  0.00     0.029 A 
ATOM     39  N   UNL A   1      44.773  26.396  27.074  1.00  0.00    -0.354 N 
ATOM     40  C   UNL A   1      40.952  27.405  28.801  1.00  0.00     0.074 A 
ATOM     41  C   UNL A   1      40.037  26.289  28.751  1.00  0.00     0.031 C 
ATOM     42  C   UNL A   1      46.253  25.111  25.995  1.00  0.00     0.029 A 
ATOM     43  C   UNL A   1      46.023  26.461  26.499  1.00  0.00     0.049 A 
ATOM     44  H   UNL A   1      44.357  27.154  27.544  1.00  0.00     0.167 HD
ATOM     45  C   UNL A   1      40.639  28.624  29.298  1.00  0.00     0.034 A 
ATOM     46  C   UNL A   1      46.876  27.496  26.364  1.00  0.00     0.034 A 
ATOM     47  C   UNL A   1      41.560  29.725  29.378  1.00  0.00     0.049 A 
ATOM     48  C   UNL A   1      46.502  28.833  26.944  1.00  0.00     0.074 A 
ATOM     49  C   UNL A   1      41.362  30.967  29.957  1.00  0.00     0.029 A 
ATOM     50  N   UNL A   1      42.838  29.732  28.843  1.00  0.00    -0.354 N 
ATOM     51  N   UNL A   1      45.414  29.178  27.588  1.00  0.00    -0.248 NA
ATOM     52  C   UNL A   1      47.487  29.917  26.809  1.00  0.00     0.031 C 
ATOM     53  C   UNL A   1      42.497  31.745  29.718  1.00  0.00     0.029 A 
ATOM     54  C   UNL A   1      43.427  30.967  29.051  1.00  0.00     0.049 A 
ATOM     55  H   UNL A   1      43.262  28.972  28.383  1.00  0.00     0.167 HD
ATOM     56  C   UNL A   1      45.601  30.503  27.966  1.00  0.00     0.074 A 
ATOM     57  C   UNL A   1      46.916  30.889  27.503  1.00  0.00     0.031 C 
ATOM     58  C   UNL A   1      44.754  31.328  28.628  1.00  0.00     0.034 A 
BRANCH  45  59
ATOM     59  C   UNL A   1      39.243  28.850  29.816  1.00  0.00     0.023 A 
ATOM     60  C   UNL A   1      38.924  28.535  31.151  1.00  0.00     0.012 A 
ATOM     61  C   UNL A   1      38.281  29.487  29.005  1.00  0.00     0.148 A 
ATOM     62  C   UNL A   1      37.663  28.834  31.667  1.00  0.00     0.002 A 
ATOM     63  C   UNL A   1      37.046  29.826  29.540  1.00  0.00     0.091 A 
ATOM     64  F   UNL A   1      38.602  29.760  27.732  1.00  0.00    -0.205 F 
ATOM     65  C   UNL A   1      36.731  29.491  30.867  1.00  0.00     0.022 A 
BRANCH  63  66
ATOM     66  S   UNL A   1      35.813  30.752  28.621  1.00  0.00     0.127 S 
ATOM     67  O   UNL A   1      35.090  29.680  27.935  1.00  0.00    -0.237 OA
ATOM     68  O   UNL A   1      35.060  31.404  29.693  1.00  0.00    -0.237 OA
ATOM     69  O   UNL A   1      36.550  31.656  27.750  1.00  0.00    -0.744 OA
ENDBRANCH  63  66
ENDBRANCH  45  59
BRANCH  46  70
ATOM     70  C   UNL A   1      48.170  27.319  25.645  1.00  0.00     0.023 A 
ATOM     71  C   UNL A   1      49.337  26.982  26.360  1.00  0.00     0.012 A 
ATOM     72  C   UNL A   1      48.251  27.508  24.253  1.00  0.00     0.148 A 
ATOM     73  C   UNL A   1      50.568  26.896  25.710  1.00  0.00     0.002 A 
ATOM     74  C   UNL A   1      49.469  27.354  23.601  1.00  0.00     0.091 A 
ATOM     75  F   UNL A   1      47.134  27.838  23.589  1.00  0.00    -0.205 F 
ATOM     76  C   UNL A   1      50.634  27.074  24.331  1.00  0.00     0.022 A 
BRANCH  74  77
ATOM     77  S   UNL A   1      49.612  27.425  21.813  1.00  0.00     0.127 S 
ATOM     78  O   UNL A   1      48.668  26.392  21.398  1.00  0.00    -0.237 OA
ATOM     79  O   UNL A   1      49.191  28.798  21.533  1.00  0.00    -0.237 OA
ATOM     80  O   UNL A   1      51.015  27.160  21.522  1.00  0.00    -0.744 OA
ENDBRANCH  74  77
ENDBRANCH  46  70
BRANCH  58  81
ATOM     81  C   UNL A   1      45.238  32.718  28.951  1.00  0.00     0.023 A 
ATOM     82  C   UNL A   1      46.015  32.953  30.102  1.00  0.00     0.012 A 
ATOM     83  C   UNL A   1      44.971  33.782  28.066  1.00  0.00     0.148 A 
ATOM     84  C   UNL A   1      46.484  34.236  30.388  1.00  0.00     0.002 A 
ATOM     85  C   UNL A   1      45.491  35.043  28.327  1.00  0.00     0.091 A 
ATOM     86  F   UNL A   1      44.218  33.540  26.983  1.00  0.00    -0.205 F 
ATOM     87  C   UNL A   1      46.233  35.276  29.496  1.00  0.00     0.022 A 
BRANCH  85  88
ATOM     88  S   UNL A   1      45.304  36.417  27.187  1.00  0.00     0.127 S 
ATOM     89  O   UNL A   1      45.737  37.547  28.008  1.00  0.00    -0.237 OA
ATOM     90  O   UNL A   1      46.229  36.053  26.113  1.00  0.00    -0.237 OA
ATOM     91  O   UNL A   1      43.901  36.434  26.799  1.00  0.00    -0.744 OA
ENDBRANCH  85  88
ENDBRANCH  58  81
ENDBRANCH  32  33
ENDBRANCH  24  27
ENDBRANCH  22  23
ENDBRANCH  21  22
ENDBRANCH   1  21
TORSDOF 20
ENDMDL
MODEL 2
REMARK VINA RESULT:     -10.3      6.421     11.769
REMARK SMILES C#CC[N@H+](CC(=O)NCCCNC(=O)c1ccc(-c2c3nc(c(-c4cccc(S(=O)(=O)[O-])c4F)c4ccc([nH]4)c(-c4cccc(S(=O)(=O)[O-])c4F)c4nc(c(-c5cccc(S(=O)(=O)[O-])c5F)c5ccc2[nH]5)C=C4)C=C3)cc1)[C@H](C)C(=O)NCCC
REMARK SMILES IDX 9 1 8 2 6 3 7 4 5 6 4 7 3 9 2 10 1 11 78 12 79 13 80 14
REMARK SMILES IDX 81 15 82 16 83 18 84 19 85 20 10 21 11 22 12 23 13 24 14 26
REMARK SMILES IDX 15 27 16 28 77 29 17 30 76 31 18 32 19 33 20 34 70 35 21 36
REMARK SMILES IDX 75 37 69 38 71 39 22 40 74 41 68 42 67 43 23 45 55 46 35 47
REMARK SMILES IDX 54 48 36 49 39 50 53 51 72 52 37 53 38 54 52 56 73 57 40 58
REMARK SMILES IDX 24 59 25 60 33 61 26 62 28 63 34 64 27 65 29 66 30 67 31 68
REMARK SMILES IDX 32 69 56 70 57 71 65 72 58 73 60 74 66 75 59 76 61 77 62 78
REMARK SMILES IDX 63 79 64 80 41 81 42 82 50 83 43 84 45 85 51 86 44 87 46 88
REMARK SMILES IDX 47 89 48 90 49 91
REMARK H PARENT 8 5 4 8 82 17 12 25 71 44 39 55
REMARK Flexibility Score: inf
ROOT
ATOM      1  C   UNL A   1      31.294  30.756  25.787  1.00  0.00     0.118 C 
ENDROOT
BRANCH   1   2
ATOM      2  N   UNL A   1      32.557  30.057  25.991  1.00  0.00    -0.351 N 
ATOM      3  C   UNL A   1      33.170  29.077  25.248  1.00  0.00     0.275 C 
ATOM      4  O   UNL A   1      34.254  28.648  25.645  1.00  0.00    -0.269 OA
ATOM      5  H   UNL A   1      33.052  30.332  26.796  1.00  0.00     0.163 HD
BRANCH   3   6
ATOM      6  C   UNL A   1      32.517  28.574  23.950  1.00  0.00     0.364 C 
BRANCH   6   7
ATOM      7  N   UNL A   1      31.633  27.379  24.076  1.00  0.00    -0.307 N 
ATOM      8  H   UNL A   1      31.840  26.875  24.939  1.00  0.00     0.350 HD
BRANCH   7   9
ATOM      9  C   UNL A   1      30.244  27.748  24.299  1.00  0.00     0.355 C 
BRANCH   9  10
ATOM     10  C   UNL A   1      29.531  28.632  23.372  1.00  0.00    -0.047 C 
ATOM     11  C   UNL A   1      28.982  29.163  22.448  1.00  0.00     0.010 C 
ENDBRANCH   9  10
ENDBRANCH   7   9
BRANCH   7  12
ATOM     12  C   UNL A   1      31.954  26.340  23.042  1.00  0.00     0.272 C 
ATOM     13  C   UNL A   1      31.132  25.037  22.951  1.00  0.00     0.086 C 
BRANCH  12  14
ATOM     14  C   UNL A   1      33.444  26.001  22.822  1.00  0.00     0.278 C 
ATOM     15  O   UNL A   1      33.986  26.267  21.743  1.00  0.00    -0.268 OA
ATOM     16  N   UNL A   1      34.197  25.330  23.748  1.00  0.00    -0.351 N 
ATOM     17  H   UNL A   1      35.060  25.005  23.405  1.00  0.00     0.163 HD
BRANCH  16  18
ATOM     18  C   UNL A   1      33.955  25.011  25.147  1.00  0.00     0.116 C 
BRANCH  18  19
ATOM     19  C   UNL A   1      34.974  24.028  25.712  1.00  0.00     0.018 C 
ATOM     20  C   UNL A   1      34.409  23.220  26.871  1.00  0.00     0.006 C 
ENDBRANCH  18  19
ENDBRANCH  16  18
ENDBRANCH  12  14
ENDBRANCH   7  12
ENDBRANCH   6   7
ENDBRANCH   3   6
ENDBRANCH   1   2
BRANCH   1  21
ATOM     21  C   UNL A   1      31.230  32.106  26.505  1.00  0.00     0.042 C 
BRANCH  21  22
ATOM     22  C   UNL A   1      32.519  32.524  27.182  1.00  0.00     0.118 C 
BRANCH  22  23
ATOM     23  N   UNL A   1      32.492  33.922  27.557  1.00  0.00    -0.352 N 
ATOM     24  C   UNL A   1      33.166  34.558  28.571  1.00  0.00     0.251 C 
ATOM     25  H   UNL A   1      31.910  34.496  27.009  1.00  0.00     0.163 HD
ATOM     26  O   UNL A   1      32.798  35.678  28.917  1.00  0.00    -0.269 OA
BRANCH  24  27
ATOM     27  C   UNL A   1      34.310  33.904  29.253  1.00  0.00     0.039 A 
ATOM     28  C   UNL A   1      35.607  34.246  28.862  1.00  0.00     0.014 A 
ATOM     29  C   UNL A   1      34.122  32.934  30.243  1.00  0.00     0.014 A 
ATOM     30  C   UNL A   1      36.704  33.648  29.488  1.00  0.00     0.010 A 
ATOM     31  C   UNL A   1      35.215  32.416  30.936  1.00  0.00     0.010 A 
ATOM     32  C   UNL A   1      36.521  32.749  30.551  1.00  0.00    -0.014 A 
BRANCH  32  33
ATOM     33  C   UNL A   1      37.685  32.153  31.259  1.00  0.00     0.031 A 
ATOM     34  C   UNL A   1      38.464  31.022  30.635  1.00  0.00     0.074 A 
ATOM     35  C   UNL A   1      38.011  32.592  32.492  1.00  0.00     0.049 A 
ATOM     36  N   UNL A   1      39.487  30.367  31.117  1.00  0.00    -0.248 NA
ATOM     37  C   UNL A   1      38.029  30.553  29.308  1.00  0.00     0.031 C 
ATOM     38  C   UNL A   1      37.294  33.630  33.237  1.00  0.00     0.029 A 
ATOM     39  N   UNL A   1      39.012  32.204  33.349  1.00  0.00    -0.354 N 
ATOM     40  C   UNL A   1      39.791  29.387  30.178  1.00  0.00     0.074 A 
ATOM     41  C   UNL A   1      38.833  29.520  29.104  1.00  0.00     0.031 C 
ATOM     42  C   UNL A   1      37.879  33.800  34.433  1.00  0.00     0.029 A 
ATOM     43  C   UNL A   1      38.981  32.853  34.564  1.00  0.00     0.049 A 
ATOM     44  H   UNL A   1      39.689  31.528  33.117  1.00  0.00     0.167 HD
ATOM     45  C   UNL A   1      40.787  28.471  30.200  1.00  0.00     0.034 A 
ATOM     46  C   UNL A   1      39.732  32.684  35.670  1.00  0.00     0.034 A 
ATOM     47  C   UNL A   1      41.760  28.362  31.253  1.00  0.00     0.049 A 
ATOM     48  C   UNL A   1      40.842  31.668  35.653  1.00  0.00     0.074 A 
ATOM     49  C   UNL A   1      42.866  27.530  31.314  1.00  0.00     0.029 A 
ATOM     50  N   UNL A   1      41.733  29.078  32.438  1.00  0.00    -0.354 N 
ATOM     51  N   UNL A   1      41.214  30.867  34.684  1.00  0.00    -0.248 NA
ATOM     52  C   UNL A   1      41.661  31.556  36.870  1.00  0.00     0.031 C 
ATOM     53  C   UNL A   1      43.471  27.700  32.561  1.00  0.00     0.029 A 
ATOM     54  C   UNL A   1      42.784  28.686  33.248  1.00  0.00     0.049 A 
ATOM     55  H   UNL A   1      41.065  29.764  32.668  1.00  0.00     0.167 HD
ATOM     56  C   UNL A   1      42.328  30.187  35.161  1.00  0.00     0.074 A 
ATOM     57  C   UNL A   1      42.587  30.688  36.493  1.00  0.00     0.031 C 
ATOM     58  C   UNL A   1      43.063  29.224  34.554  1.00  0.00     0.034 A 
BRANCH  45  59
ATOM     59  C   UNL A   1      40.902  27.510  29.047  1.00  0.00     0.023 A 
ATOM     60  C   UNL A   1      40.064  26.380  28.980  1.00  0.00     0.012 A 
ATOM     61  C   UNL A   1      41.765  27.797  27.969  1.00  0.00     0.148 A 
ATOM     62  C   UNL A   1      40.095  25.540  27.868  1.00  0.00     0.002 A 
ATOM     63  C   UNL A   1      41.754  26.984  26.844  1.00  0.00     0.091 A 
ATOM     64  F   UNL A   1      42.567  28.868  28.063  1.00  0.00    -0.205 F 
ATOM     65  C   UNL A   1      40.928  25.850  26.795  1.00  0.00     0.022 A 
BRANCH  63  66
ATOM     66  S   UNL A   1      42.722  27.348  25.376  1.00  0.00     0.127 S 
ATOM     67  O   UNL A   1      44.053  27.558  25.946  1.00  0.00    -0.237 OA
ATOM     68  O   UNL A   1      42.578  26.115  24.603  1.00  0.00    -0.237 OA
ATOM     69  O   UNL A   1      42.116  28.526  24.772  1.00  0.00    -0.744 OA
ENDBRANCH  63  66
ENDBRANCH  45  59
BRANCH  46  70
ATOM     70  C   UNL A   1      39.463  33.490  36.895  1.00  0.00     0.023 A 
ATOM     71  C   UNL A   1      39.992  34.790  37.018  1.00  0.00     0.012 A 
ATOM     72  C   UNL A   1      38.702  32.958  37.953  1.00  0.00     0.148 A 
ATOM     73  C   UNL A   1      39.817  35.520  38.194  1.00  0.00     0.002 A 
ATOM     74  C   UNL A   1      38.474  33.717  39.095  1.00  0.00     0.091 A 
ATOM     75  F   UNL A   1      38.215  31.715  37.825  1.00  0.00    -0.205 F 
ATOM     76  C   UNL A   1      39.053  34.988  39.229  1.00  0.00     0.022 A 
BRANCH  74  77
ATOM     77  S   UNL A   1      37.385  33.163  40.409  1.00  0.00     0.127 S 
ATOM     78  O   UNL A   1      38.162  32.078  41.002  1.00  0.00    -0.237 OA
ATOM     79  O   UNL A   1      37.274  34.367  41.234  1.00  0.00    -0.237 OA
ATOM     80  O   UNL A   1      36.144  32.773  39.752  1.00  0.00    -0.744 OA
ENDBRANCH  74  77
ENDBRANCH  46  70
BRANCH  58  81
ATOM     81  C   UNL A   1      44.260  28.684  35.292  1.00  0.00     0.023 A 
ATOM     82  C   UNL A   1      45.539  29.231  35.073  1.00  0.00     0.012 A 
ATOM     83  C   UNL A   1      44.097  27.670  36.257  1.00  0.00     0.148 A 
ATOM     84  C   UNL A   1      46.644  28.749  35.775  1.00  0.00     0.002 A 
ATOM     85  C   UNL A   1      45.191  27.236  36.994  1.00  0.00     0.091 A 
ATOM     86  F   UNL A   1      42.874  27.153  36.441  1.00  0.00    -0.205 F 
ATOM     87  C   UNL A   1      46.468  27.761  36.742  1.00  0.00     0.022 A 
BRANCH  85  88
ATOM     88  S   UNL A   1      45.044  26.042  38.326  1.00  0.00     0.127 S 
ATOM     89  O   UNL A   1      44.495  24.881  37.627  1.00  0.00    -0.237 OA
ATOM     90  O   UNL A   1      46.434  25.893  38.760  1.00  0.00    -0.237 OA
ATOM     91  O   UNL A   1      44.161  26.645  39.315  1.00  0.00    -0.744 OA
ENDBRANCH  85  88
ENDBRANCH  58  81
ENDBRANCH  32  33
ENDBRANCH  24  27
ENDBRANCH  22  23
ENDBRANCH  21  22
ENDBRANCH   1  21
TORSDOF 20
ENDMDL
MODEL 3
REMARK VINA RESULT:      -9.8      1.667      2.472
REMARK SMILES C#CC[N@H+](CC(=O)NCCCNC(=O)c1ccc(-c2c3nc(c(-c4cccc(S(=O)(=O)[O-])c4F)c4ccc([nH]4)c(-c4cccc(S(=O)(=O)[O-])c4F)c4nc(c(-c5cccc(S(=O)(=O)[O-])c5F)c5ccc2[nH]5)C=C4)C=C3)cc1)[C@H](C)C(=O)NCCC
REMARK SMILES IDX 9 1 8 2 6 3 7 4 5 6 4 7 3 9 2 10 1 11 78 12 79 13 80 14
REMARK SMILES IDX 81 15 82 16 83 18 84 19 85 20 10 21 11 22 12 23 13 24 14 26
REMARK SMILES IDX 15 27 16 28 77 29 17 30 76 31 18 32 19 33 20 34 70 35 21 36
REMARK SMILES IDX 75 37 69 38 71 39 22 40 74 41 68 42 67 43 23 45 55 46 35 47
REMARK SMILES IDX 54 48 36 49 39 50 53 51 72 52 37 53 38 54 52 56 73 57 40 58
REMARK SMILES IDX 24 59 25 60 33 61 26 62 28 63 34 64 27 65 29 66 30 67 31 68
REMARK SMILES IDX 32 69 56 70 57 71 65 72 58 73 60 74 66 75 59 76 61 77 62 78
REMARK SMILES IDX 63 79 64 80 41 81 42 82 50 83 43 84 45 85 51 86 44 87 46 88
REMARK SMILES IDX 47 89 48 90 49 91
REMARK H PARENT 8 5 4 8 82 17 12 25 71 44 39 55
REMARK Flexibility Score: inf
ROOT
ATOM      1  C   UNL A   1      35.870  20.450  25.158  1.00  0.00     0.118 C 
ENDROOT
BRANCH   1   2
ATOM      2  N   UNL A   1      34.613  19.741  25.365  1.00  0.00    -0.351 N 
ATOM      3  C   UNL A   1      33.367  19.947  24.823  1.00  0.00     0.275 C 
ATOM      4  O   UNL A   1      32.457  19.192  25.169  1.00  0.00    -0.269 OA
ATOM      5  H   UNL A   1      34.666  18.990  25.999  1.00  0.00     0.163 HD
BRANCH   3   6
ATOM      6  C   UNL A   1      33.151  21.071  23.797  1.00  0.00     0.364 C 
BRANCH   6   7
ATOM      7  N   UNL A   1      32.278  22.201  24.229  1.00  0.00    -0.307 N 
ATOM      8  H   UNL A   1      31.305  22.007  23.993  1.00  0.00     0.350 HD
BRANCH   7   9
ATOM      9  C   UNL A   1      32.196  22.305  25.677  1.00  0.00     0.355 C 
BRANCH   9  10
ATOM     10  C   UNL A   1      30.930  22.608  26.350  1.00  0.00    -0.047 C 
ATOM     11  C   UNL A   1      29.981  23.097  26.895  1.00  0.00     0.010 C 
ENDBRANCH   9  10
ENDBRANCH   7   9
BRANCH   7  12
ATOM     12  C   UNL A   1      32.535  23.440  23.423  1.00  0.00     0.272 C 
ATOM     13  C   UNL A   1      33.270  23.362  22.068  1.00  0.00     0.086 C 
BRANCH  12  14
ATOM     14  C   UNL A   1      33.036  24.686  24.186  1.00  0.00     0.278 C 
ATOM     15  O   UNL A   1      32.271  25.636  24.387  1.00  0.00    -0.268 OA
ATOM     16  N   UNL A   1      34.336  24.836  24.589  1.00  0.00    -0.351 N 
ATOM     17  H   UNL A   1      34.564  25.749  24.879  1.00  0.00     0.163 HD
BRANCH  16  18
ATOM     18  C   UNL A   1      35.442  23.894  24.668  1.00  0.00     0.116 C 
BRANCH  18  19
ATOM     19  C   UNL A   1      36.251  24.042  25.951  1.00  0.00     0.018 C 
ATOM     20  C   UNL A   1      37.722  23.708  25.742  1.00  0.00     0.006 C 
ENDBRANCH  18  19
ENDBRANCH  16  18
ENDBRANCH  12  14
ENDBRANCH   7  12
ENDBRANCH   6   7
ENDBRANCH   3   6
ENDBRANCH   1   2
BRANCH   1  21
ATOM     21  C   UNL A   1      37.070  19.514  24.996  1.00  0.00     0.042 C 
BRANCH  21  22
ATOM     22  C   UNL A   1      38.420  20.181  25.155  1.00  0.00     0.118 C 
BRANCH  22  23
ATOM     23  N   UNL A   1      39.397  19.274  25.720  1.00  0.00    -0.352 N 
ATOM     24  C   UNL A   1      40.666  19.543  26.173  1.00  0.00     0.251 C 
ATOM     25  H   UNL A   1      39.112  18.334  25.790  1.00  0.00     0.163 HD
ATOM     26  O   UNL A   1      41.445  18.609  26.344  1.00  0.00    -0.269 OA
BRANCH  24  27
ATOM     27  C   UNL A   1      41.101  20.936  26.436  1.00  0.00     0.039 A 
ATOM     28  C   UNL A   1      40.988  21.439  27.735  1.00  0.00     0.014 A 
ATOM     29  C   UNL A   1      41.583  21.764  25.417  1.00  0.00     0.014 A 
ATOM     30  C   UNL A   1      41.392  22.748  28.014  1.00  0.00     0.010 A 
ATOM     31  C   UNL A   1      42.081  23.031  25.717  1.00  0.00     0.010 A 
ATOM     32  C   UNL A   1      41.970  23.547  27.015  1.00  0.00    -0.014 A 
BRANCH  32  33
ATOM     33  C   UNL A   1      42.454  24.921  27.319  1.00  0.00     0.031 A 
ATOM     34  C   UNL A   1      41.546  25.923  27.986  1.00  0.00     0.074 A 
ATOM     35  C   UNL A   1      43.698  25.286  26.945  1.00  0.00     0.049 A 
ATOM     36  N   UNL A   1      41.790  27.168  28.302  1.00  0.00    -0.248 NA
ATOM     37  C   UNL A   1      40.183  25.480  28.325  1.00  0.00     0.031 C 
ATOM     38  C   UNL A   1      44.650  24.434  26.228  1.00  0.00     0.029 A 
ATOM     39  N   UNL A   1      44.367  26.477  27.091  1.00  0.00    -0.354 N 
ATOM     40  C   UNL A   1      40.607  27.666  28.836  1.00  0.00     0.074 A 
ATOM     41  C   UNL A   1      39.637  26.596  28.786  1.00  0.00     0.031 C 
ATOM     42  C   UNL A   1      45.778  25.124  26.002  1.00  0.00     0.029 A 
ATOM     43  C   UNL A   1      45.617  26.482  26.511  1.00  0.00     0.049 A 
ATOM     44  H   UNL A   1      43.990  27.253  27.565  1.00  0.00     0.167 HD
ATOM     45  C   UNL A   1      40.356  28.898  29.338  1.00  0.00     0.034 A 
ATOM     46  C   UNL A   1      46.519  27.474  26.376  1.00  0.00     0.034 A 
ATOM     47  C   UNL A   1      41.331  29.952  29.419  1.00  0.00     0.049 A 
ATOM     48  C   UNL A   1      46.213  28.827  26.962  1.00  0.00     0.074 A 
ATOM     49  C   UNL A   1      41.196  31.200  30.003  1.00  0.00     0.029 A 
ATOM     50  N   UNL A   1      42.605  29.898  28.878  1.00  0.00    -0.354 N 
ATOM     51  N   UNL A   1      45.146  29.222  27.612  1.00  0.00    -0.248 NA
ATOM     52  C   UNL A   1      47.250  29.861  26.826  1.00  0.00     0.031 C 
ATOM     53  C   UNL A   1      42.366  31.922  29.761  1.00  0.00     0.029 A 
ATOM     54  C   UNL A   1      43.255  31.101  29.088  1.00  0.00     0.049 A 
ATOM     55  H   UNL A   1      42.990  29.119  28.414  1.00  0.00     0.167 HD
ATOM     56  C   UNL A   1      45.399  30.535  27.993  1.00  0.00     0.074 A 
ATOM     57  C   UNL A   1      46.730  30.858  27.526  1.00  0.00     0.031 C 
ATOM     58  C   UNL A   1      44.597  31.398  28.661  1.00  0.00     0.034 A 
BRANCH  45  59
ATOM     59  C   UNL A   1      38.975  29.190  29.862  1.00  0.00     0.023 A 
ATOM     60  C   UNL A   1      38.628  28.836  31.181  1.00  0.00     0.012 A 
ATOM     61  C   UNL A   1      38.061  29.925  29.079  1.00  0.00     0.148 A 
ATOM     62  C   UNL A   1      37.387  29.192  31.707  1.00  0.00     0.002 A 
ATOM     63  C   UNL A   1      36.847  30.318  29.626  1.00  0.00     0.091 A 
ATOM     64  F   UNL A   1      38.406  30.235  27.821  1.00  0.00    -0.205 F 
ATOM     65  C   UNL A   1      36.504  29.945  30.935  1.00  0.00     0.022 A 
BRANCH  63  66
ATOM     66  S   UNL A   1      35.682  31.365  28.747  1.00  0.00     0.127 S 
ATOM     67  O   UNL A   1      34.744  31.720  29.813  1.00  0.00    -0.237 OA
ATOM     68  O   UNL A   1      36.538  32.463  28.299  1.00  0.00    -0.237 OA
ATOM     69  O   UNL A   1      35.125  30.545  27.681  1.00  0.00    -0.744 OA
ENDBRANCH  63  66
ENDBRANCH  45  59
BRANCH  46  70
ATOM     70  C   UNL A   1      47.800  27.236  25.652  1.00  0.00     0.023 A 
ATOM     71  C   UNL A   1      47.878  27.451  24.262  1.00  0.00     0.012 A 
ATOM     72  C   UNL A   1      48.938  26.771  26.338  1.00  0.00     0.148 A 
ATOM     73  C   UNL A   1      49.047  27.152  23.562  1.00  0.00     0.002 A 
ATOM     74  C   UNL A   1      50.120  26.540  25.645  1.00  0.00     0.091 A 
ATOM     75  F   UNL A   1      48.844  26.562  27.659  1.00  0.00    -0.205 F 
ATOM     76  C   UNL A   1      50.170  26.704  24.253  1.00  0.00     0.022 A 
BRANCH  74  77
ATOM     77  S   UNL A   1      51.647  26.101  26.479  1.00  0.00     0.127 S 
ATOM     78  O   UNL A   1      51.798  27.204  27.424  1.00  0.00    -0.237 OA
ATOM     79  O   UNL A   1      51.301  24.813  27.081  1.00  0.00    -0.237 OA
ATOM     80  O   UNL A   1      52.657  26.018  25.431  1.00  0.00    -0.744 OA
ENDBRANCH  74  77
ENDBRANCH  46  70
BRANCH  58  81
ATOM     81  C   UNL A   1      45.149  32.762  28.987  1.00  0.00     0.023 A 
ATOM     82  C   UNL A   1      45.874  32.972  30.176  1.00  0.00     0.012 A 
ATOM     83  C   UNL A   1      45.000  33.822  28.070  1.00  0.00     0.148 A 
ATOM     84  C   UNL A   1      46.408  34.228  30.466  1.00  0.00     0.002 A 
ATOM     85  C   UNL A   1      45.585  35.053  28.337  1.00  0.00     0.091 A 
ATOM     86  F   UNL A   1      44.296  33.605  26.950  1.00  0.00    -0.205 F 
ATOM     87  C   UNL A   1      46.273  35.263  29.542  1.00  0.00     0.022 A 
BRANCH  85  88
ATOM     88  S   UNL A   1      45.550  36.411  27.164  1.00  0.00     0.127 S 
ATOM     89  O   UNL A   1      46.186  35.810  25.993  1.00  0.00    -0.237 OA
ATOM     90  O   UNL A   1      44.114  36.655  27.021  1.00  0.00    -0.237 OA
ATOM     91  O   UNL A   1      46.291  37.501  27.783  1.00  0.00    -0.744 OA
ENDBRANCH  85  88
ENDBRANCH  58  81
ENDBRANCH  32  33
ENDBRANCH  24  27
ENDBRANCH  22  23
ENDBRANCH  21  22
ENDBRANCH   1  21
TORSDOF 20
ENDMDL
