MODEL 1
REMARK VINA RESULT:     -12.4      0.000      0.000
REMARK SMILES C[C@@H](C(=O)NCCCNC(=O)c1ccc(-c2c3nc(c(-c4cccc(S(=O)(=O)[O-])c4F)c4ccc([nH]4)c(-c4cccc(S(=O)(=O)[O-])c4F)c4nc(c(-c5cccc(S(=O)(=O)[O-])c5F)c5ccc2[nH]5)C=C4)C=C3)cc1)n1ccc(C(=O)N2CC[NH+](Cc3cccc(F)c3)CC2)n1
REMARK SMILES IDX 6 1 5 2 3 3 4 4 2 6 1 7 75 8 76 9 95 10 77 11 78 12 79 13
REMARK SMILES IDX 80 14 81 15 82 16 94 17 83 18 93 19 84 20 85 22 86 23 87 24
REMARK SMILES IDX 92 25 88 26 90 27 89 28 91 29 7 30 8 31 9 32 10 33 11 35
REMARK SMILES IDX 12 36 13 37 74 38 14 39 73 40 15 41 16 42 17 43 67 44 18 45
REMARK SMILES IDX 72 46 66 47 68 48 19 49 71 50 65 51 64 52 20 54 52 55 32 56
REMARK SMILES IDX 51 57 33 58 36 59 50 60 69 61 34 62 35 63 49 65 70 66 37 67
REMARK SMILES IDX 21 68 22 69 30 70 23 71 25 72 31 73 24 74 26 75 27 76 28 77
REMARK SMILES IDX 29 78 53 79 54 80 62 81 55 82 57 83 63 84 56 85 58 86 59 87
REMARK SMILES IDX 60 88 61 89 38 90 39 91 47 92 40 93 42 94 48 95 41 96 43 97
REMARK SMILES IDX 44 98 45 99 46 100
REMARK H PARENT 5 5 84 21 9 34 68 53 36 64
REMARK Flexibility Score: inf
ROOT
ATOM      1  C   UNL A   1      31.285  30.670  25.460  1.00  0.00     0.117 C 
ENDROOT
BRANCH   1   2
ATOM      2  N   UNL A   1      32.496  29.939  25.151  1.00  0.00    -0.354 N 
ATOM      3  C   UNL A   1      32.794  29.113  24.105  1.00  0.00     0.244 C 
ATOM      4  O   UNL A   1      33.970  28.747  24.044  1.00  0.00    -0.273 OA
ATOM      5  H   UNL A   1      33.225  30.057  25.803  1.00  0.00     0.163 HD
BRANCH   3   6
ATOM      6  C   UNL A   1      31.729  28.769  23.054  1.00  0.00     0.193 C 
ATOM      7  C   UNL A   1      30.991  29.988  22.498  1.00  0.00     0.044 C 
BRANCH   6   8
ATOM      8  N   UNL A   1      30.760  27.829  23.620  1.00  0.00    -0.260 N 
ATOM      9  C   UNL A   1      29.478  27.599  23.212  1.00  0.00     0.110 A 
ATOM     10  N   UNL A   1      31.105  27.109  24.696  1.00  0.00    -0.167 NA
ATOM     11  C   UNL A   1      29.025  26.559  23.993  1.00  0.00     0.056 A 
ATOM     12  C   UNL A   1      30.094  26.249  24.881  1.00  0.00     0.150 A 
BRANCH  12  13
ATOM     13  C   UNL A   1      30.176  25.099  25.800  1.00  0.00     0.274 C 
ATOM     14  O   UNL A   1      29.445  25.055  26.795  1.00  0.00    -0.267 OA
ATOM     15  N   UNL A   1      31.040  24.036  25.487  1.00  0.00    -0.326 N 
ATOM     16  C   UNL A   1      30.827  22.797  26.222  1.00  0.00     0.181 C 
ATOM     17  C   UNL A   1      32.379  24.256  24.926  1.00  0.00     0.181 C 
ATOM     18  C   UNL A   1      31.582  21.577  25.665  1.00  0.00     0.284 C 
ATOM     19  C   UNL A   1      33.071  22.986  24.400  1.00  0.00     0.284 C 
ATOM     20  N   UNL A   1      32.971  21.800  25.256  1.00  0.00    -0.328 N 
ATOM     21  H   UNL A   1      33.225  20.998  24.680  1.00  0.00     0.348 HD
BRANCH  20  22
ATOM     22  C   UNL A   1      34.000  21.651  26.285  1.00  0.00     0.299 C 
BRANCH  22  23
ATOM     23  C   UNL A   1      35.442  21.823  25.867  1.00  0.00     0.009 A 
ATOM     24  C   UNL A   1      36.110  23.042  26.074  1.00  0.00     0.010 A 
ATOM     25  C   UNL A   1      36.151  20.761  25.292  1.00  0.00     0.048 A 
ATOM     26  C   UNL A   1      37.474  23.166  25.796  1.00  0.00     0.004 A 
ATOM     27  C   UNL A   1      37.511  20.890  25.028  1.00  0.00     0.123 A 
ATOM     28  C   UNL A   1      38.181  22.079  25.288  1.00  0.00     0.039 A 
ATOM     29  F   UNL A   1      38.188  19.843  24.539  1.00  0.00    -0.207 F 
ENDBRANCH  22  23
ENDBRANCH  20  22
ENDBRANCH  12  13
ENDBRANCH   6   8
ENDBRANCH   3   6
ENDBRANCH   1   2
BRANCH   1  30
ATOM     30  C   UNL A   1      31.402  31.457  26.760  1.00  0.00     0.042 C 
BRANCH  30  31
ATOM     31  C   UNL A   1      32.691  32.260  26.894  1.00  0.00     0.118 C 
BRANCH  31  32
ATOM     32  N   UNL A   1      32.468  33.596  27.429  1.00  0.00    -0.352 N 
ATOM     33  C   UNL A   1      33.115  34.247  28.451  1.00  0.00     0.251 C 
ATOM     34  H   UNL A   1      31.749  34.108  26.994  1.00  0.00     0.163 HD
ATOM     35  O   UNL A   1      32.660  35.305  28.881  1.00  0.00    -0.269 OA
BRANCH  33  36
ATOM     36  C   UNL A   1      34.342  33.673  29.042  1.00  0.00     0.039 A 
ATOM     37  C   UNL A   1      35.588  34.050  28.528  1.00  0.00     0.014 A 
ATOM     38  C   UNL A   1      34.264  32.753  30.090  1.00  0.00     0.014 A 
ATOM     39  C   UNL A   1      36.757  33.553  29.110  1.00  0.00     0.010 A 
ATOM     40  C   UNL A   1      35.428  32.316  30.713  1.00  0.00     0.010 A 
ATOM     41  C   UNL A   1      36.685  32.706  30.225  1.00  0.00    -0.014 A 
BRANCH  41  42
ATOM     42  C   UNL A   1      37.899  32.192  30.909  1.00  0.00     0.031 A 
ATOM     43  C   UNL A   1      38.638  31.019  30.327  1.00  0.00     0.074 A 
ATOM     44  C   UNL A   1      38.250  32.684  32.113  1.00  0.00     0.049 A 
ATOM     45  N   UNL A   1      39.597  30.303  30.851  1.00  0.00    -0.248 NA
ATOM     46  C   UNL A   1      38.212  30.568  28.991  1.00  0.00     0.031 C 
ATOM     47  C   UNL A   1      37.569  33.775  32.812  1.00  0.00     0.029 A 
ATOM     48  N   UNL A   1      39.239  32.295  32.983  1.00  0.00    -0.354 N 
ATOM     49  C   UNL A   1      39.850  29.285  29.939  1.00  0.00     0.074 A 
ATOM     50  C   UNL A   1      38.930  29.466  28.837  1.00  0.00     0.031 C 
ATOM     51  C   UNL A   1      38.146  33.954  34.011  1.00  0.00     0.029 A 
ATOM     52  C   UNL A   1      39.215  32.974  34.179  1.00  0.00     0.049 A 
ATOM     53  H   UNL A   1      39.900  31.598  32.772  1.00  0.00     0.167 HD
ATOM     54  C   UNL A   1      40.780  28.303  30.002  1.00  0.00     0.034 A 
ATOM     55  C   UNL A   1      39.956  32.812  35.293  1.00  0.00     0.034 A 
ATOM     56  C   UNL A   1      41.734  28.169  31.067  1.00  0.00     0.049 A 
ATOM     57  C   UNL A   1      41.033  31.761  35.309  1.00  0.00     0.074 A 
ATOM     58  C   UNL A   1      42.777  27.267  31.180  1.00  0.00     0.029 A 
ATOM     59  N   UNL A   1      41.768  28.965  32.201  1.00  0.00    -0.354 N 
ATOM     60  N   UNL A   1      41.353  30.896  34.378  1.00  0.00    -0.248 NA
ATOM     61  C   UNL A   1      41.876  31.686  36.512  1.00  0.00     0.031 C 
ATOM     62  C   UNL A   1      43.440  27.517  32.387  1.00  0.00     0.029 A 
ATOM     63  C   UNL A   1      42.816  28.581  33.018  1.00  0.00     0.049 A 
ATOM     64  H   UNL A   1      41.139  29.696  32.396  1.00  0.00     0.167 HD
ATOM     65  C   UNL A   1      42.454  30.201  34.861  1.00  0.00     0.074 A 
ATOM     66  C   UNL A   1      42.756  30.753  36.167  1.00  0.00     0.031 C 
ATOM     67  C   UNL A   1      43.146  29.189  34.282  1.00  0.00     0.034 A 
BRANCH  54  68
ATOM     68  C   UNL A   1      40.844  27.335  28.851  1.00  0.00     0.023 A 
ATOM     69  C   UNL A   1      39.936  26.259  28.799  1.00  0.00     0.012 A 
ATOM     70  C   UNL A   1      41.776  27.503  27.807  1.00  0.00     0.148 A 
ATOM     71  C   UNL A   1      39.979  25.341  27.751  1.00  0.00     0.002 A 
ATOM     72  C   UNL A   1      41.784  26.608  26.744  1.00  0.00     0.091 A 
ATOM     73  F   UNL A   1      42.652  28.515  27.885  1.00  0.00    -0.205 F 
ATOM     74  C   UNL A   1      40.896  25.521  26.718  1.00  0.00     0.022 A 
BRANCH  72  75
ATOM     75  S   UNL A   1      42.884  26.812  25.336  1.00  0.00     0.127 S 
ATOM     76  O   UNL A   1      44.185  26.931  25.991  1.00  0.00    -0.237 OA
ATOM     77  O   UNL A   1      42.685  25.565  24.597  1.00  0.00    -0.237 OA
ATOM     78  O   UNL A   1      42.410  28.002  24.643  1.00  0.00    -0.744 OA
ENDBRANCH  72  75
ENDBRANCH  54  68
BRANCH  55  79
ATOM     79  C   UNL A   1      39.746  33.723  36.452  1.00  0.00     0.023 A 
ATOM     80  C   UNL A   1      40.030  35.095  36.306  1.00  0.00     0.012 A 
ATOM     81  C   UNL A   1      39.202  33.260  37.666  1.00  0.00     0.148 A 
ATOM     82  C   UNL A   1      39.796  35.985  37.353  1.00  0.00     0.002 A 
ATOM     83  C   UNL A   1      38.922  34.160  38.688  1.00  0.00     0.091 A 
ATOM     84  F   UNL A   1      38.946  31.949  37.787  1.00  0.00    -0.205 F 
ATOM     85  C   UNL A   1      39.231  35.521  38.539  1.00  0.00     0.022 A 
BRANCH  83  86
ATOM     86  S   UNL A   1      38.069  33.676  40.194  1.00  0.00     0.127 S 
ATOM     87  O   UNL A   1      39.027  32.751  40.796  1.00  0.00    -0.237 OA
ATOM     88  O   UNL A   1      37.932  34.958  40.889  1.00  0.00    -0.237 OA
ATOM     89  O   UNL A   1      36.809  33.092  39.764  1.00  0.00    -0.744 OA
ENDBRANCH  83  86
ENDBRANCH  55  79
BRANCH  67  90
ATOM     90  C   UNL A   1      44.329  28.628  35.024  1.00  0.00     0.023 A 
ATOM     91  C   UNL A   1      45.605  29.189  34.828  1.00  0.00     0.012 A 
ATOM     92  C   UNL A   1      44.152  27.623  35.996  1.00  0.00     0.148 A 
ATOM     93  C   UNL A   1      46.694  28.748  35.580  1.00  0.00     0.002 A 
ATOM     94  C   UNL A   1      45.234  27.217  36.769  1.00  0.00     0.091 A 
ATOM     95  F   UNL A   1      42.932  27.088  36.149  1.00  0.00    -0.205 F 
ATOM     96  C   UNL A   1      46.506  27.773  36.558  1.00  0.00     0.022 A 
BRANCH  94  97
ATOM     97  S   UNL A   1      45.064  26.035  38.112  1.00  0.00     0.127 S 
ATOM     98  O   UNL A   1      46.412  26.030  38.676  1.00  0.00    -0.237 OA
ATOM     99  O   UNL A   1      44.050  26.668  38.958  1.00  0.00    -0.237 OA
ATOM    100  O   UNL A   1      44.637  24.787  37.495  1.00  0.00    -0.744 OA
ENDBRANCH  94  97
ENDBRANCH  67  90
ENDBRANCH  41  42
ENDBRANCH  33  36
ENDBRANCH  31  32
ENDBRANCH  30  31
ENDBRANCH   1  30
TORSDOF 17
ENDMDL
MODEL 2
REMARK VINA RESULT:     -11.9      1.740      2.358
REMARK SMILES C[C@@H](C(=O)NCCCNC(=O)c1ccc(-c2c3nc(c(-c4cccc(S(=O)(=O)[O-])c4F)c4ccc([nH]4)c(-c4cccc(S(=O)(=O)[O-])c4F)c4nc(c(-c5cccc(S(=O)(=O)[O-])c5F)c5ccc2[nH]5)C=C4)C=C3)cc1)n1ccc(C(=O)N2CC[NH+](Cc3cccc(F)c3)CC2)n1
REMARK SMILES IDX 6 1 5 2 3 3 4 4 2 6 1 7 75 8 76 9 95 10 77 11 78 12 79 13
REMARK SMILES IDX 80 14 81 15 82 16 94 17 83 18 93 19 84 20 85 22 86 23 87 24
REMARK SMILES IDX 92 25 88 26 90 27 89 28 91 29 7 30 8 31 9 32 10 33 11 35
REMARK SMILES IDX 12 36 13 37 74 38 14 39 73 40 15 41 16 42 17 43 67 44 18 45
REMARK SMILES IDX 72 46 66 47 68 48 19 49 71 50 65 51 64 52 20 54 52 55 32 56
REMARK SMILES IDX 51 57 33 58 36 59 50 60 69 61 34 62 35 63 49 65 70 66 37 67
REMARK SMILES IDX 21 68 22 69 30 70 23 71 25 72 31 73 24 74 26 75 27 76 28 77
REMARK SMILES IDX 29 78 53 79 54 80 62 81 55 82 57 83 63 84 56 85 58 86 59 87
REMARK SMILES IDX 60 88 61 89 38 90 39 91 47 92 40 93 42 94 48 95 41 96 43 97
REMARK SMILES IDX 44 98 45 99 46 100
REMARK H PARENT 5 5 84 21 9 34 68 53 36 64
REMARK Flexibility Score: inf
ROOT
ATOM      1  C   UNL A   1      31.705  30.291  25.913  1.00  0.00     0.117 C 
ENDROOT
BRANCH   1   2
ATOM      2  N   UNL A   1      32.744  30.115  24.921  1.00  0.00    -0.354 N 
ATOM      3  C   UNL A   1      32.806  29.289  23.835  1.00  0.00     0.244 C 
ATOM      4  O   UNL A   1      33.773  29.470  23.092  1.00  0.00    -0.273 OA
ATOM      5  H   UNL A   1      33.538  30.683  25.051  1.00  0.00     0.163 HD
BRANCH   3   6
ATOM      6  C   UNL A   1      31.678  28.286  23.552  1.00  0.00     0.193 C 
ATOM      7  C   UNL A   1      30.278  28.899  23.601  1.00  0.00     0.044 C 
BRANCH   6   8
ATOM      8  N   UNL A   1      31.756  27.172  24.499  1.00  0.00    -0.260 N 
ATOM      9  C   UNL A   1      30.749  26.638  25.249  1.00  0.00     0.110 A 
ATOM     10  N   UNL A   1      32.943  26.596  24.726  1.00  0.00    -0.167 NA
ATOM     11  C   UNL A   1      31.307  25.554  25.892  1.00  0.00     0.056 A 
ATOM     12  C   UNL A   1      32.675  25.535  25.500  1.00  0.00     0.150 A 
BRANCH  12  13
ATOM     13  C   UNL A   1      33.660  24.473  25.777  1.00  0.00     0.274 C 
ATOM     14  O   UNL A   1      34.824  24.773  26.062  1.00  0.00    -0.267 OA
ATOM     15  N   UNL A   1      33.236  23.133  25.778  1.00  0.00    -0.326 N 
ATOM     16  C   UNL A   1      34.143  22.173  26.390  1.00  0.00     0.181 C 
ATOM     17  C   UNL A   1      32.284  22.614  24.788  1.00  0.00     0.181 C 
ATOM     18  C   UNL A   1      33.539  20.779  26.637  1.00  0.00     0.284 C 
ATOM     19  C   UNL A   1      31.734  21.211  25.102  1.00  0.00     0.284 C 
ATOM     20  N   UNL A   1      32.717  20.224  25.560  1.00  0.00    -0.328 N 
ATOM     21  H   UNL A   1      32.191  19.456  25.976  1.00  0.00     0.348 HD
BRANCH  20  22
ATOM     22  C   UNL A   1      33.408  19.463  24.519  1.00  0.00     0.299 C 
BRANCH  22  23
ATOM     23  C   UNL A   1      33.578  17.975  24.731  1.00  0.00     0.009 A 
ATOM     24  C   UNL A   1      34.839  17.370  24.603  1.00  0.00     0.010 A 
ATOM     25  C   UNL A   1      32.485  17.176  25.091  1.00  0.00     0.048 A 
ATOM     26  C   UNL A   1      35.019  16.019  24.914  1.00  0.00     0.004 A 
ATOM     27  C   UNL A   1      32.675  15.835  25.409  1.00  0.00     0.123 A 
ATOM     28  C   UNL A   1      33.934  15.254  25.336  1.00  0.00     0.039 A 
ATOM     29  F   UNL A   1      31.631  15.101  25.815  1.00  0.00    -0.207 F 
ENDBRANCH  22  23
ENDBRANCH  20  22
ENDBRANCH  12  13
ENDBRANCH   6   8
ENDBRANCH   3   6
ENDBRANCH   1   2
BRANCH   1  30
ATOM     30  C   UNL A   1      32.224  30.962  27.180  1.00  0.00     0.042 C 
BRANCH  30  31
ATOM     31  C   UNL A   1      33.297  32.019  26.934  1.00  0.00     0.118 C 
BRANCH  31  32
ATOM     32  N   UNL A   1      32.889  33.346  27.375  1.00  0.00    -0.352 N 
ATOM     33  C   UNL A   1      33.328  34.083  28.448  1.00  0.00     0.251 C 
ATOM     34  H   UNL A   1      32.198  33.778  26.824  1.00  0.00     0.163 HD
ATOM     35  O   UNL A   1      32.730  35.109  28.766  1.00  0.00    -0.269 OA
BRANCH  33  36
ATOM     36  C   UNL A   1      34.504  33.639  29.227  1.00  0.00     0.039 A 
ATOM     37  C   UNL A   1      34.334  32.682  30.232  1.00  0.00     0.014 A 
ATOM     38  C   UNL A   1      35.768  34.178  28.976  1.00  0.00     0.014 A 
ATOM     39  C   UNL A   1      35.444  32.216  30.942  1.00  0.00     0.010 A 
ATOM     40  C   UNL A   1      36.880  33.664  29.633  1.00  0.00     0.010 A 
ATOM     41  C   UNL A   1      36.729  32.683  30.627  1.00  0.00    -0.014 A 
BRANCH  41  42
ATOM     42  C   UNL A   1      37.944  32.184  31.319  1.00  0.00     0.031 A 
ATOM     43  C   UNL A   1      38.766  31.097  30.682  1.00  0.00     0.074 A 
ATOM     44  C   UNL A   1      38.225  32.602  32.568  1.00  0.00     0.049 A 
ATOM     45  N   UNL A   1      39.743  30.395  31.190  1.00  0.00    -0.248 NA
ATOM     46  C   UNL A   1      38.411  30.725  29.302  1.00  0.00     0.031 C 
ATOM     47  C   UNL A   1      37.462  33.601  33.317  1.00  0.00     0.029 A 
ATOM     48  N   UNL A   1      39.203  32.201  33.445  1.00  0.00    -0.354 N 
ATOM     49  C   UNL A   1      40.083  29.462  30.218  1.00  0.00     0.074 A 
ATOM     50  C   UNL A   1      39.194  29.676  29.096  1.00  0.00     0.031 C 
ATOM     51  C   UNL A   1      37.987  33.721  34.547  1.00  0.00     0.029 A 
ATOM     52  C   UNL A   1      39.100  32.787  34.686  1.00  0.00     0.049 A 
ATOM     53  H   UNL A   1      39.908  31.557  33.210  1.00  0.00     0.167 HD
ATOM     54  C   UNL A   1      41.062  28.527  30.245  1.00  0.00     0.034 A 
ATOM     55  C   UNL A   1      39.809  32.581  35.813  1.00  0.00     0.034 A 
ATOM     56  C   UNL A   1      41.985  28.364  31.334  1.00  0.00     0.049 A 
ATOM     57  C   UNL A   1      40.941  31.590  35.795  1.00  0.00     0.074 A 
ATOM     58  C   UNL A   1      43.070  27.511  31.422  1.00  0.00     0.029 A 
ATOM     59  N   UNL A   1      41.936  29.074  32.524  1.00  0.00    -0.354 N 
ATOM     60  N   UNL A   1      41.340  30.814  34.816  1.00  0.00    -0.248 NA
ATOM     61  C   UNL A   1      41.745  31.469  37.020  1.00  0.00     0.031 C 
ATOM     62  C   UNL A   1      43.676  27.705  32.668  1.00  0.00     0.029 A 
ATOM     63  C   UNL A   1      42.974  28.685  33.350  1.00  0.00     0.049 A 
ATOM     64  H   UNL A   1      41.261  29.755  32.746  1.00  0.00     0.167 HD
ATOM     65  C   UNL A   1      42.460  30.143  35.290  1.00  0.00     0.074 A 
ATOM     66  C   UNL A   1      42.686  30.611  36.643  1.00  0.00     0.031 C 
ATOM     67  C   UNL A   1      43.226  29.213  34.667  1.00  0.00     0.034 A 
BRANCH  54  68
ATOM     68  C   UNL A   1      41.220  27.652  29.031  1.00  0.00     0.023 A 
ATOM     69  C   UNL A   1      40.399  26.515  28.885  1.00  0.00     0.012 A 
ATOM     70  C   UNL A   1      42.151  27.966  28.021  1.00  0.00     0.148 A 
ATOM     71  C   UNL A   1      40.530  25.682  27.775  1.00  0.00     0.002 A 
ATOM     72  C   UNL A   1      42.245  27.153  26.897  1.00  0.00     0.091 A 
ATOM     73  F   UNL A   1      42.944  29.034  28.187  1.00  0.00    -0.205 F 
ATOM     74  C   UNL A   1      41.446  26.005  26.777  1.00  0.00     0.022 A 
BRANCH  72  75
ATOM     75  S   UNL A   1      43.346  27.541  25.530  1.00  0.00     0.127 S 
ATOM     76  O   UNL A   1      44.139  28.634  26.089  1.00  0.00    -0.237 OA
ATOM     77  O   UNL A   1      44.079  26.288  25.349  1.00  0.00    -0.237 OA
ATOM     78  O   UNL A   1      42.474  27.893  24.417  1.00  0.00    -0.744 OA
ENDBRANCH  72  75
ENDBRANCH  54  68
BRANCH  55  79
ATOM     79  C   UNL A   1      39.510  33.392  37.025  1.00  0.00     0.023 A 
ATOM     80  C   UNL A   1      39.954  34.727  37.085  1.00  0.00     0.012 A 
ATOM     81  C   UNL A   1      38.731  32.879  38.081  1.00  0.00     0.148 A 
ATOM     82  C   UNL A   1      39.647  35.531  38.182  1.00  0.00     0.002 A 
ATOM     83  C   UNL A   1      38.384  33.701  39.149  1.00  0.00     0.091 A 
ATOM     84  F   UNL A   1      38.326  31.603  38.010  1.00  0.00    -0.205 F 
ATOM     85  C   UNL A   1      38.852  35.023  39.207  1.00  0.00     0.022 A 
BRANCH  83  86
ATOM     86  S   UNL A   1      37.253  33.176  40.443  1.00  0.00     0.127 S 
ATOM     87  O   UNL A   1      36.037  32.895  39.681  1.00  0.00    -0.237 OA
ATOM     88  O   UNL A   1      37.932  31.994  40.976  1.00  0.00    -0.237 OA
ATOM     89  O   UNL A   1      37.174  34.291  41.374  1.00  0.00    -0.744 OA
ENDBRANCH  83  86
ENDBRANCH  55  79
BRANCH  67  90
ATOM     90  C   UNL A   1      44.411  28.661  35.411  1.00  0.00     0.023 A 
ATOM     91  C   UNL A   1      45.675  29.258  35.252  1.00  0.00     0.012 A 
ATOM     92  C   UNL A   1      44.245  27.625  36.353  1.00  0.00     0.148 A 
ATOM     93  C   UNL A   1      46.763  28.823  36.008  1.00  0.00     0.002 A 
ATOM     94  C   UNL A   1      45.324  27.224  37.131  1.00  0.00     0.091 A 
ATOM     95  F   UNL A   1      43.036  27.057  36.472  1.00  0.00    -0.205 F 
ATOM     96  C   UNL A   1      46.585  27.817  36.956  1.00  0.00     0.022 A 
BRANCH  94  97
ATOM     97  S   UNL A   1      45.163  26.001  38.438  1.00  0.00     0.127 S 
ATOM     98  O   UNL A   1      44.880  24.787  37.676  1.00  0.00    -0.237 OA
ATOM     99  O   UNL A   1      46.486  26.036  39.063  1.00  0.00    -0.237 OA
ATOM    100  O   UNL A   1      44.082  26.471  39.294  1.00  0.00    -0.744 OA
ENDBRANCH  94  97
ENDBRANCH  67  90
ENDBRANCH  41  42
ENDBRANCH  33  36
ENDBRANCH  31  32
ENDBRANCH  30  31
ENDBRANCH   1  30
TORSDOF 17
ENDMDL
MODEL 3
REMARK VINA RESULT:     -11.8      5.645     10.995
REMARK SMILES C[C@@H](C(=O)NCCCNC(=O)c1ccc(-c2c3nc(c(-c4cccc(S(=O)(=O)[O-])c4F)c4ccc([nH]4)c(-c4cccc(S(=O)(=O)[O-])c4F)c4nc(c(-c5cccc(S(=O)(=O)[O-])c5F)c5ccc2[nH]5)C=C4)C=C3)cc1)n1ccc(C(=O)N2CC[NH+](Cc3cccc(F)c3)CC2)n1
REMARK SMILES IDX 6 1 5 2 3 3 4 4 2 6 1 7 75 8 76 9 95 10 77 11 78 12 79 13
REMARK SMILES IDX 80 14 81 15 82 16 94 17 83 18 93 19 84 20 85 22 86 23 87 24
REMARK SMILES IDX 92 25 88 26 90 27 89 28 91 29 7 30 8 31 9 32 10 33 11 35
REMARK SMILES IDX 12 36 13 37 74 38 14 39 73 40 15 41 16 42 17 43 67 44 18 45
REMARK SMILES IDX 72 46 66 47 68 48 19 49 71 50 65 51 64 52 20 54 52 55 32 56
REMARK SMILES IDX 51 57 33 58 36 59 50 60 69 61 34 62 35 63 49 65 70 66 37 67
REMARK SMILES IDX 21 68 22 69 30 70 23 71 25 72 31 73 24 74 26 75 27 76 28 77
REMARK SMILES IDX 29 78 53 79 54 80 62 81 55 82 57 83 63 84 56 85 58 86 59 87
REMARK SMILES IDX 60 88 61 89 38 90 39 91 47 92 40 93 42 94 48 95 41 96 43 97
REMARK SMILES IDX 44 98 45 99 46 100
REMARK H PARENT 5 5 84 21 9 34 68 53 36 64
REMARK Flexibility Score: inf
ROOT
ATOM      1  C   UNL A   1      42.785  22.882  28.078  1.00  0.00     0.117 C 
ENDROOT
BRANCH   1   2
ATOM      2  N   UNL A   1      44.010  22.491  27.414  1.00  0.00    -0.354 N 
ATOM      3  C   UNL A   1      45.125  23.216  27.106  1.00  0.00     0.244 C 
ATOM      4  O   UNL A   1      46.070  22.562  26.660  1.00  0.00    -0.273 OA
ATOM      5  H   UNL A   1      44.044  21.546  27.137  1.00  0.00     0.163 HD
BRANCH   3   6
ATOM      6  C   UNL A   1      45.183  24.722  27.401  1.00  0.00     0.193 C 
ATOM      7  C   UNL A   1      46.133  25.496  26.485  1.00  0.00     0.044 C 
BRANCH   6   8
ATOM      8  N   UNL A   1      45.565  24.941  28.796  1.00  0.00    -0.260 N 
ATOM      9  C   UNL A   1      46.712  25.507  29.272  1.00  0.00     0.110 A 
ATOM     10  N   UNL A   1      44.746  24.516  29.768  1.00  0.00    -0.167 NA
ATOM     11  C   UNL A   1      46.547  25.576  30.638  1.00  0.00     0.056 A 
ATOM     12  C   UNL A   1      45.279  24.986  30.904  1.00  0.00     0.150 A 
BRANCH  12  13
ATOM     13  C   UNL A   1      44.563  24.972  32.193  1.00  0.00     0.274 C 
ATOM     14  O   UNL A   1      44.410  23.906  32.799  1.00  0.00    -0.267 OA
ATOM     15  N   UNL A   1      44.124  26.188  32.744  1.00  0.00    -0.326 N 
ATOM     16  C   UNL A   1      43.746  26.158  34.149  1.00  0.00     0.181 C 
ATOM     17  C   UNL A   1      43.541  27.254  31.919  1.00  0.00     0.181 C 
ATOM     18  C   UNL A   1      43.552  27.541  34.796  1.00  0.00     0.284 C 
ATOM     19  C   UNL A   1      43.369  28.602  32.641  1.00  0.00     0.284 C 
ATOM     20  N   UNL A   1      42.827  28.536  34.002  1.00  0.00    -0.328 N 
ATOM     21  H   UNL A   1      43.019  29.437  34.439  1.00  0.00     0.348 HD
BRANCH  20  22
ATOM     22  C   UNL A   1      41.369  28.553  34.124  1.00  0.00     0.299 C 
BRANCH  22  23
ATOM     23  C   UNL A   1      40.685  29.899  34.191  1.00  0.00     0.009 A 
ATOM     24  C   UNL A   1      39.297  30.011  34.000  1.00  0.00     0.010 A 
ATOM     25  C   UNL A   1      41.416  31.059  34.475  1.00  0.00     0.048 A 
ATOM     26  C   UNL A   1      38.647  31.235  34.178  1.00  0.00     0.004 A 
ATOM     27  C   UNL A   1      40.760  32.271  34.660  1.00  0.00     0.123 A 
ATOM     28  C   UNL A   1      39.381  32.366  34.528  1.00  0.00     0.039 A 
ATOM     29  F   UNL A   1      41.468  33.358  34.997  1.00  0.00    -0.207 F 
ENDBRANCH  22  23
ENDBRANCH  20  22
ENDBRANCH  12  13
ENDBRANCH   6   8
ENDBRANCH   3   6
ENDBRANCH   1   2
BRANCH   1  30
ATOM     30  C   UNL A   1      41.610  21.989  27.696  1.00  0.00     0.042 C 
BRANCH  30  31
ATOM     31  C   UNL A   1      41.257  22.018  26.213  1.00  0.00     0.118 C 
BRANCH  31  32
ATOM     32  N   UNL A   1      39.822  22.099  25.978  1.00  0.00    -0.352 N 
ATOM     33  C   UNL A   1      38.937  23.094  26.313  1.00  0.00     0.251 C 
ATOM     34  H   UNL A   1      39.428  21.327  25.511  1.00  0.00     0.163 HD
ATOM     35  O   UNL A   1      37.729  22.898  26.195  1.00  0.00    -0.269 OA
BRANCH  33  36
ATOM     36  C   UNL A   1      39.431  24.389  26.827  1.00  0.00     0.039 A 
ATOM     37  C   UNL A   1      40.058  25.278  25.947  1.00  0.00     0.014 A 
ATOM     38  C   UNL A   1      39.289  24.720  28.176  1.00  0.00     0.014 A 
ATOM     39  C   UNL A   1      40.486  26.526  26.408  1.00  0.00     0.010 A 
ATOM     40  C   UNL A   1      39.650  25.988  28.618  1.00  0.00     0.010 A 
ATOM     41  C   UNL A   1      40.258  26.901  27.741  1.00  0.00    -0.014 A 
BRANCH  41  42
ATOM     42  C   UNL A   1      40.647  28.234  28.266  1.00  0.00     0.031 A 
ATOM     43  C   UNL A   1      42.101  28.549  28.484  1.00  0.00     0.074 A 
ATOM     44  C   UNL A   1      39.698  29.098  28.674  1.00  0.00     0.049 A 
ATOM     45  N   UNL A   1      42.644  29.566  29.099  1.00  0.00    -0.248 NA
ATOM     46  C   UNL A   1      43.072  27.566  27.975  1.00  0.00     0.031 C 
ATOM     47  C   UNL A   1      38.255  28.876  28.578  1.00  0.00     0.029 A 
ATOM     48  N   UNL A   1      39.809  30.316  29.298  1.00  0.00    -0.354 N 
ATOM     49  C   UNL A   1      44.011  29.319  29.104  1.00  0.00     0.074 A 
ATOM     50  C   UNL A   1      44.214  28.046  28.445  1.00  0.00     0.031 C 
ATOM     51  C   UNL A   1      37.614  29.913  29.141  1.00  0.00     0.029 A 
ATOM     52  C   UNL A   1      38.597  30.856  29.665  1.00  0.00     0.049 A 
ATOM     53  H   UNL A   1      40.670  30.761  29.466  1.00  0.00     0.167 HD
ATOM     54  C   UNL A   1      45.010  30.092  29.590  1.00  0.00     0.034 A 
ATOM     55  C   UNL A   1      38.312  31.973  30.363  1.00  0.00     0.034 A 
ATOM     56  C   UNL A   1      44.808  31.386  30.182  1.00  0.00     0.049 A 
ATOM     57  C   UNL A   1      39.440  32.855  30.827  1.00  0.00     0.074 A 
ATOM     58  C   UNL A   1      45.759  32.289  30.621  1.00  0.00     0.029 A 
ATOM     59  N   UNL A   1      43.569  31.963  30.412  1.00  0.00    -0.354 N 
ATOM     60  N   UNL A   1      40.732  32.675  30.697  1.00  0.00    -0.248 NA
ATOM     61  C   UNL A   1      39.075  34.109  31.501  1.00  0.00     0.031 C 
ATOM     62  C   UNL A   1      45.092  33.414  31.120  1.00  0.00     0.029 A 
ATOM     63  C   UNL A   1      43.728  33.214  30.981  1.00  0.00     0.049 A 
ATOM     64  H   UNL A   1      42.704  31.544  30.202  1.00  0.00     0.167 HD
ATOM     65  C   UNL A   1      41.333  33.806  31.235  1.00  0.00     0.074 A 
ATOM     66  C   UNL A   1      40.263  34.673  31.685  1.00  0.00     0.031 C 
ATOM     67  C   UNL A   1      42.652  34.095  31.358  1.00  0.00     0.034 A 
BRANCH  54  68
ATOM     68  C   UNL A   1      46.418  29.581  29.441  1.00  0.00     0.023 A 
ATOM     69  C   UNL A   1      47.089  29.062  30.567  1.00  0.00     0.012 A 
ATOM     70  C   UNL A   1      47.067  29.582  28.190  1.00  0.00     0.148 A 
ATOM     71  C   UNL A   1      48.397  28.591  30.460  1.00  0.00     0.002 A 
ATOM     72  C   UNL A   1      48.356  29.071  28.084  1.00  0.00     0.091 A 
ATOM     73  F   UNL A   1      46.426  30.104  27.134  1.00  0.00    -0.205 F 
ATOM     74  C   UNL A   1      49.027  28.586  29.218  1.00  0.00     0.022 A 
BRANCH  72  75
ATOM     75  S   UNL A   1      49.209  28.958  26.506  1.00  0.00     0.127 S 
ATOM     76  O   UNL A   1      49.770  30.301  26.376  1.00  0.00    -0.237 OA
ATOM     77  O   UNL A   1      50.195  27.907  26.755  1.00  0.00    -0.237 OA
ATOM     78  O   UNL A   1      48.184  28.600  25.535  1.00  0.00    -0.744 OA
ENDBRANCH  72  75
ENDBRANCH  54  68
BRANCH  55  79
ATOM     79  C   UNL A   1      36.890  32.351  30.591  1.00  0.00     0.023 A 
ATOM     80  C   UNL A   1      36.322  32.148  31.863  1.00  0.00     0.012 A 
ATOM     81  C   UNL A   1      36.123  32.974  29.587  1.00  0.00     0.148 A 
ATOM     82  C   UNL A   1      35.009  32.539  32.127  1.00  0.00     0.002 A 
ATOM     83  C   UNL A   1      34.832  33.408  29.871  1.00  0.00     0.091 A 
ATOM     84  F   UNL A   1      36.679  33.151  28.380  1.00  0.00    -0.205 F 
ATOM     85  C   UNL A   1      34.269  33.179  31.136  1.00  0.00     0.022 A 
BRANCH  83  86
ATOM     86  S   UNL A   1      33.856  34.363  28.702  1.00  0.00     0.127 S 
ATOM     87  O   UNL A   1      32.664  34.671  29.489  1.00  0.00    -0.237 OA
ATOM     88  O   UNL A   1      34.733  35.507  28.441  1.00  0.00    -0.237 OA
ATOM     89  O   UNL A   1      33.651  33.493  27.555  1.00  0.00    -0.744 OA
ENDBRANCH  83  86
ENDBRANCH  55  79
BRANCH  67  90
ATOM     90  C   UNL A   1      43.031  35.419  31.962  1.00  0.00     0.023 A 
ATOM     91  C   UNL A   1      43.121  35.547  33.361  1.00  0.00     0.012 A 
ATOM     92  C   UNL A   1      43.406  36.500  31.139  1.00  0.00     0.148 A 
ATOM     93  C   UNL A   1      43.566  36.738  33.935  1.00  0.00     0.002 A 
ATOM     94  C   UNL A   1      43.886  37.670  31.717  1.00  0.00     0.091 A 
ATOM     95  F   UNL A   1      43.291  36.363  29.811  1.00  0.00    -0.205 F 
ATOM     96  C   UNL A   1      43.961  37.793  33.114  1.00  0.00     0.022 A 
BRANCH  94  97
ATOM     97  S   UNL A   1      44.503  39.042  30.734  1.00  0.00     0.127 S 
ATOM     98  O   UNL A   1      44.881  40.002  31.770  1.00  0.00    -0.237 OA
ATOM     99  O   UNL A   1      45.629  38.436  30.023  1.00  0.00    -0.237 OA
ATOM    100  O   UNL A   1      43.398  39.448  29.876  1.00  0.00    -0.744 OA
ENDBRANCH  94  97
ENDBRANCH  67  90
ENDBRANCH  41  42
ENDBRANCH  33  36
ENDBRANCH  31  32
ENDBRANCH  30  31
ENDBRANCH   1  30
TORSDOF 17
ENDMDL
