MODEL 1
REMARK VINA RESULT:     -12.3      0.000      0.000
REMARK SMILES O=C(C[C@H]1C[C@H]2CC[C@@H](C1)N2C(=O)[C@H]1CCCCO1)NCCCNC(=O)c1ccc(-c2c3nc(c(-c4cccc(S(=O)(=O)[O-])c4F)c4ccc([nH]4)c(-c4cccc(S(=O)(=O)[O-])c4F)c4nc(c(-c5cccc(S(=O)(=O)[O-])c5F)c5ccc2[nH]5)C=C4)C=C3)cc1
REMARK SMILES IDX 22 1 21 2 20 3 1 4 2 5 3 7 4 8 5 9 10 10 6 11 9 12 7 13
REMARK SMILES IDX 11 14 8 15 12 16 13 17 14 18 15 19 19 20 16 21 18 22 17 23
REMARK SMILES IDX 23 24 24 25 25 26 26 28 27 29 28 30 89 31 29 32 88 33 30 34
REMARK SMILES IDX 31 35 32 36 82 37 33 38 87 39 81 40 83 41 34 42 86 43 80 44
REMARK SMILES IDX 79 45 35 47 67 48 47 49 66 50 48 51 51 52 65 53 84 54 49 55
REMARK SMILES IDX 50 56 64 58 85 59 52 60 36 61 37 62 45 63 38 64 40 65 46 66
REMARK SMILES IDX 39 67 41 68 42 69 43 70 44 71 68 72 69 73 77 74 70 75 72 76
REMARK SMILES IDX 78 77 71 78 73 79 74 80 75 81 76 82 53 83 54 84 62 85 55 86
REMARK SMILES IDX 57 87 63 88 56 89 58 90 59 91 60 92 61 93
REMARK H PARENT 20 6 24 27 83 46 51 57
REMARK Flexibility Score: inf
ROOT
ATOM      1  C   UNL A   1      37.412  20.650  24.414  1.00  0.00     0.042 C 
ENDROOT
BRANCH   1   2
ATOM      2  C   UNL A   1      36.488  19.619  25.034  1.00  0.00     0.117 C 
BRANCH   2   3
ATOM      3  N   UNL A   1      35.085  19.938  24.851  1.00  0.00    -0.356 N 
ATOM      4  O   UNL A   1      34.982  21.482  26.545  1.00  0.00    -0.275 OA
ATOM      5  C   UNL A   1      34.471  20.933  25.574  1.00  0.00     0.220 C 
ATOM      6  H   UNL A   1      34.559  19.429  24.193  1.00  0.00     0.163 HD
BRANCH   5   7
ATOM      7  C   UNL A   1      33.121  21.365  25.036  1.00  0.00     0.103 C 
BRANCH   7   8
ATOM      8  C   UNL A   1      33.161  22.225  23.748  1.00  0.00     0.002 C 
ATOM      9  C   UNL A   1      31.859  23.060  23.556  1.00  0.00     0.029 C 
ATOM     10  C   UNL A   1      34.420  23.106  23.542  1.00  0.00     0.029 C 
ATOM     11  C   UNL A   1      31.971  24.536  24.004  1.00  0.00     0.085 C 
ATOM     12  C   UNL A   1      34.288  24.550  24.043  1.00  0.00     0.085 C 
ATOM     13  C   UNL A   1      32.334  24.666  25.487  1.00  0.00     0.027 C 
ATOM     14  N   UNL A   1      33.142  25.119  23.367  1.00  0.00    -0.334 N 
ATOM     15  C   UNL A   1      33.872  24.636  25.515  1.00  0.00     0.027 C 
BRANCH  14  16
ATOM     16  C   UNL A   1      33.089  26.043  22.343  1.00  0.00     0.252 C 
ATOM     17  O   UNL A   1      33.377  25.720  21.188  1.00  0.00    -0.272 OA
BRANCH  16  18
ATOM     18  C   UNL A   1      32.627  27.488  22.698  1.00  0.00     0.207 C 
ATOM     19  C   UNL A   1      31.110  27.621  22.523  1.00  0.00     0.042 C 
ATOM     20  O   UNL A   1      32.976  27.841  24.042  1.00  0.00    -0.368 OA
ATOM     21  C   UNL A   1      30.616  29.009  22.907  1.00  0.00     0.006 C 
ATOM     22  C   UNL A   1      32.625  29.183  24.375  1.00  0.00     0.161 C 
ATOM     23  C   UNL A   1      31.119  29.387  24.290  1.00  0.00     0.029 C 
ENDBRANCH  16  18
ENDBRANCH  14  16
ENDBRANCH   7   8
ENDBRANCH   5   7
ENDBRANCH   2   3
ENDBRANCH   1   2
BRANCH   1  24
ATOM     24  C   UNL A   1      38.324  21.343  25.418  1.00  0.00     0.118 C 
BRANCH  24  25
ATOM     25  N   UNL A   1      39.300  20.446  26.030  1.00  0.00    -0.352 N 
ATOM     26  C   UNL A   1      40.402  20.753  26.792  1.00  0.00     0.251 C 
ATOM     27  H   UNL A   1      39.147  19.486  25.875  1.00  0.00     0.163 HD
ATOM     28  O   UNL A   1      41.179  19.863  27.127  1.00  0.00    -0.269 OA
BRANCH  26  29
ATOM     29  C   UNL A   1      40.663  22.157  27.177  1.00  0.00     0.039 A 
ATOM     30  C   UNL A   1      41.543  22.415  28.232  1.00  0.00     0.014 A 
ATOM     31  C   UNL A   1      40.068  23.213  26.483  1.00  0.00     0.014 A 
ATOM     32  C   UNL A   1      41.886  23.734  28.538  1.00  0.00     0.010 A 
ATOM     33  C   UNL A   1      40.471  24.520  26.738  1.00  0.00     0.010 A 
ATOM     34  C   UNL A   1      41.385  24.795  27.766  1.00  0.00    -0.014 A 
BRANCH  34  35
ATOM     35  C   UNL A   1      41.818  26.197  28.000  1.00  0.00     0.031 A 
ATOM     36  C   UNL A   1      43.214  26.628  27.643  1.00  0.00     0.074 A 
ATOM     37  C   UNL A   1      40.989  27.054  28.628  1.00  0.00     0.049 A 
ATOM     38  N   UNL A   1      43.798  27.781  27.843  1.00  0.00    -0.248 NA
ATOM     39  C   UNL A   1      44.080  25.624  27.002  1.00  0.00     0.031 C 
ATOM     40  C   UNL A   1      39.640  26.733  29.102  1.00  0.00     0.029 A 
ATOM     41  N   UNL A   1      41.169  28.361  29.007  1.00  0.00    -0.354 N 
ATOM     42  C   UNL A   1      45.104  27.631  27.393  1.00  0.00     0.074 A 
ATOM     43  C   UNL A   1      45.238  26.264  26.937  1.00  0.00     0.031 C 
ATOM     44  C   UNL A   1      39.117  27.812  29.706  1.00  0.00     0.029 A 
ATOM     45  C   UNL A   1      40.099  28.891  29.690  1.00  0.00     0.049 A 
ATOM     46  H   UNL A   1      41.988  28.871  28.809  1.00  0.00     0.167 HD
ATOM     47  C   UNL A   1      46.093  28.554  27.335  1.00  0.00     0.034 A 
ATOM     48  C   UNL A   1      39.929  30.107  30.248  1.00  0.00     0.034 A 
ATOM     49  C   UNL A   1      45.941  29.925  27.741  1.00  0.00     0.049 A 
ATOM     50  C   UNL A   1      41.029  31.127  30.126  1.00  0.00     0.074 A 
ATOM     51  C   UNL A   1      46.854  30.959  27.631  1.00  0.00     0.029 A 
ATOM     52  N   UNL A   1      44.808  30.452  28.339  1.00  0.00    -0.354 N 
ATOM     53  N   UNL A   1      42.199  31.015  29.545  1.00  0.00    -0.248 NA
ATOM     54  C   UNL A   1      40.771  32.455  30.704  1.00  0.00     0.031 C 
ATOM     55  C   UNL A   1      46.277  32.110  28.180  1.00  0.00     0.029 A 
ATOM     56  C   UNL A   1      44.999  31.796  28.612  1.00  0.00     0.049 A 
ATOM     57  H   UNL A   1      43.988  29.945  28.540  1.00  0.00     0.167 HD
ATOM     58  C   UNL A   1      42.801  32.262  29.656  1.00  0.00     0.074 A 
ATOM     59  C   UNL A   1      41.858  33.122  30.341  1.00  0.00     0.031 C 
ATOM     60  C   UNL A   1      44.030  32.656  29.242  1.00  0.00     0.034 A 
BRANCH  47  61
ATOM     61  C   UNL A   1      47.415  28.125  26.754  1.00  0.00     0.023 A 
ATOM     62  C   UNL A   1      48.486  27.822  27.620  1.00  0.00     0.012 A 
ATOM     63  C   UNL A   1      47.582  27.964  25.365  1.00  0.00     0.148 A 
ATOM     64  C   UNL A   1      49.713  27.398  27.111  1.00  0.00     0.002 A 
ATOM     65  C   UNL A   1      48.796  27.500  24.868  1.00  0.00     0.091 A 
ATOM     66  F   UNL A   1      46.560  28.279  24.556  1.00  0.00    -0.205 F 
ATOM     67  C   UNL A   1      49.864  27.228  25.739  1.00  0.00     0.022 A 
BRANCH  65  68
ATOM     68  S   UNL A   1      49.064  27.174  23.122  1.00  0.00     0.127 S 
ATOM     69  O   UNL A   1      48.301  25.941  22.933  1.00  0.00    -0.237 OA
ATOM     70  O   UNL A   1      48.476  28.357  22.493  1.00  0.00    -0.237 OA
ATOM     71  O   UNL A   1      50.505  27.051  22.954  1.00  0.00    -0.744 OA
ENDBRANCH  65  68
ENDBRANCH  47  61
BRANCH  48  72
ATOM     72  C   UNL A   1      38.639  30.448  30.910  1.00  0.00     0.023 A 
ATOM     73  C   UNL A   1      38.433  30.071  32.251  1.00  0.00     0.012 A 
ATOM     74  C   UNL A   1      37.632  31.166  30.236  1.00  0.00     0.148 A 
ATOM     75  C   UNL A   1      37.236  30.375  32.901  1.00  0.00     0.002 A 
ATOM     76  C   UNL A   1      36.464  31.513  30.905  1.00  0.00     0.091 A 
ATOM     77  F   UNL A   1      37.842  31.505  28.956  1.00  0.00    -0.205 F 
ATOM     78  C   UNL A   1      36.256  31.105  32.231  1.00  0.00     0.022 A 
BRANCH  76  79
ATOM     79  S   UNL A   1      35.208  32.563  30.165  1.00  0.00     0.127 S 
ATOM     80  O   UNL A   1      34.270  32.732  31.272  1.00  0.00    -0.237 OA
ATOM     81  O   UNL A   1      35.978  33.759  29.819  1.00  0.00    -0.237 OA
ATOM     82  O   UNL A   1      34.706  31.822  29.015  1.00  0.00    -0.744 OA
ENDBRANCH  76  79
ENDBRANCH  48  72
BRANCH  60  83
ATOM     83  C   UNL A   1      44.426  34.089  29.484  1.00  0.00     0.023 A 
ATOM     84  C   UNL A   1      44.935  34.471  30.740  1.00  0.00     0.012 A 
ATOM     85  C   UNL A   1      44.369  35.036  28.443  1.00  0.00     0.148 A 
ATOM     86  C   UNL A   1      45.355  35.782  30.965  1.00  0.00     0.002 A 
ATOM     87  C   UNL A   1      44.833  36.327  28.660  1.00  0.00     0.091 A 
ATOM     88  F   UNL A   1      43.863  34.657  27.260  1.00  0.00    -0.205 F 
ATOM     89  C   UNL A   1      45.315  36.705  29.922  1.00  0.00     0.022 A 
BRANCH  87  90
ATOM     90  S   UNL A   1      44.910  37.556  27.350  1.00  0.00     0.127 S 
ATOM     91  O   UNL A   1      45.484  38.703  28.050  1.00  0.00    -0.237 OA
ATOM     92  O   UNL A   1      45.804  36.921  26.380  1.00  0.00    -0.237 OA
ATOM     93  O   UNL A   1      43.540  37.729  26.884  1.00  0.00    -0.744 OA
ENDBRANCH  87  90
ENDBRANCH  60  83
ENDBRANCH  34  35
ENDBRANCH  26  29
ENDBRANCH  24  25
ENDBRANCH   1  24
TORSDOF 16
ENDMDL
MODEL 2
REMARK VINA RESULT:     -12.3      5.040     10.394
REMARK SMILES O=C(C[C@H]1C[C@H]2CC[C@@H](C1)N2C(=O)[C@H]1CCCCO1)NCCCNC(=O)c1ccc(-c2c3nc(c(-c4cccc(S(=O)(=O)[O-])c4F)c4ccc([nH]4)c(-c4cccc(S(=O)(=O)[O-])c4F)c4nc(c(-c5cccc(S(=O)(=O)[O-])c5F)c5ccc2[nH]5)C=C4)C=C3)cc1
REMARK SMILES IDX 22 1 21 2 20 3 1 4 2 5 3 7 4 8 5 9 10 10 6 11 9 12 7 13
REMARK SMILES IDX 11 14 8 15 12 16 13 17 14 18 15 19 19 20 16 21 18 22 17 23
REMARK SMILES IDX 23 24 24 25 25 26 26 28 27 29 28 30 89 31 29 32 88 33 30 34
REMARK SMILES IDX 31 35 32 36 82 37 33 38 87 39 81 40 83 41 34 42 86 43 80 44
REMARK SMILES IDX 79 45 35 47 67 48 47 49 66 50 48 51 51 52 65 53 84 54 49 55
REMARK SMILES IDX 50 56 64 58 85 59 52 60 36 61 37 62 45 63 38 64 40 65 46 66
REMARK SMILES IDX 39 67 41 68 42 69 43 70 44 71 68 72 69 73 77 74 70 75 72 76
REMARK SMILES IDX 78 77 71 78 73 79 74 80 75 81 76 82 53 83 54 84 62 85 55 86
REMARK SMILES IDX 57 87 63 88 56 89 58 90 59 91 60 92 61 93
REMARK H PARENT 20 6 24 27 83 46 51 57
REMARK Flexibility Score: inf
ROOT
ATOM      1  C   UNL A   1      31.582  29.203  25.842  1.00  0.00     0.042 C 
ENDROOT
BRANCH   1   2
ATOM      2  C   UNL A   1      31.287  29.313  24.357  1.00  0.00     0.117 C 
BRANCH   2   3
ATOM      3  N   UNL A   1      31.468  28.058  23.653  1.00  0.00    -0.356 N 
ATOM      4  O   UNL A   1      33.621  28.484  22.985  1.00  0.00    -0.275 OA
ATOM      5  C   UNL A   1      32.678  27.708  23.103  1.00  0.00     0.220 C 
ATOM      6  H   UNL A   1      30.706  27.442  23.567  1.00  0.00     0.163 HD
BRANCH   5   7
ATOM      7  C   UNL A   1      32.794  26.248  22.708  1.00  0.00     0.103 C 
BRANCH   7   8
ATOM      8  C   UNL A   1      33.706  25.384  23.614  1.00  0.00     0.002 C 
ATOM      9  C   UNL A   1      33.649  25.833  25.106  1.00  0.00     0.029 C 
ATOM     10  C   UNL A   1      33.547  23.847  23.492  1.00  0.00     0.029 C 
ATOM     11  C   UNL A   1      32.717  24.980  25.998  1.00  0.00     0.085 C 
ATOM     12  C   UNL A   1      32.586  23.212  24.506  1.00  0.00     0.085 C 
ATOM     13  C   UNL A   1      31.267  24.996  25.504  1.00  0.00     0.027 C 
ATOM     14  N   UNL A   1      33.069  23.580  25.820  1.00  0.00    -0.334 N 
ATOM     15  C   UNL A   1      31.191  23.847  24.484  1.00  0.00     0.027 C 
BRANCH  14  16
ATOM     16  C   UNL A   1      33.714  22.814  26.770  1.00  0.00     0.252 C 
ATOM     17  O   UNL A   1      33.155  22.524  27.830  1.00  0.00    -0.272 OA
BRANCH  16  18
ATOM     18  C   UNL A   1      35.151  22.314  26.439  1.00  0.00     0.207 C 
ATOM     19  C   UNL A   1      35.097  21.171  25.419  1.00  0.00     0.042 C 
ATOM     20  O   UNL A   1      35.972  23.367  25.918  1.00  0.00    -0.368 OA
ATOM     21  C   UNL A   1      36.489  20.688  25.036  1.00  0.00     0.006 C 
ATOM     22  C   UNL A   1      37.315  22.955  25.668  1.00  0.00     0.161 C 
ATOM     23  C   UNL A   1      37.358  21.860  24.612  1.00  0.00     0.029 C 
ENDBRANCH  16  18
ENDBRANCH  14  16
ENDBRANCH   7   8
ENDBRANCH   5   7
ENDBRANCH   2   3
ENDBRANCH   1   2
BRANCH   1  24
ATOM     24  C   UNL A   1      32.902  29.838  26.256  1.00  0.00     0.118 C 
BRANCH  24  25
ATOM     25  N   UNL A   1      32.772  31.234  26.663  1.00  0.00    -0.352 N 
ATOM     26  C   UNL A   1      33.597  31.982  27.468  1.00  0.00     0.251 C 
ATOM     27  H   UNL A   1      31.983  31.705  26.312  1.00  0.00     0.163 HD
ATOM     28  O   UNL A   1      33.262  33.118  27.796  1.00  0.00    -0.269 OA
BRANCH  26  29
ATOM     29  C   UNL A   1      34.867  31.407  27.961  1.00  0.00     0.039 A 
ATOM     30  C   UNL A   1      35.982  32.240  28.084  1.00  0.00     0.014 A 
ATOM     31  C   UNL A   1      34.949  30.062  28.327  1.00  0.00     0.014 A 
ATOM     32  C   UNL A   1      37.158  31.740  28.650  1.00  0.00     0.010 A 
ATOM     33  C   UNL A   1      36.093  29.589  28.962  1.00  0.00     0.010 A 
ATOM     34  C   UNL A   1      37.210  30.422  29.131  1.00  0.00    -0.014 A 
BRANCH  34  35
ATOM     35  C   UNL A   1      38.408  29.899  29.836  1.00  0.00     0.031 A 
ATOM     36  C   UNL A   1      38.761  30.404  31.208  1.00  0.00     0.074 A 
ATOM     37  C   UNL A   1      39.236  29.048  29.198  1.00  0.00     0.049 A 
ATOM     38  N   UNL A   1      39.806  30.126  31.945  1.00  0.00    -0.248 NA
ATOM     39  C   UNL A   1      37.835  31.369  31.823  1.00  0.00     0.031 C 
ATOM     40  C   UNL A   1      39.050  28.548  27.833  1.00  0.00     0.029 A 
ATOM     41  N   UNL A   1      40.417  28.475  29.600  1.00  0.00    -0.354 N 
ATOM     42  C   UNL A   1      39.685  30.909  33.087  1.00  0.00     0.074 A 
ATOM     43  C   UNL A   1      38.481  31.696  32.933  1.00  0.00     0.031 C 
ATOM     44  C   UNL A   1      40.078  27.747  27.512  1.00  0.00     0.029 A 
ATOM     45  C   UNL A   1      41.011  27.696  28.634  1.00  0.00     0.049 A 
ATOM     46  H   UNL A   1      40.804  28.611  30.496  1.00  0.00     0.167 HD
ATOM     47  C   UNL A   1      40.485  30.946  34.179  1.00  0.00     0.034 A 
ATOM     48  C   UNL A   1      42.178  27.022  28.646  1.00  0.00     0.034 A 
ATOM     49  C   UNL A   1      41.652  30.124  34.352  1.00  0.00     0.049 A 
ATOM     50  C   UNL A   1      43.023  27.044  29.891  1.00  0.00     0.074 A 
ATOM     51  C   UNL A   1      42.472  30.019  35.462  1.00  0.00     0.029 A 
ATOM     52  N   UNL A   1      42.169  29.272  33.389  1.00  0.00    -0.354 N 
ATOM     53  N   UNL A   1      42.804  27.661  31.026  1.00  0.00    -0.248 NA
ATOM     54  C   UNL A   1      44.260  26.248  29.870  1.00  0.00     0.031 C 
ATOM     55  C   UNL A   1      43.497  29.114  35.162  1.00  0.00     0.029 A 
ATOM     56  C   UNL A   1      43.302  28.642  33.875  1.00  0.00     0.049 A 
ATOM     57  H   UNL A   1      41.787  29.135  32.492  1.00  0.00     0.167 HD
ATOM     58  C   UNL A   1      43.852  27.301  31.865  1.00  0.00     0.074 A 
ATOM     59  C   UNL A   1      44.695  26.394  31.114  1.00  0.00     0.031 C 
ATOM     60  C   UNL A   1      44.101  27.697  33.137  1.00  0.00     0.034 A 
BRANCH  47  61
ATOM     61  C   UNL A   1      40.089  31.866  35.304  1.00  0.00     0.023 A 
ATOM     62  C   UNL A   1      40.635  33.165  35.361  1.00  0.00     0.012 A 
ATOM     63  C   UNL A   1      39.138  31.473  36.266  1.00  0.00     0.148 A 
ATOM     64  C   UNL A   1      40.268  34.046  36.377  1.00  0.00     0.002 A 
ATOM     65  C   UNL A   1      38.744  32.374  37.250  1.00  0.00     0.091 A 
ATOM     66  F   UNL A   1      38.646  30.227  36.209  1.00  0.00    -0.205 F 
ATOM     67  C   UNL A   1      39.316  33.655  37.313  1.00  0.00     0.022 A 
BRANCH  65  68
ATOM     68  S   UNL A   1      37.468  31.991  38.456  1.00  0.00     0.127 S 
ATOM     69  O   UNL A   1      37.199  30.584  38.163  1.00  0.00    -0.237 OA
ATOM     70  O   UNL A   1      38.160  32.229  39.724  1.00  0.00    -0.237 OA
ATOM     71  O   UNL A   1      36.370  32.908  38.183  1.00  0.00    -0.744 OA
ENDBRANCH  65  68
ENDBRANCH  47  61
BRANCH  48  72
ATOM     72  C   UNL A   1      42.581  26.210  27.463  1.00  0.00     0.023 A 
ATOM     73  C   UNL A   1      43.408  26.789  26.480  1.00  0.00     0.012 A 
ATOM     74  C   UNL A   1      42.179  24.868  27.319  1.00  0.00     0.148 A 
ATOM     75  C   UNL A   1      43.803  26.056  25.361  1.00  0.00     0.002 A 
ATOM     76  C   UNL A   1      42.620  24.127  26.228  1.00  0.00     0.091 A 
ATOM     77  F   UNL A   1      41.381  24.340  28.258  1.00  0.00    -0.205 F 
ATOM     78  C   UNL A   1      43.417  24.723  25.239  1.00  0.00     0.022 A 
BRANCH  76  79
ATOM     79  S   UNL A   1      42.283  22.371  26.060  1.00  0.00     0.127 S 
ATOM     80  O   UNL A   1      43.033  22.037  24.851  1.00  0.00    -0.237 OA
ATOM     81  O   UNL A   1      42.842  21.834  27.301  1.00  0.00    -0.237 OA
ATOM     82  O   UNL A   1      40.834  22.258  25.959  1.00  0.00    -0.744 OA
ENDBRANCH  76  79
ENDBRANCH  48  72
BRANCH  60  83
ATOM     83  C   UNL A   1      45.318  27.132  33.822  1.00  0.00     0.023 A 
ATOM     84  C   UNL A   1      46.542  27.828  33.757  1.00  0.00     0.012 A 
ATOM     85  C   UNL A   1      45.229  25.957  34.593  1.00  0.00     0.148 A 
ATOM     86  C   UNL A   1      47.666  27.346  34.429  1.00  0.00     0.002 A 
ATOM     87  C   UNL A   1      46.340  25.510  35.298  1.00  0.00     0.091 A 
ATOM     88  F   UNL A   1      44.060  25.300  34.625  1.00  0.00    -0.205 F 
ATOM     89  C   UNL A   1      47.561  26.195  35.208  1.00  0.00     0.022 A 
BRANCH  87  90
ATOM     90  S   UNL A   1      46.273  24.092  36.401  1.00  0.00     0.127 S 
ATOM     91  O   UNL A   1      46.118  22.987  35.458  1.00  0.00    -0.237 OA
ATOM     92  O   UNL A   1      47.576  24.152  37.063  1.00  0.00    -0.237 OA
ATOM     93  O   UNL A   1      45.137  24.326  37.283  1.00  0.00    -0.744 OA
ENDBRANCH  87  90
ENDBRANCH  60  83
ENDBRANCH  34  35
ENDBRANCH  26  29
ENDBRANCH  24  25
ENDBRANCH   1  24
TORSDOF 16
ENDMDL
MODEL 3
REMARK VINA RESULT:     -12.2      1.796      2.546
REMARK SMILES O=C(C[C@H]1C[C@H]2CC[C@@H](C1)N2C(=O)[C@H]1CCCCO1)NCCCNC(=O)c1ccc(-c2c3nc(c(-c4cccc(S(=O)(=O)[O-])c4F)c4ccc([nH]4)c(-c4cccc(S(=O)(=O)[O-])c4F)c4nc(c(-c5cccc(S(=O)(=O)[O-])c5F)c5ccc2[nH]5)C=C4)C=C3)cc1
REMARK SMILES IDX 22 1 21 2 20 3 1 4 2 5 3 7 4 8 5 9 10 10 6 11 9 12 7 13
REMARK SMILES IDX 11 14 8 15 12 16 13 17 14 18 15 19 19 20 16 21 18 22 17 23
REMARK SMILES IDX 23 24 24 25 25 26 26 28 27 29 28 30 89 31 29 32 88 33 30 34
REMARK SMILES IDX 31 35 32 36 82 37 33 38 87 39 81 40 83 41 34 42 86 43 80 44
REMARK SMILES IDX 79 45 35 47 67 48 47 49 66 50 48 51 51 52 65 53 84 54 49 55
REMARK SMILES IDX 50 56 64 58 85 59 52 60 36 61 37 62 45 63 38 64 40 65 46 66
REMARK SMILES IDX 39 67 41 68 42 69 43 70 44 71 68 72 69 73 77 74 70 75 72 76
REMARK SMILES IDX 78 77 71 78 73 79 74 80 75 81 76 82 53 83 54 84 62 85 55 86
REMARK SMILES IDX 57 87 63 88 56 89 58 90 59 91 60 92 61 93
REMARK H PARENT 20 6 24 27 83 46 51 57
REMARK Flexibility Score: inf
ROOT
ATOM      1  C   UNL A   1      35.515  21.453  25.696  1.00  0.00     0.042 C 
ENDROOT
BRANCH   1   2
ATOM      2  C   UNL A   1      34.510  21.318  24.567  1.00  0.00     0.117 C 
BRANCH   2   3
ATOM      3  N   UNL A   1      33.532  22.388  24.554  1.00  0.00    -0.356 N 
ATOM      4  O   UNL A   1      34.368  23.435  22.692  1.00  0.00    -0.275 OA
ATOM      5  C   UNL A   1      33.489  23.314  23.539  1.00  0.00     0.220 C 
ATOM      6  H   UNL A   1      32.882  22.454  25.291  1.00  0.00     0.163 HD
BRANCH   5   7
ATOM      7  C   UNL A   1      32.221  24.145  23.494  1.00  0.00     0.103 C 
BRANCH   7   8
ATOM      8  C   UNL A   1      32.432  25.678  23.418  1.00  0.00     0.002 C 
ATOM      9  C   UNL A   1      31.439  26.360  22.429  1.00  0.00     0.029 C 
ATOM     10  C   UNL A   1      32.481  26.439  24.767  1.00  0.00     0.029 C 
ATOM     11  C   UNL A   1      30.211  27.018  23.104  1.00  0.00     0.085 C 
ATOM     12  C   UNL A   1      31.142  27.032  25.225  1.00  0.00     0.085 C 
ATOM     13  C   UNL A   1      29.378  26.009  23.901  1.00  0.00     0.027 C 
ATOM     14  N   UNL A   1      30.687  27.898  24.159  1.00  0.00    -0.334 N 
ATOM     15  C   UNL A   1      30.022  25.990  25.297  1.00  0.00     0.027 C 
BRANCH  14  16
ATOM     16  C   UNL A   1      30.656  29.277  24.093  1.00  0.00     0.252 C 
ATOM     17  O   UNL A   1      31.548  29.952  24.611  1.00  0.00    -0.272 OA
BRANCH  16  18
ATOM     18  C   UNL A   1      29.475  29.936  23.320  1.00  0.00     0.207 C 
ATOM     19  C   UNL A   1      29.089  31.268  23.972  1.00  0.00     0.042 C 
ATOM     20  O   UNL A   1      29.805  30.167  21.944  1.00  0.00    -0.368 OA
ATOM     21  C   UNL A   1      27.967  31.965  23.215  1.00  0.00     0.006 C 
ATOM     22  C   UNL A   1      28.720  30.710  21.194  1.00  0.00     0.161 C 
ATOM     23  C   UNL A   1      28.312  32.072  21.738  1.00  0.00     0.029 C 
ENDBRANCH  16  18
ENDBRANCH  14  16
ENDBRANCH   7   8
ENDBRANCH   5   7
ENDBRANCH   2   3
ENDBRANCH   1   2
BRANCH   1  24
ATOM     24  C   UNL A   1      36.914  21.833  25.233  1.00  0.00     0.118 C 
BRANCH  24  25
ATOM     25  N   UNL A   1      37.919  20.814  25.522  1.00  0.00    -0.352 N 
ATOM     26  C   UNL A   1      39.173  20.961  26.066  1.00  0.00     0.251 C 
ATOM     27  H   UNL A   1      37.662  19.891  25.296  1.00  0.00     0.163 HD
ATOM     28  O   UNL A   1      39.927  19.994  26.128  1.00  0.00    -0.269 OA
BRANCH  26  29
ATOM     29  C   UNL A   1      39.618  22.288  26.543  1.00  0.00     0.039 A 
ATOM     30  C   UNL A   1      40.628  22.354  27.506  1.00  0.00     0.014 A 
ATOM     31  C   UNL A   1      39.064  23.459  26.022  1.00  0.00     0.014 A 
ATOM     32  C   UNL A   1      41.137  23.598  27.887  1.00  0.00     0.010 A 
ATOM     33  C   UNL A   1      39.626  24.691  26.344  1.00  0.00     0.010 A 
ATOM     34  C   UNL A   1      40.669  24.774  27.279  1.00  0.00    -0.014 A 
BRANCH  34  35
ATOM     35  C   UNL A   1      41.268  26.099  27.586  1.00  0.00     0.031 A 
ATOM     36  C   UNL A   1      42.688  26.398  27.191  1.00  0.00     0.074 A 
ATOM     37  C   UNL A   1      40.568  26.994  28.311  1.00  0.00     0.049 A 
ATOM     38  N   UNL A   1      43.406  27.462  27.441  1.00  0.00    -0.248 NA
ATOM     39  C   UNL A   1      43.407  25.354  26.442  1.00  0.00     0.031 C 
ATOM     40  C   UNL A   1      39.212  26.791  28.827  1.00  0.00     0.029 A 
ATOM     41  N   UNL A   1      40.911  28.242  28.768  1.00  0.00    -0.354 N 
ATOM     42  C   UNL A   1      44.668  27.201  26.918  1.00  0.00     0.074 A 
ATOM     43  C   UNL A   1      44.627  25.865  26.365  1.00  0.00     0.031 C 
ATOM     44  C   UNL A   1      38.839  27.874  29.527  1.00  0.00     0.029 A 
ATOM     45  C   UNL A   1      39.937  28.836  29.537  1.00  0.00     0.049 A 
ATOM     46  H   UNL A   1      41.774  28.671  28.565  1.00  0.00     0.167 HD
ATOM     47  C   UNL A   1      45.752  28.011  26.874  1.00  0.00     0.034 A 
ATOM     48  C   UNL A   1      39.929  30.019  30.184  1.00  0.00     0.034 A 
ATOM     49  C   UNL A   1      45.774  29.357  27.380  1.00  0.00     0.049 A 
ATOM     50  C   UNL A   1      41.132  30.918  30.078  1.00  0.00     0.074 A 
ATOM     51  C   UNL A   1      46.793  30.290  27.295  1.00  0.00     0.029 A 
ATOM     52  N   UNL A   1      44.733  29.961  28.067  1.00  0.00    -0.354 N 
ATOM     53  N   UNL A   1      42.256  30.719  29.434  1.00  0.00    -0.248 NA
ATOM     54  C   UNL A   1      41.051  32.220  30.757  1.00  0.00     0.031 C 
ATOM     55  C   UNL A   1      46.374  31.454  27.949  1.00  0.00     0.029 A 
ATOM     56  C   UNL A   1      45.087  31.253  28.421  1.00  0.00     0.049 A 
ATOM     57  H   UNL A   1      43.870  29.535  28.273  1.00  0.00     0.167 HD
ATOM     58  C   UNL A   1      43.001  31.881  29.600  1.00  0.00     0.074 A 
ATOM     59  C   UNL A   1      42.190  32.788  30.388  1.00  0.00     0.031 C 
ATOM     60  C   UNL A   1      44.249  32.166  29.154  1.00  0.00     0.034 A 
BRANCH  47  61
ATOM     61  C   UNL A   1      46.992  27.483  26.202  1.00  0.00     0.023 A 
ATOM     62  C   UNL A   1      47.221  27.776  24.841  1.00  0.00     0.012 A 
ATOM     63  C   UNL A   1      47.957  26.753  26.923  1.00  0.00     0.148 A 
ATOM     64  C   UNL A   1      48.372  27.321  24.200  1.00  0.00     0.002 A 
ATOM     65  C   UNL A   1      49.123  26.340  26.287  1.00  0.00     0.091 A 
ATOM     66  F   UNL A   1      47.712  26.464  28.210  1.00  0.00    -0.205 F 
ATOM     67  C   UNL A   1      49.327  26.614  24.924  1.00  0.00     0.022 A 
BRANCH  65  68
ATOM     68  S   UNL A   1      50.448  25.490  27.153  1.00  0.00     0.127 S 
ATOM     69  O   UNL A   1      50.805  26.469  28.179  1.00  0.00    -0.237 OA
ATOM     70  O   UNL A   1      49.768  24.296  27.661  1.00  0.00    -0.237 OA
ATOM     71  O   UNL A   1      51.474  25.225  26.156  1.00  0.00    -0.744 OA
ENDBRANCH  65  68
ENDBRANCH  47  61
BRANCH  48  72
ATOM     72  C   UNL A   1      38.714  30.451  30.930  1.00  0.00     0.023 A 
ATOM     73  C   UNL A   1      38.607  30.154  32.302  1.00  0.00     0.012 A 
ATOM     74  C   UNL A   1      37.684  31.177  30.302  1.00  0.00     0.148 A 
ATOM     75  C   UNL A   1      37.483  30.545  33.030  1.00  0.00     0.002 A 
ATOM     76  C   UNL A   1      36.591  31.610  31.044  1.00  0.00     0.091 A 
ATOM     77  F   UNL A   1      37.798  31.439  28.992  1.00  0.00    -0.205 F 
ATOM     78  C   UNL A   1      36.480  31.281  32.404  1.00  0.00     0.022 A 
BRANCH  76  79
ATOM     79  S   UNL A   1      35.320  32.675  30.353  1.00  0.00     0.127 S 
ATOM     80  O   UNL A   1      34.939  31.942  29.148  1.00  0.00    -0.237 OA
ATOM     81  O   UNL A   1      34.315  32.679  31.417  1.00  0.00    -0.237 OA
ATOM     82  O   UNL A   1      35.965  33.963  30.135  1.00  0.00    -0.744 OA
ENDBRANCH  76  79
ENDBRANCH  48  72
BRANCH  60  83
ATOM     83  C   UNL A   1      44.814  33.525  29.473  1.00  0.00     0.023 A 
ATOM     84  C   UNL A   1      45.516  33.725  30.678  1.00  0.00     0.012 A 
ATOM     85  C   UNL A   1      44.720  34.579  28.544  1.00  0.00     0.148 A 
ATOM     86  C   UNL A   1      46.091  34.963  30.965  1.00  0.00     0.002 A 
ATOM     87  C   UNL A   1      45.336  35.794  28.815  1.00  0.00     0.091 A 
ATOM     88  F   UNL A   1      44.031  34.374  27.411  1.00  0.00    -0.205 F 
ATOM     89  C   UNL A   1      46.011  35.992  30.030  1.00  0.00     0.022 A 
BRANCH  87  90
ATOM     90  S   UNL A   1      45.367  37.144  27.629  1.00  0.00     0.127 S 
ATOM     91  O   UNL A   1      43.944  37.439  27.475  1.00  0.00    -0.237 OA
ATOM     92  O   UNL A   1      46.130  38.168  28.344  1.00  0.00    -0.237 OA
ATOM     93  O   UNL A   1      46.029  36.618  26.442  1.00  0.00    -0.744 OA
ENDBRANCH  87  90
ENDBRANCH  60  83
ENDBRANCH  34  35
ENDBRANCH  26  29
ENDBRANCH  24  25
ENDBRANCH   1  24
TORSDOF 16
ENDMDL
