MODEL 1
REMARK VINA RESULT:     -12.6      0.000      0.000
REMARK SMILES O=C(COc1ccccc1/C=C1\C(=O)Nc2ccccc21)NCCCNC(=O)c1ccc(-c2c3nc(c(-c4cccc(S(=O)(=O)[O-])c4F)c4ccc([nH]4)c(-c4cccc(S(=O)(=O)[O-])c4F)c4nc(c(-c5cccc(S(=O)(=O)[O-])c5F)c5ccc2[nH]5)C=C4)C=C3)cc1
REMARK SMILES IDX 24 1 23 2 22 3 1 4 2 5 3 7 4 8 5 9 6 10 10 11 7 12 9 13 8 14
REMARK SMILES IDX 11 15 12 16 13 17 21 18 14 19 15 20 16 21 20 22 17 24 19 25
REMARK SMILES IDX 18 26 25 27 26 28 27 29 28 31 29 32 30 33 91 34 31 35 90 36
REMARK SMILES IDX 32 37 33 38 34 39 84 40 35 41 89 42 83 43 85 44 36 45 88 46
REMARK SMILES IDX 82 47 81 48 37 50 69 51 49 52 68 53 50 54 53 55 67 56 86 57
REMARK SMILES IDX 51 58 52 59 66 61 87 62 54 63 38 64 39 65 47 66 40 67 42 68
REMARK SMILES IDX 48 69 41 70 43 71 44 72 45 73 46 74 70 75 71 76 79 77 72 78
REMARK SMILES IDX 74 79 80 80 73 81 75 82 76 83 77 84 78 85 55 86 56 87 64 88
REMARK SMILES IDX 57 89 59 90 65 91 58 92 60 93 61 94 62 95 63 96
REMARK H PARENT 22 6 15 23 26 30 85 49 53 60
REMARK Flexibility Score: inf
ROOT
ATOM      1  C   UNL A   1      31.072  31.987  26.415  1.00  0.00     0.042 C 
ENDROOT
BRANCH   1   2
ATOM      2  C   UNL A   1      31.165  30.630  25.765  1.00  0.00     0.117 C 
BRANCH   2   3
ATOM      3  N   UNL A   1      32.396  29.909  25.968  1.00  0.00    -0.353 N 
ATOM      4  O   UNL A   1      31.634  28.411  27.555  1.00  0.00    -0.271 OA
ATOM      5  C   UNL A   1      32.432  28.715  26.676  1.00  0.00     0.257 C 
ATOM      6  H   UNL A   1      33.232  30.272  25.597  1.00  0.00     0.163 HD
BRANCH   5   7
ATOM      7  C   UNL A   1      33.532  27.770  26.196  1.00  0.00     0.329 C 
BRANCH   7   8
ATOM      8  O   UNL A   1      33.018  26.454  26.422  1.00  0.00    -0.483 OA
BRANCH   8   9
ATOM      9  C   UNL A   1      33.253  25.547  25.422  1.00  0.00     0.127 A 
ATOM     10  C   UNL A   1      34.364  24.716  25.634  1.00  0.00     0.047 A 
ATOM     11  C   UNL A   1      32.654  25.677  24.147  1.00  0.00     0.017 A 
ATOM     12  C   UNL A   1      34.956  24.060  24.563  1.00  0.00     0.004 A 
ATOM     13  C   UNL A   1      33.363  25.113  23.080  1.00  0.00     0.012 A 
ATOM     14  C   UNL A   1      34.483  24.298  23.279  1.00  0.00     0.001 A 
BRANCH  11  15
ATOM     15  C   UNL A   1      31.389  26.431  23.914  1.00  0.00     0.026 C 
ATOM     16  C   UNL A   1      31.157  27.602  23.276  1.00  0.00     0.050 C 
ATOM     17  C   UNL A   1      32.137  28.548  22.608  1.00  0.00     0.256 C 
ATOM     18  C   UNL A   1      29.827  28.240  23.102  1.00  0.00     0.011 A 
ATOM     19  O   UNL A   1      33.334  28.420  22.401  1.00  0.00    -0.269 OA
ATOM     20  N   UNL A   1      31.396  29.649  22.221  1.00  0.00    -0.321 N 
ATOM     21  C   UNL A   1      30.048  29.473  22.485  1.00  0.00     0.049 A 
ATOM     22  C   UNL A   1      28.526  27.859  23.369  1.00  0.00     0.011 A 
ATOM     23  H   UNL A   1      31.779  30.458  21.811  1.00  0.00     0.170 HD
ATOM     24  C   UNL A   1      29.032  30.352  22.151  1.00  0.00     0.027 A 
ATOM     25  C   UNL A   1      27.472  28.724  23.039  1.00  0.00     0.001 A 
ATOM     26  C   UNL A   1      27.724  29.965  22.438  1.00  0.00     0.002 A 
ENDBRANCH  11  15
ENDBRANCH   8   9
ENDBRANCH   7   8
ENDBRANCH   5   7
ENDBRANCH   2   3
ENDBRANCH   1   2
BRANCH   1  27
ATOM     27  C   UNL A   1      32.400  32.693  26.615  1.00  0.00     0.118 C 
BRANCH  27  28
ATOM     28  N   UNL A   1      32.332  33.896  27.442  1.00  0.00    -0.352 N 
ATOM     29  C   UNL A   1      33.183  34.347  28.429  1.00  0.00     0.251 C 
ATOM     30  H   UNL A   1      31.556  34.476  27.267  1.00  0.00     0.163 HD
ATOM     31  O   UNL A   1      32.909  35.368  29.053  1.00  0.00    -0.269 OA
BRANCH  29  32
ATOM     32  C   UNL A   1      34.398  33.574  28.772  1.00  0.00     0.039 A 
ATOM     33  C   UNL A   1      35.653  34.144  28.536  1.00  0.00     0.014 A 
ATOM     34  C   UNL A   1      34.305  32.324  29.382  1.00  0.00     0.014 A 
ATOM     35  C   UNL A   1      36.801  33.517  29.032  1.00  0.00     0.010 A 
ATOM     36  C   UNL A   1      35.430  31.763  29.973  1.00  0.00     0.010 A 
ATOM     37  C   UNL A   1      36.691  32.357  29.815  1.00  0.00    -0.014 A 
BRANCH  37  38
ATOM     38  C   UNL A   1      37.861  31.763  30.514  1.00  0.00     0.031 A 
ATOM     39  C   UNL A   1      38.679  30.692  29.844  1.00  0.00     0.074 A 
ATOM     40  C   UNL A   1      38.108  32.093  31.799  1.00  0.00     0.049 A 
ATOM     41  N   UNL A   1      39.655  29.973  30.334  1.00  0.00    -0.248 NA
ATOM     42  C   UNL A   1      38.329  30.357  28.454  1.00  0.00     0.031 C 
ATOM     43  C   UNL A   1      37.331  33.047  32.595  1.00  0.00     0.029 A 
ATOM     44  N   UNL A   1      39.061  31.635  32.676  1.00  0.00    -0.354 N 
ATOM     45  C   UNL A   1      40.004  29.075  29.333  1.00  0.00     0.074 A 
ATOM     46  C   UNL A   1      39.112  29.314  28.220  1.00  0.00     0.031 C 
ATOM     47  C   UNL A   1      37.841  33.106  33.836  1.00  0.00     0.029 A 
ATOM     48  C   UNL A   1      38.956  32.171  33.938  1.00  0.00     0.049 A 
ATOM     49  H   UNL A   1      39.754  30.983  32.424  1.00  0.00     0.167 HD
ATOM     50  C   UNL A   1      41.000  28.158  29.324  1.00  0.00     0.034 A 
ATOM     51  C   UNL A   1      39.670  31.933  35.056  1.00  0.00     0.034 A 
ATOM     52  C   UNL A   1      41.927  27.965  30.405  1.00  0.00     0.049 A 
ATOM     53  C   UNL A   1      40.804  30.946  35.002  1.00  0.00     0.074 A 
ATOM     54  C   UNL A   1      43.039  27.142  30.448  1.00  0.00     0.029 A 
ATOM     55  N   UNL A   1      41.852  28.601  31.634  1.00  0.00    -0.354 N 
ATOM     56  N   UNL A   1      41.229  30.232  33.988  1.00  0.00    -0.248 NA
ATOM     57  C   UNL A   1      41.577  30.753  36.238  1.00  0.00     0.031 C 
ATOM     58  C   UNL A   1      43.627  27.270  31.711  1.00  0.00     0.029 A 
ATOM     59  C   UNL A   1      42.889  28.182  32.448  1.00  0.00     0.049 A 
ATOM     60  H   UNL A   1      41.161  29.255  31.890  1.00  0.00     0.167 HD
ATOM     61  C   UNL A   1      42.333  29.526  34.454  1.00  0.00     0.074 A 
ATOM     62  C   UNL A   1      42.528  29.921  35.834  1.00  0.00     0.031 C 
ATOM     63  C   UNL A   1      43.103  28.620  33.803  1.00  0.00     0.034 A 
BRANCH  50  64
ATOM     64  C   UNL A   1      41.183  27.339  28.073  1.00  0.00     0.023 A 
ATOM     65  C   UNL A   1      41.765  27.937  26.937  1.00  0.00     0.012 A 
ATOM     66  C   UNL A   1      40.832  25.976  28.036  1.00  0.00     0.148 A 
ATOM     67  C   UNL A   1      41.965  27.199  25.770  1.00  0.00     0.002 A 
ATOM     68  C   UNL A   1      41.074  25.237  26.882  1.00  0.00     0.091 A 
ATOM     69  F   UNL A   1      40.257  25.432  29.118  1.00  0.00    -0.205 F 
ATOM     70  C   UNL A   1      41.630  25.849  25.747  1.00  0.00     0.022 A 
BRANCH  68  71
ATOM     71  S   UNL A   1      40.745  23.473  26.779  1.00  0.00     0.127 S 
ATOM     72  O   UNL A   1      39.315  23.459  26.472  1.00  0.00    -0.237 OA
ATOM     73  O   UNL A   1      41.610  23.063  25.672  1.00  0.00    -0.237 OA
ATOM     74  O   UNL A   1      41.115  22.921  28.073  1.00  0.00    -0.744 OA
ENDBRANCH  68  71
ENDBRANCH  50  64
BRANCH  51  75
ATOM     75  C   UNL A   1      39.376  32.694  36.304  1.00  0.00     0.023 A 
ATOM     76  C   UNL A   1      39.967  33.959  36.491  1.00  0.00     0.012 A 
ATOM     77  C   UNL A   1      38.498  32.196  37.286  1.00  0.00     0.148 A 
ATOM     78  C   UNL A   1      39.711  34.702  37.643  1.00  0.00     0.002 A 
ATOM     79  C   UNL A   1      38.205  32.965  38.407  1.00  0.00     0.091 A 
ATOM     80  F   UNL A   1      37.957  30.984  37.099  1.00  0.00    -0.205 F 
ATOM     81  C   UNL A   1      38.822  34.210  38.595  1.00  0.00     0.022 A 
BRANCH  79  82
ATOM     82  S   UNL A   1      36.969  32.470  39.614  1.00  0.00     0.127 S 
ATOM     83  O   UNL A   1      37.461  31.157  40.024  1.00  0.00    -0.237 OA
ATOM     84  O   UNL A   1      37.095  33.519  40.626  1.00  0.00    -0.237 OA
ATOM     85  O   UNL A   1      35.700  32.480  38.899  1.00  0.00    -0.744 OA
ENDBRANCH  79  82
ENDBRANCH  51  75
BRANCH  63  86
ATOM     86  C   UNL A   1      44.241  27.998  34.567  1.00  0.00     0.023 A 
ATOM     87  C   UNL A   1      45.491  28.646  34.597  1.00  0.00     0.012 A 
ATOM     88  C   UNL A   1      44.052  26.820  35.315  1.00  0.00     0.148 A 
ATOM     89  C   UNL A   1      46.547  28.116  35.338  1.00  0.00     0.002 A 
ATOM     90  C   UNL A   1      45.095  26.321  36.087  1.00  0.00     0.091 A 
ATOM     91  F   UNL A   1      42.861  26.208  35.257  1.00  0.00    -0.205 F 
ATOM     92  C   UNL A   1      46.346  26.962  36.092  1.00  0.00     0.022 A 
BRANCH  90  93
ATOM     93  S   UNL A   1      44.899  24.894  37.160  1.00  0.00     0.127 S 
ATOM     94  O   UNL A   1      43.804  25.320  38.029  1.00  0.00    -0.237 OA
ATOM     95  O   UNL A   1      44.549  23.835  36.212  1.00  0.00    -0.237 OA
ATOM     96  O   UNL A   1      46.186  24.710  37.817  1.00  0.00    -0.744 OA
ENDBRANCH  90  93
ENDBRANCH  63  86
ENDBRANCH  37  38
ENDBRANCH  29  32
ENDBRANCH  27  28
ENDBRANCH   1  27
TORSDOF 16
ENDMDL
MODEL 2
REMARK VINA RESULT:     -12.6      5.798      9.272
REMARK SMILES O=C(COc1ccccc1/C=C1\C(=O)Nc2ccccc21)NCCCNC(=O)c1ccc(-c2c3nc(c(-c4cccc(S(=O)(=O)[O-])c4F)c4ccc([nH]4)c(-c4cccc(S(=O)(=O)[O-])c4F)c4nc(c(-c5cccc(S(=O)(=O)[O-])c5F)c5ccc2[nH]5)C=C4)C=C3)cc1
REMARK SMILES IDX 24 1 23 2 22 3 1 4 2 5 3 7 4 8 5 9 6 10 10 11 7 12 9 13 8 14
REMARK SMILES IDX 11 15 12 16 13 17 21 18 14 19 15 20 16 21 20 22 17 24 19 25
REMARK SMILES IDX 18 26 25 27 26 28 27 29 28 31 29 32 30 33 91 34 31 35 90 36
REMARK SMILES IDX 32 37 33 38 34 39 84 40 35 41 89 42 83 43 85 44 36 45 88 46
REMARK SMILES IDX 82 47 81 48 37 50 69 51 49 52 68 53 50 54 53 55 67 56 86 57
REMARK SMILES IDX 51 58 52 59 66 61 87 62 54 63 38 64 39 65 47 66 40 67 42 68
REMARK SMILES IDX 48 69 41 70 43 71 44 72 45 73 46 74 70 75 71 76 79 77 72 78
REMARK SMILES IDX 74 79 80 80 73 81 75 82 76 83 77 84 78 85 55 86 56 87 64 88
REMARK SMILES IDX 57 89 59 90 65 91 58 92 60 93 61 94 62 95 63 96
REMARK H PARENT 22 6 15 23 26 30 85 49 53 60
REMARK Flexibility Score: inf
ROOT
ATOM      1  C   UNL A   1      37.588  20.408  24.782  1.00  0.00     0.042 C 
ENDROOT
BRANCH   1   2
ATOM      2  C   UNL A   1      36.136  20.787  24.931  1.00  0.00     0.117 C 
BRANCH   2   3
ATOM      3  N   UNL A   1      35.842  22.197  24.935  1.00  0.00    -0.353 N 
ATOM      4  O   UNL A   1      36.491  22.669  22.768  1.00  0.00    -0.271 OA
ATOM      5  C   UNL A   1      35.832  22.943  23.764  1.00  0.00     0.257 C 
ATOM      6  H   UNL A   1      35.645  22.644  25.790  1.00  0.00     0.163 HD
BRANCH   5   7
ATOM      7  C   UNL A   1      34.850  24.111  23.809  1.00  0.00     0.329 C 
BRANCH   7   8
ATOM      8  O   UNL A   1      34.209  24.110  22.529  1.00  0.00    -0.483 OA
BRANCH   8   9
ATOM      9  C   UNL A   1      32.869  24.396  22.538  1.00  0.00     0.127 A 
ATOM     10  C   UNL A   1      32.560  25.759  22.416  1.00  0.00     0.047 A 
ATOM     11  C   UNL A   1      31.914  23.452  22.982  1.00  0.00     0.017 A 
ATOM     12  C   UNL A   1      31.315  26.227  22.815  1.00  0.00     0.004 A 
ATOM     13  C   UNL A   1      30.727  23.984  23.502  1.00  0.00     0.012 A 
ATOM     14  C   UNL A   1      30.417  25.345  23.403  1.00  0.00     0.001 A 
BRANCH  11  15
ATOM     15  C   UNL A   1      32.159  21.981  22.984  1.00  0.00     0.026 C 
ATOM     16  C   UNL A   1      32.335  21.110  24.005  1.00  0.00     0.050 C 
ATOM     17  C   UNL A   1      32.366  21.369  25.499  1.00  0.00     0.256 C 
ATOM     18  C   UNL A   1      32.559  19.649  23.862  1.00  0.00     0.011 A 
ATOM     19  O   UNL A   1      32.136  22.393  26.123  1.00  0.00    -0.269 OA
ATOM     20  N   UNL A   1      32.699  20.162  26.085  1.00  0.00    -0.321 N 
ATOM     21  C   UNL A   1      32.793  19.149  25.145  1.00  0.00     0.049 A 
ATOM     22  C   UNL A   1      32.536  18.763  22.802  1.00  0.00     0.011 A 
ATOM     23  H   UNL A   1      32.851  20.038  27.049  1.00  0.00     0.170 HD
ATOM     24  C   UNL A   1      33.034  17.812  25.410  1.00  0.00     0.027 A 
ATOM     25  C   UNL A   1      32.771  17.400  23.037  1.00  0.00     0.001 A 
ATOM     26  C   UNL A   1      33.023  16.929  24.333  1.00  0.00     0.002 A 
ENDBRANCH  11  15
ENDBRANCH   8   9
ENDBRANCH   7   8
ENDBRANCH   5   7
ENDBRANCH   2   3
ENDBRANCH   1   2
BRANCH   1  27
ATOM     27  C   UNL A   1      38.541  21.156  25.697  1.00  0.00     0.118 C 
BRANCH  27  28
ATOM     28  N   UNL A   1      39.670  20.364  26.177  1.00  0.00    -0.352 N 
ATOM     29  C   UNL A   1      40.763  20.738  26.932  1.00  0.00     0.251 C 
ATOM     30  H   UNL A   1      39.649  19.413  25.922  1.00  0.00     0.163 HD
ATOM     31  O   UNL A   1      41.643  19.919  27.181  1.00  0.00    -0.269 OA
BRANCH  29  32
ATOM     32  C   UNL A   1      40.901  22.137  27.396  1.00  0.00     0.039 A 
ATOM     33  C   UNL A   1      41.867  22.438  28.361  1.00  0.00     0.014 A 
ATOM     34  C   UNL A   1      40.131  23.156  26.841  1.00  0.00     0.014 A 
ATOM     35  C   UNL A   1      42.146  23.775  28.666  1.00  0.00     0.010 A 
ATOM     36  C   UNL A   1      40.486  24.482  27.057  1.00  0.00     0.010 A 
ATOM     37  C   UNL A   1      41.506  24.808  27.964  1.00  0.00    -0.014 A 
BRANCH  37  38
ATOM     38  C   UNL A   1      41.901  26.232  28.124  1.00  0.00     0.031 A 
ATOM     39  C   UNL A   1      43.286  26.681  27.740  1.00  0.00     0.074 A 
ATOM     40  C   UNL A   1      41.061  27.093  28.735  1.00  0.00     0.049 A 
ATOM     41  N   UNL A   1      43.853  27.847  27.915  1.00  0.00    -0.248 NA
ATOM     42  C   UNL A   1      44.162  25.679  27.112  1.00  0.00     0.031 C 
ATOM     43  C   UNL A   1      39.727  26.761  29.242  1.00  0.00     0.029 A 
ATOM     44  N   UNL A   1      41.217  28.417  29.067  1.00  0.00    -0.354 N 
ATOM     45  C   UNL A   1      45.159  27.705  27.463  1.00  0.00     0.074 A 
ATOM     46  C   UNL A   1      45.312  26.331  27.039  1.00  0.00     0.031 C 
ATOM     47  C   UNL A   1      39.187  27.850  29.814  1.00  0.00     0.029 A 
ATOM     48  C   UNL A   1      40.146  28.947  29.748  1.00  0.00     0.049 A 
ATOM     49  H   UNL A   1      42.022  28.937  28.840  1.00  0.00     0.167 HD
ATOM     50  C   UNL A   1      46.133  28.640  27.374  1.00  0.00     0.034 A 
ATOM     51  C   UNL A   1      39.958  30.175  30.271  1.00  0.00     0.034 A 
ATOM     52  C   UNL A   1      45.960  30.020  27.735  1.00  0.00     0.049 A 
ATOM     53  C   UNL A   1      41.038  31.210  30.111  1.00  0.00     0.074 A 
ATOM     54  C   UNL A   1      46.849  31.069  27.577  1.00  0.00     0.029 A 
ATOM     55  N   UNL A   1      44.823  30.545  28.329  1.00  0.00    -0.354 N 
ATOM     56  N   UNL A   1      42.204  31.102  29.521  1.00  0.00    -0.248 NA
ATOM     57  C   UNL A   1      40.766  32.546  30.662  1.00  0.00     0.031 C 
ATOM     58  C   UNL A   1      46.254  32.227  28.090  1.00  0.00     0.029 A 
ATOM     59  C   UNL A   1      44.989  31.900  28.555  1.00  0.00     0.049 A 
ATOM     60  H   UNL A   1      44.016  30.030  28.558  1.00  0.00     0.167 HD
ATOM     61  C   UNL A   1      42.793  32.359  29.605  1.00  0.00     0.074 A 
ATOM     62  C   UNL A   1      41.843  33.220  30.279  1.00  0.00     0.031 C 
ATOM     63  C   UNL A   1      44.017  32.758  29.181  1.00  0.00     0.034 A 
BRANCH  50  64
ATOM     64  C   UNL A   1      47.458  28.215  26.796  1.00  0.00     0.023 A 
ATOM     65  C   UNL A   1      48.553  28.010  27.659  1.00  0.00     0.012 A 
ATOM     66  C   UNL A   1      47.606  27.969  25.417  1.00  0.00     0.148 A 
ATOM     67  C   UNL A   1      49.787  27.598  27.156  1.00  0.00     0.002 A 
ATOM     68  C   UNL A   1      48.828  27.517  24.929  1.00  0.00     0.091 A 
ATOM     69  F   UNL A   1      46.560  28.194  24.610  1.00  0.00    -0.205 F 
ATOM     70  C   UNL A   1      49.920  27.341  25.795  1.00  0.00     0.022 A 
BRANCH  68  71
ATOM     71  S   UNL A   1      49.079  27.089  23.203  1.00  0.00     0.127 S 
ATOM     72  O   UNL A   1      48.687  28.327  22.533  1.00  0.00    -0.237 OA
ATOM     73  O   UNL A   1      50.514  26.802  23.162  1.00  0.00    -0.237 OA
ATOM     74  O   UNL A   1      48.224  25.939  22.948  1.00  0.00    -0.744 OA
ENDBRANCH  68  71
ENDBRANCH  50  64
BRANCH  51  75
ATOM     75  C   UNL A   1      38.665  30.514  30.932  1.00  0.00     0.023 A 
ATOM     76  C   UNL A   1      38.471  30.160  32.282  1.00  0.00     0.012 A 
ATOM     77  C   UNL A   1      37.646  31.208  30.252  1.00  0.00     0.148 A 
ATOM     78  C   UNL A   1      37.278  30.466  32.934  1.00  0.00     0.002 A 
ATOM     79  C   UNL A   1      36.480  31.558  30.924  1.00  0.00     0.091 A 
ATOM     80  F   UNL A   1      37.841  31.523  28.964  1.00  0.00    -0.205 F 
ATOM     81  C   UNL A   1      36.287  31.174  32.259  1.00  0.00     0.022 A 
BRANCH  79  82
ATOM     82  S   UNL A   1      35.211  32.586  30.174  1.00  0.00     0.127 S 
ATOM     83  O   UNL A   1      34.731  31.728  29.093  1.00  0.00    -0.237 OA
ATOM     84  O   UNL A   1      34.272  32.766  31.281  1.00  0.00    -0.237 OA
ATOM     85  O   UNL A   1      35.892  33.807  29.764  1.00  0.00    -0.744 OA
ENDBRANCH  79  82
ENDBRANCH  51  75
BRANCH  63  86
ATOM     86  C   UNL A   1      44.401  34.194  29.416  1.00  0.00     0.023 A 
ATOM     87  C   UNL A   1      45.116  34.538  30.580  1.00  0.00     0.012 A 
ATOM     88  C   UNL A   1      44.127  35.184  28.453  1.00  0.00     0.148 A 
ATOM     89  C   UNL A   1      45.526  35.853  30.797  1.00  0.00     0.002 A 
ATOM     90  C   UNL A   1      44.579  36.483  28.653  1.00  0.00     0.091 A 
ATOM     91  F   UNL A   1      43.429  34.839  27.361  1.00  0.00    -0.205 F 
ATOM     92  C   UNL A   1      45.270  36.822  29.829  1.00  0.00     0.022 A 
BRANCH  90  93
ATOM     93  S   UNL A   1      44.373  37.773  27.420  1.00  0.00     0.127 S 
ATOM     94  O   UNL A   1      44.484  38.983  28.232  1.00  0.00    -0.237 OA
ATOM     95  O   UNL A   1      45.506  37.534  26.525  1.00  0.00    -0.237 OA
ATOM     96  O   UNL A   1      43.069  37.541  26.814  1.00  0.00    -0.744 OA
ENDBRANCH  90  93
ENDBRANCH  63  86
ENDBRANCH  37  38
ENDBRANCH  29  32
ENDBRANCH  27  28
ENDBRANCH   1  27
TORSDOF 16
ENDMDL
MODEL 3
REMARK VINA RESULT:     -12.5      5.842     11.111
REMARK SMILES O=C(COc1ccccc1/C=C1\C(=O)Nc2ccccc21)NCCCNC(=O)c1ccc(-c2c3nc(c(-c4cccc(S(=O)(=O)[O-])c4F)c4ccc([nH]4)c(-c4cccc(S(=O)(=O)[O-])c4F)c4nc(c(-c5cccc(S(=O)(=O)[O-])c5F)c5ccc2[nH]5)C=C4)C=C3)cc1
REMARK SMILES IDX 24 1 23 2 22 3 1 4 2 5 3 7 4 8 5 9 6 10 10 11 7 12 9 13 8 14
REMARK SMILES IDX 11 15 12 16 13 17 21 18 14 19 15 20 16 21 20 22 17 24 19 25
REMARK SMILES IDX 18 26 25 27 26 28 27 29 28 31 29 32 30 33 91 34 31 35 90 36
REMARK SMILES IDX 32 37 33 38 34 39 84 40 35 41 89 42 83 43 85 44 36 45 88 46
REMARK SMILES IDX 82 47 81 48 37 50 69 51 49 52 68 53 50 54 53 55 67 56 86 57
REMARK SMILES IDX 51 58 52 59 66 61 87 62 54 63 38 64 39 65 47 66 40 67 42 68
REMARK SMILES IDX 48 69 41 70 43 71 44 72 45 73 46 74 70 75 71 76 79 77 72 78
REMARK SMILES IDX 74 79 80 80 73 81 75 82 76 83 77 84 78 85 55 86 56 87 64 88
REMARK SMILES IDX 57 89 59 90 65 91 58 92 60 93 61 94 62 95 63 96
REMARK H PARENT 22 6 15 23 26 30 85 49 53 60
REMARK Flexibility Score: inf
ROOT
ATOM      1  C   UNL A   1      37.045  20.892  24.250  1.00  0.00     0.042 C 
ENDROOT
BRANCH   1   2
ATOM      2  C   UNL A   1      36.861  22.330  23.837  1.00  0.00     0.117 C 
BRANCH   2   3
ATOM      3  N   UNL A   1      35.713  23.008  24.382  1.00  0.00    -0.353 N 
ATOM      4  O   UNL A   1      36.770  24.075  26.137  1.00  0.00    -0.271 OA
ATOM      5  C   UNL A   1      35.842  24.002  25.341  1.00  0.00     0.257 C 
ATOM      6  H   UNL A   1      34.814  22.759  24.067  1.00  0.00     0.163 HD
BRANCH   5   7
ATOM      7  C   UNL A   1      34.739  25.056  25.261  1.00  0.00     0.329 C 
BRANCH   7   8
ATOM      8  O   UNL A   1      33.803  24.545  24.307  1.00  0.00    -0.483 OA
BRANCH   8   9
ATOM      9  C   UNL A   1      32.481  24.714  24.626  1.00  0.00     0.127 A 
ATOM     10  C   UNL A   1      32.147  25.998  25.084  1.00  0.00     0.047 A 
ATOM     11  C   UNL A   1      31.617  23.610  24.813  1.00  0.00     0.017 A 
ATOM     12  C   UNL A   1      30.983  26.194  25.815  1.00  0.00     0.004 A 
ATOM     13  C   UNL A   1      30.529  23.823  25.668  1.00  0.00     0.012 A 
ATOM     14  C   UNL A   1      30.200  25.096  26.147  1.00  0.00     0.001 A 
BRANCH  11  15
ATOM     15  C   UNL A   1      31.867  22.268  24.212  1.00  0.00     0.026 C 
ATOM     16  C   UNL A   1      32.609  21.223  24.648  1.00  0.00     0.050 C 
ATOM     17  C   UNL A   1      33.459  21.099  25.899  1.00  0.00     0.256 C 
ATOM     18  C   UNL A   1      32.761  19.922  23.948  1.00  0.00     0.011 A 
ATOM     19  O   UNL A   1      33.583  21.864  26.842  1.00  0.00    -0.269 OA
ATOM     20  N   UNL A   1      34.099  19.877  25.800  1.00  0.00    -0.321 N 
ATOM     21  C   UNL A   1      33.685  19.175  24.681  1.00  0.00     0.049 A 
ATOM     22  C   UNL A   1      32.179  19.345  22.836  1.00  0.00     0.011 A 
ATOM     23  H   UNL A   1      34.766  19.548  26.445  1.00  0.00     0.170 HD
ATOM     24  C   UNL A   1      34.075  17.892  24.335  1.00  0.00     0.027 A 
ATOM     25  C   UNL A   1      32.547  18.045  22.460  1.00  0.00     0.001 A 
ATOM     26  C   UNL A   1      33.494  17.325  23.203  1.00  0.00     0.002 A 
ENDBRANCH  11  15
ENDBRANCH   8   9
ENDBRANCH   7   8
ENDBRANCH   5   7
ENDBRANCH   2   3
ENDBRANCH   1   2
BRANCH   1  27
ATOM     27  C   UNL A   1      37.636  20.695  25.634  1.00  0.00     0.118 C 
BRANCH  27  28
ATOM     28  N   UNL A   1      38.835  19.862  25.671  1.00  0.00    -0.352 N 
ATOM     29  C   UNL A   1      40.105  20.149  26.125  1.00  0.00     0.251 C 
ATOM     30  H   UNL A   1      38.718  18.950  25.317  1.00  0.00     0.163 HD
ATOM     31  O   UNL A   1      41.000  19.315  26.010  1.00  0.00    -0.269 OA
BRANCH  29  32
ATOM     32  C   UNL A   1      40.405  21.479  26.702  1.00  0.00     0.039 A 
ATOM     33  C   UNL A   1      41.250  21.563  27.812  1.00  0.00     0.014 A 
ATOM     34  C   UNL A   1      39.910  22.643  26.115  1.00  0.00     0.014 A 
ATOM     35  C   UNL A   1      41.701  22.814  28.246  1.00  0.00     0.010 A 
ATOM     36  C   UNL A   1      40.447  23.874  26.473  1.00  0.00     0.010 A 
ATOM     37  C   UNL A   1      41.357  23.974  27.535  1.00  0.00    -0.014 A 
BRANCH  37  38
ATOM     38  C   UNL A   1      41.958  25.298  27.848  1.00  0.00     0.031 A 
ATOM     39  C   UNL A   1      41.124  26.375  28.487  1.00  0.00     0.074 A 
ATOM     40  C   UNL A   1      43.213  25.573  27.438  1.00  0.00     0.049 A 
ATOM     41  N   UNL A   1      41.432  27.624  28.726  1.00  0.00    -0.248 NA
ATOM     42  C   UNL A   1      39.750  26.014  28.876  1.00  0.00     0.031 C 
ATOM     43  C   UNL A   1      44.095  24.648  26.722  1.00  0.00     0.029 A 
ATOM     44  N   UNL A   1      43.955  26.726  27.532  1.00  0.00    -0.354 N 
ATOM     45  C   UNL A   1      40.283  28.205  29.247  1.00  0.00     0.074 A 
ATOM     46  C   UNL A   1      39.259  27.184  29.257  1.00  0.00     0.031 C 
ATOM     47  C   UNL A   1      45.256  25.266  26.447  1.00  0.00     0.029 A 
ATOM     48  C   UNL A   1      45.191  26.639  26.934  1.00  0.00     0.049 A 
ATOM     49  H   UNL A   1      43.632  27.538  27.985  1.00  0.00     0.167 HD
ATOM     50  C   UNL A   1      40.103  29.465  29.709  1.00  0.00     0.034 A 
ATOM     51  C   UNL A   1      46.161  27.562  26.784  1.00  0.00     0.034 A 
ATOM     52  C   UNL A   1      41.138  30.460  29.759  1.00  0.00     0.049 A 
ATOM     53  C   UNL A   1      45.954  28.939  27.354  1.00  0.00     0.074 A 
ATOM     54  C   UNL A   1      41.087  31.728  30.312  1.00  0.00     0.029 A 
ATOM     55  N   UNL A   1      42.411  30.303  29.235  1.00  0.00    -0.354 N 
ATOM     56  N   UNL A   1      44.918  29.417  28.001  1.00  0.00    -0.248 NA
ATOM     57  C   UNL A   1      47.059  29.896  27.200  1.00  0.00     0.031 C 
ATOM     58  C   UNL A   1      42.328  32.343  30.108  1.00  0.00     0.029 A 
ATOM     59  C   UNL A   1      43.154  31.452  29.440  1.00  0.00     0.049 A 
ATOM     60  H   UNL A   1      42.740  29.492  28.782  1.00  0.00     0.167 HD
ATOM     61  C   UNL A   1      45.257  30.718  28.355  1.00  0.00     0.074 A 
ATOM     62  C   UNL A   1      46.604  30.944  27.874  1.00  0.00     0.031 C 
ATOM     63  C   UNL A   1      44.511  31.648  29.002  1.00  0.00     0.034 A 
BRANCH  50  64
ATOM     64  C   UNL A   1      38.749  29.816  30.267  1.00  0.00     0.023 A 
ATOM     65  C   UNL A   1      38.402  29.382  31.562  1.00  0.00     0.012 A 
ATOM     66  C   UNL A   1      37.845  30.615  29.539  1.00  0.00     0.148 A 
ATOM     67  C   UNL A   1      37.163  29.708  32.114  1.00  0.00     0.002 A 
ATOM     68  C   UNL A   1      36.629  30.971  30.113  1.00  0.00     0.091 A 
ATOM     69  F   UNL A   1      38.182  30.997  28.299  1.00  0.00    -0.205 F 
ATOM     70  C   UNL A   1      36.283  30.510  31.394  1.00  0.00     0.022 A 
BRANCH  68  71
ATOM     71  S   UNL A   1      35.458  32.061  29.295  1.00  0.00     0.127 S 
ATOM     72  O   UNL A   1      36.310  33.194  28.940  1.00  0.00    -0.237 OA
ATOM     73  O   UNL A   1      35.020  31.248  28.160  1.00  0.00    -0.237 OA
ATOM     74  O   UNL A   1      34.419  32.340  30.277  1.00  0.00    -0.744 OA
ENDBRANCH  68  71
ENDBRANCH  50  64
BRANCH  51  75
ATOM     75  C   UNL A   1      47.446  27.193  26.125  1.00  0.00     0.023 A 
ATOM     76  C   UNL A   1      48.436  26.526  26.874  1.00  0.00     0.012 A 
ATOM     77  C   UNL A   1      47.684  27.464  24.763  1.00  0.00     0.148 A 
ATOM     78  C   UNL A   1      49.647  26.160  26.289  1.00  0.00     0.002 A 
ATOM     79  C   UNL A   1      48.872  27.048  24.172  1.00  0.00     0.091 A 
ATOM     80  F   UNL A   1      46.738  28.113  24.069  1.00  0.00    -0.205 F 
ATOM     81  C   UNL A   1      49.861  26.411  24.936  1.00  0.00     0.022 A 
BRANCH  79  82
ATOM     82  S   UNL A   1      49.174  27.208  22.408  1.00  0.00     0.127 S 
ATOM     83  O   UNL A   1      48.446  26.059  21.874  1.00  0.00    -0.237 OA
ATOM     84  O   UNL A   1      48.573  28.509  22.113  1.00  0.00    -0.237 OA
ATOM     85  O   UNL A   1      50.622  27.171  22.256  1.00  0.00    -0.744 OA
ENDBRANCH  79  82
ENDBRANCH  51  75
BRANCH  63  86
ATOM     86  C   UNL A   1      45.136  32.995  29.245  1.00  0.00     0.023 A 
ATOM     87  C   UNL A   1      45.853  33.221  30.437  1.00  0.00     0.012 A 
ATOM     88  C   UNL A   1      45.083  34.006  28.266  1.00  0.00     0.148 A 
ATOM     89  C   UNL A   1      46.483  34.444  30.664  1.00  0.00     0.002 A 
ATOM     90  C   UNL A   1      45.752  35.205  28.479  1.00  0.00     0.091 A 
ATOM     91  F   UNL A   1      44.381  33.777  27.147  1.00  0.00    -0.205 F 
ATOM     92  C   UNL A   1      46.444  35.431  29.681  1.00  0.00     0.022 A 
BRANCH  90  93
ATOM     93  S   UNL A   1      45.832  36.496  27.231  1.00  0.00     0.127 S 
ATOM     94  O   UNL A   1      44.421  36.834  27.061  1.00  0.00    -0.237 OA
ATOM     95  O   UNL A   1      46.631  37.526  27.897  1.00  0.00    -0.237 OA
ATOM     96  O   UNL A   1      46.476  35.891  26.073  1.00  0.00    -0.744 OA
ENDBRANCH  90  93
ENDBRANCH  63  86
ENDBRANCH  37  38
ENDBRANCH  29  32
ENDBRANCH  27  28
ENDBRANCH   1  27
TORSDOF 16
ENDMDL
