MODEL 1
REMARK VINA RESULT:     -12.4      0.000      0.000
REMARK SMILES Nc1nccc(N2CCC[C@@](Cc3ccc(F)cc3F)(C(=O)NCCCNC(=O)c3ccc(-c4c5nc(c(-c6cccc(S(=O)(=O)[O-])c6F)c6ccc([nH]6)c(-c6cccc(S(=O)(=O)[O-])c6F)c6nc(c(-c7cccc(S(=O)(=O)[O-])c7F)c7ccc4[nH]7)C=C6)C=C5)cc3)C2)n1
REMARK SMILES IDX 25 1 24 2 23 3 21 4 22 5 11 7 7 8 8 9 93 10 9 11 10 12 6 13
REMARK SMILES IDX 2 14 3 15 94 16 4 17 5 18 1 19 12 22 13 23 14 24 19 25 15 26
REMARK SMILES IDX 18 27 20 28 16 29 17 30 26 31 27 32 28 33 29 35 30 36 31 37
REMARK SMILES IDX 92 38 32 39 91 40 33 41 34 42 35 43 85 44 36 45 90 46 84 47
REMARK SMILES IDX 86 48 37 49 89 50 83 51 82 52 38 54 70 55 50 56 69 57 51 58
REMARK SMILES IDX 54 59 68 60 87 61 52 62 53 63 67 65 88 66 55 67 39 68 40 69
REMARK SMILES IDX 48 70 41 71 43 72 49 73 42 74 44 75 45 76 46 77 47 78 71 79
REMARK SMILES IDX 72 80 80 81 73 82 75 83 81 84 74 85 76 86 77 87 78 88 79 89
REMARK SMILES IDX 56 90 57 91 65 92 58 93 60 94 66 95 59 96 61 97 62 98 63 99
REMARK SMILES IDX 64 100
REMARK H PARENT 23 6 1 20 1 21 27 34 86 53 54 64
REMARK Flexibility Score: inf
ROOT
ATOM      1  C   UNL A   1      37.924  19.577  24.815  1.00  0.00     0.042 C 
ENDROOT
BRANCH   1   2
ATOM      2  C   UNL A   1      37.393  20.872  24.257  1.00  0.00     0.117 C 
BRANCH   2   3
ATOM      3  N   UNL A   1      37.676  22.052  25.040  1.00  0.00    -0.355 N 
ATOM      4  C   UNL A   1      36.813  22.979  25.540  1.00  0.00     0.228 C 
ATOM      5  O   UNL A   1      37.229  23.632  26.502  1.00  0.00    -0.274 OA
ATOM      6  H   UNL A   1      38.627  22.208  25.241  1.00  0.00     0.163 HD
BRANCH   4   7
ATOM      7  C   UNL A   1      35.402  23.212  24.954  1.00  0.00     0.071 C 
ATOM      8  N   UNL A   1      33.797  25.051  24.691  1.00  0.00    -0.355 N 
ATOM      9  C   UNL A   1      33.827  25.146  23.245  1.00  0.00     0.118 C 
ATOM     10  C   UNL A   1      35.049  24.691  25.348  1.00  0.00     0.135 C 
ATOM     11  C   UNL A   1      34.195  23.775  22.704  1.00  0.00     0.023 C 
ATOM     12  C   UNL A   1      35.429  23.182  23.394  1.00  0.00     0.021 C 
BRANCH   8  13
ATOM     13  C   UNL A   1      32.864  25.782  25.394  1.00  0.00     0.134 A 
ATOM     14  C   UNL A   1      32.325  27.436  26.873  1.00  0.00     0.221 A 
ATOM     15  N   UNL A   1      31.028  27.116  26.895  1.00  0.00    -0.222 NA
ATOM     16  N   UNL A   1      33.264  26.799  26.169  1.00  0.00    -0.196 NA
ATOM     17  C   UNL A   1      30.664  26.080  26.123  1.00  0.00     0.119 A 
ATOM     18  C   UNL A   1      31.543  25.389  25.332  1.00  0.00     0.067 A 
BRANCH  14  19
ATOM     19  N   UNL A   1      32.720  28.507  27.620  1.00  0.00    -0.368 N 
ATOM     20  H   UNL A   1      32.080  29.228  27.823  1.00  0.00     0.159 HD
ATOM     21  H   UNL A   1      33.643  28.560  27.956  1.00  0.00     0.159 HD
ENDBRANCH  14  19
ENDBRANCH   8  13
BRANCH   7  22
ATOM     22  C   UNL A   1      34.312  22.321  25.655  1.00  0.00     0.057 C 
BRANCH  22  23
ATOM     23  C   UNL A   1      33.775  21.076  24.989  1.00  0.00    -0.011 A 
ATOM     24  C   UNL A   1      34.467  19.856  25.083  1.00  0.00     0.010 A 
ATOM     25  C   UNL A   1      32.594  21.116  24.235  1.00  0.00     0.129 A 
ATOM     26  C   UNL A   1      34.031  18.743  24.354  1.00  0.00     0.040 A 
ATOM     27  C   UNL A   1      32.155  20.013  23.510  1.00  0.00     0.078 A 
ATOM     28  F   UNL A   1      31.883  22.249  24.168  1.00  0.00    -0.207 F 
ATOM     29  C   UNL A   1      32.892  18.841  23.561  1.00  0.00     0.126 A 
ATOM     30  F   UNL A   1      32.510  17.791  22.824  1.00  0.00    -0.207 F 
ENDBRANCH  22  23
ENDBRANCH   7  22
ENDBRANCH   4   7
ENDBRANCH   2   3
ENDBRANCH   1   2
BRANCH   1  31
ATOM     31  C   UNL A   1      38.754  19.782  26.069  1.00  0.00     0.118 C 
BRANCH  31  32
ATOM     32  N   UNL A   1      40.021  19.048  26.053  1.00  0.00    -0.352 N 
ATOM     33  C   UNL A   1      41.315  19.489  26.174  1.00  0.00     0.251 C 
ATOM     34  H   UNL A   1      39.930  18.075  25.934  1.00  0.00     0.163 HD
ATOM     35  O   UNL A   1      42.245  18.717  25.948  1.00  0.00    -0.269 OA
BRANCH  33  36
ATOM     36  C   UNL A   1      41.579  20.886  26.564  1.00  0.00     0.039 A 
ATOM     37  C   UNL A   1      42.287  21.154  27.737  1.00  0.00     0.014 A 
ATOM     38  C   UNL A   1      41.143  21.932  25.750  1.00  0.00     0.014 A 
ATOM     39  C   UNL A   1      42.628  22.472  28.041  1.00  0.00     0.010 A 
ATOM     40  C   UNL A   1      41.604  23.218  25.980  1.00  0.00     0.010 A 
ATOM     41  C   UNL A   1      42.333  23.509  27.138  1.00  0.00    -0.014 A 
BRANCH  41  42
ATOM     42  C   UNL A   1      42.783  24.901  27.381  1.00  0.00     0.031 A 
ATOM     43  C   UNL A   1      41.848  25.899  28.014  1.00  0.00     0.074 A 
ATOM     44  C   UNL A   1      43.998  25.286  26.942  1.00  0.00     0.049 A 
ATOM     45  N   UNL A   1      42.050  27.165  28.267  1.00  0.00    -0.248 NA
ATOM     46  C   UNL A   1      40.497  25.432  28.374  1.00  0.00     0.031 C 
ATOM     47  C   UNL A   1      44.943  24.439  26.207  1.00  0.00     0.029 A 
ATOM     48  N   UNL A   1      44.639  26.497  27.025  1.00  0.00    -0.354 N 
ATOM     49  C   UNL A   1      40.848  27.651  28.768  1.00  0.00     0.074 A 
ATOM     50  C   UNL A   1      39.906  26.556  28.749  1.00  0.00     0.031 C 
ATOM     51  C   UNL A   1      46.047  25.150  25.925  1.00  0.00     0.029 A 
ATOM     52  C   UNL A   1      45.876  26.509  26.424  1.00  0.00     0.049 A 
ATOM     53  H   UNL A   1      44.250  27.281  27.474  1.00  0.00     0.167 HD
ATOM     54  C   UNL A   1      40.564  28.888  29.235  1.00  0.00     0.034 A 
ATOM     55  C   UNL A   1      46.768  27.508  26.282  1.00  0.00     0.034 A 
ATOM     56  C   UNL A   1      41.524  29.953  29.308  1.00  0.00     0.049 A 
ATOM     57  C   UNL A   1      46.452  28.848  26.887  1.00  0.00     0.074 A 
ATOM     58  C   UNL A   1      41.375  31.205  29.877  1.00  0.00     0.029 A 
ATOM     59  N   UNL A   1      42.807  29.897  28.788  1.00  0.00    -0.354 N 
ATOM     60  N   UNL A   1      45.377  29.230  27.533  1.00  0.00    -0.248 NA
ATOM     61  C   UNL A   1      47.488  29.884  26.781  1.00  0.00     0.031 C 
ATOM     62  C   UNL A   1      42.557  31.921  29.667  1.00  0.00     0.029 A 
ATOM     63  C   UNL A   1      43.456  31.101  29.006  1.00  0.00     0.049 A 
ATOM     64  H   UNL A   1      43.199  29.119  28.332  1.00  0.00     0.167 HD
ATOM     65  C   UNL A   1      45.619  30.537  27.935  1.00  0.00     0.074 A 
ATOM     66  C   UNL A   1      46.957  30.869  27.491  1.00  0.00     0.031 C 
ATOM     67  C   UNL A   1      44.803  31.395  28.595  1.00  0.00     0.034 A 
BRANCH  54  68
ATOM     68  C   UNL A   1      39.175  29.151  29.754  1.00  0.00     0.023 A 
ATOM     69  C   UNL A   1      38.853  28.832  31.089  1.00  0.00     0.012 A 
ATOM     70  C   UNL A   1      38.221  29.803  28.948  1.00  0.00     0.148 A 
ATOM     71  C   UNL A   1      37.595  29.138  31.607  1.00  0.00     0.002 A 
ATOM     72  C   UNL A   1      36.988  30.149  29.487  1.00  0.00     0.091 A 
ATOM     73  F   UNL A   1      38.541  30.077  27.675  1.00  0.00    -0.205 F 
ATOM     74  C   UNL A   1      36.669  29.808  30.812  1.00  0.00     0.022 A 
BRANCH  72  75
ATOM     75  S   UNL A   1      35.759  31.088  28.574  1.00  0.00     0.127 S 
ATOM     76  O   UNL A   1      36.574  32.156  27.995  1.00  0.00    -0.237 OA
ATOM     77  O   UNL A   1      35.274  30.099  27.611  1.00  0.00    -0.237 OA
ATOM     78  O   UNL A   1      34.773  31.524  29.554  1.00  0.00    -0.744 OA
ENDBRANCH  72  75
ENDBRANCH  54  68
BRANCH  55  79
ATOM     79  C   UNL A   1      48.062  27.268  25.582  1.00  0.00     0.023 A 
ATOM     80  C   UNL A   1      49.188  26.845  26.316  1.00  0.00     0.012 A 
ATOM     81  C   UNL A   1      48.182  27.457  24.192  1.00  0.00     0.148 A 
ATOM     82  C   UNL A   1      50.420  26.662  25.688  1.00  0.00     0.002 A 
ATOM     83  C   UNL A   1      49.396  27.211  23.561  1.00  0.00     0.091 A 
ATOM     84  F   UNL A   1      47.104  27.869  23.510  1.00  0.00    -0.205 F 
ATOM     85  C   UNL A   1      50.522  26.836  24.309  1.00  0.00     0.022 A 
BRANCH  83  86
ATOM     86  S   UNL A   1      49.577  27.276  21.776  1.00  0.00     0.127 S 
ATOM     87  O   UNL A   1      48.649  26.235  21.343  1.00  0.00    -0.237 OA
ATOM     88  O   UNL A   1      49.155  28.644  21.477  1.00  0.00    -0.237 OA
ATOM     89  O   UNL A   1      50.988  27.018  21.518  1.00  0.00    -0.744 OA
ENDBRANCH  83  86
ENDBRANCH  55  79
BRANCH  67  90
ATOM     90  C   UNL A   1      45.345  32.764  28.907  1.00  0.00     0.023 A 
ATOM     91  C   UNL A   1      46.054  32.985  30.105  1.00  0.00     0.012 A 
ATOM     92  C   UNL A   1      45.196  33.820  27.986  1.00  0.00     0.148 A 
ATOM     93  C   UNL A   1      46.564  34.247  30.403  1.00  0.00     0.002 A 
ATOM     94  C   UNL A   1      45.755  35.061  28.265  1.00  0.00     0.091 A 
ATOM     95  F   UNL A   1      44.505  33.595  26.859  1.00  0.00    -0.205 F 
ATOM     96  C   UNL A   1      46.424  35.281  29.479  1.00  0.00     0.022 A 
BRANCH  94  97
ATOM     97  S   UNL A   1      45.713  36.417  27.090  1.00  0.00     0.127 S 
ATOM     98  O   UNL A   1      46.396  35.833  25.936  1.00  0.00    -0.237 OA
ATOM     99  O   UNL A   1      44.276  36.624  26.907  1.00  0.00    -0.237 OA
ATOM    100  O   UNL A   1      46.406  37.526  27.731  1.00  0.00    -0.744 OA
ENDBRANCH  94  97
ENDBRANCH  67  90
ENDBRANCH  41  42
ENDBRANCH  33  36
ENDBRANCH  31  32
ENDBRANCH   1  31
TORSDOF 17
ENDMDL
MODEL 2
REMARK VINA RESULT:     -12.4      4.943      8.240
REMARK SMILES Nc1nccc(N2CCC[C@@](Cc3ccc(F)cc3F)(C(=O)NCCCNC(=O)c3ccc(-c4c5nc(c(-c6cccc(S(=O)(=O)[O-])c6F)c6ccc([nH]6)c(-c6cccc(S(=O)(=O)[O-])c6F)c6nc(c(-c7cccc(S(=O)(=O)[O-])c7F)c7ccc4[nH]7)C=C6)C=C5)cc3)C2)n1
REMARK SMILES IDX 25 1 24 2 23 3 21 4 22 5 11 7 7 8 8 9 93 10 9 11 10 12 6 13
REMARK SMILES IDX 2 14 3 15 94 16 4 17 5 18 1 19 12 22 13 23 14 24 19 25 15 26
REMARK SMILES IDX 18 27 20 28 16 29 17 30 26 31 27 32 28 33 29 35 30 36 31 37
REMARK SMILES IDX 92 38 32 39 91 40 33 41 34 42 35 43 85 44 36 45 90 46 84 47
REMARK SMILES IDX 86 48 37 49 89 50 83 51 82 52 38 54 70 55 50 56 69 57 51 58
REMARK SMILES IDX 54 59 68 60 87 61 52 62 53 63 67 65 88 66 55 67 39 68 40 69
REMARK SMILES IDX 48 70 41 71 43 72 49 73 42 74 44 75 45 76 46 77 47 78 71 79
REMARK SMILES IDX 72 80 80 81 73 82 75 83 81 84 74 85 76 86 77 87 78 88 79 89
REMARK SMILES IDX 56 90 57 91 65 92 58 93 60 94 66 95 59 96 61 97 62 98 63 99
REMARK SMILES IDX 64 100
REMARK H PARENT 23 6 1 20 1 21 27 34 86 53 54 64
REMARK Flexibility Score: inf
ROOT
ATOM      1  C   UNL A   1      32.678  28.145  26.829  1.00  0.00     0.042 C 
ENDROOT
BRANCH   1   2
ATOM      2  C   UNL A   1      32.837  26.710  26.396  1.00  0.00     0.117 C 
BRANCH   2   3
ATOM      3  N   UNL A   1      31.672  25.874  26.564  1.00  0.00    -0.355 N 
ATOM      4  C   UNL A   1      31.563  24.521  26.450  1.00  0.00     0.228 C 
ATOM      5  O   UNL A   1      30.604  24.011  27.040  1.00  0.00    -0.274 OA
ATOM      6  H   UNL A   1      30.841  26.347  26.794  1.00  0.00     0.163 HD
BRANCH   4   7
ATOM      7  C   UNL A   1      32.562  23.664  25.640  1.00  0.00     0.071 C 
ATOM      8  N   UNL A   1      32.531  21.714  24.150  1.00  0.00    -0.355 N 
ATOM      9  C   UNL A   1      32.940  22.380  22.929  1.00  0.00     0.118 C 
ATOM     10  C   UNL A   1      31.698  22.484  25.067  1.00  0.00     0.135 C 
ATOM     11  C   UNL A   1      33.773  23.588  23.324  1.00  0.00     0.023 C 
ATOM     12  C   UNL A   1      33.094  24.445  24.398  1.00  0.00     0.021 C 
BRANCH   8  13
ATOM     13  C   UNL A   1      32.444  20.339  24.169  1.00  0.00     0.134 A 
ATOM     14  C   UNL A   1      32.553  18.346  25.279  1.00  0.00     0.221 A 
ATOM     15  N   UNL A   1      32.426  17.618  24.166  1.00  0.00    -0.222 NA
ATOM     16  N   UNL A   1      32.588  19.681  25.327  1.00  0.00    -0.196 NA
ATOM     17  C   UNL A   1      32.304  18.308  23.021  1.00  0.00     0.119 A 
ATOM     18  C   UNL A   1      32.285  19.677  22.969  1.00  0.00     0.067 A 
BRANCH  14  19
ATOM     19  N   UNL A   1      32.644  17.674  26.462  1.00  0.00    -0.368 N 
ATOM     20  H   UNL A   1      32.620  16.689  26.471  1.00  0.00     0.159 HD
ATOM     21  H   UNL A   1      32.732  18.171  27.307  1.00  0.00     0.159 HD
ENDBRANCH  14  19
ENDBRANCH   8  13
BRANCH   7  22
ATOM     22  C   UNL A   1      33.643  22.985  26.558  1.00  0.00     0.057 C 
BRANCH  22  23
ATOM     23  C   UNL A   1      35.052  22.755  26.066  1.00  0.00    -0.011 A 
ATOM     24  C   UNL A   1      35.504  21.461  25.757  1.00  0.00     0.010 A 
ATOM     25  C   UNL A   1      35.953  23.822  25.939  1.00  0.00     0.129 A 
ATOM     26  C   UNL A   1      36.847  21.244  25.430  1.00  0.00     0.040 A 
ATOM     27  C   UNL A   1      37.289  23.614  25.613  1.00  0.00     0.078 A 
ATOM     28  F   UNL A   1      35.541  25.075  26.176  1.00  0.00    -0.207 F 
ATOM     29  C   UNL A   1      37.728  22.320  25.382  1.00  0.00     0.126 A 
ATOM     30  F   UNL A   1      39.023  22.101  25.123  1.00  0.00    -0.207 F 
ENDBRANCH  22  23
ENDBRANCH   7  22
ENDBRANCH   4   7
ENDBRANCH   2   3
ENDBRANCH   1   2
BRANCH   1  31
ATOM     31  C   UNL A   1      33.727  29.055  26.217  1.00  0.00     0.118 C 
BRANCH  31  32
ATOM     32  N   UNL A   1      33.743  30.398  26.803  1.00  0.00    -0.352 N 
ATOM     33  C   UNL A   1      34.591  30.966  27.720  1.00  0.00     0.251 C 
ATOM     34  H   UNL A   1      33.025  30.992  26.485  1.00  0.00     0.163 HD
ATOM     35  O   UNL A   1      34.311  32.057  28.213  1.00  0.00    -0.269 OA
BRANCH  33  36
ATOM     36  C   UNL A   1      35.823  30.261  28.114  1.00  0.00     0.039 A 
ATOM     37  C   UNL A   1      36.953  30.332  27.297  1.00  0.00     0.014 A 
ATOM     38  C   UNL A   1      35.865  29.544  29.311  1.00  0.00     0.014 A 
ATOM     39  C   UNL A   1      38.146  29.755  27.730  1.00  0.00     0.010 A 
ATOM     40  C   UNL A   1      37.081  29.098  29.801  1.00  0.00     0.010 A 
ATOM     41  C   UNL A   1      38.233  29.178  29.009  1.00  0.00    -0.014 A 
BRANCH  41  42
ATOM     42  C   UNL A   1      39.516  28.659  29.542  1.00  0.00     0.031 A 
ATOM     43  C   UNL A   1      40.217  29.380  30.664  1.00  0.00     0.074 A 
ATOM     44  C   UNL A   1      40.093  27.596  28.947  1.00  0.00     0.049 A 
ATOM     45  N   UNL A   1      41.361  29.099  31.230  1.00  0.00    -0.248 NA
ATOM     46  C   UNL A   1      39.576  30.597  31.196  1.00  0.00     0.031 C 
ATOM     47  C   UNL A   1      39.566  26.889  27.775  1.00  0.00     0.029 A 
ATOM     48  N   UNL A   1      41.263  26.936  29.229  1.00  0.00    -0.354 N 
ATOM     49  C   UNL A   1      41.596  30.120  32.143  1.00  0.00     0.074 A 
ATOM     50  C   UNL A   1      40.498  31.052  32.032  1.00  0.00     0.031 C 
ATOM     51  C   UNL A   1      40.400  25.887  27.452  1.00  0.00     0.029 A 
ATOM     52  C   UNL A   1      41.534  25.900  28.367  1.00  0.00     0.049 A 
ATOM     53  H   UNL A   1      41.851  27.182  29.979  1.00  0.00     0.167 HD
ATOM     54  C   UNL A   1      42.617  30.253  33.020  1.00  0.00     0.034 A 
ATOM     55  C   UNL A   1      42.587  25.060  28.314  1.00  0.00     0.034 A 
ATOM     56  C   UNL A   1      43.672  29.291  33.167  1.00  0.00     0.049 A 
ATOM     57  C   UNL A   1      43.663  25.186  29.357  1.00  0.00     0.074 A 
ATOM     58  C   UNL A   1      44.686  29.266  34.109  1.00  0.00     0.029 A 
ATOM     59  N   UNL A   1      43.858  28.190  32.348  1.00  0.00    -0.354 N 
ATOM     60  N   UNL A   1      43.764  26.049  30.339  1.00  0.00    -0.248 NA
ATOM     61  C   UNL A   1      44.749  24.198  29.312  1.00  0.00     0.031 C 
ATOM     62  C   UNL A   1      45.508  28.169  33.834  1.00  0.00     0.029 A 
ATOM     63  C   UNL A   1      44.982  27.488  32.748  1.00  0.00     0.049 A 
ATOM     64  H   UNL A   1      43.277  27.943  31.592  1.00  0.00     0.167 HD
ATOM     65  C   UNL A   1      44.905  25.689  31.044  1.00  0.00     0.074 A 
ATOM     66  C   UNL A   1      45.441  24.510  30.398  1.00  0.00     0.031 C 
ATOM     67  C   UNL A   1      45.473  26.291  32.119  1.00  0.00     0.034 A 
BRANCH  54  68
ATOM     68  C   UNL A   1      42.622  31.453  33.930  1.00  0.00     0.023 A 
ATOM     69  C   UNL A   1      43.100  32.692  33.455  1.00  0.00     0.012 A 
ATOM     70  C   UNL A   1      42.065  31.376  35.221  1.00  0.00     0.148 A 
ATOM     71  C   UNL A   1      43.044  33.829  34.258  1.00  0.00     0.002 A 
ATOM     72  C   UNL A   1      41.967  32.524  35.997  1.00  0.00     0.091 A 
ATOM     73  F   UNL A   1      41.637  30.184  35.661  1.00  0.00    -0.205 F 
ATOM     74  C   UNL A   1      42.465  33.748  35.522  1.00  0.00     0.022 A 
BRANCH  72  75
ATOM     75  S   UNL A   1      41.161  32.545  37.602  1.00  0.00     0.127 S 
ATOM     76  O   UNL A   1      41.228  33.965  37.947  1.00  0.00    -0.237 OA
ATOM     77  O   UNL A   1      39.821  32.059  37.276  1.00  0.00    -0.237 OA
ATOM     78  O   UNL A   1      41.941  31.663  38.459  1.00  0.00    -0.744 OA
ENDBRANCH  72  75
ENDBRANCH  54  68
BRANCH  55  79
ATOM     79  C   UNL A   1      42.651  23.999  27.269  1.00  0.00     0.023 A 
ATOM     80  C   UNL A   1      43.297  24.260  26.044  1.00  0.00     0.012 A 
ATOM     81  C   UNL A   1      42.078  22.731  27.485  1.00  0.00     0.148 A 
ATOM     82  C   UNL A   1      43.325  23.297  25.035  1.00  0.00     0.002 A 
ATOM     83  C   UNL A   1      42.166  21.754  26.500  1.00  0.00     0.091 A 
ATOM     84  F   UNL A   1      41.460  22.502  28.652  1.00  0.00    -0.205 F 
ATOM     85  C   UNL A   1      42.768  22.042  25.266  1.00  0.00     0.022 A 
BRANCH  83  86
ATOM     86  S   UNL A   1      41.600  20.071  26.769  1.00  0.00     0.127 S 
ATOM     87  O   UNL A   1      40.198  20.278  27.119  1.00  0.00    -0.237 OA
ATOM     88  O   UNL A   1      41.827  19.461  25.459  1.00  0.00    -0.237 OA
ATOM     89  O   UNL A   1      42.450  19.540  27.828  1.00  0.00    -0.744 OA
ENDBRANCH  83  86
ENDBRANCH  55  79
BRANCH  67  90
ATOM     90  C   UNL A   1      46.719  25.665  32.684  1.00  0.00     0.023 A 
ATOM     91  C   UNL A   1      46.629  24.778  33.775  1.00  0.00     0.012 A 
ATOM     92  C   UNL A   1      47.975  25.918  32.098  1.00  0.00     0.148 A 
ATOM     93  C   UNL A   1      47.776  24.189  34.305  1.00  0.00     0.002 A 
ATOM     94  C   UNL A   1      49.107  25.283  32.597  1.00  0.00     0.091 A 
ATOM     95  F   UNL A   1      48.043  26.776  31.071  1.00  0.00    -0.205 F 
ATOM     96  C   UNL A   1      49.012  24.432  33.710  1.00  0.00     0.022 A 
BRANCH  94  97
ATOM     97  S   UNL A   1      50.720  25.458  31.829  1.00  0.00     0.127 S 
ATOM     98  O   UNL A   1      50.916  26.906  31.876  1.00  0.00    -0.237 OA
ATOM     99  O   UNL A   1      51.579  24.697  32.737  1.00  0.00    -0.237 OA
ATOM    100  O   UNL A   1      50.595  24.887  30.496  1.00  0.00    -0.744 OA
ENDBRANCH  94  97
ENDBRANCH  67  90
ENDBRANCH  41  42
ENDBRANCH  33  36
ENDBRANCH  31  32
ENDBRANCH   1  31
TORSDOF 17
ENDMDL
MODEL 3
REMARK VINA RESULT:     -12.2      6.303     11.639
REMARK SMILES Nc1nccc(N2CCC[C@@](Cc3ccc(F)cc3F)(C(=O)NCCCNC(=O)c3ccc(-c4c5nc(c(-c6cccc(S(=O)(=O)[O-])c6F)c6ccc([nH]6)c(-c6cccc(S(=O)(=O)[O-])c6F)c6nc(c(-c7cccc(S(=O)(=O)[O-])c7F)c7ccc4[nH]7)C=C6)C=C5)cc3)C2)n1
REMARK SMILES IDX 25 1 24 2 23 3 21 4 22 5 11 7 7 8 8 9 93 10 9 11 10 12 6 13
REMARK SMILES IDX 2 14 3 15 94 16 4 17 5 18 1 19 12 22 13 23 14 24 19 25 15 26
REMARK SMILES IDX 18 27 20 28 16 29 17 30 26 31 27 32 28 33 29 35 30 36 31 37
REMARK SMILES IDX 92 38 32 39 91 40 33 41 34 42 35 43 85 44 36 45 90 46 84 47
REMARK SMILES IDX 86 48 37 49 89 50 83 51 82 52 38 54 70 55 50 56 69 57 51 58
REMARK SMILES IDX 54 59 68 60 87 61 52 62 53 63 67 65 88 66 55 67 39 68 40 69
REMARK SMILES IDX 48 70 41 71 43 72 49 73 42 74 44 75 45 76 46 77 47 78 71 79
REMARK SMILES IDX 72 80 80 81 73 82 75 83 81 84 74 85 76 86 77 87 78 88 79 89
REMARK SMILES IDX 56 90 57 91 65 92 58 93 60 94 66 95 59 96 61 97 62 98 63 99
REMARK SMILES IDX 64 100
REMARK H PARENT 23 6 1 20 1 21 27 34 86 53 54 64
REMARK Flexibility Score: inf
ROOT
ATOM      1  C   UNL A   1      31.693  32.117  26.752  1.00  0.00     0.042 C 
ENDROOT
BRANCH   1   2
ATOM      2  C   UNL A   1      31.716  30.614  26.860  1.00  0.00     0.117 C 
BRANCH   2   3
ATOM      3  N   UNL A   1      32.978  30.035  27.255  1.00  0.00    -0.355 N 
ATOM      4  C   UNL A   1      33.616  28.942  26.753  1.00  0.00     0.228 C 
ATOM      5  O   UNL A   1      34.835  28.898  26.949  1.00  0.00    -0.274 OA
ATOM      6  H   UNL A   1      33.442  30.496  27.990  1.00  0.00     0.163 HD
BRANCH   4   7
ATOM      7  C   UNL A   1      32.880  27.820  25.985  1.00  0.00     0.071 C 
ATOM      8  N   UNL A   1      33.174  25.438  25.476  1.00  0.00    -0.355 N 
ATOM      9  C   UNL A   1      32.046  24.924  26.229  1.00  0.00     0.118 C 
ATOM     10  C   UNL A   1      33.861  26.596  26.036  1.00  0.00     0.135 C 
ATOM     11  C   UNL A   1      31.003  26.027  26.299  1.00  0.00     0.023 C 
ATOM     12  C   UNL A   1      31.595  27.368  26.746  1.00  0.00     0.021 C 
BRANCH   8  13
ATOM     13  C   UNL A   1      33.873  24.586  24.649  1.00  0.00     0.134 A 
ATOM     14  C   UNL A   1      35.829  23.630  23.960  1.00  0.00     0.221 A 
ATOM     15  N   UNL A   1      35.267  23.023  22.911  1.00  0.00    -0.222 NA
ATOM     16  N   UNL A   1      35.191  24.421  24.826  1.00  0.00    -0.196 NA
ATOM     17  C   UNL A   1      33.950  23.225  22.750  1.00  0.00     0.119 A 
ATOM     18  C   UNL A   1      33.197  23.984  23.607  1.00  0.00     0.067 A 
BRANCH  14  19
ATOM     19  N   UNL A   1      37.159  23.415  24.170  1.00  0.00    -0.368 N 
ATOM     20  H   UNL A   1      37.471  22.540  24.499  1.00  0.00     0.159 HD
ATOM     21  H   UNL A   1      37.809  24.133  23.995  1.00  0.00     0.159 HD
ENDBRANCH  14  19
ENDBRANCH   8  13
BRANCH   7  22
ATOM     22  C   UNL A   1      32.711  28.157  24.459  1.00  0.00     0.057 C 
BRANCH  22  23
ATOM     23  C   UNL A   1      31.361  28.519  23.884  1.00  0.00    -0.011 A 
ATOM     24  C   UNL A   1      30.849  29.821  24.018  1.00  0.00     0.010 A 
ATOM     25  C   UNL A   1      30.575  27.558  23.233  1.00  0.00     0.129 A 
ATOM     26  C   UNL A   1      29.545  30.110  23.599  1.00  0.00     0.040 A 
ATOM     27  C   UNL A   1      29.279  27.839  22.813  1.00  0.00     0.078 A 
ATOM     28  F   UNL A   1      31.054  26.322  23.042  1.00  0.00    -0.207 F 
ATOM     29  C   UNL A   1      28.769  29.111  23.020  1.00  0.00     0.126 A 
ATOM     30  F   UNL A   1      27.504  29.377  22.671  1.00  0.00    -0.207 F 
ENDBRANCH  22  23
ENDBRANCH   7  22
ENDBRANCH   4   7
ENDBRANCH   2   3
ENDBRANCH   1   2
BRANCH   1  31
ATOM     31  C   UNL A   1      32.842  32.770  27.497  1.00  0.00     0.118 C 
BRANCH  31  32
ATOM     32  N   UNL A   1      32.632  34.197  27.754  1.00  0.00    -0.352 N 
ATOM     33  C   UNL A   1      33.187  35.031  28.692  1.00  0.00     0.251 C 
ATOM     34  H   UNL A   1      31.983  34.630  27.153  1.00  0.00     0.163 HD
ATOM     35  O   UNL A   1      32.729  36.161  28.848  1.00  0.00    -0.269 OA
BRANCH  33  36
ATOM     36  C   UNL A   1      34.320  34.563  29.510  1.00  0.00     0.039 A 
ATOM     37  C   UNL A   1      34.088  34.056  30.789  1.00  0.00     0.014 A 
ATOM     38  C   UNL A   1      35.616  34.606  28.995  1.00  0.00     0.014 A 
ATOM     39  C   UNL A   1      35.151  33.513  31.511  1.00  0.00     0.010 A 
ATOM     40  C   UNL A   1      36.638  33.941  29.652  1.00  0.00     0.010 A 
ATOM     41  C   UNL A   1      36.425  33.405  30.927  1.00  0.00    -0.014 A 
BRANCH  41  42
ATOM     42  C   UNL A   1      37.545  32.731  31.627  1.00  0.00     0.031 A 
ATOM     43  C   UNL A   1      38.257  31.573  30.977  1.00  0.00     0.074 A 
ATOM     44  C   UNL A   1      37.853  33.102  32.886  1.00  0.00     0.049 A 
ATOM     45  N   UNL A   1      39.228  30.838  31.450  1.00  0.00    -0.248 NA
ATOM     46  C   UNL A   1      37.796  31.156  29.639  1.00  0.00     0.031 C 
ATOM     47  C   UNL A   1      37.153  34.130  33.663  1.00  0.00     0.029 A 
ATOM     48  N   UNL A   1      38.818  32.640  33.746  1.00  0.00    -0.354 N 
ATOM     49  C   UNL A   1      39.460  29.853  30.497  1.00  0.00     0.074 A 
ATOM     50  C   UNL A   1      38.504  30.056  29.433  1.00  0.00     0.031 C 
ATOM     51  C   UNL A   1      37.724  34.232  34.875  1.00  0.00     0.029 A 
ATOM     52  C   UNL A   1      38.802  33.257  34.975  1.00  0.00     0.049 A 
ATOM     53  H   UNL A   1      39.461  31.936  33.504  1.00  0.00     0.167 HD
ATOM     54  C   UNL A   1      40.407  28.887  30.491  1.00  0.00     0.034 A 
ATOM     55  C   UNL A   1      39.566  33.051  36.065  1.00  0.00     0.034 A 
ATOM     56  C   UNL A   1      41.394  28.731  31.523  1.00  0.00     0.049 A 
ATOM     57  C   UNL A   1      40.664  32.025  35.993  1.00  0.00     0.074 A 
ATOM     58  C   UNL A   1      42.473  27.866  31.555  1.00  0.00     0.029 A 
ATOM     59  N   UNL A   1      41.417  29.447  32.709  1.00  0.00    -0.354 N 
ATOM     60  N   UNL A   1      40.990  31.234  35.001  1.00  0.00    -0.248 NA
ATOM     61  C   UNL A   1      41.525  31.892  37.176  1.00  0.00     0.031 C 
ATOM     62  C   UNL A   1      43.127  28.033  32.779  1.00  0.00     0.029 A 
ATOM     63  C   UNL A   1      42.481  29.030  33.490  1.00  0.00     0.049 A 
ATOM     64  H   UNL A   1      40.772  30.147  32.959  1.00  0.00     0.167 HD
ATOM     65  C   UNL A   1      42.110  30.532  35.427  1.00  0.00     0.074 A 
ATOM     66  C   UNL A   1      42.428  31.018  36.753  1.00  0.00     0.031 C 
ATOM     67  C   UNL A   1      42.805  29.558  34.788  1.00  0.00     0.034 A 
BRANCH  54  68
ATOM     68  C   UNL A   1      40.464  27.952  29.312  1.00  0.00     0.023 A 
ATOM     69  C   UNL A   1      39.547  26.886  29.218  1.00  0.00     0.012 A 
ATOM     70  C   UNL A   1      41.361  28.189  28.253  1.00  0.00     0.148 A 
ATOM     71  C   UNL A   1      39.536  26.056  28.098  1.00  0.00     0.002 A 
ATOM     72  C   UNL A   1      41.311  27.388  27.119  1.00  0.00     0.091 A 
ATOM     73  F   UNL A   1      42.240  29.194  28.373  1.00  0.00    -0.205 F 
ATOM     74  C   UNL A   1      40.408  26.316  27.043  1.00  0.00     0.022 A 
BRANCH  72  75
ATOM     75  S   UNL A   1      42.331  27.691  25.670  1.00  0.00     0.127 S 
ATOM     76  O   UNL A   1      43.670  27.732  26.256  1.00  0.00    -0.237 OA
ATOM     77  O   UNL A   1      42.057  26.509  24.854  1.00  0.00    -0.237 OA
ATOM     78  O   UNL A   1      41.864  28.949  25.103  1.00  0.00    -0.744 OA
ENDBRANCH  72  75
ENDBRANCH  54  68
BRANCH  55  79
ATOM     79  C   UNL A   1      39.354  33.862  37.298  1.00  0.00     0.023 A 
ATOM     80  C   UNL A   1      39.828  35.188  37.353  1.00  0.00     0.012 A 
ATOM     81  C   UNL A   1      38.684  33.327  38.414  1.00  0.00     0.148 A 
ATOM     82  C   UNL A   1      39.684  35.948  38.514  1.00  0.00     0.002 A 
ATOM     83  C   UNL A   1      38.486  34.110  39.545  1.00  0.00     0.091 A 
ATOM     84  F   UNL A   1      38.248  32.061  38.348  1.00  0.00    -0.205 F 
ATOM     85  C   UNL A   1      39.005  35.413  39.607  1.00  0.00     0.022 A 
BRANCH  83  86
ATOM     86  S   UNL A   1      37.503  33.547  40.938  1.00  0.00     0.127 S 
ATOM     87  O   UNL A   1      38.399  32.581  41.567  1.00  0.00    -0.237 OA
ATOM     88  O   UNL A   1      37.305  34.787  41.691  1.00  0.00    -0.237 OA
ATOM     89  O   UNL A   1      36.283  33.002  40.358  1.00  0.00    -0.744 OA
ENDBRANCH  83  86
ENDBRANCH  55  79
BRANCH  67  90
ATOM     90  C   UNL A   1      43.997  28.977  35.502  1.00  0.00     0.023 A 
ATOM     91  C   UNL A   1      45.271  29.553  35.328  1.00  0.00     0.012 A 
ATOM     92  C   UNL A   1      43.841  27.891  36.385  1.00  0.00     0.148 A 
ATOM     93  C   UNL A   1      46.381  29.026  35.986  1.00  0.00     0.002 A 
ATOM     94  C   UNL A   1      44.943  27.407  37.080  1.00  0.00     0.091 A 
ATOM     95  F   UNL A   1      42.624  27.347  36.525  1.00  0.00    -0.205 F 
ATOM     96  C   UNL A   1      46.216  27.961  36.869  1.00  0.00     0.022 A 
BRANCH  94  97
ATOM     97  S   UNL A   1      44.804  26.108  38.312  1.00  0.00     0.127 S 
ATOM     98  O   UNL A   1      43.859  26.697  39.259  1.00  0.00    -0.237 OA
ATOM     99  O   UNL A   1      44.269  24.994  37.529  1.00  0.00    -0.237 OA
ATOM    100  O   UNL A   1      46.151  25.894  38.824  1.00  0.00    -0.744 OA
ENDBRANCH  94  97
ENDBRANCH  67  90
ENDBRANCH  41  42
ENDBRANCH  33  36
ENDBRANCH  31  32
ENDBRANCH   1  31
TORSDOF 17
ENDMDL
