MODEL 1
REMARK VINA RESULT:     -12.8      0.000      0.000
REMARK SMILES Cc1ccc(Nc2c(Cl)cccc2Cl)c(CC(=O)NCCCNC(=O)c2ccc(-c3c4nc(c(-c5cccc(S(=O)(=O)[O-])c5F)c5ccc([nH]5)c(-c5cccc(S(=O)(=O)[O-])c5F)c5nc(c(-c6cccc(S(=O)(=O)[O-])c6F)c6ccc3[nH]6)C=C5)C=C4)cc2)c1
REMARK SMILES IDX 21 1 20 2 19 3 17 4 18 5 16 7 15 8 1 9 2 10 3 11 89 12 4 13
REMARK SMILES IDX 5 14 6 15 7 17 8 18 13 19 9 20 10 21 12 22 14 23 11 24 22 25
REMARK SMILES IDX 23 26 24 27 25 29 26 30 27 31 88 32 28 33 87 34 29 35 30 36
REMARK SMILES IDX 31 37 81 38 32 39 86 40 80 41 82 42 33 43 85 44 79 45 78 46
REMARK SMILES IDX 34 48 66 49 46 50 65 51 47 52 50 53 64 54 83 55 48 56 49 57
REMARK SMILES IDX 63 59 84 60 51 61 35 62 36 63 44 64 37 65 39 66 45 67 38 68
REMARK SMILES IDX 40 69 41 70 42 71 43 72 67 73 68 74 76 75 69 76 71 77 77 78
REMARK SMILES IDX 70 79 72 80 73 81 74 82 75 83 52 84 53 85 61 86 54 87 56 88
REMARK SMILES IDX 62 89 55 90 57 91 58 92 59 93 60 94
REMARK H PARENT 19 6 6 16 23 28 82 47 50 58
REMARK Flexibility Score: inf
ROOT
ATOM      1  C   UNL A   1      37.760  21.103  24.911  1.00  0.00     0.042 C 
ENDROOT
BRANCH   1   2
ATOM      2  C   UNL A   1      36.302  20.773  25.207  1.00  0.00     0.117 C 
BRANCH   2   3
ATOM      3  N   UNL A   1      35.819  21.395  26.429  1.00  0.00    -0.356 N 
ATOM      4  C   UNL A   1      34.678  22.115  26.643  1.00  0.00     0.224 C 
ATOM      5  O   UNL A   1      34.484  22.610  27.756  1.00  0.00    -0.275 OA
ATOM      6  H   UNL A   1      36.397  21.280  27.217  1.00  0.00     0.163 HD
BRANCH   4   7
ATOM      7  C   UNL A   1      33.662  22.336  25.531  1.00  0.00     0.137 C 
BRANCH   7   8
ATOM      8  C   UNL A   1      32.485  23.190  25.954  1.00  0.00    -0.015 A 
ATOM      9  C   UNL A   1      28.959  22.477  27.254  1.00  0.00     0.044 C 
ATOM     10  C   UNL A   1      30.178  23.208  26.782  1.00  0.00    -0.051 A 
ATOM     11  C   UNL A   1      30.108  24.571  26.505  1.00  0.00     0.005 A 
ATOM     12  C   UNL A   1      31.383  22.536  26.549  1.00  0.00     0.009 A 
ATOM     13  C   UNL A   1      31.217  25.244  25.985  1.00  0.00     0.026 A 
ATOM     14  C   UNL A   1      32.416  24.576  25.685  1.00  0.00     0.042 A 
BRANCH  14  15
ATOM     15  N   UNL A   1      33.526  25.280  25.160  1.00  0.00    -0.353 N 
ATOM     16  H   UNL A   1      34.405  25.019  25.518  1.00  0.00     0.167 HD
BRANCH  15  17
ATOM     17  C   UNL A   1      33.539  26.312  24.184  1.00  0.00     0.076 A 
ATOM     18  C   UNL A   1      33.457  26.058  22.800  1.00  0.00     0.066 A 
ATOM     19  C   UNL A   1      33.744  27.649  24.586  1.00  0.00     0.066 A 
ATOM     20  Cl  UNL A   1      33.109  24.479  22.171  1.00  0.00    -0.082 Cl
ATOM     21  C   UNL A   1      33.600  27.092  21.864  1.00  0.00     0.023 A 
ATOM     22  C   UNL A   1      33.879  28.681  23.652  1.00  0.00     0.023 A 
ATOM     23  Cl  UNL A   1      33.871  28.063  26.263  1.00  0.00    -0.082 Cl
ATOM     24  C   UNL A   1      33.817  28.400  22.290  1.00  0.00     0.003 A 
ENDBRANCH  15  17
ENDBRANCH  14  15
ENDBRANCH   7   8
ENDBRANCH   4   7
ENDBRANCH   2   3
ENDBRANCH   1   2
BRANCH   1  25
ATOM     25  C   UNL A   1      38.306  22.319  25.635  1.00  0.00     0.118 C 
BRANCH  25  26
ATOM     26  N   UNL A   1      39.677  22.152  26.092  1.00  0.00    -0.352 N 
ATOM     27  C   UNL A   1      40.567  23.109  26.543  1.00  0.00     0.251 C 
ATOM     28  H   UNL A   1      40.018  21.228  26.079  1.00  0.00     0.163 HD
ATOM     29  O   UNL A   1      41.732  22.785  26.761  1.00  0.00    -0.269 OA
BRANCH  27  30
ATOM     30  C   UNL A   1      40.070  24.464  26.879  1.00  0.00     0.039 A 
ATOM     31  C   UNL A   1      40.655  25.552  26.221  1.00  0.00     0.014 A 
ATOM     32  C   UNL A   1      39.243  24.674  27.979  1.00  0.00     0.014 A 
ATOM     33  C   UNL A   1      40.641  26.806  26.826  1.00  0.00     0.010 A 
ATOM     34  C   UNL A   1      39.300  25.887  28.626  1.00  0.00     0.010 A 
ATOM     35  C   UNL A   1      40.070  26.922  28.089  1.00  0.00    -0.014 A 
BRANCH  35  36
ATOM     36  C   UNL A   1      40.269  28.047  28.985  1.00  0.00     0.031 A 
ATOM     37  C   UNL A   1      39.446  29.256  28.856  1.00  0.00     0.074 A 
ATOM     38  C   UNL A   1      41.062  27.871  30.065  1.00  0.00     0.049 A 
ATOM     39  N   UNL A   1      39.672  30.347  29.501  1.00  0.00    -0.248 NA
ATOM     40  C   UNL A   1      38.314  29.341  27.945  1.00  0.00     0.031 C 
ATOM     41  C   UNL A   1      41.089  28.659  31.291  1.00  0.00     0.029 A 
ATOM     42  N   UNL A   1      42.190  27.050  30.168  1.00  0.00    -0.354 N 
ATOM     43  C   UNL A   1      38.561  31.145  29.355  1.00  0.00     0.074 A 
ATOM     44  C   UNL A   1      37.828  30.543  28.268  1.00  0.00     0.031 C 
ATOM     45  C   UNL A   1      42.291  28.511  31.869  1.00  0.00     0.029 A 
ATOM     46  C   UNL A   1      43.122  27.787  30.923  1.00  0.00     0.049 A 
ATOM     47  H   UNL A   1      42.306  26.148  29.792  1.00  0.00     0.167 HD
ATOM     48  C   UNL A   1      38.343  32.117  30.287  1.00  0.00     0.034 A 
ATOM     49  C   UNL A   1      44.311  28.229  30.410  1.00  0.00     0.034 A 
ATOM     50  C   UNL A   1      39.532  32.296  31.149  1.00  0.00     0.049 A 
ATOM     51  C   UNL A   1      44.480  29.746  30.474  1.00  0.00     0.074 A 
ATOM     52  C   UNL A   1      39.860  31.999  32.462  1.00  0.00     0.029 A 
ATOM     53  N   UNL A   1      40.722  32.661  30.542  1.00  0.00    -0.354 N 
ATOM     54  N   UNL A   1      43.636  30.575  31.026  1.00  0.00    -0.248 NA
ATOM     55  C   UNL A   1      45.584  30.449  29.817  1.00  0.00     0.031 C 
ATOM     56  C   UNL A   1      41.274  32.172  32.619  1.00  0.00     0.029 A 
ATOM     57  C   UNL A   1      41.794  32.602  31.413  1.00  0.00     0.049 A 
ATOM     58  H   UNL A   1      40.796  32.934  29.598  1.00  0.00     0.167 HD
ATOM     59  C   UNL A   1      43.946  31.862  30.658  1.00  0.00     0.074 A 
ATOM     60  C   UNL A   1      45.204  31.732  29.941  1.00  0.00     0.031 C 
ATOM     61  C   UNL A   1      43.115  32.929  30.887  1.00  0.00     0.034 A 
BRANCH  48  62
ATOM     62  C   UNL A   1      37.005  32.788  30.586  1.00  0.00     0.023 A 
ATOM     63  C   UNL A   1      36.518  32.694  31.911  1.00  0.00     0.012 A 
ATOM     64  C   UNL A   1      36.135  33.423  29.667  1.00  0.00     0.148 A 
ATOM     65  C   UNL A   1      35.238  33.128  32.281  1.00  0.00     0.002 A 
ATOM     66  C   UNL A   1      34.853  33.846  30.028  1.00  0.00     0.091 A 
ATOM     67  F   UNL A   1      36.523  33.648  28.417  1.00  0.00    -0.205 F 
ATOM     68  C   UNL A   1      34.397  33.691  31.336  1.00  0.00     0.022 A 
BRANCH  66  69
ATOM     69  S   UNL A   1      33.697  34.560  28.838  1.00  0.00     0.127 S 
ATOM     70  O   UNL A   1      34.484  35.656  28.271  1.00  0.00    -0.237 OA
ATOM     71  O   UNL A   1      33.459  33.444  27.924  1.00  0.00    -0.237 OA
ATOM     72  O   UNL A   1      32.528  34.991  29.597  1.00  0.00    -0.744 OA
ENDBRANCH  66  69
ENDBRANCH  48  62
BRANCH  49  73
ATOM     73  C   UNL A   1      44.839  27.345  29.322  1.00  0.00     0.023 A 
ATOM     74  C   UNL A   1      45.209  26.026  29.687  1.00  0.00     0.012 A 
ATOM     75  C   UNL A   1      44.616  27.630  27.964  1.00  0.00     0.148 A 
ATOM     76  C   UNL A   1      45.198  24.992  28.749  1.00  0.00     0.002 A 
ATOM     77  C   UNL A   1      44.633  26.597  27.029  1.00  0.00     0.091 A 
ATOM     78  F   UNL A   1      44.312  28.883  27.606  1.00  0.00    -0.205 F 
ATOM     79  C   UNL A   1      44.875  25.272  27.426  1.00  0.00     0.022 A 
BRANCH  77  80
ATOM     80  S   UNL A   1      44.237  26.906  25.304  1.00  0.00     0.127 S 
ATOM     81  O   UNL A   1      45.543  27.267  24.766  1.00  0.00    -0.237 OA
ATOM     82  O   UNL A   1      43.724  25.610  24.857  1.00  0.00    -0.237 OA
ATOM     83  O   UNL A   1      43.234  27.960  25.342  1.00  0.00    -0.744 OA
ENDBRANCH  77  80
ENDBRANCH  49  73
BRANCH  61  84
ATOM     84  C   UNL A   1      43.460  34.376  30.547  1.00  0.00     0.023 A 
ATOM     85  C   UNL A   1      43.599  35.345  31.561  1.00  0.00     0.012 A 
ATOM     86  C   UNL A   1      43.543  34.851  29.209  1.00  0.00     0.148 A 
ATOM     87  C   UNL A   1      43.909  36.681  31.275  1.00  0.00     0.002 A 
ATOM     88  C   UNL A   1      43.794  36.191  28.925  1.00  0.00     0.091 A 
ATOM     89  F   UNL A   1      43.370  34.008  28.188  1.00  0.00    -0.205 F 
ATOM     90  C   UNL A   1      44.010  37.104  29.956  1.00  0.00     0.022 A 
BRANCH  88  91
ATOM     91  S   UNL A   1      43.794  36.845  27.246  1.00  0.00     0.127 S 
ATOM     92  O   UNL A   1      42.488  36.402  26.758  1.00  0.00    -0.237 OA
ATOM     93  O   UNL A   1      43.899  38.284  27.487  1.00  0.00    -0.237 OA
ATOM     94  O   UNL A   1      44.938  36.250  26.571  1.00  0.00    -0.744 OA
ENDBRANCH  88  91
ENDBRANCH  61  84
ENDBRANCH  35  36
ENDBRANCH  27  30
ENDBRANCH  25  26
ENDBRANCH   1  25
TORSDOF 16
ENDMDL
MODEL 2
REMARK VINA RESULT:     -12.7      4.349      9.814
REMARK SMILES Cc1ccc(Nc2c(Cl)cccc2Cl)c(CC(=O)NCCCNC(=O)c2ccc(-c3c4nc(c(-c5cccc(S(=O)(=O)[O-])c5F)c5ccc([nH]5)c(-c5cccc(S(=O)(=O)[O-])c5F)c5nc(c(-c6cccc(S(=O)(=O)[O-])c6F)c6ccc3[nH]6)C=C5)C=C4)cc2)c1
REMARK SMILES IDX 21 1 20 2 19 3 17 4 18 5 16 7 15 8 1 9 2 10 3 11 89 12 4 13
REMARK SMILES IDX 5 14 6 15 7 17 8 18 13 19 9 20 10 21 12 22 14 23 11 24 22 25
REMARK SMILES IDX 23 26 24 27 25 29 26 30 27 31 88 32 28 33 87 34 29 35 30 36
REMARK SMILES IDX 31 37 81 38 32 39 86 40 80 41 82 42 33 43 85 44 79 45 78 46
REMARK SMILES IDX 34 48 66 49 46 50 65 51 47 52 50 53 64 54 83 55 48 56 49 57
REMARK SMILES IDX 63 59 84 60 51 61 35 62 36 63 44 64 37 65 39 66 45 67 38 68
REMARK SMILES IDX 40 69 41 70 42 71 43 72 67 73 68 74 76 75 69 76 71 77 77 78
REMARK SMILES IDX 70 79 72 80 73 81 74 82 75 83 52 84 53 85 61 86 54 87 56 88
REMARK SMILES IDX 62 89 55 90 57 91 58 92 59 93 60 94
REMARK H PARENT 19 6 6 16 23 28 82 47 50 58
REMARK Flexibility Score: inf
ROOT
ATOM      1  C   UNL A   1      33.012  31.219  27.244  1.00  0.00     0.042 C 
ENDROOT
BRANCH   1   2
ATOM      2  C   UNL A   1      32.224  30.454  26.188  1.00  0.00     0.117 C 
BRANCH   2   3
ATOM      3  N   UNL A   1      33.038  30.068  25.047  1.00  0.00    -0.356 N 
ATOM      4  C   UNL A   1      33.364  28.819  24.598  1.00  0.00     0.224 C 
ATOM      5  O   UNL A   1      34.124  28.711  23.633  1.00  0.00    -0.275 OA
ATOM      6  H   UNL A   1      33.407  30.813  24.521  1.00  0.00     0.163 HD
BRANCH   4   7
ATOM      7  C   UNL A   1      32.828  27.568  25.280  1.00  0.00     0.137 C 
BRANCH   7   8
ATOM      8  C   UNL A   1      31.532  27.065  24.680  1.00  0.00    -0.015 A 
ATOM      9  C   UNL A   1      28.555  28.699  22.918  1.00  0.00     0.044 C 
ATOM     10  C   UNL A   1      29.448  27.668  23.539  1.00  0.00    -0.051 A 
ATOM     11  C   UNL A   1      28.967  26.383  23.775  1.00  0.00     0.005 A 
ATOM     12  C   UNL A   1      30.746  27.986  23.952  1.00  0.00     0.009 A 
ATOM     13  C   UNL A   1      29.764  25.440  24.430  1.00  0.00     0.026 A 
ATOM     14  C   UNL A   1      31.047  25.756  24.908  1.00  0.00     0.042 A 
BRANCH  14  15
ATOM     15  N   UNL A   1      31.835  24.784  25.567  1.00  0.00    -0.353 N 
ATOM     16  H   UNL A   1      32.163  25.033  26.461  1.00  0.00     0.167 HD
BRANCH  15  17
ATOM     17  C   UNL A   1      32.216  23.495  25.108  1.00  0.00     0.076 A 
ATOM     18  C   UNL A   1      31.566  22.313  25.519  1.00  0.00     0.066 A 
ATOM     19  C   UNL A   1      33.355  23.355  24.287  1.00  0.00     0.066 A 
ATOM     20  Cl  UNL A   1      30.101  22.341  26.446  1.00  0.00    -0.082 Cl
ATOM     21  C   UNL A   1      32.051  21.052  25.144  1.00  0.00     0.023 A 
ATOM     22  C   UNL A   1      33.833  22.096  23.907  1.00  0.00     0.023 A 
ATOM     23  Cl  UNL A   1      34.231  24.745  23.740  1.00  0.00    -0.082 Cl
ATOM     24  C   UNL A   1      33.187  20.944  24.345  1.00  0.00     0.003 A 
ENDBRANCH  15  17
ENDBRANCH  14  15
ENDBRANCH   7   8
ENDBRANCH   4   7
ENDBRANCH   2   3
ENDBRANCH   1   2
BRANCH   1  25
ATOM     25  C   UNL A   1      34.396  30.672  27.540  1.00  0.00     0.118 C 
BRANCH  25  26
ATOM     26  N   UNL A   1      35.365  31.704  27.876  1.00  0.00    -0.352 N 
ATOM     27  C   UNL A   1      36.660  31.564  28.341  1.00  0.00     0.251 C 
ATOM     28  H   UNL A   1      35.056  32.631  27.755  1.00  0.00     0.163 HD
ATOM     29  O   UNL A   1      37.278  32.565  28.695  1.00  0.00    -0.269 OA
BRANCH  27  30
ATOM     30  C   UNL A   1      37.316  30.237  28.276  1.00  0.00     0.039 A 
ATOM     31  C   UNL A   1      37.282  29.439  29.426  1.00  0.00     0.014 A 
ATOM     32  C   UNL A   1      38.149  29.897  27.214  1.00  0.00     0.014 A 
ATOM     33  C   UNL A   1      38.272  28.480  29.624  1.00  0.00     0.010 A 
ATOM     34  C   UNL A   1      39.181  29.016  27.440  1.00  0.00     0.010 A 
ATOM     35  C   UNL A   1      39.286  28.375  28.677  1.00  0.00    -0.014 A 
BRANCH  35  36
ATOM     36  C   UNL A   1      40.547  27.687  28.890  1.00  0.00     0.031 A 
ATOM     37  C   UNL A   1      40.639  26.232  28.717  1.00  0.00     0.074 A 
ATOM     38  C   UNL A   1      41.666  28.433  29.031  1.00  0.00     0.049 A 
ATOM     39  N   UNL A   1      41.672  25.538  29.044  1.00  0.00    -0.248 NA
ATOM     40  C   UNL A   1      39.542  25.434  28.192  1.00  0.00     0.031 C 
ATOM     41  C   UNL A   1      43.048  28.013  28.837  1.00  0.00     0.029 A 
ATOM     42  N   UNL A   1      41.777  29.699  29.612  1.00  0.00    -0.354 N 
ATOM     43  C   UNL A   1      41.519  24.290  28.486  1.00  0.00     0.074 A 
ATOM     44  C   UNL A   1      40.129  24.236  28.107  1.00  0.00     0.031 C 
ATOM     45  C   UNL A   1      43.847  28.835  29.535  1.00  0.00     0.029 A 
ATOM     46  C   UNL A   1      42.978  29.670  30.346  1.00  0.00     0.049 A 
ATOM     47  H   UNL A   1      41.148  30.452  29.527  1.00  0.00     0.167 HD
ATOM     48  C   UNL A   1      42.638  23.537  28.282  1.00  0.00     0.034 A 
ATOM     49  C   UNL A   1      43.020  29.770  31.710  1.00  0.00     0.034 A 
ATOM     50  C   UNL A   1      43.804  24.129  28.973  1.00  0.00     0.049 A 
ATOM     51  C   UNL A   1      43.676  28.572  32.393  1.00  0.00     0.074 A 
ATOM     52  C   UNL A   1      44.954  24.798  28.586  1.00  0.00     0.029 A 
ATOM     53  N   UNL A   1      43.735  24.277  30.349  1.00  0.00    -0.354 N 
ATOM     54  N   UNL A   1      44.229  27.563  31.774  1.00  0.00    -0.248 NA
ATOM     55  C   UNL A   1      43.660  28.379  33.844  1.00  0.00     0.031 C 
ATOM     56  C   UNL A   1      45.556  25.366  29.755  1.00  0.00     0.029 A 
ATOM     57  C   UNL A   1      44.789  25.017  30.851  1.00  0.00     0.049 A 
ATOM     58  H   UNL A   1      43.017  23.896  30.906  1.00  0.00     0.167 HD
ATOM     59  C   UNL A   1      44.458  26.544  32.668  1.00  0.00     0.074 A 
ATOM     60  C   UNL A   1      44.129  27.125  33.960  1.00  0.00     0.031 C 
ATOM     61  C   UNL A   1      44.814  25.277  32.286  1.00  0.00     0.034 A 
BRANCH  48  62
ATOM     62  C   UNL A   1      42.770  22.374  27.301  1.00  0.00     0.023 A 
ATOM     63  C   UNL A   1      42.008  21.213  27.571  1.00  0.00     0.012 A 
ATOM     64  C   UNL A   1      43.643  22.280  26.191  1.00  0.00     0.148 A 
ATOM     65  C   UNL A   1      42.153  20.025  26.843  1.00  0.00     0.002 A 
ATOM     66  C   UNL A   1      43.802  21.093  25.469  1.00  0.00     0.091 A 
ATOM     67  F   UNL A   1      44.341  23.336  25.789  1.00  0.00    -0.205 F 
ATOM     68  C   UNL A   1      43.063  19.958  25.800  1.00  0.00     0.022 A 
BRANCH  66  69
ATOM     69  S   UNL A   1      44.989  20.930  24.118  1.00  0.00     0.127 S 
ATOM     70  O   UNL A   1      44.607  22.040  23.244  1.00  0.00    -0.237 OA
ATOM     71  O   UNL A   1      46.269  21.107  24.804  1.00  0.00    -0.237 OA
ATOM     72  O   UNL A   1      44.783  19.609  23.536  1.00  0.00    -0.744 OA
ENDBRANCH  66  69
ENDBRANCH  48  62
BRANCH  49  73
ATOM     73  C   UNL A   1      41.882  30.568  32.269  1.00  0.00     0.023 A 
ATOM     74  C   UNL A   1      41.795  31.927  31.877  1.00  0.00     0.012 A 
ATOM     75  C   UNL A   1      40.742  29.951  32.812  1.00  0.00     0.148 A 
ATOM     76  C   UNL A   1      40.570  32.598  31.878  1.00  0.00     0.002 A 
ATOM     77  C   UNL A   1      39.529  30.636  32.835  1.00  0.00     0.091 A 
ATOM     78  F   UNL A   1      40.829  28.682  33.228  1.00  0.00    -0.205 F 
ATOM     79  C   UNL A   1      39.430  31.939  32.324  1.00  0.00     0.022 A 
BRANCH  77  80
ATOM     80  S   UNL A   1      38.027  29.835  33.414  1.00  0.00     0.127 S 
ATOM     81  O   UNL A   1      38.153  29.994  34.858  1.00  0.00    -0.237 OA
ATOM     82  O   UNL A   1      36.977  30.644  32.795  1.00  0.00    -0.237 OA
ATOM     83  O   UNL A   1      38.114  28.477  32.898  1.00  0.00    -0.744 OA
ENDBRANCH  77  80
ENDBRANCH  49  73
BRANCH  61  84
ATOM     84  C   UNL A   1      45.136  24.144  33.256  1.00  0.00     0.023 A 
ATOM     85  C   UNL A   1      44.133  23.255  33.692  1.00  0.00     0.012 A 
ATOM     86  C   UNL A   1      46.415  23.992  33.861  1.00  0.00     0.148 A 
ATOM     87  C   UNL A   1      44.403  22.210  34.586  1.00  0.00     0.002 A 
ATOM     88  C   UNL A   1      46.667  22.990  34.793  1.00  0.00     0.091 A 
ATOM     89  F   UNL A   1      47.407  24.827  33.543  1.00  0.00    -0.205 F 
ATOM     90  C   UNL A   1      45.671  22.075  35.135  1.00  0.00     0.022 A 
BRANCH  88  91
ATOM     91  S   UNL A   1      48.240  22.839  35.658  1.00  0.00     0.127 S 
ATOM     92  O   UNL A   1      48.297  24.107  36.387  1.00  0.00    -0.237 OA
ATOM     93  O   UNL A   1      48.008  21.664  36.497  1.00  0.00    -0.237 OA
ATOM     94  O   UNL A   1      49.260  22.673  34.634  1.00  0.00    -0.744 OA
ENDBRANCH  88  91
ENDBRANCH  61  84
ENDBRANCH  35  36
ENDBRANCH  27  30
ENDBRANCH  25  26
ENDBRANCH   1  25
TORSDOF 16
ENDMDL
MODEL 3
REMARK VINA RESULT:     -12.7      3.791      9.423
REMARK SMILES Cc1ccc(Nc2c(Cl)cccc2Cl)c(CC(=O)NCCCNC(=O)c2ccc(-c3c4nc(c(-c5cccc(S(=O)(=O)[O-])c5F)c5ccc([nH]5)c(-c5cccc(S(=O)(=O)[O-])c5F)c5nc(c(-c6cccc(S(=O)(=O)[O-])c6F)c6ccc3[nH]6)C=C5)C=C4)cc2)c1
REMARK SMILES IDX 21 1 20 2 19 3 17 4 18 5 16 7 15 8 1 9 2 10 3 11 89 12 4 13
REMARK SMILES IDX 5 14 6 15 7 17 8 18 13 19 9 20 10 21 12 22 14 23 11 24 22 25
REMARK SMILES IDX 23 26 24 27 25 29 26 30 27 31 88 32 28 33 87 34 29 35 30 36
REMARK SMILES IDX 31 37 81 38 32 39 86 40 80 41 82 42 33 43 85 44 79 45 78 46
REMARK SMILES IDX 34 48 66 49 46 50 65 51 47 52 50 53 64 54 83 55 48 56 49 57
REMARK SMILES IDX 63 59 84 60 51 61 35 62 36 63 44 64 37 65 39 66 45 67 38 68
REMARK SMILES IDX 40 69 41 70 42 71 43 72 67 73 68 74 76 75 69 76 71 77 77 78
REMARK SMILES IDX 70 79 72 80 73 81 74 82 75 83 52 84 53 85 61 86 54 87 56 88
REMARK SMILES IDX 62 89 55 90 57 91 58 92 59 93 60 94
REMARK H PARENT 19 6 6 16 23 28 82 47 50 58
REMARK Flexibility Score: inf
ROOT
ATOM      1  C   UNL A   1      33.376  30.080  26.097  1.00  0.00     0.042 C 
ENDROOT
BRANCH   1   2
ATOM      2  C   UNL A   1      33.664  28.640  25.691  1.00  0.00     0.117 C 
BRANCH   2   3
ATOM      3  N   UNL A   1      32.671  27.703  26.192  1.00  0.00    -0.356 N 
ATOM      4  C   UNL A   1      32.722  26.340  26.260  1.00  0.00     0.224 C 
ATOM      5  O   UNL A   1      31.735  25.724  26.672  1.00  0.00    -0.275 OA
ATOM      6  H   UNL A   1      31.842  28.110  26.533  1.00  0.00     0.163 HD
BRANCH   4   7
ATOM      7  C   UNL A   1      33.958  25.571  25.815  1.00  0.00     0.137 C 
BRANCH   7   8
ATOM      8  C   UNL A   1      33.797  24.904  24.465  1.00  0.00    -0.015 A 
ATOM      9  C   UNL A   1      32.151  25.873  21.151  1.00  0.00     0.044 C 
ATOM     10  C   UNL A   1      32.881  25.091  22.199  1.00  0.00    -0.051 A 
ATOM     11  C   UNL A   1      33.144  23.738  22.000  1.00  0.00     0.005 A 
ATOM     12  C   UNL A   1      33.254  25.676  23.414  1.00  0.00     0.009 A 
ATOM     13  C   UNL A   1      33.749  22.981  23.006  1.00  0.00     0.026 A 
ATOM     14  C   UNL A   1      34.074  23.533  24.257  1.00  0.00     0.042 A 
BRANCH  14  15
ATOM     15  N   UNL A   1      34.688  22.746  25.260  1.00  0.00    -0.353 N 
ATOM     16  H   UNL A   1      34.316  22.842  26.166  1.00  0.00     0.167 HD
BRANCH  15  17
ATOM     17  C   UNL A   1      35.771  21.836  25.132  1.00  0.00     0.076 A 
ATOM     18  C   UNL A   1      35.589  20.455  24.911  1.00  0.00     0.066 A 
ATOM     19  C   UNL A   1      37.092  22.291  25.331  1.00  0.00     0.066 A 
ATOM     20  Cl  UNL A   1      34.034  19.776  24.554  1.00  0.00    -0.082 Cl
ATOM     21  C   UNL A   1      36.678  19.572  24.916  1.00  0.00     0.023 A 
ATOM     22  C   UNL A   1      38.178  21.409  25.329  1.00  0.00     0.023 A 
ATOM     23  Cl  UNL A   1      37.420  23.966  25.622  1.00  0.00    -0.082 Cl
ATOM     24  C   UNL A   1      37.968  20.048  25.131  1.00  0.00     0.003 A 
ENDBRANCH  15  17
ENDBRANCH  14  15
ENDBRANCH   7   8
ENDBRANCH   4   7
ENDBRANCH   2   3
ENDBRANCH   1   2
BRANCH   1  25
ATOM     25  C   UNL A   1      33.381  30.342  27.591  1.00  0.00     0.118 C 
BRANCH  25  26
ATOM     26  N   UNL A   1      34.168  31.506  27.970  1.00  0.00    -0.352 N 
ATOM     27  C   UNL A   1      35.436  31.559  28.521  1.00  0.00     0.251 C 
ATOM     28  H   UNL A   1      33.737  32.378  27.813  1.00  0.00     0.163 HD
ATOM     29  O   UNL A   1      35.878  32.642  28.896  1.00  0.00    -0.269 OA
BRANCH  27  30
ATOM     30  C   UNL A   1      36.278  30.340  28.524  1.00  0.00     0.039 A 
ATOM     31  C   UNL A   1      36.576  29.760  29.762  1.00  0.00     0.014 A 
ATOM     32  C   UNL A   1      36.957  29.933  27.379  1.00  0.00     0.014 A 
ATOM     33  C   UNL A   1      37.729  28.991  29.898  1.00  0.00     0.010 A 
ATOM     34  C   UNL A   1      38.143  29.250  27.522  1.00  0.00     0.010 A 
ATOM     35  C   UNL A   1      38.565  28.856  28.795  1.00  0.00    -0.014 A 
BRANCH  35  36
ATOM     36  C   UNL A   1      39.939  28.390  28.851  1.00  0.00     0.031 A 
ATOM     37  C   UNL A   1      40.242  26.956  28.774  1.00  0.00     0.074 A 
ATOM     38  C   UNL A   1      40.929  29.305  28.753  1.00  0.00     0.049 A 
ATOM     39  N   UNL A   1      41.412  26.460  28.980  1.00  0.00    -0.248 NA
ATOM     40  C   UNL A   1      39.225  25.953  28.494  1.00  0.00     0.031 C 
ATOM     41  C   UNL A   1      42.317  29.081  28.371  1.00  0.00     0.029 A 
ATOM     42  N   UNL A   1      40.916  30.626  29.214  1.00  0.00    -0.354 N 
ATOM     43  C   UNL A   1      41.384  25.155  28.547  1.00  0.00     0.074 A 
ATOM     44  C   UNL A   1      39.981  24.855  28.404  1.00  0.00     0.031 C 
ATOM     45  C   UNL A   1      43.065  30.078  28.867  1.00  0.00     0.029 A 
ATOM     46  C   UNL A   1      42.201  30.850  29.743  1.00  0.00     0.049 A 
ATOM     47  H   UNL A   1      40.167  31.263  29.175  1.00  0.00     0.167 HD
ATOM     48  C   UNL A   1      42.569  24.562  28.222  1.00  0.00     0.034 A 
ATOM     49  C   UNL A   1      42.427  31.089  31.071  1.00  0.00     0.034 A 
ATOM     50  C   UNL A   1      43.711  25.388  28.669  1.00  0.00     0.049 A 
ATOM     51  C   UNL A   1      43.364  30.076  31.726  1.00  0.00     0.074 A 
ATOM     52  C   UNL A   1      44.666  26.180  28.053  1.00  0.00     0.029 A 
ATOM     53  N   UNL A   1      43.823  25.658  30.024  1.00  0.00    -0.354 N 
ATOM     54  N   UNL A   1      43.978  29.106  31.103  1.00  0.00    -0.248 NA
ATOM     55  C   UNL A   1      43.595  30.028  33.171  1.00  0.00     0.031 C 
ATOM     56  C   UNL A   1      45.333  26.945  29.064  1.00  0.00     0.029 A 
ATOM     57  C   UNL A   1      44.804  26.594  30.292  1.00  0.00     0.049 A 
ATOM     58  H   UNL A   1      43.267  25.231  30.716  1.00  0.00     0.167 HD
ATOM     59  C   UNL A   1      44.500  28.226  32.021  1.00  0.00     0.074 A 
ATOM     60  C   UNL A   1      44.275  28.876  33.302  1.00  0.00     0.031 C 
ATOM     61  C   UNL A   1      44.998  26.995  31.681  1.00  0.00     0.034 A 
BRANCH  48  62
ATOM     62  C   UNL A   1      42.743  23.341  27.322  1.00  0.00     0.023 A 
ATOM     63  C   UNL A   1      41.959  22.202  27.621  1.00  0.00     0.012 A 
ATOM     64  C   UNL A   1      43.673  23.175  26.266  1.00  0.00     0.148 A 
ATOM     65  C   UNL A   1      42.133  20.971  26.974  1.00  0.00     0.002 A 
ATOM     66  C   UNL A   1      43.859  21.946  25.627  1.00  0.00     0.091 A 
ATOM     67  F   UNL A   1      44.398  24.202  25.839  1.00  0.00    -0.205 F 
ATOM     68  C   UNL A   1      43.096  20.837  25.986  1.00  0.00     0.022 A 
BRANCH  66  69
ATOM     69  S   UNL A   1      45.114  21.696  24.353  1.00  0.00     0.127 S 
ATOM     70  O   UNL A   1      44.888  22.845  23.475  1.00  0.00    -0.237 OA
ATOM     71  O   UNL A   1      46.357  21.753  25.122  1.00  0.00    -0.237 OA
ATOM     72  O   UNL A   1      44.834  20.405  23.736  1.00  0.00    -0.744 OA
ENDBRANCH  66  69
ENDBRANCH  48  62
BRANCH  49  73
ATOM     73  C   UNL A   1      41.269  31.758  31.747  1.00  0.00     0.023 A 
ATOM     74  C   UNL A   1      40.907  33.046  31.278  1.00  0.00     0.012 A 
ATOM     75  C   UNL A   1      40.336  31.032  32.507  1.00  0.00     0.148 A 
ATOM     76  C   UNL A   1      39.604  33.524  31.427  1.00  0.00     0.002 A 
ATOM     77  C   UNL A   1      39.045  31.528  32.673  1.00  0.00     0.091 A 
ATOM     78  F   UNL A   1      40.687  29.836  32.992  1.00  0.00    -0.205 F 
ATOM     79  C   UNL A   1      38.662  32.748  32.094  1.00  0.00     0.022 A 
BRANCH  77  80
ATOM     80  S   UNL A   1      37.793  30.572  33.539  1.00  0.00     0.127 S 
ATOM     81  O   UNL A   1      37.989  31.016  34.915  1.00  0.00    -0.237 OA
ATOM     82  O   UNL A   1      36.552  31.032  32.915  1.00  0.00    -0.237 OA
ATOM     83  O   UNL A   1      38.126  29.185  33.248  1.00  0.00    -0.744 OA
ENDBRANCH  77  80
ENDBRANCH  49  73
BRANCH  61  84
ATOM     84  C   UNL A   1      45.642  26.025  32.668  1.00  0.00     0.023 A 
ATOM     85  C   UNL A   1      47.029  25.777  32.640  1.00  0.00     0.012 A 
ATOM     86  C   UNL A   1      44.881  25.239  33.577  1.00  0.00     0.148 A 
ATOM     87  C   UNL A   1      47.643  24.887  33.532  1.00  0.00     0.002 A 
ATOM     88  C   UNL A   1      45.486  24.312  34.422  1.00  0.00     0.091 A 
ATOM     89  F   UNL A   1      43.554  25.374  33.629  1.00  0.00    -0.205 F 
ATOM     90  C   UNL A   1      46.872  24.156  34.425  1.00  0.00     0.022 A 
BRANCH  88  91
ATOM     91  S   UNL A   1      44.543  23.223  35.504  1.00  0.00     0.127 S 
ATOM     92  O   UNL A   1      43.817  22.402  34.534  1.00  0.00    -0.237 OA
ATOM     93  O   UNL A   1      45.607  22.522  36.222  1.00  0.00    -0.237 OA
ATOM     94  O   UNL A   1      43.707  24.083  36.329  1.00  0.00    -0.744 OA
ENDBRANCH  88  91
ENDBRANCH  61  84
ENDBRANCH  35  36
ENDBRANCH  27  30
ENDBRANCH  25  26
ENDBRANCH   1  25
TORSDOF 16
ENDMDL
