MODEL 1
REMARK VINA RESULT:     -11.7      0.000      0.000
REMARK SMILES O=C(NCCCNC(=O)c1cc(SCc2nc3ccccc3s2)ccn1)c1ccc(-c2c3nc(c(-c4cccc(S(=O)(=O)[O-])c4F)c4ccc([nH]4)c(-c4cccc(S(=O)(=O)[O-])c4F)c4nc(c(-c5cccc(S(=O)(=O)[O-])c5F)c5ccc2[nH]5)C=C4)C=C3)cc1
REMARK SMILES IDX 5 1 4 2 3 3 1 4 2 5 27 7 28 8 89 9 29 10 88 11 30 12 31 13
REMARK SMILES IDX 32 14 82 15 33 16 87 17 81 18 83 19 34 20 86 21 80 22 79 23
REMARK SMILES IDX 35 25 67 26 47 27 66 28 48 29 51 30 65 31 84 32 49 33 50 34
REMARK SMILES IDX 64 36 85 37 52 38 36 39 37 40 45 41 38 42 40 43 46 44 39 45
REMARK SMILES IDX 41 46 42 47 43 48 44 49 68 50 69 51 77 52 70 53 72 54 78 55
REMARK SMILES IDX 71 56 73 57 74 58 75 59 76 60 53 61 54 62 62 63 55 64 57 65
REMARK SMILES IDX 63 66 56 67 58 68 59 69 60 70 61 71 6 72 7 73 8 74 9 76
REMARK SMILES IDX 10 77 11 78 26 79 12 80 25 81 24 82 13 83 14 84 15 85 16 86
REMARK SMILES IDX 23 87 17 88 22 89 18 90 21 91 19 92 20 93
REMARK H PARENT 3 6 83 24 51 35 7 75
REMARK Flexibility Score: inf
ROOT
ATOM      1  C   UNL A   1      38.302  19.498  24.980  1.00  0.00     0.042 C 
ENDROOT
BRANCH   1   2
ATOM      2  C   UNL A   1      39.287  19.768  26.112  1.00  0.00     0.118 C 
BRANCH   2   3
ATOM      3  N   UNL A   1      40.564  19.079  25.975  1.00  0.00    -0.352 N 
ATOM      4  O   UNL A   1      42.765  18.727  25.762  1.00  0.00    -0.269 OA
ATOM      5  C   UNL A   1      41.867  19.516  26.055  1.00  0.00     0.251 C 
ATOM      6  H   UNL A   1      40.478  18.115  25.791  1.00  0.00     0.163 HD
BRANCH   5   7
ATOM      7  C   UNL A   1      42.205  20.916  26.407  1.00  0.00     0.039 A 
ATOM      8  C   UNL A   1      42.427  21.313  27.723  1.00  0.00     0.014 A 
ATOM      9  C   UNL A   1      42.339  21.859  25.376  1.00  0.00     0.014 A 
ATOM     10  C   UNL A   1      42.593  22.661  28.029  1.00  0.00     0.010 A 
ATOM     11  C   UNL A   1      42.567  23.204  25.672  1.00  0.00     0.010 A 
ATOM     12  C   UNL A   1      42.669  23.617  27.006  1.00  0.00    -0.014 A 
BRANCH  12  13
ATOM     13  C   UNL A   1      43.036  25.011  27.339  1.00  0.00     0.031 A 
ATOM     14  C   UNL A   1      42.050  25.971  27.932  1.00  0.00     0.074 A 
ATOM     15  C   UNL A   1      44.288  25.410  27.048  1.00  0.00     0.049 A 
ATOM     16  N   UNL A   1      42.229  27.219  28.275  1.00  0.00    -0.248 NA
ATOM     17  C   UNL A   1      40.686  25.471  28.164  1.00  0.00     0.031 C 
ATOM     18  C   UNL A   1      45.307  24.566  26.419  1.00  0.00     0.029 A 
ATOM     19  N   UNL A   1      44.910  26.618  27.215  1.00  0.00    -0.354 N 
ATOM     20  C   UNL A   1      41.000  27.670  28.738  1.00  0.00     0.074 A 
ATOM     21  C   UNL A   1      40.078  26.558  28.626  1.00  0.00     0.031 C 
ATOM     22  C   UNL A   1      46.423  25.283  26.245  1.00  0.00     0.029 A 
ATOM     23  C   UNL A   1      46.183  26.647  26.702  1.00  0.00     0.049 A 
ATOM     24  H   UNL A   1      44.486  27.389  27.658  1.00  0.00     0.167 HD
ATOM     25  C   UNL A   1      40.677  28.898  29.215  1.00  0.00     0.034 A 
ATOM     26  C   UNL A   1      47.055  27.664  26.577  1.00  0.00     0.034 A 
ATOM     27  C   UNL A   1      41.609  29.993  29.312  1.00  0.00     0.049 A 
ATOM     28  C   UNL A   1      46.676  29.012  27.111  1.00  0.00     0.074 A 
ATOM     29  C   UNL A   1      41.404  31.252  29.849  1.00  0.00     0.029 A 
ATOM     30  N   UNL A   1      42.913  29.972  28.835  1.00  0.00    -0.354 N 
ATOM     31  N   UNL A   1      45.556  29.382  27.681  1.00  0.00    -0.248 NA
ATOM     32  C   UNL A   1      47.687  30.072  27.020  1.00  0.00     0.031 C 
ATOM     33  C   UNL A   1      42.567  32.005  29.656  1.00  0.00     0.029 A 
ATOM     34  C   UNL A   1      43.516  31.202  29.044  1.00  0.00     0.049 A 
ATOM     35  H   UNL A   1      43.345  29.196  28.411  1.00  0.00     0.167 HD
ATOM     36  C   UNL A   1      45.737  30.708  28.052  1.00  0.00     0.074 A 
ATOM     37  C   UNL A   1      47.079  31.074  27.644  1.00  0.00     0.031 C 
ATOM     38  C   UNL A   1      44.867  31.541  28.672  1.00  0.00     0.034 A 
BRANCH  25  39
ATOM     39  C   UNL A   1      39.258  29.124  29.673  1.00  0.00     0.023 A 
ATOM     40  C   UNL A   1      38.887  28.806  30.995  1.00  0.00     0.012 A 
ATOM     41  C   UNL A   1      38.302  29.697  28.811  1.00  0.00     0.148 A 
ATOM     42  C   UNL A   1      37.579  29.010  31.437  1.00  0.00     0.002 A 
ATOM     43  C   UNL A   1      37.013  29.940  29.271  1.00  0.00     0.091 A 
ATOM     44  F   UNL A   1      38.664  29.981  27.551  1.00  0.00    -0.205 F 
ATOM     45  C   UNL A   1      36.646  29.584  30.578  1.00  0.00     0.022 A 
BRANCH  43  46
ATOM     46  S   UNL A   1      35.763  30.746  28.262  1.00  0.00     0.127 S 
ATOM     47  O   UNL A   1      35.524  29.740  27.231  1.00  0.00    -0.237 OA
ATOM     48  O   UNL A   1      34.663  30.920  29.211  1.00  0.00    -0.237 OA
ATOM     49  O   UNL A   1      36.366  31.991  27.803  1.00  0.00    -0.744 OA
ENDBRANCH  43  46
ENDBRANCH  25  39
BRANCH  26  50
ATOM     50  C   UNL A   1      48.372  27.405  25.940  1.00  0.00     0.023 A 
ATOM     51  C   UNL A   1      49.422  26.864  26.704  1.00  0.00     0.012 A 
ATOM     52  C   UNL A   1      48.547  27.593  24.554  1.00  0.00     0.148 A 
ATOM     53  C   UNL A   1      50.633  26.525  26.098  1.00  0.00     0.002 A 
ATOM     54  C   UNL A   1      49.733  27.199  23.949  1.00  0.00     0.091 A 
ATOM     55  F   UNL A   1      47.528  28.106  23.852  1.00  0.00    -0.205 F 
ATOM     56  C   UNL A   1      50.783  26.679  24.721  1.00  0.00     0.022 A 
BRANCH  54  57
ATOM     57  S   UNL A   1      49.962  27.222  22.168  1.00  0.00     0.127 S 
ATOM     58  O   UNL A   1      48.898  26.328  21.719  1.00  0.00    -0.237 OA
ATOM     59  O   UNL A   1      49.753  28.637  21.859  1.00  0.00    -0.237 OA
ATOM     60  O   UNL A   1      51.320  26.748  21.935  1.00  0.00    -0.744 OA
ENDBRANCH  54  57
ENDBRANCH  26  50
BRANCH  38  61
ATOM     61  C   UNL A   1      45.345  32.930  29.007  1.00  0.00     0.023 A 
ATOM     62  C   UNL A   1      46.017  33.175  30.219  1.00  0.00     0.012 A 
ATOM     63  C   UNL A   1      45.217  33.966  28.062  1.00  0.00     0.148 A 
ATOM     64  C   UNL A   1      46.540  34.440  30.493  1.00  0.00     0.002 A 
ATOM     65  C   UNL A   1      45.786  35.207  28.318  1.00  0.00     0.091 A 
ATOM     66  F   UNL A   1      44.554  33.713  26.924  1.00  0.00    -0.205 F 
ATOM     67  C   UNL A   1      46.438  35.449  29.537  1.00  0.00     0.022 A 
BRANCH  65  68
ATOM     68  S   UNL A   1      45.795  36.533  27.107  1.00  0.00     0.127 S 
ATOM     69  O   UNL A   1      46.717  37.489  27.718  1.00  0.00    -0.237 OA
ATOM     70  O   UNL A   1      46.313  35.858  25.917  1.00  0.00    -0.237 OA
ATOM     71  O   UNL A   1      44.415  36.989  26.995  1.00  0.00    -0.744 OA
ENDBRANCH  65  68
ENDBRANCH  38  61
ENDBRANCH  12  13
ENDBRANCH   5   7
ENDBRANCH   2   3
ENDBRANCH   1   2
BRANCH   1  72
ATOM     72  C   UNL A   1      37.444  20.687  24.567  1.00  0.00     0.118 C 
BRANCH  72  73
ATOM     73  N   UNL A   1      37.915  21.953  25.098  1.00  0.00    -0.351 N 
ATOM     74  C   UNL A   1      37.227  23.125  25.311  1.00  0.00     0.269 C 
ATOM     75  H   UNL A   1      38.868  21.977  25.342  1.00  0.00     0.163 HD
ATOM     76  O   UNL A   1      37.828  24.089  25.785  1.00  0.00    -0.268 OA
BRANCH  74  77
ATOM     77  C   UNL A   1      35.777  23.238  24.967  1.00  0.00     0.129 A 
ATOM     78  C   UNL A   1      34.793  23.205  25.955  1.00  0.00     0.049 A 
ATOM     79  N   UNL A   1      35.517  23.424  23.648  1.00  0.00    -0.251 NA
ATOM     80  C   UNL A   1      33.461  23.316  25.564  1.00  0.00     0.011 A 
ATOM     81  C   UNL A   1      34.227  23.552  23.297  1.00  0.00     0.113 A 
ATOM     82  C   UNL A   1      33.183  23.496  24.203  1.00  0.00     0.035 A 
BRANCH  80  83
ATOM     83  S   UNL A   1      32.032  23.292  26.639  1.00  0.00    -0.119 SA
BRANCH  83  84
ATOM     84  C   UNL A   1      30.756  24.290  25.795  1.00  0.00     0.142 C 
BRANCH  84  85
ATOM     85  C   UNL A   1      31.007  25.766  25.808  1.00  0.00     0.104 A 
ATOM     86  N   UNL A   1      31.400  26.421  26.880  1.00  0.00    -0.240 NA
ATOM     87  S   UNL A   1      30.875  26.708  24.375  1.00  0.00    -0.118 S 
ATOM     88  C   UNL A   1      31.574  27.762  26.577  1.00  0.00     0.082 A 
ATOM     89  C   UNL A   1      31.280  28.124  25.261  1.00  0.00     0.055 A 
ATOM     90  C   UNL A   1      31.987  28.759  27.476  1.00  0.00     0.030 A 
ATOM     91  C   UNL A   1      31.339  29.459  24.827  1.00  0.00     0.021 A 
ATOM     92  C   UNL A   1      32.018  30.090  27.058  1.00  0.00     0.002 A 
ATOM     93  C   UNL A   1      31.689  30.440  25.756  1.00  0.00     0.002 A 
ENDBRANCH  84  85
ENDBRANCH  83  84
ENDBRANCH  80  83
ENDBRANCH  74  77
ENDBRANCH  72  73
ENDBRANCH   1  72
TORSDOF 16
ENDMDL
MODEL 2
REMARK VINA RESULT:     -11.6      1.686      2.094
REMARK SMILES O=C(NCCCNC(=O)c1cc(SCc2nc3ccccc3s2)ccn1)c1ccc(-c2c3nc(c(-c4cccc(S(=O)(=O)[O-])c4F)c4ccc([nH]4)c(-c4cccc(S(=O)(=O)[O-])c4F)c4nc(c(-c5cccc(S(=O)(=O)[O-])c5F)c5ccc2[nH]5)C=C4)C=C3)cc1
REMARK SMILES IDX 5 1 4 2 3 3 1 4 2 5 27 7 28 8 89 9 29 10 88 11 30 12 31 13
REMARK SMILES IDX 32 14 82 15 33 16 87 17 81 18 83 19 34 20 86 21 80 22 79 23
REMARK SMILES IDX 35 25 67 26 47 27 66 28 48 29 51 30 65 31 84 32 49 33 50 34
REMARK SMILES IDX 64 36 85 37 52 38 36 39 37 40 45 41 38 42 40 43 46 44 39 45
REMARK SMILES IDX 41 46 42 47 43 48 44 49 68 50 69 51 77 52 70 53 72 54 78 55
REMARK SMILES IDX 71 56 73 57 74 58 75 59 76 60 53 61 54 62 62 63 55 64 57 65
REMARK SMILES IDX 63 66 56 67 58 68 59 69 60 70 61 71 6 72 7 73 8 74 9 76
REMARK SMILES IDX 10 77 11 78 26 79 12 80 25 81 24 82 13 83 14 84 15 85 16 86
REMARK SMILES IDX 23 87 17 88 22 89 18 90 21 91 19 92 20 93
REMARK H PARENT 3 6 83 24 51 35 7 75
REMARK Flexibility Score: inf
ROOT
ATOM      1  C   UNL A   1      37.716  19.589  24.979  1.00  0.00     0.042 C 
ENDROOT
BRANCH   1   2
ATOM      2  C   UNL A   1      38.898  20.372  25.539  1.00  0.00     0.118 C 
BRANCH   2   3
ATOM      3  N   UNL A   1      40.005  19.544  25.998  1.00  0.00    -0.352 N 
ATOM      4  O   UNL A   1      42.036  18.941  26.724  1.00  0.00    -0.269 OA
ATOM      5  C   UNL A   1      41.227  19.852  26.550  1.00  0.00     0.251 C 
ATOM      6  H   UNL A   1      39.849  18.577  25.893  1.00  0.00     0.163 HD
BRANCH   5   7
ATOM      7  C   UNL A   1      41.617  21.248  26.864  1.00  0.00     0.039 A 
ATOM      8  C   UNL A   1      41.954  21.647  28.155  1.00  0.00     0.014 A 
ATOM      9  C   UNL A   1      41.679  22.185  25.820  1.00  0.00     0.014 A 
ATOM     10  C   UNL A   1      42.168  22.993  28.439  1.00  0.00     0.010 A 
ATOM     11  C   UNL A   1      41.953  23.527  26.089  1.00  0.00     0.010 A 
ATOM     12  C   UNL A   1      42.173  23.944  27.407  1.00  0.00    -0.014 A 
BRANCH  12  13
ATOM     13  C   UNL A   1      42.589  25.333  27.701  1.00  0.00     0.031 A 
ATOM     14  C   UNL A   1      41.654  26.327  28.319  1.00  0.00     0.074 A 
ATOM     15  C   UNL A   1      43.837  25.695  27.350  1.00  0.00     0.049 A 
ATOM     16  N   UNL A   1      41.880  27.576  28.634  1.00  0.00    -0.248 NA
ATOM     17  C   UNL A   1      40.290  25.867  28.618  1.00  0.00     0.031 C 
ATOM     18  C   UNL A   1      44.806  24.815  26.691  1.00  0.00     0.029 A 
ATOM     19  N   UNL A   1      44.496  26.889  27.469  1.00  0.00    -0.354 N 
ATOM     20  C   UNL A   1      40.683  28.066  29.141  1.00  0.00     0.074 A 
ATOM     21  C   UNL A   1      39.730  26.976  29.087  1.00  0.00     0.031 C 
ATOM     22  C   UNL A   1      45.931  25.500  26.457  1.00  0.00     0.029 A 
ATOM     23  C   UNL A   1      45.746  26.877  26.901  1.00  0.00     0.049 A 
ATOM     24  H   UNL A   1      44.112  27.678  27.917  1.00  0.00     0.167 HD
ATOM     25  C   UNL A   1      40.413  29.309  29.611  1.00  0.00     0.034 A 
ATOM     26  C   UNL A   1      46.637  27.869  26.721  1.00  0.00     0.034 A 
ATOM     27  C   UNL A   1      41.375  30.380  29.650  1.00  0.00     0.049 A 
ATOM     28  C   UNL A   1      46.316  29.234  27.249  1.00  0.00     0.074 A 
ATOM     29  C   UNL A   1      41.226  31.653  30.174  1.00  0.00     0.029 A 
ATOM     30  N   UNL A   1      42.656  30.319  29.117  1.00  0.00    -0.354 N 
ATOM     31  N   UNL A   1      45.231  29.642  27.860  1.00  0.00    -0.248 NA
ATOM     32  C   UNL A   1      47.348  30.266  27.096  1.00  0.00     0.031 C 
ATOM     33  C   UNL A   1      42.398  32.372  29.918  1.00  0.00     0.029 A 
ATOM     34  C   UNL A   1      43.299  31.535  29.278  1.00  0.00     0.049 A 
ATOM     35  H   UNL A   1      43.050  29.525  28.687  1.00  0.00     0.167 HD
ATOM     36  C   UNL A   1      45.461  30.968  28.200  1.00  0.00     0.074 A 
ATOM     37  C   UNL A   1      46.793  31.293  27.729  1.00  0.00     0.031 C 
ATOM     38  C   UNL A   1      44.641  31.834  28.843  1.00  0.00     0.034 A 
BRANCH  25  39
ATOM     39  C   UNL A   1      39.021  29.578  30.126  1.00  0.00     0.023 A 
ATOM     40  C   UNL A   1      38.677  29.216  31.444  1.00  0.00     0.012 A 
ATOM     41  C   UNL A   1      38.068  30.236  29.323  1.00  0.00     0.148 A 
ATOM     42  C   UNL A   1      37.395  29.459  31.938  1.00  0.00     0.002 A 
ATOM     43  C   UNL A   1      36.807  30.516  29.837  1.00  0.00     0.091 A 
ATOM     44  F   UNL A   1      38.403  30.561  28.066  1.00  0.00    -0.205 F 
ATOM     45  C   UNL A   1      36.464  30.117  31.138  1.00  0.00     0.022 A 
BRANCH  43  46
ATOM     46  S   UNL A   1      35.566  31.426  28.908  1.00  0.00     0.127 S 
ATOM     47  O   UNL A   1      36.385  32.415  28.214  1.00  0.00    -0.237 OA
ATOM     48  O   UNL A   1      35.000  30.388  28.046  1.00  0.00    -0.237 OA
ATOM     49  O   UNL A   1      34.639  31.958  29.900  1.00  0.00    -0.744 OA
ENDBRANCH  43  46
ENDBRANCH  25  39
BRANCH  26  50
ATOM     50  C   UNL A   1      47.918  27.566  26.033  1.00  0.00     0.023 A 
ATOM     51  C   UNL A   1      49.000  27.047  26.767  1.00  0.00     0.012 A 
ATOM     52  C   UNL A   1      48.026  27.689  24.632  1.00  0.00     0.148 A 
ATOM     53  C   UNL A   1      50.176  26.666  26.118  1.00  0.00     0.002 A 
ATOM     54  C   UNL A   1      49.176  27.255  23.988  1.00  0.00     0.091 A 
ATOM     55  F   UNL A   1      46.978  28.183  23.959  1.00  0.00    -0.205 F 
ATOM     56  C   UNL A   1      50.258  26.757  24.730  1.00  0.00     0.022 A 
BRANCH  54  57
ATOM     57  S   UNL A   1      49.316  27.195  22.199  1.00  0.00     0.127 S 
ATOM     58  O   UNL A   1      50.752  26.998  22.019  1.00  0.00    -0.237 OA
ATOM     59  O   UNL A   1      48.487  26.035  21.874  1.00  0.00    -0.237 OA
ATOM     60  O   UNL A   1      48.792  28.466  21.717  1.00  0.00    -0.744 OA
ENDBRANCH  54  57
ENDBRANCH  26  50
BRANCH  38  61
ATOM     61  C   UNL A   1      45.168  33.215  29.134  1.00  0.00     0.023 A 
ATOM     62  C   UNL A   1      45.962  33.445  30.273  1.00  0.00     0.012 A 
ATOM     63  C   UNL A   1      44.957  34.258  28.211  1.00  0.00     0.148 A 
ATOM     64  C   UNL A   1      46.525  34.702  30.498  1.00  0.00     0.002 A 
ATOM     65  C   UNL A   1      45.565  35.490  28.414  1.00  0.00     0.091 A 
ATOM     66  F   UNL A   1      44.180  34.018  27.145  1.00  0.00    -0.205 F 
ATOM     67  C   UNL A   1      46.340  35.717  29.562  1.00  0.00     0.022 A 
BRANCH  65  68
ATOM     68  S   UNL A   1      45.468  36.822  27.213  1.00  0.00     0.127 S 
ATOM     69  O   UNL A   1      46.030  37.943  27.966  1.00  0.00    -0.237 OA
ATOM     70  O   UNL A   1      46.319  36.324  26.132  1.00  0.00    -0.237 OA
ATOM     71  O   UNL A   1      44.059  36.953  26.866  1.00  0.00    -0.744 OA
ENDBRANCH  65  68
ENDBRANCH  38  61
ENDBRANCH  12  13
ENDBRANCH   5   7
ENDBRANCH   2   3
ENDBRANCH   1   2
BRANCH   1  72
ATOM     72  C   UNL A   1      36.385  20.330  24.981  1.00  0.00     0.118 C 
BRANCH  72  73
ATOM     73  N   UNL A   1      35.232  19.450  24.903  1.00  0.00    -0.351 N 
ATOM     74  C   UNL A   1      33.892  19.759  24.906  1.00  0.00     0.269 C 
ATOM     75  H   UNL A   1      35.442  18.491  24.839  1.00  0.00     0.163 HD
ATOM     76  O   UNL A   1      33.072  18.845  24.822  1.00  0.00    -0.268 OA
BRANCH  74  77
ATOM     77  C   UNL A   1      33.430  21.175  25.019  1.00  0.00     0.129 A 
ATOM     78  C   UNL A   1      33.249  21.970  23.887  1.00  0.00     0.049 A 
ATOM     79  N   UNL A   1      33.160  21.588  26.283  1.00  0.00    -0.251 NA
ATOM     80  C   UNL A   1      32.816  23.282  24.065  1.00  0.00     0.011 A 
ATOM     81  C   UNL A   1      32.722  22.849  26.428  1.00  0.00     0.113 A 
ATOM     82  C   UNL A   1      32.546  23.720  25.368  1.00  0.00     0.035 A 
BRANCH  80  83
ATOM     83  S   UNL A   1      32.521  24.488  22.778  1.00  0.00    -0.119 SA
BRANCH  83  84
ATOM     84  C   UNL A   1      32.678  26.122  23.579  1.00  0.00     0.142 C 
BRANCH  84  85
ATOM     85  C   UNL A   1      31.518  27.042  23.355  1.00  0.00     0.104 A 
ATOM     86  N   UNL A   1      30.268  26.694  23.575  1.00  0.00    -0.240 NA
ATOM     87  S   UNL A   1      31.754  28.674  22.865  1.00  0.00    -0.118 S 
ATOM     88  C   UNL A   1      29.426  27.761  23.305  1.00  0.00     0.082 A 
ATOM     89  C   UNL A   1      30.053  28.921  22.848  1.00  0.00     0.055 A 
ATOM     90  C   UNL A   1      28.026  27.752  23.428  1.00  0.00     0.030 A 
ATOM     91  C   UNL A   1      29.322  30.058  22.465  1.00  0.00     0.021 A 
ATOM     92  C   UNL A   1      27.295  28.868  23.021  1.00  0.00     0.002 A 
ATOM     93  C   UNL A   1      27.930  30.003  22.535  1.00  0.00     0.002 A 
ENDBRANCH  84  85
ENDBRANCH  83  84
ENDBRANCH  80  83
ENDBRANCH  74  77
ENDBRANCH  72  73
ENDBRANCH   1  72
TORSDOF 16
ENDMDL
MODEL 3
REMARK VINA RESULT:     -11.4      5.860     11.519
REMARK SMILES O=C(NCCCNC(=O)c1cc(SCc2nc3ccccc3s2)ccn1)c1ccc(-c2c3nc(c(-c4cccc(S(=O)(=O)[O-])c4F)c4ccc([nH]4)c(-c4cccc(S(=O)(=O)[O-])c4F)c4nc(c(-c5cccc(S(=O)(=O)[O-])c5F)c5ccc2[nH]5)C=C4)C=C3)cc1
REMARK SMILES IDX 5 1 4 2 3 3 1 4 2 5 27 7 28 8 89 9 29 10 88 11 30 12 31 13
REMARK SMILES IDX 32 14 82 15 33 16 87 17 81 18 83 19 34 20 86 21 80 22 79 23
REMARK SMILES IDX 35 25 67 26 47 27 66 28 48 29 51 30 65 31 84 32 49 33 50 34
REMARK SMILES IDX 64 36 85 37 52 38 36 39 37 40 45 41 38 42 40 43 46 44 39 45
REMARK SMILES IDX 41 46 42 47 43 48 44 49 68 50 69 51 77 52 70 53 72 54 78 55
REMARK SMILES IDX 71 56 73 57 74 58 75 59 76 60 53 61 54 62 62 63 55 64 57 65
REMARK SMILES IDX 63 66 56 67 58 68 59 69 60 70 61 71 6 72 7 73 8 74 9 76
REMARK SMILES IDX 10 77 11 78 26 79 12 80 25 81 24 82 13 83 14 84 15 85 16 86
REMARK SMILES IDX 23 87 17 88 22 89 18 90 21 91 19 92 20 93
REMARK H PARENT 3 6 83 24 51 35 7 75
REMARK Flexibility Score: inf
ROOT
ATOM      1  C   UNL A   1      31.467  31.969  26.804  1.00  0.00     0.042 C 
ENDROOT
BRANCH   1   2
ATOM      2  C   UNL A   1      32.663  32.914  26.752  1.00  0.00     0.118 C 
BRANCH   2   3
ATOM      3  N   UNL A   1      32.499  34.134  27.531  1.00  0.00    -0.352 N 
ATOM      4  O   UNL A   1      32.722  35.642  29.172  1.00  0.00    -0.269 OA
ATOM      5  C   UNL A   1      33.166  34.631  28.628  1.00  0.00     0.251 C 
ATOM      6  H   UNL A   1      31.771  34.716  27.212  1.00  0.00     0.163 HD
BRANCH   5   7
ATOM      7  C   UNL A   1      34.345  33.944  29.208  1.00  0.00     0.039 A 
ATOM      8  C   UNL A   1      35.643  34.400  28.995  1.00  0.00     0.014 A 
ATOM      9  C   UNL A   1      34.140  32.819  30.022  1.00  0.00     0.014 A 
ATOM     10  C   UNL A   1      36.730  33.646  29.428  1.00  0.00     0.010 A 
ATOM     11  C   UNL A   1      35.226  32.092  30.511  1.00  0.00     0.010 A 
ATOM     12  C   UNL A   1      36.531  32.488  30.194  1.00  0.00    -0.014 A 
BRANCH  12  13
ATOM     13  C   UNL A   1      37.696  31.809  30.803  1.00  0.00     0.031 A 
ATOM     14  C   UNL A   1      38.462  30.745  30.079  1.00  0.00     0.074 A 
ATOM     15  C   UNL A   1      38.024  32.151  32.063  1.00  0.00     0.049 A 
ATOM     16  N   UNL A   1      39.502  30.066  30.487  1.00  0.00    -0.248 NA
ATOM     17  C   UNL A   1      38.002  30.390  28.729  1.00  0.00     0.031 C 
ATOM     18  C   UNL A   1      37.306  33.138  32.873  1.00  0.00     0.029 A 
ATOM     19  N   UNL A   1      39.017  31.698  32.889  1.00  0.00    -0.354 N 
ATOM     20  C   UNL A   1      39.809  29.181  29.461  1.00  0.00     0.074 A 
ATOM     21  C   UNL A   1      38.837  29.408  28.410  1.00  0.00     0.031 C 
ATOM     22  C   UNL A   1      37.876  33.210  34.082  1.00  0.00     0.029 A 
ATOM     23  C   UNL A   1      38.964  32.241  34.149  1.00  0.00     0.049 A 
ATOM     24  H   UNL A   1      39.701  31.047  32.608  1.00  0.00     0.167 HD
ATOM     25  C   UNL A   1      40.812  28.270  29.405  1.00  0.00     0.034 A 
ATOM     26  C   UNL A   1      39.684  31.970  35.252  1.00  0.00     0.034 A 
ATOM     27  C   UNL A   1      41.764  28.057  30.464  1.00  0.00     0.049 A 
ATOM     28  C   UNL A   1      40.787  30.960  35.166  1.00  0.00     0.074 A 
ATOM     29  C   UNL A   1      42.862  27.214  30.478  1.00  0.00     0.029 A 
ATOM     30  N   UNL A   1      41.717  28.667  31.710  1.00  0.00    -0.354 N 
ATOM     31  N   UNL A   1      41.156  30.236  34.138  1.00  0.00    -0.248 NA
ATOM     32  C   UNL A   1      41.594  30.750  36.374  1.00  0.00     0.031 C 
ATOM     33  C   UNL A   1      43.450  27.280  31.745  1.00  0.00     0.029 A 
ATOM     34  C   UNL A   1      42.750  28.202  32.508  1.00  0.00     0.049 A 
ATOM     35  H   UNL A   1      41.047  29.333  31.987  1.00  0.00     0.167 HD
ATOM     36  C   UNL A   1      42.263  29.511  34.560  1.00  0.00     0.074 A 
ATOM     37  C   UNL A   1      42.505  29.888  35.938  1.00  0.00     0.031 C 
ATOM     38  C   UNL A   1      43.007  28.617  33.865  1.00  0.00     0.034 A 
BRANCH  25  39
ATOM     39  C   UNL A   1      40.935  27.436  28.153  1.00  0.00     0.023 A 
ATOM     40  C   UNL A   1      41.667  27.925  27.052  1.00  0.00     0.012 A 
ATOM     41  C   UNL A   1      40.368  26.148  28.085  1.00  0.00     0.148 A 
ATOM     42  C   UNL A   1      41.793  27.166  25.888  1.00  0.00     0.002 A 
ATOM     43  C   UNL A   1      40.536  25.379  26.938  1.00  0.00     0.091 A 
ATOM     44  F   UNL A   1      39.661  25.701  29.133  1.00  0.00    -0.205 F 
ATOM     45  C   UNL A   1      41.236  25.891  25.834  1.00  0.00     0.022 A 
BRANCH  43  46
ATOM     46  S   UNL A   1      39.920  23.696  26.805  1.00  0.00     0.127 S 
ATOM     47  O   UNL A   1      40.247  23.158  28.122  1.00  0.00    -0.237 OA
ATOM     48  O   UNL A   1      38.491  23.907  26.569  1.00  0.00    -0.237 OA
ATOM     49  O   UNL A   1      40.635  23.099  25.684  1.00  0.00    -0.744 OA
ENDBRANCH  43  46
ENDBRANCH  25  39
BRANCH  26  50
ATOM     50  C   UNL A   1      39.378  32.704  36.507  1.00  0.00     0.023 A 
ATOM     51  C   UNL A   1      39.912  33.989  36.712  1.00  0.00     0.012 A 
ATOM     52  C   UNL A   1      38.469  32.173  37.445  1.00  0.00     0.148 A 
ATOM     53  C   UNL A   1      39.556  34.730  37.840  1.00  0.00     0.002 A 
ATOM     54  C   UNL A   1      38.075  32.939  38.534  1.00  0.00     0.091 A 
ATOM     55  F   UNL A   1      37.974  30.948  37.221  1.00  0.00    -0.205 F 
ATOM     56  C   UNL A   1      38.628  34.211  38.741  1.00  0.00     0.022 A 
BRANCH  54  57
ATOM     57  S   UNL A   1      36.780  32.416  39.663  1.00  0.00     0.127 S 
ATOM     58  O   UNL A   1      37.239  31.084  40.047  1.00  0.00    -0.237 OA
ATOM     59  O   UNL A   1      36.874  33.430  40.713  1.00  0.00    -0.237 OA
ATOM     60  O   UNL A   1      35.542  32.456  38.895  1.00  0.00    -0.744 OA
ENDBRANCH  54  57
ENDBRANCH  26  50
BRANCH  38  61
ATOM     61  C   UNL A   1      44.198  28.008  34.557  1.00  0.00     0.023 A 
ATOM     62  C   UNL A   1      45.421  28.703  34.606  1.00  0.00     0.012 A 
ATOM     63  C   UNL A   1      44.064  26.789  35.250  1.00  0.00     0.148 A 
ATOM     64  C   UNL A   1      46.500  28.184  35.322  1.00  0.00     0.002 A 
ATOM     65  C   UNL A   1      45.125  26.305  36.004  1.00  0.00     0.091 A 
ATOM     66  F   UNL A   1      42.896  26.136  35.170  1.00  0.00    -0.205 F 
ATOM     67  C   UNL A   1      46.347  26.995  36.033  1.00  0.00     0.022 A 
BRANCH  65  68
ATOM     68  S   UNL A   1      44.988  24.839  37.032  1.00  0.00     0.127 S 
ATOM     69  O   UNL A   1      46.308  24.788  37.657  1.00  0.00    -0.237 OA
ATOM     70  O   UNL A   1      43.896  25.200  37.938  1.00  0.00    -0.237 OA
ATOM     71  O   UNL A   1      44.687  23.736  36.128  1.00  0.00    -0.744 OA
ENDBRANCH  65  68
ENDBRANCH  38  61
ENDBRANCH  12  13
ENDBRANCH   5   7
ENDBRANCH   2   3
ENDBRANCH   1   2
BRANCH   1  72
ATOM     72  C   UNL A   1      31.812  30.489  26.899  1.00  0.00     0.118 C 
BRANCH  72  73
ATOM     73  N   UNL A   1      33.142  30.236  27.424  1.00  0.00    -0.351 N 
ATOM     74  C   UNL A   1      34.034  29.237  27.110  1.00  0.00     0.269 C 
ATOM     75  H   UNL A   1      33.451  30.875  28.106  1.00  0.00     0.163 HD
ATOM     76  O   UNL A   1      35.126  29.216  27.678  1.00  0.00    -0.268 OA
BRANCH  74  77
ATOM     77  C   UNL A   1      33.689  28.187  26.105  1.00  0.00     0.129 A 
ATOM     78  C   UNL A   1      33.036  27.013  26.480  1.00  0.00     0.049 A 
ATOM     79  N   UNL A   1      34.012  28.495  24.824  1.00  0.00    -0.251 NA
ATOM     80  C   UNL A   1      32.744  26.076  25.491  1.00  0.00     0.011 A 
ATOM     81  C   UNL A   1      33.700  27.587  23.885  1.00  0.00     0.113 A 
ATOM     82  C   UNL A   1      33.084  26.381  24.168  1.00  0.00     0.035 A 
BRANCH  80  83
ATOM     83  S   UNL A   1      31.925  24.503  25.726  1.00  0.00    -0.119 SA
BRANCH  83  84
ATOM     84  C   UNL A   1      33.255  23.291  26.042  1.00  0.00     0.142 C 
BRANCH  84  85
ATOM     85  C   UNL A   1      33.053  21.958  25.391  1.00  0.00     0.104 A 
ATOM     86  N   UNL A   1      33.144  20.817  26.041  1.00  0.00    -0.240 NA
ATOM     87  S   UNL A   1      32.601  21.831  23.736  1.00  0.00    -0.118 S 
ATOM     88  C   UNL A   1      32.881  19.762  25.181  1.00  0.00     0.082 A 
ATOM     89  C   UNL A   1      32.616  20.116  23.858  1.00  0.00     0.055 A 
ATOM     90  C   UNL A   1      32.888  18.400  25.528  1.00  0.00     0.030 A 
ATOM     91  C   UNL A   1      32.404  19.151  22.859  1.00  0.00     0.021 A 
ATOM     92  C   UNL A   1      32.708  17.438  24.534  1.00  0.00     0.002 A 
ATOM     93  C   UNL A   1      32.480  17.804  23.215  1.00  0.00     0.002 A 
ENDBRANCH  84  85
ENDBRANCH  83  84
ENDBRANCH  80  83
ENDBRANCH  74  77
ENDBRANCH  72  73
ENDBRANCH   1  72
TORSDOF 16
ENDMDL
