MODEL 1
REMARK VINA RESULT:     -12.4      0.000      0.000
REMARK SMILES CC(=O)Nc1cccc(-c2cc(F)ccc2C(=O)NCCCNC(=O)c2ccc(-c3c4nc(c(-c5cccc(S(=O)(=O)[O-])c5F)c5ccc([nH]5)c(-c5cccc(S(=O)(=O)[O-])c5F)c5nc(c(-c6cccc(S(=O)(=O)[O-])c6F)c6ccc3[nH]6)C=C5)C=C4)cc2)c1
REMARK SMILES IDX 21 1 20 2 19 3 17 4 18 5 16 7 10 8 11 9 12 10 15 11 13 12
REMARK SMILES IDX 14 13 9 14 5 15 6 16 89 17 7 18 8 19 4 20 1 21 2 22 3 23
REMARK SMILES IDX 22 25 23 26 24 27 25 29 26 30 27 31 88 32 28 33 87 34 29 35
REMARK SMILES IDX 30 36 31 37 81 38 32 39 86 40 80 41 82 42 33 43 85 44 79 45
REMARK SMILES IDX 78 46 34 48 66 49 46 50 65 51 47 52 50 53 64 54 83 55 48 56
REMARK SMILES IDX 49 57 63 59 84 60 51 61 35 62 36 63 44 64 37 65 39 66 45 67
REMARK SMILES IDX 38 68 40 69 41 70 42 71 43 72 67 73 68 74 76 75 69 76 71 77
REMARK SMILES IDX 77 78 70 79 72 80 73 81 74 82 75 83 52 84 53 85 61 86 54 87
REMARK SMILES IDX 56 88 62 89 55 90 57 91 58 92 59 93 60 94
REMARK H PARENT 19 6 4 24 23 28 82 47 50 58
REMARK Flexibility Score: inf
ROOT
ATOM      1  C   UNL A   1      33.022  27.908  26.956  1.00  0.00     0.042 C 
ENDROOT
BRANCH   1   2
ATOM      2  C   UNL A   1      31.611  27.891  26.427  1.00  0.00     0.118 C 
BRANCH   2   3
ATOM      3  N   UNL A   1      30.783  26.747  26.642  1.00  0.00    -0.352 N 
ATOM      4  C   UNL A   1      30.866  25.525  26.011  1.00  0.00     0.251 C 
ATOM      5  O   UNL A   1      30.248  24.599  26.551  1.00  0.00    -0.269 OA
ATOM      6  H   UNL A   1      30.072  26.843  27.317  1.00  0.00     0.163 HD
BRANCH   4   7
ATOM      7  C   UNL A   1      31.537  25.244  24.680  1.00  0.00     0.047 A 
ATOM      8  C   UNL A   1      32.513  24.276  24.291  1.00  0.00    -0.003 A 
ATOM      9  C   UNL A   1      32.914  24.247  22.929  1.00  0.00     0.048 A 
ATOM     10  C   UNL A   1      32.389  25.120  21.985  1.00  0.00     0.123 A 
ATOM     11  C   UNL A   1      31.029  26.114  23.675  1.00  0.00     0.017 A 
ATOM     12  F   UNL A   1      32.803  25.048  20.714  1.00  0.00    -0.207 F 
ATOM     13  C   UNL A   1      31.446  26.058  22.346  1.00  0.00     0.040 A 
BRANCH   8  14
ATOM     14  C   UNL A   1      33.210  23.298  25.158  1.00  0.00    -0.015 A 
ATOM     15  C   UNL A   1      33.414  21.059  26.115  1.00  0.00     0.041 A 
ATOM     16  C   UNL A   1      34.230  21.573  27.132  1.00  0.00     0.026 A 
ATOM     17  C   UNL A   1      32.945  21.920  25.105  1.00  0.00     0.034 A 
ATOM     18  C   UNL A   1      34.600  22.915  27.135  1.00  0.00     0.003 A 
ATOM     19  C   UNL A   1      34.098  23.770  26.154  1.00  0.00     0.009 A 
BRANCH  15  20
ATOM     20  N   UNL A   1      32.935  19.746  26.296  1.00  0.00    -0.326 N 
ATOM     21  C   UNL A   1      34.018  18.567  24.399  1.00  0.00     0.114 C 
ATOM     22  C   UNL A   1      32.984  18.649  25.487  1.00  0.00     0.221 C 
ATOM     23  O   UNL A   1      32.212  17.708  25.676  1.00  0.00    -0.275 OA
ATOM     24  H   UNL A   1      32.486  19.594  27.158  1.00  0.00     0.169 HD
ENDBRANCH  15  20
ENDBRANCH   8  14
ENDBRANCH   4   7
ENDBRANCH   2   3
ENDBRANCH   1   2
BRANCH   1  25
ATOM     25  C   UNL A   1      33.971  28.868  26.257  1.00  0.00     0.118 C 
BRANCH  25  26
ATOM     26  N   UNL A   1      33.884  30.259  26.715  1.00  0.00    -0.352 N 
ATOM     27  C   UNL A   1      34.591  31.015  27.623  1.00  0.00     0.251 C 
ATOM     28  H   UNL A   1      33.162  30.763  26.277  1.00  0.00     0.163 HD
ATOM     29  O   UNL A   1      34.106  32.093  27.975  1.00  0.00    -0.269 OA
BRANCH  27  30
ATOM     30  C   UNL A   1      35.867  30.563  28.232  1.00  0.00     0.039 A 
ATOM     31  C   UNL A   1      35.834  29.688  29.327  1.00  0.00     0.014 A 
ATOM     32  C   UNL A   1      37.102  30.994  27.766  1.00  0.00     0.014 A 
ATOM     33  C   UNL A   1      37.026  29.189  29.868  1.00  0.00     0.010 A 
ATOM     34  C   UNL A   1      38.267  30.361  28.175  1.00  0.00     0.010 A 
ATOM     35  C   UNL A   1      38.254  29.478  29.257  1.00  0.00    -0.014 A 
BRANCH  35  36
ATOM     36  C   UNL A   1      39.543  28.915  29.741  1.00  0.00     0.031 A 
ATOM     37  C   UNL A   1      40.287  29.591  30.869  1.00  0.00     0.074 A 
ATOM     38  C   UNL A   1      40.097  27.869  29.098  1.00  0.00     0.049 A 
ATOM     39  N   UNL A   1      41.472  29.324  31.354  1.00  0.00    -0.248 NA
ATOM     40  C   UNL A   1      39.640  30.755  31.500  1.00  0.00     0.031 C 
ATOM     41  C   UNL A   1      39.532  27.197  27.924  1.00  0.00     0.029 A 
ATOM     42  N   UNL A   1      41.276  27.204  29.322  1.00  0.00    -0.354 N 
ATOM     43  C   UNL A   1      41.727  30.311  32.300  1.00  0.00     0.074 A 
ATOM     44  C   UNL A   1      40.607  31.222  32.272  1.00  0.00     0.031 C 
ATOM     45  C   UNL A   1      40.352  26.204  27.546  1.00  0.00     0.029 A 
ATOM     46  C   UNL A   1      41.519  26.193  28.421  1.00  0.00     0.049 A 
ATOM     47  H   UNL A   1      41.890  27.429  30.058  1.00  0.00     0.167 HD
ATOM     48  C   UNL A   1      42.773  30.428  33.152  1.00  0.00     0.034 A 
ATOM     49  C   UNL A   1      42.566  25.353  28.311  1.00  0.00     0.034 A 
ATOM     50  C   UNL A   1      43.853  29.483  33.218  1.00  0.00     0.049 A 
ATOM     51  C   UNL A   1      43.677  25.449  29.319  1.00  0.00     0.074 A 
ATOM     52  C   UNL A   1      44.919  29.450  34.098  1.00  0.00     0.029 A 
ATOM     53  N   UNL A   1      44.002  28.398  32.366  1.00  0.00    -0.354 N 
ATOM     54  N   UNL A   1      43.830  26.305  30.301  1.00  0.00    -0.248 NA
ATOM     55  C   UNL A   1      44.735  24.434  29.235  1.00  0.00     0.031 C 
ATOM     56  C   UNL A   1      45.725  28.356  33.764  1.00  0.00     0.029 A 
ATOM     57  C   UNL A   1      45.140  27.686  32.701  1.00  0.00     0.049 A 
ATOM     58  H   UNL A   1      43.389  28.169  31.633  1.00  0.00     0.167 HD
ATOM     59  C   UNL A   1      44.980  25.911  30.974  1.00  0.00     0.074 A 
ATOM     60  C   UNL A   1      45.467  24.724  30.301  1.00  0.00     0.031 C 
ATOM     61  C   UNL A   1      45.585  26.484  32.044  1.00  0.00     0.034 A 
BRANCH  48  62
ATOM     62  C   UNL A   1      42.759  31.587  34.119  1.00  0.00     0.023 A 
ATOM     63  C   UNL A   1      43.330  32.822  33.740  1.00  0.00     0.012 A 
ATOM     64  C   UNL A   1      42.164  31.468  35.391  1.00  0.00     0.148 A 
ATOM     65  C   UNL A   1      43.356  33.898  34.625  1.00  0.00     0.002 A 
ATOM     66  C   UNL A   1      42.145  32.564  36.247  1.00  0.00     0.091 A 
ATOM     67  F   UNL A   1      41.644  30.285  35.746  1.00  0.00    -0.205 F 
ATOM     68  C   UNL A   1      42.755  33.773  35.874  1.00  0.00     0.022 A 
BRANCH  66  69
ATOM     69  S   UNL A   1      41.323  32.536  37.844  1.00  0.00     0.127 S 
ATOM     70  O   UNL A   1      41.381  33.942  38.231  1.00  0.00    -0.237 OA
ATOM     71  O   UNL A   1      39.988  32.053  37.492  1.00  0.00    -0.237 OA
ATOM     72  O   UNL A   1      42.098  31.624  38.678  1.00  0.00    -0.744 OA
ENDBRANCH  66  69
ENDBRANCH  48  62
BRANCH  49  73
ATOM     73  C   UNL A   1      42.569  24.306  27.251  1.00  0.00     0.023 A 
ATOM     74  C   UNL A   1      43.239  24.549  26.036  1.00  0.00     0.012 A 
ATOM     75  C   UNL A   1      41.954  23.057  27.457  1.00  0.00     0.148 A 
ATOM     76  C   UNL A   1      43.263  23.581  25.031  1.00  0.00     0.002 A 
ATOM     77  C   UNL A   1      42.032  22.075  26.476  1.00  0.00     0.091 A 
ATOM     78  F   UNL A   1      41.320  22.847  28.619  1.00  0.00    -0.205 F 
ATOM     79  C   UNL A   1      42.670  22.342  25.254  1.00  0.00     0.022 A 
BRANCH  77  80
ATOM     80  S   UNL A   1      41.423  20.406  26.729  1.00  0.00     0.127 S 
ATOM     81  O   UNL A   1      39.997  20.635  26.935  1.00  0.00    -0.237 OA
ATOM     82  O   UNL A   1      41.771  19.763  25.463  1.00  0.00    -0.237 OA
ATOM     83  O   UNL A   1      42.153  19.890  27.883  1.00  0.00    -0.744 OA
ENDBRANCH  77  80
ENDBRANCH  49  73
BRANCH  61  84
ATOM     84  C   UNL A   1      46.816  25.805  32.585  1.00  0.00     0.023 A 
ATOM     85  C   UNL A   1      48.091  26.166  32.109  1.00  0.00     0.012 A 
ATOM     86  C   UNL A   1      46.706  24.835  33.601  1.00  0.00     0.148 A 
ATOM     87  C   UNL A   1      49.235  25.535  32.598  1.00  0.00     0.002 A 
ATOM     88  C   UNL A   1      47.852  24.251  34.123  1.00  0.00     0.091 A 
ATOM     89  F   UNL A   1      45.482  24.491  34.029  1.00  0.00    -0.205 F 
ATOM     90  C   UNL A   1      49.116  24.585  33.610  1.00  0.00     0.022 A 
BRANCH  88  91
ATOM     91  S   UNL A   1      47.797  23.098  35.498  1.00  0.00     0.127 S 
ATOM     92  O   UNL A   1      46.918  22.053  34.976  1.00  0.00    -0.237 OA
ATOM     93  O   UNL A   1      49.200  22.705  35.631  1.00  0.00    -0.237 OA
ATOM     94  O   UNL A   1      47.274  23.851  36.630  1.00  0.00    -0.744 OA
ENDBRANCH  88  91
ENDBRANCH  61  84
ENDBRANCH  35  36
ENDBRANCH  27  30
ENDBRANCH  25  26
ENDBRANCH   1  25
TORSDOF 15
ENDMDL
MODEL 2
REMARK VINA RESULT:     -12.4      5.230      9.678
REMARK SMILES CC(=O)Nc1cccc(-c2cc(F)ccc2C(=O)NCCCNC(=O)c2ccc(-c3c4nc(c(-c5cccc(S(=O)(=O)[O-])c5F)c5ccc([nH]5)c(-c5cccc(S(=O)(=O)[O-])c5F)c5nc(c(-c6cccc(S(=O)(=O)[O-])c6F)c6ccc3[nH]6)C=C5)C=C4)cc2)c1
REMARK SMILES IDX 21 1 20 2 19 3 17 4 18 5 16 7 10 8 11 9 12 10 15 11 13 12
REMARK SMILES IDX 14 13 9 14 5 15 6 16 89 17 7 18 8 19 4 20 1 21 2 22 3 23
REMARK SMILES IDX 22 25 23 26 24 27 25 29 26 30 27 31 88 32 28 33 87 34 29 35
REMARK SMILES IDX 30 36 31 37 81 38 32 39 86 40 80 41 82 42 33 43 85 44 79 45
REMARK SMILES IDX 78 46 34 48 66 49 46 50 65 51 47 52 50 53 64 54 83 55 48 56
REMARK SMILES IDX 49 57 63 59 84 60 51 61 35 62 36 63 44 64 37 65 39 66 45 67
REMARK SMILES IDX 38 68 40 69 41 70 42 71 43 72 67 73 68 74 76 75 69 76 71 77
REMARK SMILES IDX 77 78 70 79 72 80 73 81 74 82 75 83 52 84 53 85 61 86 54 87
REMARK SMILES IDX 56 88 62 89 55 90 57 91 58 92 59 93 60 94
REMARK H PARENT 19 6 4 24 23 28 82 47 50 58
REMARK Flexibility Score: inf
ROOT
ATOM      1  C   UNL A   1      37.041  22.133  24.184  1.00  0.00     0.042 C 
ENDROOT
BRANCH   1   2
ATOM      2  C   UNL A   1      35.992  23.175  23.894  1.00  0.00     0.118 C 
BRANCH   2   3
ATOM      3  N   UNL A   1      35.154  23.043  22.744  1.00  0.00    -0.352 N 
ATOM      4  C   UNL A   1      33.777  23.058  22.708  1.00  0.00     0.251 C 
ATOM      5  O   UNL A   1      33.271  23.219  21.591  1.00  0.00    -0.269 OA
ATOM      6  H   UNL A   1      35.612  22.927  21.880  1.00  0.00     0.163 HD
BRANCH   4   7
ATOM      7  C   UNL A   1      32.843  22.786  23.873  1.00  0.00     0.047 A 
ATOM      8  C   UNL A   1      32.354  21.568  24.437  1.00  0.00    -0.003 A 
ATOM      9  C   UNL A   1      31.508  21.656  25.574  1.00  0.00     0.048 A 
ATOM     10  C   UNL A   1      31.154  22.873  26.140  1.00  0.00     0.123 A 
ATOM     11  C   UNL A   1      32.452  24.007  24.490  1.00  0.00     0.017 A 
ATOM     12  F   UNL A   1      30.353  22.897  27.213  1.00  0.00    -0.207 F 
ATOM     13  C   UNL A   1      31.619  24.055  25.607  1.00  0.00     0.040 A 
BRANCH   8  14
ATOM     14  C   UNL A   1      32.589  20.190  23.949  1.00  0.00    -0.015 A 
ATOM     15  C   UNL A   1      33.837  18.089  24.006  1.00  0.00     0.041 A 
ATOM     16  C   UNL A   1      33.343  17.767  22.736  1.00  0.00     0.026 A 
ATOM     17  C   UNL A   1      33.419  19.281  24.627  1.00  0.00     0.034 A 
ATOM     18  C   UNL A   1      32.426  18.598  22.098  1.00  0.00     0.003 A 
ATOM     19  C   UNL A   1      32.049  19.797  22.702  1.00  0.00     0.009 A 
BRANCH  15  20
ATOM     20  N   UNL A   1      34.898  17.297  24.488  1.00  0.00    -0.326 N 
ATOM     21  C   UNL A   1      33.679  15.299  25.314  1.00  0.00     0.114 C 
ATOM     22  C   UNL A   1      34.905  16.166  25.250  1.00  0.00     0.221 C 
ATOM     23  O   UNL A   1      35.929  15.831  25.849  1.00  0.00    -0.275 OA
ATOM     24  H   UNL A   1      35.793  17.617  24.229  1.00  0.00     0.169 HD
ENDBRANCH  15  20
ENDBRANCH   8  14
ENDBRANCH   4   7
ENDBRANCH   2   3
ENDBRANCH   1   2
BRANCH   1  25
ATOM     25  C   UNL A   1      37.158  21.710  25.640  1.00  0.00     0.118 C 
BRANCH  25  26
ATOM     26  N   UNL A   1      38.345  20.907  25.952  1.00  0.00    -0.352 N 
ATOM     27  C   UNL A   1      39.626  21.208  26.358  1.00  0.00     0.251 C 
ATOM     28  H   UNL A   1      38.192  19.940  25.850  1.00  0.00     0.163 HD
ATOM     29  O   UNL A   1      40.475  20.316  26.289  1.00  0.00    -0.269 OA
BRANCH  27  30
ATOM     30  C   UNL A   1      40.033  22.561  26.812  1.00  0.00     0.039 A 
ATOM     31  C   UNL A   1      40.981  22.684  27.839  1.00  0.00     0.014 A 
ATOM     32  C   UNL A   1      39.492  23.718  26.269  1.00  0.00     0.014 A 
ATOM     33  C   UNL A   1      41.435  23.950  28.231  1.00  0.00     0.010 A 
ATOM     34  C   UNL A   1      40.073  24.952  26.522  1.00  0.00     0.010 A 
ATOM     35  C   UNL A   1      41.026  25.095  27.533  1.00  0.00    -0.014 A 
BRANCH  35  36
ATOM     36  C   UNL A   1      41.534  26.454  27.855  1.00  0.00     0.031 A 
ATOM     37  C   UNL A   1      42.965  26.822  27.538  1.00  0.00     0.074 A 
ATOM     38  C   UNL A   1      40.749  27.318  28.530  1.00  0.00     0.049 A 
ATOM     39  N   UNL A   1      43.626  27.909  27.842  1.00  0.00    -0.248 NA
ATOM     40  C   UNL A   1      43.779  25.813  26.834  1.00  0.00     0.031 C 
ATOM     41  C   UNL A   1      39.386  27.044  28.992  1.00  0.00     0.029 A 
ATOM     42  N   UNL A   1      40.996  28.594  28.970  1.00  0.00    -0.354 N 
ATOM     43  C   UNL A   1      44.932  27.691  27.416  1.00  0.00     0.074 A 
ATOM     44  C   UNL A   1      44.988  26.345  26.898  1.00  0.00     0.031 C 
ATOM     45  C   UNL A   1      38.910  28.124  29.631  1.00  0.00     0.029 A 
ATOM     46  C   UNL A   1      39.944  29.151  29.660  1.00  0.00     0.049 A 
ATOM     47  H   UNL A   1      41.844  29.065  28.807  1.00  0.00     0.167 HD
ATOM     48  C   UNL A   1      45.983  28.546  27.410  1.00  0.00     0.034 A 
ATOM     49  C   UNL A   1      39.828  30.355  30.253  1.00  0.00     0.034 A 
ATOM     50  C   UNL A   1      45.903  29.904  27.870  1.00  0.00     0.049 A 
ATOM     51  C   UNL A   1      40.979  31.318  30.162  1.00  0.00     0.074 A 
ATOM     52  C   UNL A   1      46.875  30.887  27.831  1.00  0.00     0.029 A 
ATOM     53  N   UNL A   1      44.781  30.473  28.453  1.00  0.00    -0.354 N 
ATOM     54  N   UNL A   1      42.163  31.142  29.626  1.00  0.00    -0.248 NA
ATOM     55  C   UNL A   1      40.761  32.662  30.714  1.00  0.00     0.031 C 
ATOM     56  C   UNL A   1      46.346  32.045  28.411  1.00  0.00     0.029 A 
ATOM     57  C   UNL A   1      45.033  31.794  28.776  1.00  0.00     0.049 A 
ATOM     58  H   UNL A   1      43.930  30.006  28.613  1.00  0.00     0.167 HD
ATOM     59  C   UNL A   1      42.818  32.361  29.742  1.00  0.00     0.074 A 
ATOM     60  C   UNL A   1      41.888  33.273  30.377  1.00  0.00     0.031 C 
ATOM     61  C   UNL A   1      44.079  32.696  29.370  1.00  0.00     0.034 A 
BRANCH  48  62
ATOM     62  C   UNL A   1      47.285  28.047  26.832  1.00  0.00     0.023 A 
ATOM     63  C   UNL A   1      48.329  27.651  27.696  1.00  0.00     0.012 A 
ATOM     64  C   UNL A   1      47.472  27.945  25.439  1.00  0.00     0.148 A 
ATOM     65  C   UNL A   1      49.551  27.215  27.187  1.00  0.00     0.002 A 
ATOM     66  C   UNL A   1      48.675  27.457  24.939  1.00  0.00     0.091 A 
ATOM     67  F   UNL A   1      46.480  28.344  24.629  1.00  0.00    -0.205 F 
ATOM     68  C   UNL A   1      49.720  27.108  25.810  1.00  0.00     0.022 A 
BRANCH  66  69
ATOM     69  S   UNL A   1      48.966  27.199  23.186  1.00  0.00     0.127 S 
ATOM     70  O   UNL A   1      50.422  27.115  23.137  1.00  0.00    -0.237 OA
ATOM     71  O   UNL A   1      48.271  25.936  22.942  1.00  0.00    -0.237 OA
ATOM     72  O   UNL A   1      48.382  28.352  22.509  1.00  0.00    -0.744 OA
ENDBRANCH  66  69
ENDBRANCH  48  62
BRANCH  49  73
ATOM     73  C   UNL A   1      38.549  30.736  30.915  1.00  0.00     0.023 A 
ATOM     74  C   UNL A   1      38.366  30.461  32.284  1.00  0.00     0.012 A 
ATOM     75  C   UNL A   1      37.533  31.408  30.209  1.00  0.00     0.148 A 
ATOM     76  C   UNL A   1      37.180  30.815  32.929  1.00  0.00     0.002 A 
ATOM     77  C   UNL A   1      36.379  31.812  30.870  1.00  0.00     0.091 A 
ATOM     78  F   UNL A   1      37.726  31.658  28.906  1.00  0.00    -0.205 F 
ATOM     79  C   UNL A   1      36.192  31.498  32.226  1.00  0.00     0.022 A 
BRANCH  77  80
ATOM     80  S   UNL A   1      35.117  32.818  30.085  1.00  0.00     0.127 S 
ATOM     81  O   UNL A   1      35.907  33.918  29.540  1.00  0.00    -0.237 OA
ATOM     82  O   UNL A   1      34.571  31.895  29.091  1.00  0.00    -0.237 OA
ATOM     83  O   UNL A   1      34.182  33.177  31.147  1.00  0.00    -0.744 OA
ENDBRANCH  77  80
ENDBRANCH  49  73
BRANCH  61  84
ATOM     84  C   UNL A   1      44.509  34.122  29.593  1.00  0.00     0.023 A 
ATOM     85  C   UNL A   1      45.101  34.500  30.814  1.00  0.00     0.012 A 
ATOM     86  C   UNL A   1      44.362  35.079  28.570  1.00  0.00     0.148 A 
ATOM     87  C   UNL A   1      45.492  35.821  31.033  1.00  0.00     0.002 A 
ATOM     88  C   UNL A   1      44.805  36.379  28.774  1.00  0.00     0.091 A 
ATOM     89  F   UNL A   1      43.779  34.705  27.422  1.00  0.00    -0.205 F 
ATOM     90  C   UNL A   1      45.353  36.757  30.010  1.00  0.00     0.022 A 
BRANCH  88  91
ATOM     91  S   UNL A   1      44.760  37.619  27.477  1.00  0.00     0.127 S 
ATOM     92  O   UNL A   1      45.279  38.796  28.171  1.00  0.00    -0.237 OA
ATOM     93  O   UNL A   1      45.663  37.054  26.474  1.00  0.00    -0.237 OA
ATOM     94  O   UNL A   1      43.369  37.703  27.053  1.00  0.00    -0.744 OA
ENDBRANCH  88  91
ENDBRANCH  61  84
ENDBRANCH  35  36
ENDBRANCH  27  30
ENDBRANCH  25  26
ENDBRANCH   1  25
TORSDOF 15
ENDMDL
MODEL 3
REMARK VINA RESULT:     -12.4      4.849      9.343
REMARK SMILES CC(=O)Nc1cccc(-c2cc(F)ccc2C(=O)NCCCNC(=O)c2ccc(-c3c4nc(c(-c5cccc(S(=O)(=O)[O-])c5F)c5ccc([nH]5)c(-c5cccc(S(=O)(=O)[O-])c5F)c5nc(c(-c6cccc(S(=O)(=O)[O-])c6F)c6ccc3[nH]6)C=C5)C=C4)cc2)c1
REMARK SMILES IDX 21 1 20 2 19 3 17 4 18 5 16 7 10 8 11 9 12 10 15 11 13 12
REMARK SMILES IDX 14 13 9 14 5 15 6 16 89 17 7 18 8 19 4 20 1 21 2 22 3 23
REMARK SMILES IDX 22 25 23 26 24 27 25 29 26 30 27 31 88 32 28 33 87 34 29 35
REMARK SMILES IDX 30 36 31 37 81 38 32 39 86 40 80 41 82 42 33 43 85 44 79 45
REMARK SMILES IDX 78 46 34 48 66 49 46 50 65 51 47 52 50 53 64 54 83 55 48 56
REMARK SMILES IDX 49 57 63 59 84 60 51 61 35 62 36 63 44 64 37 65 39 66 45 67
REMARK SMILES IDX 38 68 40 69 41 70 42 71 43 72 67 73 68 74 76 75 69 76 71 77
REMARK SMILES IDX 77 78 70 79 72 80 73 81 74 82 75 83 52 84 53 85 61 86 54 87
REMARK SMILES IDX 56 88 62 89 55 90 57 91 58 92 59 93 60 94
REMARK H PARENT 19 6 4 24 23 28 82 47 50 58
REMARK Flexibility Score: inf
ROOT
ATOM      1  C   UNL A   1      35.949  22.287  24.199  1.00  0.00     0.042 C 
ENDROOT
BRANCH   1   2
ATOM      2  C   UNL A   1      35.386  23.677  24.045  1.00  0.00     0.118 C 
BRANCH   2   3
ATOM      3  N   UNL A   1      34.430  23.949  23.019  1.00  0.00    -0.352 N 
ATOM      4  C   UNL A   1      33.734  25.120  22.815  1.00  0.00     0.251 C 
ATOM      5  O   UNL A   1      33.185  25.233  21.712  1.00  0.00    -0.269 OA
ATOM      6  H   UNL A   1      34.247  23.216  22.387  1.00  0.00     0.163 HD
BRANCH   4   7
ATOM      7  C   UNL A   1      33.488  26.211  23.840  1.00  0.00     0.047 A 
ATOM      8  C   UNL A   1      32.872  26.185  25.129  1.00  0.00    -0.003 A 
ATOM      9  C   UNL A   1      32.834  27.395  25.871  1.00  0.00     0.048 A 
ATOM     10  C   UNL A   1      33.373  28.579  25.384  1.00  0.00     0.123 A 
ATOM     11  C   UNL A   1      34.027  27.447  23.387  1.00  0.00     0.017 A 
ATOM     12  F   UNL A   1      33.310  29.691  26.128  1.00  0.00    -0.207 F 
ATOM     13  C   UNL A   1      33.972  28.617  24.144  1.00  0.00     0.040 A 
BRANCH   8  14
ATOM     14  C   UNL A   1      32.212  25.036  25.791  1.00  0.00    -0.015 A 
ATOM     15  C   UNL A   1      32.161  22.675  26.418  1.00  0.00     0.041 A 
ATOM     16  C   UNL A   1      30.779  22.766  26.629  1.00  0.00     0.026 A 
ATOM     17  C   UNL A   1      32.879  23.826  26.043  1.00  0.00     0.034 A 
ATOM     18  C   UNL A   1      30.120  23.985  26.499  1.00  0.00     0.003 A 
ATOM     19  C   UNL A   1      30.831  25.112  26.088  1.00  0.00     0.009 A 
BRANCH  15  20
ATOM     20  N   UNL A   1      32.708  21.377  26.382  1.00  0.00    -0.326 N 
ATOM     21  C   UNL A   1      32.569  20.858  23.958  1.00  0.00     0.114 C 
ATOM     22  C   UNL A   1      32.739  20.439  25.392  1.00  0.00     0.221 C 
ATOM     23  O   UNL A   1      32.950  19.257  25.667  1.00  0.00    -0.275 OA
ATOM     24  H   UNL A   1      33.146  21.098  27.218  1.00  0.00     0.169 HD
ENDBRANCH  15  20
ENDBRANCH   8  14
ENDBRANCH   4   7
ENDBRANCH   2   3
ENDBRANCH   1   2
BRANCH   1  25
ATOM     25  C   UNL A   1      36.291  21.874  25.622  1.00  0.00     0.118 C 
BRANCH  25  26
ATOM     26  N   UNL A   1      37.460  20.996  25.742  1.00  0.00    -0.352 N 
ATOM     27  C   UNL A   1      38.794  21.207  26.008  1.00  0.00     0.251 C 
ATOM     28  H   UNL A   1      37.242  20.046  25.602  1.00  0.00     0.163 HD
ATOM     29  O   UNL A   1      39.577  20.281  25.786  1.00  0.00    -0.269 OA
BRANCH  27  30
ATOM     30  C   UNL A   1      39.326  22.505  26.490  1.00  0.00     0.039 A 
ATOM     31  C   UNL A   1      40.395  22.515  27.398  1.00  0.00     0.014 A 
ATOM     32  C   UNL A   1      38.788  23.721  26.089  1.00  0.00     0.014 A 
ATOM     33  C   UNL A   1      40.963  23.729  27.807  1.00  0.00     0.010 A 
ATOM     34  C   UNL A   1      39.463  24.906  26.343  1.00  0.00     0.010 A 
ATOM     35  C   UNL A   1      40.536  24.936  27.236  1.00  0.00    -0.014 A 
BRANCH  35  36
ATOM     36  C   UNL A   1      41.153  26.245  27.574  1.00  0.00     0.031 A 
ATOM     37  C   UNL A   1      42.580  26.536  27.172  1.00  0.00     0.074 A 
ATOM     38  C   UNL A   1      40.475  27.125  28.337  1.00  0.00     0.049 A 
ATOM     39  N   UNL A   1      43.330  27.565  27.470  1.00  0.00    -0.248 NA
ATOM     40  C   UNL A   1      43.276  25.510  26.373  1.00  0.00     0.031 C 
ATOM     41  C   UNL A   1      39.131  26.917  28.884  1.00  0.00     0.029 A 
ATOM     42  N   UNL A   1      40.834  28.363  28.809  1.00  0.00    -0.354 N 
ATOM     43  C   UNL A   1      44.587  27.284  26.945  1.00  0.00     0.074 A 
ATOM     44  C   UNL A   1      44.519  25.962  26.371  1.00  0.00     0.031 C 
ATOM     45  C   UNL A   1      38.772  27.996  29.597  1.00  0.00     0.029 A 
ATOM     46  C   UNL A   1      39.871  28.954  29.593  1.00  0.00     0.049 A 
ATOM     47  H   UNL A   1      41.698  28.787  28.605  1.00  0.00     0.167 HD
ATOM     48  C   UNL A   1      45.688  28.071  26.898  1.00  0.00     0.034 A 
ATOM     49  C   UNL A   1      39.874  30.135  30.240  1.00  0.00     0.034 A 
ATOM     50  C   UNL A   1      45.730  29.410  27.417  1.00  0.00     0.049 A 
ATOM     51  C   UNL A   1      41.077  31.028  30.106  1.00  0.00     0.074 A 
ATOM     52  C   UNL A   1      46.759  30.332  27.347  1.00  0.00     0.029 A 
ATOM     53  N   UNL A   1      44.690  30.022  28.100  1.00  0.00    -0.354 N 
ATOM     54  N   UNL A   1      42.207  30.802  29.481  1.00  0.00    -0.248 NA
ATOM     55  C   UNL A   1      40.986  32.357  30.725  1.00  0.00     0.031 C 
ATOM     56  C   UNL A   1      46.349  31.494  28.009  1.00  0.00     0.029 A 
ATOM     57  C   UNL A   1      45.049  31.310  28.455  1.00  0.00     0.049 A 
ATOM     58  H   UNL A   1      43.823  29.603  28.301  1.00  0.00     0.167 HD
ATOM     59  C   UNL A   1      42.948  31.971  29.599  1.00  0.00     0.074 A 
ATOM     60  C   UNL A   1      42.125  32.911  30.333  1.00  0.00     0.031 C 
ATOM     61  C   UNL A   1      44.199  32.242  29.151  1.00  0.00     0.034 A 
BRANCH  48  62
ATOM     62  C   UNL A   1      46.912  27.518  26.210  1.00  0.00     0.023 A 
ATOM     63  C   UNL A   1      47.097  27.736  24.827  1.00  0.00     0.012 A 
ATOM     64  C   UNL A   1      47.892  26.803  26.928  1.00  0.00     0.148 A 
ATOM     65  C   UNL A   1      48.204  27.210  24.162  1.00  0.00     0.002 A 
ATOM     66  C   UNL A   1      49.021  26.329  26.268  1.00  0.00     0.091 A 
ATOM     67  F   UNL A   1      47.695  26.585  28.236  1.00  0.00    -0.205 F 
ATOM     68  C   UNL A   1      49.170  26.516  24.884  1.00  0.00     0.022 A 
BRANCH  66  69
ATOM     69  S   UNL A   1      50.366  25.497  27.119  1.00  0.00     0.127 S 
ATOM     70  O   UNL A   1      51.310  25.270  26.028  1.00  0.00    -0.237 OA
ATOM     71  O   UNL A   1      50.785  26.507  28.090  1.00  0.00    -0.237 OA
ATOM     72  O   UNL A   1      49.787  24.294  27.706  1.00  0.00    -0.744 OA
ENDBRANCH  66  69
ENDBRANCH  48  62
BRANCH  49  73
ATOM     73  C   UNL A   1      38.671  30.566  31.006  1.00  0.00     0.023 A 
ATOM     74  C   UNL A   1      38.610  30.332  32.394  1.00  0.00     0.012 A 
ATOM     75  C   UNL A   1      37.610  31.245  30.377  1.00  0.00     0.148 A 
ATOM     76  C   UNL A   1      37.497  30.733  33.135  1.00  0.00     0.002 A 
ATOM     77  C   UNL A   1      36.532  31.695  31.131  1.00  0.00     0.091 A 
ATOM     78  F   UNL A   1      37.687  31.455  29.056  1.00  0.00    -0.205 F 
ATOM     79  C   UNL A   1      36.464  31.423  32.506  1.00  0.00     0.022 A 
BRANCH  77  80
ATOM     80  S   UNL A   1      35.226  32.712  30.436  1.00  0.00     0.127 S 
ATOM     81  O   UNL A   1      34.756  31.883  29.332  1.00  0.00    -0.237 OA
ATOM     82  O   UNL A   1      34.301  32.826  31.563  1.00  0.00    -0.237 OA
ATOM     83  O   UNL A   1      35.865  33.968  30.056  1.00  0.00    -0.744 OA
ENDBRANCH  77  80
ENDBRANCH  49  73
BRANCH  61  84
ATOM     84  C   UNL A   1      44.736  33.628  29.400  1.00  0.00     0.023 A 
ATOM     85  C   UNL A   1      45.345  33.940  30.631  1.00  0.00     0.012 A 
ATOM     86  C   UNL A   1      44.672  34.608  28.391  1.00  0.00     0.148 A 
ATOM     87  C   UNL A   1      45.836  35.223  30.873  1.00  0.00     0.002 A 
ATOM     88  C   UNL A   1      45.213  35.867  28.618  1.00  0.00     0.091 A 
ATOM     89  F   UNL A   1      44.072  34.298  27.233  1.00  0.00    -0.205 F 
ATOM     90  C   UNL A   1      45.778  36.182  29.864  1.00  0.00     0.022 A 
BRANCH  88  91
ATOM     91  S   UNL A   1      45.274  37.126  27.340  1.00  0.00     0.127 S 
ATOM     92  O   UNL A   1      45.926  36.409  26.246  1.00  0.00    -0.237 OA
ATOM     93  O   UNL A   1      43.857  37.418  27.121  1.00  0.00    -0.237 OA
ATOM     94  O   UNL A   1      46.035  38.232  27.907  1.00  0.00    -0.744 OA
ENDBRANCH  88  91
ENDBRANCH  61  84
ENDBRANCH  35  36
ENDBRANCH  27  30
ENDBRANCH  25  26
ENDBRANCH   1  25
TORSDOF 15
ENDMDL
