MODEL 1
REMARK VINA RESULT:     -13.9      0.000      0.000
REMARK SMILES O=C(NCCCNC(=O)C1(n2cnc3ccccc32)CC[NH+](Cc2cccc3nonc23)CC1)c1ccc(-c2c3nc(c(-c4cccc(S(=O)(=O)[O-])c4F)c4ccc([nH]4)c(-c4cccc(S(=O)(=O)[O-])c4F)c4nc(c(-c5cccc(S(=O)(=O)[O-])c5F)c5ccc2[nH]5)C=C4)C=C3)cc1
REMARK SMILES IDX 4 1 3 2 1 3 2 4 35 6 36 7 97 8 37 9 96 10 38 11 39 12 40 13
REMARK SMILES IDX 90 14 41 15 95 16 89 17 91 18 42 19 94 20 88 21 87 22 43 24
REMARK SMILES IDX 75 25 55 26 74 27 56 28 59 29 73 30 92 31 57 32 58 33 72 35
REMARK SMILES IDX 93 36 60 37 44 38 45 39 53 40 46 41 48 42 54 43 47 44 49 45
REMARK SMILES IDX 50 46 51 47 52 48 76 49 77 50 85 51 78 52 80 53 86 54 79 55
REMARK SMILES IDX 81 56 82 57 83 58 84 59 61 60 62 61 70 62 63 63 65 64 71 65
REMARK SMILES IDX 64 66 66 67 67 68 68 69 69 70 5 71 6 72 7 73 8 74 9 76 10 77
REMARK SMILES IDX 20 78 34 79 21 80 33 81 22 82 11 84 12 85 19 86 13 87 14 88
REMARK SMILES IDX 18 89 15 90 17 91 16 92 23 93 24 94 25 95 32 96 26 97 28 98
REMARK SMILES IDX 31 99 27 100 29 101 30 102
REMARK H PARENT 3 5 91 23 59 34 7 75 22 83
REMARK Flexibility Score: inf
ROOT
ATOM      1  C   UNL A   1      38.848  20.096  25.840  1.00  0.00     0.118 C 
ENDROOT
BRANCH   1   2
ATOM      2  N   UNL A   1      39.974  19.166  25.834  1.00  0.00    -0.352 N 
ATOM      3  O   UNL A   1      42.182  18.612  25.819  1.00  0.00    -0.269 OA
ATOM      4  C   UNL A   1      41.329  19.457  26.021  1.00  0.00     0.251 C 
ATOM      5  H   UNL A   1      39.752  18.219  25.678  1.00  0.00     0.163 HD
BRANCH   4   6
ATOM      6  C   UNL A   1      41.711  20.815  26.478  1.00  0.00     0.039 A 
ATOM      7  C   UNL A   1      42.511  21.720  25.774  1.00  0.00     0.014 A 
ATOM      8  C   UNL A   1      41.258  21.199  27.716  1.00  0.00     0.014 A 
ATOM      9  C   UNL A   1      42.797  22.947  26.387  1.00  0.00     0.010 A 
ATOM     10  C   UNL A   1      41.026  22.514  27.890  1.00  0.00     0.010 A 
ATOM     11  C   UNL A   1      42.069  23.299  27.526  1.00  0.00    -0.014 A 
BRANCH  11  12
ATOM     12  C   UNL A   1      42.230  24.471  28.355  1.00  0.00     0.031 A 
ATOM     13  C   UNL A   1      41.117  25.420  28.230  1.00  0.00     0.074 A 
ATOM     14  C   UNL A   1      43.205  24.588  29.290  1.00  0.00     0.049 A 
ATOM     15  N   UNL A   1      41.104  26.480  27.497  1.00  0.00    -0.248 NA
ATOM     16  C   UNL A   1      39.809  25.046  28.784  1.00  0.00     0.031 C 
ATOM     17  C   UNL A   1      44.184  23.598  29.776  1.00  0.00     0.029 A 
ATOM     18  N   UNL A   1      43.453  25.644  30.103  1.00  0.00    -0.354 N 
ATOM     19  C   UNL A   1      39.866  27.055  27.725  1.00  0.00     0.074 A 
ATOM     20  C   UNL A   1      39.041  26.031  28.314  1.00  0.00     0.031 C 
ATOM     21  C   UNL A   1      44.729  24.022  30.940  1.00  0.00     0.029 A 
ATOM     22  C   UNL A   1      44.279  25.375  31.190  1.00  0.00     0.049 A 
ATOM     23  H   UNL A   1      43.077  26.537  29.936  1.00  0.00     0.167 HD
ATOM     24  C   UNL A   1      39.705  28.403  27.673  1.00  0.00     0.034 A 
ATOM     25  C   UNL A   1      44.515  26.213  32.231  1.00  0.00     0.034 A 
ATOM     26  C   UNL A   1      40.865  29.062  27.130  1.00  0.00     0.049 A 
ATOM     27  C   UNL A   1      44.214  27.579  31.725  1.00  0.00     0.074 A 
ATOM     28  C   UNL A   1      41.553  28.974  25.935  1.00  0.00     0.029 A 
ATOM     29  N   UNL A   1      41.751  29.600  28.038  1.00  0.00    -0.354 N 
ATOM     30  N   UNL A   1      44.885  28.149  30.761  1.00  0.00    -0.248 NA
ATOM     31  C   UNL A   1      42.875  28.102  31.953  1.00  0.00     0.031 C 
ATOM     32  C   UNL A   1      42.931  28.993  26.305  1.00  0.00     0.029 A 
ATOM     33  C   UNL A   1      43.008  29.176  27.689  1.00  0.00     0.049 A 
ATOM     34  H   UNL A   1      41.523  30.182  28.799  1.00  0.00     0.167 HD
ATOM     35  C   UNL A   1      43.913  28.765  29.980  1.00  0.00     0.074 A 
ATOM     36  C   UNL A   1      42.709  28.778  30.812  1.00  0.00     0.031 C 
ATOM     37  C   UNL A   1      44.078  28.933  28.635  1.00  0.00     0.034 A 
BRANCH  24  38
ATOM     38  C   UNL A   1      38.663  29.138  28.454  1.00  0.00     0.023 A 
ATOM     39  C   UNL A   1      37.839  30.047  27.766  1.00  0.00     0.012 A 
ATOM     40  C   UNL A   1      38.618  29.144  29.866  1.00  0.00     0.148 A 
ATOM     41  C   UNL A   1      36.997  30.923  28.459  1.00  0.00     0.002 A 
ATOM     42  C   UNL A   1      37.726  29.960  30.546  1.00  0.00     0.091 A 
ATOM     43  F   UNL A   1      39.532  28.456  30.560  1.00  0.00    -0.205 F 
ATOM     44  C   UNL A   1      36.927  30.867  29.847  1.00  0.00     0.022 A 
BRANCH  42  45
ATOM     45  S   UNL A   1      37.579  29.899  32.334  1.00  0.00     0.127 S 
ATOM     46  O   UNL A   1      38.892  30.381  32.751  1.00  0.00    -0.237 OA
ATOM     47  O   UNL A   1      36.472  30.825  32.574  1.00  0.00    -0.237 OA
ATOM     48  O   UNL A   1      37.274  28.509  32.647  1.00  0.00    -0.744 OA
ENDBRANCH  42  45
ENDBRANCH  24  38
BRANCH  25  49
ATOM     49  C   UNL A   1      44.615  25.908  33.684  1.00  0.00     0.023 A 
ATOM     50  C   UNL A   1      45.890  25.897  34.291  1.00  0.00     0.012 A 
ATOM     51  C   UNL A   1      43.483  25.934  34.534  1.00  0.00     0.148 A 
ATOM     52  C   UNL A   1      46.035  25.987  35.682  1.00  0.00     0.002 A 
ATOM     53  C   UNL A   1      43.632  26.012  35.918  1.00  0.00     0.091 A 
ATOM     54  F   UNL A   1      42.261  25.975  33.988  1.00  0.00    -0.205 F 
ATOM     55  C   UNL A   1      44.907  26.061  36.493  1.00  0.00     0.022 A 
BRANCH  53  56
ATOM     56  S   UNL A   1      42.220  26.115  37.029  1.00  0.00     0.127 S 
ATOM     57  O   UNL A   1      41.495  27.269  36.496  1.00  0.00    -0.237 OA
ATOM     58  O   UNL A   1      41.566  24.829  36.814  1.00  0.00    -0.237 OA
ATOM     59  O   UNL A   1      42.776  26.328  38.361  1.00  0.00    -0.744 OA
ENDBRANCH  53  56
ENDBRANCH  25  49
BRANCH  37  60
ATOM     60  C   UNL A   1      45.427  28.619  28.036  1.00  0.00     0.023 A 
ATOM     61  C   UNL A   1      46.528  29.496  28.143  1.00  0.00     0.012 A 
ATOM     62  C   UNL A   1      45.640  27.321  27.545  1.00  0.00     0.148 A 
ATOM     63  C   UNL A   1      47.813  29.084  27.770  1.00  0.00     0.002 A 
ATOM     64  C   UNL A   1      46.921  26.904  27.207  1.00  0.00     0.091 A 
ATOM     65  F   UNL A   1      44.583  26.499  27.467  1.00  0.00    -0.205 F 
ATOM     66  C   UNL A   1      48.011  27.783  27.315  1.00  0.00     0.022 A 
BRANCH  64  67
ATOM     67  S   UNL A   1      47.264  25.216  26.710  1.00  0.00     0.127 S 
ATOM     68  O   UNL A   1      46.840  24.460  27.888  1.00  0.00    -0.237 OA
ATOM     69  O   UNL A   1      46.401  25.057  25.538  1.00  0.00    -0.237 OA
ATOM     70  O   UNL A   1      48.690  25.158  26.416  1.00  0.00    -0.744 OA
ENDBRANCH  64  67
ENDBRANCH  37  60
ENDBRANCH  11  12
ENDBRANCH   4   6
ENDBRANCH   1   2
BRANCH   1  71
ATOM     71  C   UNL A   1      37.739  19.817  24.859  1.00  0.00     0.042 C 
BRANCH  71  72
ATOM     72  C   UNL A   1      36.750  20.942  24.599  1.00  0.00     0.117 C 
BRANCH  72  73
ATOM     73  N   UNL A   1      36.012  21.281  25.802  1.00  0.00    -0.354 N 
ATOM     74  C   UNL A   1      34.926  22.068  26.012  1.00  0.00     0.246 C 
ATOM     75  H   UNL A   1      36.367  20.862  26.619  1.00  0.00     0.163 HD
ATOM     76  O   UNL A   1      34.955  22.574  27.143  1.00  0.00    -0.272 OA
BRANCH  74  77
ATOM     77  C   UNL A   1      33.658  22.199  25.094  1.00  0.00     0.135 C 
ATOM     78  C   UNL A   1      34.084  22.970  23.806  1.00  0.00     0.101 C 
ATOM     79  C   UNL A   1      32.632  23.115  25.816  1.00  0.00     0.101 C 
ATOM     80  C   UNL A   1      34.473  24.461  24.060  1.00  0.00     0.265 C 
ATOM     81  C   UNL A   1      33.113  24.513  26.092  1.00  0.00     0.265 C 
ATOM     82  N   UNL A   1      33.490  25.203  24.864  1.00  0.00    -0.331 N 
ATOM     83  H   UNL A   1      32.655  25.238  24.279  1.00  0.00     0.348 HD
BRANCH  77  84
ATOM     84  N   UNL A   1      32.962  20.906  24.793  1.00  0.00    -0.315 N 
ATOM     85  C   UNL A   1      32.850  19.870  25.707  1.00  0.00     0.201 A 
ATOM     86  C   UNL A   1      32.473  20.380  23.608  1.00  0.00     0.069 A 
ATOM     87  N   UNL A   1      32.733  18.700  25.134  1.00  0.00    -0.237 NA
ATOM     88  C   UNL A   1      32.507  18.994  23.828  1.00  0.00     0.088 A 
ATOM     89  C   UNL A   1      32.100  20.897  22.358  1.00  0.00     0.028 A 
ATOM     90  C   UNL A   1      32.339  18.089  22.772  1.00  0.00     0.030 A 
ATOM     91  C   UNL A   1      31.900  19.967  21.315  1.00  0.00     0.002 A 
ATOM     92  C   UNL A   1      32.055  18.591  21.506  1.00  0.00     0.002 A 
ENDBRANCH  77  84
BRANCH  82  93
ATOM     93  C   UNL A   1      33.879  26.615  25.125  1.00  0.00     0.301 C 
BRANCH  93  94
ATOM     94  C   UNL A   1      32.886  27.657  24.654  1.00  0.00     0.038 A 
ATOM     95  C   UNL A   1      32.535  28.771  25.461  1.00  0.00     0.012 A 
ATOM     96  C   UNL A   1      32.069  27.525  23.500  1.00  0.00     0.144 A 
ATOM     97  C   UNL A   1      31.446  29.640  25.183  1.00  0.00     0.003 A 
ATOM     98  C   UNL A   1      30.949  28.420  23.222  1.00  0.00     0.135 A 
ATOM     99  N   UNL A   1      32.096  26.595  22.532  1.00  0.00    -0.049 NA
ATOM    100  C   UNL A   1      30.608  29.492  24.063  1.00  0.00     0.034 A 
ATOM    101  N   UNL A   1      30.345  28.009  22.099  1.00  0.00    -0.050 NA
ATOM    102  O   UNL A   1      31.052  26.897  21.678  1.00  0.00    -0.243 OA
ENDBRANCH  93  94
ENDBRANCH  82  93
ENDBRANCH  74  77
ENDBRANCH  72  73
ENDBRANCH  71  72
ENDBRANCH   1  71
TORSDOF 16
ENDMDL
MODEL 2
REMARK VINA RESULT:     -13.8      3.034      8.171
REMARK SMILES O=C(NCCCNC(=O)C1(n2cnc3ccccc32)CC[NH+](Cc2cccc3nonc23)CC1)c1ccc(-c2c3nc(c(-c4cccc(S(=O)(=O)[O-])c4F)c4ccc([nH]4)c(-c4cccc(S(=O)(=O)[O-])c4F)c4nc(c(-c5cccc(S(=O)(=O)[O-])c5F)c5ccc2[nH]5)C=C4)C=C3)cc1
REMARK SMILES IDX 4 1 3 2 1 3 2 4 35 6 36 7 97 8 37 9 96 10 38 11 39 12 40 13
REMARK SMILES IDX 90 14 41 15 95 16 89 17 91 18 42 19 94 20 88 21 87 22 43 24
REMARK SMILES IDX 75 25 55 26 74 27 56 28 59 29 73 30 92 31 57 32 58 33 72 35
REMARK SMILES IDX 93 36 60 37 44 38 45 39 53 40 46 41 48 42 54 43 47 44 49 45
REMARK SMILES IDX 50 46 51 47 52 48 76 49 77 50 85 51 78 52 80 53 86 54 79 55
REMARK SMILES IDX 81 56 82 57 83 58 84 59 61 60 62 61 70 62 63 63 65 64 71 65
REMARK SMILES IDX 64 66 66 67 67 68 68 69 69 70 5 71 6 72 7 73 8 74 9 76 10 77
REMARK SMILES IDX 20 78 34 79 21 80 33 81 22 82 11 84 12 85 19 86 13 87 14 88
REMARK SMILES IDX 18 89 15 90 17 91 16 92 23 93 24 94 25 95 32 96 26 97 28 98
REMARK SMILES IDX 31 99 27 100 29 101 30 102
REMARK H PARENT 3 5 91 23 59 34 7 75 22 83
REMARK Flexibility Score: inf
ROOT
ATOM      1  C   UNL A   1      34.657  30.830  27.566  1.00  0.00     0.118 C 
ENDROOT
BRANCH   1   2
ATOM      2  N   UNL A   1      34.361  31.570  28.790  1.00  0.00    -0.352 N 
ATOM      3  O   UNL A   1      34.750  32.243  30.929  1.00  0.00    -0.269 OA
ATOM      4  C   UNL A   1      35.186  31.751  29.905  1.00  0.00     0.251 C 
ATOM      5  H   UNL A   1      33.472  31.991  28.836  1.00  0.00     0.163 HD
BRANCH   4   6
ATOM      6  C   UNL A   1      36.608  31.338  29.815  1.00  0.00     0.039 A 
ATOM      7  C   UNL A   1      37.701  32.198  29.671  1.00  0.00     0.014 A 
ATOM      8  C   UNL A   1      36.862  29.989  29.847  1.00  0.00     0.014 A 
ATOM      9  C   UNL A   1      38.973  31.619  29.564  1.00  0.00     0.010 A 
ATOM     10  C   UNL A   1      38.036  29.611  30.386  1.00  0.00     0.010 A 
ATOM     11  C   UNL A   1      39.104  30.261  29.864  1.00  0.00    -0.014 A 
BRANCH  11  12
ATOM     12  C   UNL A   1      40.290  29.441  29.764  1.00  0.00     0.031 A 
ATOM     13  C   UNL A   1      40.866  29.104  31.072  1.00  0.00     0.074 A 
ATOM     14  C   UNL A   1      40.710  28.886  28.600  1.00  0.00     0.049 A 
ATOM     15  N   UNL A   1      41.858  29.698  31.639  1.00  0.00    -0.248 NA
ATOM     16  C   UNL A   1      40.135  28.172  31.941  1.00  0.00     0.031 C 
ATOM     17  C   UNL A   1      40.063  28.844  27.275  1.00  0.00     0.029 A 
ATOM     18  N   UNL A   1      41.809  28.120  28.395  1.00  0.00    -0.354 N 
ATOM     19  C   UNL A   1      42.048  29.018  32.828  1.00  0.00     0.074 A 
ATOM     20  C   UNL A   1      40.839  28.271  33.071  1.00  0.00     0.031 C 
ATOM     21  C   UNL A   1      40.655  27.902  26.504  1.00  0.00     0.029 A 
ATOM     22  C   UNL A   1      41.820  27.403  27.203  1.00  0.00     0.049 A 
ATOM     23  H   UNL A   1      42.549  28.076  29.043  1.00  0.00     0.167 HD
ATOM     24  C   UNL A   1      43.287  28.900  33.373  1.00  0.00     0.034 A 
ATOM     25  C   UNL A   1      42.713  26.438  26.868  1.00  0.00     0.034 A 
ATOM     26  C   UNL A   1      44.247  29.748  32.712  1.00  0.00     0.049 A 
ATOM     27  C   UNL A   1      43.919  26.698  27.700  1.00  0.00     0.074 A 
ATOM     28  C   UNL A   1      44.339  31.108  32.488  1.00  0.00     0.029 A 
ATOM     29  N   UNL A   1      45.042  29.152  31.758  1.00  0.00    -0.354 N 
ATOM     30  N   UNL A   1      44.639  27.781  27.598  1.00  0.00    -0.248 NA
ATOM     31  C   UNL A   1      44.029  25.987  28.966  1.00  0.00     0.031 C 
ATOM     32  C   UNL A   1      44.771  31.226  31.133  1.00  0.00     0.029 A 
ATOM     33  C   UNL A   1      44.999  29.941  30.635  1.00  0.00     0.049 A 
ATOM     34  H   UNL A   1      45.547  28.314  31.861  1.00  0.00     0.167 HD
ATOM     35  C   UNL A   1      44.924  28.133  28.913  1.00  0.00     0.074 A 
ATOM     36  C   UNL A   1      44.600  26.944  29.703  1.00  0.00     0.031 C 
ATOM     37  C   UNL A   1      45.103  29.435  29.281  1.00  0.00     0.034 A 
BRANCH  24  38
ATOM     38  C   UNL A   1      43.699  27.755  34.241  1.00  0.00     0.023 A 
ATOM     39  C   UNL A   1      44.236  28.044  35.509  1.00  0.00     0.012 A 
ATOM     40  C   UNL A   1      43.798  26.427  33.771  1.00  0.00     0.148 A 
ATOM     41  C   UNL A   1      44.840  27.047  36.281  1.00  0.00     0.002 A 
ATOM     42  C   UNL A   1      44.328  25.425  34.571  1.00  0.00     0.091 A 
ATOM     43  F   UNL A   1      43.499  26.152  32.495  1.00  0.00    -0.205 F 
ATOM     44  C   UNL A   1      44.869  25.734  35.820  1.00  0.00     0.022 A 
BRANCH  42  45
ATOM     45  S   UNL A   1      44.358  23.714  34.031  1.00  0.00     0.127 S 
ATOM     46  O   UNL A   1      45.354  23.142  34.933  1.00  0.00    -0.237 OA
ATOM     47  O   UNL A   1      42.979  23.297  34.284  1.00  0.00    -0.237 OA
ATOM     48  O   UNL A   1      44.718  23.761  32.620  1.00  0.00    -0.744 OA
ENDBRANCH  42  45
ENDBRANCH  24  38
BRANCH  25  49
ATOM     49  C   UNL A   1      42.483  25.135  26.186  1.00  0.00     0.023 A 
ATOM     50  C   UNL A   1      43.428  24.689  25.237  1.00  0.00     0.012 A 
ATOM     51  C   UNL A   1      41.539  24.197  26.666  1.00  0.00     0.148 A 
ATOM     52  C   UNL A   1      43.480  23.346  24.839  1.00  0.00     0.002 A 
ATOM     53  C   UNL A   1      41.588  22.864  26.259  1.00  0.00     0.091 A 
ATOM     54  F   UNL A   1      40.650  24.582  27.589  1.00  0.00    -0.205 F 
ATOM     55  C   UNL A   1      42.572  22.431  25.362  1.00  0.00     0.022 A 
BRANCH  53  56
ATOM     56  S   UNL A   1      40.449  21.625  26.896  1.00  0.00     0.127 S 
ATOM     57  O   UNL A   1      40.754  21.636  28.328  1.00  0.00    -0.237 OA
ATOM     58  O   UNL A   1      39.151  22.190  26.542  1.00  0.00    -0.237 OA
ATOM     59  O   UNL A   1      40.800  20.378  26.225  1.00  0.00    -0.744 OA
ENDBRANCH  53  56
ENDBRANCH  25  49
BRANCH  37  60
ATOM     60  C   UNL A   1      45.188  30.481  28.195  1.00  0.00     0.023 A 
ATOM     61  C   UNL A   1      44.043  31.068  27.615  1.00  0.00     0.012 A 
ATOM     62  C   UNL A   1      46.449  31.030  27.912  1.00  0.00     0.148 A 
ATOM     63  C   UNL A   1      44.155  32.181  26.774  1.00  0.00     0.002 A 
ATOM     64  C   UNL A   1      46.554  32.155  27.103  1.00  0.00     0.091 A 
ATOM     65  F   UNL A   1      47.522  30.466  28.487  1.00  0.00    -0.205 F 
ATOM     66  C   UNL A   1      45.410  32.733  26.530  1.00  0.00     0.022 A 
BRANCH  64  67
ATOM     67  S   UNL A   1      48.124  32.976  26.828  1.00  0.00     0.127 S 
ATOM     68  O   UNL A   1      48.402  33.552  28.142  1.00  0.00    -0.237 OA
ATOM     69  O   UNL A   1      48.995  31.859  26.453  1.00  0.00    -0.237 OA
ATOM     70  O   UNL A   1      47.898  33.943  25.762  1.00  0.00    -0.744 OA
ENDBRANCH  64  67
ENDBRANCH  37  60
ENDBRANCH  11  12
ENDBRANCH   4   6
ENDBRANCH   1   2
BRANCH   1  71
ATOM     71  C   UNL A   1      33.675  29.759  27.172  1.00  0.00     0.042 C 
BRANCH  71  72
ATOM     72  C   UNL A   1      32.693  30.098  26.061  1.00  0.00     0.117 C 
BRANCH  72  73
ATOM     73  N   UNL A   1      33.239  29.765  24.759  1.00  0.00    -0.354 N 
ATOM     74  C   UNL A   1      33.253  28.610  24.046  1.00  0.00     0.246 C 
ATOM     75  H   UNL A   1      33.684  30.519  24.307  1.00  0.00     0.163 HD
ATOM     76  O   UNL A   1      34.260  28.544  23.325  1.00  0.00    -0.272 OA
BRANCH  74  77
ATOM     77  C   UNL A   1      32.095  27.556  23.926  1.00  0.00     0.135 C 
ATOM     78  C   UNL A   1      31.726  27.090  25.369  1.00  0.00     0.101 C 
ATOM     79  C   UNL A   1      32.659  26.299  23.207  1.00  0.00     0.101 C 
ATOM     80  C   UNL A   1      32.854  26.274  26.078  1.00  0.00     0.265 C 
ATOM     81  C   UNL A   1      33.793  25.616  23.918  1.00  0.00     0.265 C 
ATOM     82  N   UNL A   1      33.406  25.186  25.256  1.00  0.00    -0.331 N 
ATOM     83  H   UNL A   1      32.632  24.533  25.142  1.00  0.00     0.348 HD
BRANCH  77  84
ATOM     84  N   UNL A   1      30.904  28.016  23.142  1.00  0.00    -0.315 N 
ATOM     85  C   UNL A   1      30.953  29.043  22.212  1.00  0.00     0.201 A 
ATOM     86  C   UNL A   1      29.556  27.716  23.259  1.00  0.00     0.069 A 
ATOM     87  N   UNL A   1      29.803  29.647  22.062  1.00  0.00    -0.237 NA
ATOM     88  C   UNL A   1      28.922  28.844  22.713  1.00  0.00     0.088 A 
ATOM     89  C   UNL A   1      28.804  26.682  23.837  1.00  0.00     0.028 A 
ATOM     90  C   UNL A   1      27.547  29.053  22.880  1.00  0.00     0.030 A 
ATOM     91  C   UNL A   1      27.413  26.896  23.964  1.00  0.00     0.002 A 
ATOM     92  C   UNL A   1      26.800  28.076  23.531  1.00  0.00     0.002 A 
ENDBRANCH  77  84
BRANCH  82  93
ATOM     93  C   UNL A   1      34.498  24.430  25.928  1.00  0.00     0.301 C 
BRANCH  93  94
ATOM     94  C   UNL A   1      34.457  22.928  25.735  1.00  0.00     0.038 A 
ATOM     95  C   UNL A   1      35.625  22.185  25.422  1.00  0.00     0.012 A 
ATOM     96  C   UNL A   1      33.265  22.163  25.634  1.00  0.00     0.144 A 
ATOM     97  C   UNL A   1      35.611  20.829  24.997  1.00  0.00     0.003 A 
ATOM     98  C   UNL A   1      33.258  20.771  25.194  1.00  0.00     0.135 A 
ATOM     99  N   UNL A   1      31.990  22.532  25.836  1.00  0.00    -0.049 NA
ATOM    100  C   UNL A   1      34.432  20.077  24.857  1.00  0.00     0.034 A 
ATOM    101  N   UNL A   1      31.989  20.344  25.151  1.00  0.00    -0.050 NA
ATOM    102  O   UNL A   1      31.218  21.422  25.550  1.00  0.00    -0.243 OA
ENDBRANCH  93  94
ENDBRANCH  82  93
ENDBRANCH  74  77
ENDBRANCH  72  73
ENDBRANCH  71  72
ENDBRANCH   1  71
TORSDOF 16
ENDMDL
MODEL 3
REMARK VINA RESULT:     -13.7      1.687      2.089
REMARK SMILES O=C(NCCCNC(=O)C1(n2cnc3ccccc32)CC[NH+](Cc2cccc3nonc23)CC1)c1ccc(-c2c3nc(c(-c4cccc(S(=O)(=O)[O-])c4F)c4ccc([nH]4)c(-c4cccc(S(=O)(=O)[O-])c4F)c4nc(c(-c5cccc(S(=O)(=O)[O-])c5F)c5ccc2[nH]5)C=C4)C=C3)cc1
REMARK SMILES IDX 4 1 3 2 1 3 2 4 35 6 36 7 97 8 37 9 96 10 38 11 39 12 40 13
REMARK SMILES IDX 90 14 41 15 95 16 89 17 91 18 42 19 94 20 88 21 87 22 43 24
REMARK SMILES IDX 75 25 55 26 74 27 56 28 59 29 73 30 92 31 57 32 58 33 72 35
REMARK SMILES IDX 93 36 60 37 44 38 45 39 53 40 46 41 48 42 54 43 47 44 49 45
REMARK SMILES IDX 50 46 51 47 52 48 76 49 77 50 85 51 78 52 80 53 86 54 79 55
REMARK SMILES IDX 81 56 82 57 83 58 84 59 61 60 62 61 70 62 63 63 65 64 71 65
REMARK SMILES IDX 64 66 66 67 67 68 68 69 69 70 5 71 6 72 7 73 8 74 9 76 10 77
REMARK SMILES IDX 20 78 34 79 21 80 33 81 22 82 11 84 12 85 19 86 13 87 14 88
REMARK SMILES IDX 18 89 15 90 17 91 16 92 23 93 24 94 25 95 32 96 26 97 28 98
REMARK SMILES IDX 31 99 27 100 29 101 30 102
REMARK H PARENT 3 5 91 23 59 34 7 75 22 83
REMARK Flexibility Score: inf
ROOT
ATOM      1  C   UNL A   1      38.872  19.952  25.879  1.00  0.00     0.118 C 
ENDROOT
BRANCH   1   2
ATOM      2  N   UNL A   1      40.024  19.059  25.776  1.00  0.00    -0.352 N 
ATOM      3  O   UNL A   1      42.243  18.577  25.624  1.00  0.00    -0.269 OA
ATOM      4  C   UNL A   1      41.377  19.385  25.904  1.00  0.00     0.251 C 
ATOM      5  H   UNL A   1      39.822  18.112  25.595  1.00  0.00     0.163 HD
BRANCH   4   6
ATOM      6  C   UNL A   1      41.742  20.737  26.395  1.00  0.00     0.039 A 
ATOM      7  C   UNL A   1      42.518  21.674  25.708  1.00  0.00     0.014 A 
ATOM      8  C   UNL A   1      41.299  21.078  27.649  1.00  0.00     0.014 A 
ATOM      9  C   UNL A   1      42.792  22.889  26.352  1.00  0.00     0.010 A 
ATOM     10  C   UNL A   1      41.048  22.382  27.864  1.00  0.00     0.010 A 
ATOM     11  C   UNL A   1      42.072  23.195  27.509  1.00  0.00    -0.014 A 
BRANCH  11  12
ATOM     12  C   UNL A   1      42.225  24.346  28.370  1.00  0.00     0.031 A 
ATOM     13  C   UNL A   1      41.127  25.312  28.236  1.00  0.00     0.074 A 
ATOM     14  C   UNL A   1      43.175  24.429  29.333  1.00  0.00     0.049 A 
ATOM     15  N   UNL A   1      41.147  26.388  27.528  1.00  0.00    -0.248 NA
ATOM     16  C   UNL A   1      39.799  24.941  28.746  1.00  0.00     0.031 C 
ATOM     17  C   UNL A   1      44.128  23.416  29.823  1.00  0.00     0.029 A 
ATOM     18  N   UNL A   1      43.413  25.463  30.177  1.00  0.00    -0.354 N 
ATOM     19  C   UNL A   1      39.910  26.973  27.735  1.00  0.00     0.074 A 
ATOM     20  C   UNL A   1      39.057  25.946  28.278  1.00  0.00     0.031 C 
ATOM     21  C   UNL A   1      44.646  23.807  31.010  1.00  0.00     0.029 A 
ATOM     22  C   UNL A   1      44.205  25.159  31.280  1.00  0.00     0.049 A 
ATOM     23  H   UNL A   1      43.053  26.365  30.021  1.00  0.00     0.167 HD
ATOM     24  C   UNL A   1      39.767  28.324  27.711  1.00  0.00     0.034 A 
ATOM     25  C   UNL A   1      44.422  25.969  32.346  1.00  0.00     0.034 A 
ATOM     26  C   UNL A   1      40.949  28.981  27.215  1.00  0.00     0.049 A 
ATOM     27  C   UNL A   1      44.153  27.351  31.864  1.00  0.00     0.074 A 
ATOM     28  C   UNL A   1      41.669  28.911  26.037  1.00  0.00     0.029 A 
ATOM     29  N   UNL A   1      41.816  29.487  28.159  1.00  0.00    -0.354 N 
ATOM     30  N   UNL A   1      44.856  27.934  30.932  1.00  0.00    -0.248 NA
ATOM     31  C   UNL A   1      42.814  27.885  32.068  1.00  0.00     0.031 C 
ATOM     32  C   UNL A   1      43.036  28.904  26.446  1.00  0.00     0.029 A 
ATOM     33  C   UNL A   1      43.077  29.054  27.834  1.00  0.00     0.049 A 
ATOM     34  H   UNL A   1      41.575  30.054  28.927  1.00  0.00     0.167 HD
ATOM     35  C   UNL A   1      43.914  28.580  30.140  1.00  0.00     0.074 A 
ATOM     36  C   UNL A   1      42.687  28.589  30.939  1.00  0.00     0.031 C 
ATOM     37  C   UNL A   1      44.117  28.777  28.804  1.00  0.00     0.034 A 
BRANCH  24  38
ATOM     38  C   UNL A   1      38.712  29.054  28.480  1.00  0.00     0.023 A 
ATOM     39  C   UNL A   1      37.891  29.959  27.783  1.00  0.00     0.012 A 
ATOM     40  C   UNL A   1      38.652  29.061  29.891  1.00  0.00     0.148 A 
ATOM     41  C   UNL A   1      37.038  30.831  28.466  1.00  0.00     0.002 A 
ATOM     42  C   UNL A   1      37.749  29.872  30.561  1.00  0.00     0.091 A 
ATOM     43  F   UNL A   1      39.562  28.377  30.596  1.00  0.00    -0.205 F 
ATOM     44  C   UNL A   1      36.952  30.775  29.853  1.00  0.00     0.022 A 
BRANCH  42  45
ATOM     45  S   UNL A   1      37.582  29.812  32.347  1.00  0.00     0.127 S 
ATOM     46  O   UNL A   1      36.424  30.675  32.560  1.00  0.00    -0.237 OA
ATOM     47  O   UNL A   1      37.346  28.386  32.577  1.00  0.00    -0.237 OA
ATOM     48  O   UNL A   1      38.853  30.298  32.869  1.00  0.00    -0.744 OA
ENDBRANCH  42  45
ENDBRANCH  24  38
BRANCH  25  49
ATOM     49  C   UNL A   1      44.479  25.630  33.794  1.00  0.00     0.023 A 
ATOM     50  C   UNL A   1      43.334  25.079  34.408  1.00  0.00     0.012 A 
ATOM     51  C   UNL A   1      45.706  25.546  34.495  1.00  0.00     0.148 A 
ATOM     52  C   UNL A   1      43.418  24.405  35.634  1.00  0.00     0.002 A 
ATOM     53  C   UNL A   1      45.783  24.884  35.719  1.00  0.00     0.091 A 
ATOM     54  F   UNL A   1      46.815  26.031  33.925  1.00  0.00    -0.205 F 
ATOM     55  C   UNL A   1      44.645  24.293  36.281  1.00  0.00     0.022 A 
BRANCH  53  56
ATOM     56  S   UNL A   1      47.335  24.696  36.611  1.00  0.00     0.127 S 
ATOM     57  O   UNL A   1      46.905  24.019  37.835  1.00  0.00    -0.237 OA
ATOM     58  O   UNL A   1      48.116  23.870  35.696  1.00  0.00    -0.237 OA
ATOM     59  O   UNL A   1      47.837  26.048  36.827  1.00  0.00    -0.744 OA
ENDBRANCH  53  56
ENDBRANCH  25  49
BRANCH  37  60
ATOM     60  C   UNL A   1      45.479  28.460  28.234  1.00  0.00     0.023 A 
ATOM     61  C   UNL A   1      46.596  29.301  28.423  1.00  0.00     0.012 A 
ATOM     62  C   UNL A   1      45.677  27.184  27.683  1.00  0.00     0.148 A 
ATOM     63  C   UNL A   1      47.883  28.877  28.073  1.00  0.00     0.002 A 
ATOM     64  C   UNL A   1      46.960  26.752  27.367  1.00  0.00     0.091 A 
ATOM     65  F   UNL A   1      44.604  26.394  27.527  1.00  0.00    -0.205 F 
ATOM     66  C   UNL A   1      48.066  27.595  27.558  1.00  0.00     0.022 A 
BRANCH  64  67
ATOM     67  S   UNL A   1      47.279  25.083  26.795  1.00  0.00     0.127 S 
ATOM     68  O   UNL A   1      48.736  25.070  26.690  1.00  0.00    -0.237 OA
ATOM     69  O   UNL A   1      46.735  24.272  27.887  1.00  0.00    -0.237 OA
ATOM     70  O   UNL A   1      46.564  24.941  25.531  1.00  0.00    -0.744 OA
ENDBRANCH  64  67
ENDBRANCH  37  60
ENDBRANCH  11  12
ENDBRANCH   4   6
ENDBRANCH   1   2
BRANCH   1  71
ATOM     71  C   UNL A   1      37.883  19.907  24.744  1.00  0.00     0.042 C 
BRANCH  71  72
ATOM     72  C   UNL A   1      36.524  20.544  24.989  1.00  0.00     0.117 C 
BRANCH  72  73
ATOM     73  N   UNL A   1      36.375  21.772  24.231  1.00  0.00    -0.354 N 
ATOM     74  C   UNL A   1      35.293  22.372  23.672  1.00  0.00     0.246 C 
ATOM     75  H   UNL A   1      37.219  22.263  24.096  1.00  0.00     0.163 HD
ATOM     76  O   UNL A   1      35.613  23.018  22.664  1.00  0.00    -0.272 OA
BRANCH  74  77
ATOM     77  C   UNL A   1      33.846  22.468  24.275  1.00  0.00     0.135 C 
ATOM     78  C   UNL A   1      32.945  23.196  23.229  1.00  0.00     0.101 C 
ATOM     79  C   UNL A   1      33.899  23.405  25.512  1.00  0.00     0.101 C 
ATOM     80  C   UNL A   1      33.319  24.696  23.007  1.00  0.00     0.265 C 
ATOM     81  C   UNL A   1      34.342  24.813  25.226  1.00  0.00     0.265 C 
ATOM     82  N   UNL A   1      33.471  25.462  24.254  1.00  0.00    -0.331 N 
ATOM     83  H   UNL A   1      32.535  25.475  24.661  1.00  0.00     0.348 HD
BRANCH  77  84
ATOM     84  N   UNL A   1      33.266  21.164  24.731  1.00  0.00    -0.315 N 
ATOM     85  C   UNL A   1      33.239  20.764  26.059  1.00  0.00     0.201 A 
ATOM     86  C   UNL A   1      32.832  20.054  24.024  1.00  0.00     0.069 A 
ATOM     87  N   UNL A   1      33.227  19.464  26.196  1.00  0.00    -0.237 NA
ATOM     88  C   UNL A   1      32.984  19.002  24.942  1.00  0.00     0.088 A 
ATOM     89  C   UNL A   1      32.423  19.799  22.706  1.00  0.00     0.028 A 
ATOM     90  C   UNL A   1      32.902  17.666  24.532  1.00  0.00     0.030 A 
ATOM     91  C   UNL A   1      32.310  18.445  22.322  1.00  0.00     0.002 A 
ATOM     92  C   UNL A   1      32.584  17.396  23.205  1.00  0.00     0.002 A 
ENDBRANCH  77  84
BRANCH  82  93
ATOM     93  C   UNL A   1      33.853  26.884  24.037  1.00  0.00     0.301 C 
BRANCH  93  94
ATOM     94  C   UNL A   1      33.462  27.835  25.148  1.00  0.00     0.038 A 
ATOM     95  C   UNL A   1      34.298  28.916  25.532  1.00  0.00     0.012 A 
ATOM     96  C   UNL A   1      32.371  27.631  26.034  1.00  0.00     0.144 A 
ATOM     97  C   UNL A   1      34.105  29.688  26.710  1.00  0.00     0.003 A 
ATOM     98  C   UNL A   1      32.181  28.426  27.244  1.00  0.00     0.135 A 
ATOM     99  N   UNL A   1      31.399  26.706  25.999  1.00  0.00    -0.049 NA
ATOM    100  C   UNL A   1      33.050  29.466  27.612  1.00  0.00     0.034 A 
ATOM    101  N   UNL A   1      31.104  27.964  27.893  1.00  0.00    -0.050 NA
ATOM    102  O   UNL A   1      30.627  26.916  27.126  1.00  0.00    -0.243 OA
ENDBRANCH  93  94
ENDBRANCH  82  93
ENDBRANCH  74  77
ENDBRANCH  72  73
ENDBRANCH  71  72
ENDBRANCH   1  71
TORSDOF 16
ENDMDL
