MODEL 1
REMARK VINA RESULT:     -11.8      0.000      0.000
REMARK SMILES O=C(C[C@H]1C[N@@H+]([C@@H]2CC(=O)NC2=O)CCO1)NCCCNC(=O)c1ccc(-c2c3nc(c(-c4cccc(S(=O)(=O)[O-])c4F)c4ccc([nH]4)c(-c4cccc(S(=O)(=O)[O-])c4F)c4nc(c(-c5cccc(S(=O)(=O)[O-])c5F)c5ccc2[nH]5)C=C4)C=C3)cc1
REMARK SMILES IDX 19 1 18 2 17 3 1 4 2 5 3 7 4 8 5 9 16 10 6 11 15 12 14 13
REMARK SMILES IDX 7 15 8 16 12 17 9 18 11 19 13 20 10 21 20 23 21 24 22 25
REMARK SMILES IDX 23 27 24 28 25 29 86 30 26 31 85 32 27 33 28 34 29 35 79 36
REMARK SMILES IDX 30 37 84 38 78 39 80 40 31 41 83 42 77 43 76 44 32 46 64 47
REMARK SMILES IDX 44 48 63 49 45 50 48 51 62 52 81 53 46 54 47 55 61 57 82 58
REMARK SMILES IDX 49 59 33 60 34 61 42 62 35 63 37 64 43 65 36 66 38 67 39 68
REMARK SMILES IDX 40 69 41 70 65 71 66 72 74 73 67 74 69 75 75 76 68 77 70 78
REMARK SMILES IDX 71 79 72 80 73 81 50 82 51 83 59 84 52 85 54 86 60 87 53 88
REMARK SMILES IDX 55 89 56 90 57 91 58 92
REMARK H PARENT 17 6 6 14 11 22 21 26 80 45 48 56
REMARK Flexibility Score: inf
ROOT
ATOM      1  C   UNL A   1      31.442  28.872  26.024  1.00  0.00     0.042 C 
ENDROOT
BRANCH   1   2
ATOM      2  C   UNL A   1      31.297  27.796  24.954  1.00  0.00     0.117 C 
BRANCH   2   3
ATOM      3  N   UNL A   1      32.508  27.035  24.741  1.00  0.00    -0.356 N 
ATOM      4  O   UNL A   1      32.113  25.563  26.439  1.00  0.00    -0.275 OA
ATOM      5  C   UNL A   1      32.814  25.939  25.505  1.00  0.00     0.222 C 
ATOM      6  H   UNL A   1      33.128  27.310  24.028  1.00  0.00     0.163 HD
BRANCH   5   7
ATOM      7  C   UNL A   1      34.115  25.258  25.166  1.00  0.00     0.138 C 
BRANCH   7   8
ATOM      8  C   UNL A   1      34.269  24.617  23.778  1.00  0.00     0.182 C 
ATOM      9  C   UNL A   1      34.936  23.221  23.785  1.00  0.00     0.295 C 
ATOM     10  O   UNL A   1      33.110  24.670  22.935  1.00  0.00    -0.366 OA
ATOM     11  N   UNL A   1      34.055  22.058  23.883  1.00  0.00    -0.320 N 
ATOM     12  C   UNL A   1      32.199  23.578  23.126  1.00  0.00     0.222 C 
ATOM     13  C   UNL A   1      32.871  22.202  23.041  1.00  0.00     0.291 C 
ATOM     14  H   UNL A   1      34.631  21.322  23.477  1.00  0.00     0.348 HD
BRANCH  11  15
ATOM     15  C   UNL A   1      33.899  21.340  25.153  1.00  0.00     0.284 C 
ATOM     16  C   UNL A   1      32.760  21.725  26.094  1.00  0.00     0.176 C 
ATOM     17  C   UNL A   1      35.140  21.452  26.034  1.00  0.00     0.285 C 
ATOM     18  C   UNL A   1      33.447  22.186  27.345  1.00  0.00     0.233 C 
ATOM     19  N   UNL A   1      34.784  22.037  27.205  1.00  0.00    -0.291 N 
ATOM     20  O   UNL A   1      36.272  21.095  25.753  1.00  0.00    -0.268 OA
ATOM     21  O   UNL A   1      32.902  22.554  28.376  1.00  0.00    -0.274 OA
ATOM     22  H   UNL A   1      35.434  22.326  27.886  1.00  0.00     0.173 HD
ENDBRANCH  11  15
ENDBRANCH   7   8
ENDBRANCH   5   7
ENDBRANCH   2   3
ENDBRANCH   1   2
BRANCH   1  23
ATOM     23  C   UNL A   1      32.693  29.729  25.881  1.00  0.00     0.118 C 
BRANCH  23  24
ATOM     24  N   UNL A   1      32.467  31.122  26.242  1.00  0.00    -0.352 N 
ATOM     25  C   UNL A   1      33.125  31.917  27.142  1.00  0.00     0.251 C 
ATOM     26  H   UNL A   1      31.727  31.560  25.764  1.00  0.00     0.163 HD
ATOM     27  O   UNL A   1      32.668  33.024  27.416  1.00  0.00    -0.269 OA
BRANCH  25  28
ATOM     28  C   UNL A   1      34.367  31.444  27.789  1.00  0.00     0.039 A 
ATOM     29  C   UNL A   1      35.400  32.359  28.000  1.00  0.00     0.014 A 
ATOM     30  C   UNL A   1      34.526  30.107  28.166  1.00  0.00     0.014 A 
ATOM     31  C   UNL A   1      36.575  31.940  28.625  1.00  0.00     0.010 A 
ATOM     32  C   UNL A   1      35.661  29.714  28.868  1.00  0.00     0.010 A 
ATOM     33  C   UNL A   1      36.706  30.620  29.089  1.00  0.00    -0.014 A 
BRANCH  33  34
ATOM     34  C   UNL A   1      37.932  30.194  29.808  1.00  0.00     0.031 A 
ATOM     35  C   UNL A   1      38.201  30.658  31.216  1.00  0.00     0.074 A 
ATOM     36  C   UNL A   1      38.829  29.414  29.173  1.00  0.00     0.049 A 
ATOM     37  N   UNL A   1      39.188  30.340  32.012  1.00  0.00    -0.248 NA
ATOM     38  C   UNL A   1      37.252  31.621  31.799  1.00  0.00     0.031 C 
ATOM     39  C   UNL A   1      38.730  28.979  27.777  1.00  0.00     0.029 A 
ATOM     40  N   UNL A   1      40.001  28.853  29.611  1.00  0.00    -0.354 N 
ATOM     41  C   UNL A   1      38.997  31.079  33.173  1.00  0.00     0.074 A 
ATOM     42  C   UNL A   1      37.823  31.897  32.963  1.00  0.00     0.031 C 
ATOM     43  C   UNL A   1      39.783  28.199  27.483  1.00  0.00     0.029 A 
ATOM     44  C   UNL A   1      40.642  28.099  28.658  1.00  0.00     0.049 A 
ATOM     45  H   UNL A   1      40.351  28.979  30.523  1.00  0.00     0.167 HD
ATOM     46  C   UNL A   1      39.713  31.057  34.322  1.00  0.00     0.034 A 
ATOM     47  C   UNL A   1      41.792  27.399  28.723  1.00  0.00     0.034 A 
ATOM     48  C   UNL A   1      40.863  30.220  34.534  1.00  0.00     0.049 A 
ATOM     49  C   UNL A   1      42.537  27.348  30.027  1.00  0.00     0.074 A 
ATOM     50  C   UNL A   1      41.610  30.059  35.688  1.00  0.00     0.029 A 
ATOM     51  N   UNL A   1      41.443  29.411  33.569  1.00  0.00    -0.354 N 
ATOM     52  N   UNL A   1      42.244  27.923  31.170  1.00  0.00    -0.248 NA
ATOM     53  C   UNL A   1      43.747  26.517  30.065  1.00  0.00     0.031 C 
ATOM     54  C   UNL A   1      42.661  29.179  35.410  1.00  0.00     0.029 A 
ATOM     55  C   UNL A   1      42.544  28.757  34.095  1.00  0.00     0.049 A 
ATOM     56  H   UNL A   1      41.119  29.316  32.644  1.00  0.00     0.167 HD
ATOM     57  C   UNL A   1      43.213  27.494  32.070  1.00  0.00     0.074 A 
ATOM     58  C   UNL A   1      44.082  26.589  31.346  1.00  0.00     0.031 C 
ATOM     59  C   UNL A   1      43.376  27.829  33.374  1.00  0.00     0.034 A 
BRANCH  46  60
ATOM     60  C   UNL A   1      39.245  31.933  35.458  1.00  0.00     0.023 A 
ATOM     61  C   UNL A   1      38.347  31.415  36.414  1.00  0.00     0.012 A 
ATOM     62  C   UNL A   1      39.733  33.245  35.611  1.00  0.00     0.148 A 
ATOM     63  C   UNL A   1      37.914  32.200  37.482  1.00  0.00     0.002 A 
ATOM     64  C   UNL A   1      39.335  34.004  36.706  1.00  0.00     0.091 A 
ATOM     65  F   UNL A   1      40.570  33.729  34.683  1.00  0.00    -0.205 F 
ATOM     66  C   UNL A   1      38.415  33.489  37.634  1.00  0.00     0.022 A 
BRANCH  64  67
ATOM     67  S   UNL A   1      39.986  35.645  37.039  1.00  0.00     0.127 S 
ATOM     68  O   UNL A   1      39.281  35.998  38.270  1.00  0.00    -0.237 OA
ATOM     69  O   UNL A   1      41.414  35.378  37.210  1.00  0.00    -0.237 OA
ATOM     70  O   UNL A   1      39.653  36.454  35.875  1.00  0.00    -0.744 OA
ENDBRANCH  64  67
ENDBRANCH  46  60
BRANCH  47  71
ATOM     71  C   UNL A   1      42.266  26.632  27.537  1.00  0.00     0.023 A 
ATOM     72  C   UNL A   1      43.031  27.281  26.547  1.00  0.00     0.012 A 
ATOM     73  C   UNL A   1      41.983  25.260  27.395  1.00  0.00     0.148 A 
ATOM     74  C   UNL A   1      43.470  26.588  25.418  1.00  0.00     0.002 A 
ATOM     75  C   UNL A   1      42.473  24.562  26.298  1.00  0.00     0.091 A 
ATOM     76  F   UNL A   1      41.247  24.663  28.343  1.00  0.00    -0.205 F 
ATOM     77  C   UNL A   1      43.199  25.228  25.299  1.00  0.00     0.022 A 
BRANCH  75  78
ATOM     78  S   UNL A   1      42.289  22.784  26.127  1.00  0.00     0.127 S 
ATOM     79  O   UNL A   1      42.933  22.539  24.840  1.00  0.00    -0.237 OA
ATOM     80  O   UNL A   1      43.027  22.292  27.291  1.00  0.00    -0.237 OA
ATOM     81  O   UNL A   1      40.855  22.531  26.175  1.00  0.00    -0.744 OA
ENDBRANCH  75  78
ENDBRANCH  47  71
BRANCH  59  82
ATOM     82  C   UNL A   1      44.518  27.181  34.116  1.00  0.00     0.023 A 
ATOM     83  C   UNL A   1      45.809  27.743  34.059  1.00  0.00     0.012 A 
ATOM     84  C   UNL A   1      44.300  26.032  34.903  1.00  0.00     0.148 A 
ATOM     85  C   UNL A   1      46.874  27.143  34.729  1.00  0.00     0.002 A 
ATOM     86  C   UNL A   1      45.354  25.472  35.613  1.00  0.00     0.091 A 
ATOM     87  F   UNL A   1      43.070  25.499  34.932  1.00  0.00    -0.205 F 
ATOM     88  C   UNL A   1      46.645  26.015  35.513  1.00  0.00     0.022 A 
BRANCH  86  89
ATOM     89  S   UNL A   1      45.129  24.082  36.728  1.00  0.00     0.127 S 
ATOM     90  O   UNL A   1      44.218  24.643  37.724  1.00  0.00    -0.237 OA
ATOM     91  O   UNL A   1      44.529  23.075  35.851  1.00  0.00    -0.237 OA
ATOM     92  O   UNL A   1      46.459  23.741  37.215  1.00  0.00    -0.744 OA
ENDBRANCH  86  89
ENDBRANCH  59  82
ENDBRANCH  33  34
ENDBRANCH  25  28
ENDBRANCH  23  24
ENDBRANCH   1  23
TORSDOF 15
ENDMDL
MODEL 2
REMARK VINA RESULT:     -11.8      2.235      3.042
REMARK SMILES O=C(C[C@H]1C[N@@H+]([C@@H]2CC(=O)NC2=O)CCO1)NCCCNC(=O)c1ccc(-c2c3nc(c(-c4cccc(S(=O)(=O)[O-])c4F)c4ccc([nH]4)c(-c4cccc(S(=O)(=O)[O-])c4F)c4nc(c(-c5cccc(S(=O)(=O)[O-])c5F)c5ccc2[nH]5)C=C4)C=C3)cc1
REMARK SMILES IDX 19 1 18 2 17 3 1 4 2 5 3 7 4 8 5 9 16 10 6 11 15 12 14 13
REMARK SMILES IDX 7 15 8 16 12 17 9 18 11 19 13 20 10 21 20 23 21 24 22 25
REMARK SMILES IDX 23 27 24 28 25 29 86 30 26 31 85 32 27 33 28 34 29 35 79 36
REMARK SMILES IDX 30 37 84 38 78 39 80 40 31 41 83 42 77 43 76 44 32 46 64 47
REMARK SMILES IDX 44 48 63 49 45 50 48 51 62 52 81 53 46 54 47 55 61 57 82 58
REMARK SMILES IDX 49 59 33 60 34 61 42 62 35 63 37 64 43 65 36 66 38 67 39 68
REMARK SMILES IDX 40 69 41 70 65 71 66 72 74 73 67 74 69 75 75 76 68 77 70 78
REMARK SMILES IDX 71 79 72 80 73 81 50 82 51 83 59 84 52 85 54 86 60 87 53 88
REMARK SMILES IDX 55 89 56 90 57 91 58 92
REMARK H PARENT 17 6 6 14 11 22 21 26 80 45 48 56
REMARK Flexibility Score: inf
ROOT
ATOM      1  C   UNL A   1      32.960  27.895  26.829  1.00  0.00     0.042 C 
ENDROOT
BRANCH   1   2
ATOM      2  C   UNL A   1      32.093  27.008  25.942  1.00  0.00     0.117 C 
BRANCH   2   3
ATOM      3  N   UNL A   1      32.553  25.639  25.878  1.00  0.00    -0.356 N 
ATOM      4  O   UNL A   1      30.689  24.762  26.857  1.00  0.00    -0.275 OA
ATOM      5  C   UNL A   1      31.785  24.599  26.332  1.00  0.00     0.222 C 
ATOM      6  H   UNL A   1      33.441  25.448  25.499  1.00  0.00     0.163 HD
BRANCH   5   7
ATOM      7  C   UNL A   1      32.407  23.232  26.205  1.00  0.00     0.138 C 
BRANCH   7   8
ATOM      8  C   UNL A   1      33.722  22.951  26.946  1.00  0.00     0.182 C 
ATOM      9  C   UNL A   1      34.109  21.455  27.027  1.00  0.00     0.295 C 
ATOM     10  O   UNL A   1      34.831  23.788  26.588  1.00  0.00    -0.366 OA
ATOM     11  N   UNL A   1      34.956  20.924  25.961  1.00  0.00    -0.320 N 
ATOM     12  C   UNL A   1      35.585  23.308  25.466  1.00  0.00     0.222 C 
ATOM     13  C   UNL A   1      36.031  21.848  25.610  1.00  0.00     0.291 C 
ATOM     14  H   UNL A   1      35.383  20.116  26.413  1.00  0.00     0.348 HD
BRANCH  11  15
ATOM     15  C   UNL A   1      34.384  20.111  24.882  1.00  0.00     0.284 C 
ATOM     16  C   UNL A   1      32.885  19.814  24.886  1.00  0.00     0.176 C 
ATOM     17  C   UNL A   1      35.019  18.725  24.805  1.00  0.00     0.285 C 
ATOM     18  C   UNL A   1      32.800  18.320  24.990  1.00  0.00     0.233 C 
ATOM     19  N   UNL A   1      34.047  17.796  24.982  1.00  0.00    -0.291 N 
ATOM     20  O   UNL A   1      36.199  18.470  24.628  1.00  0.00    -0.268 OA
ATOM     21  O   UNL A   1      31.775  17.652  24.990  1.00  0.00    -0.274 OA
ATOM     22  H   UNL A   1      34.230  16.835  25.094  1.00  0.00     0.173 HD
ENDBRANCH  11  15
ENDBRANCH   7   8
ENDBRANCH   5   7
ENDBRANCH   2   3
ENDBRANCH   1   2
BRANCH   1  23
ATOM     23  C   UNL A   1      33.906  28.810  26.062  1.00  0.00     0.118 C 
BRANCH  23  24
ATOM     24  N   UNL A   1      33.831  30.196  26.504  1.00  0.00    -0.352 N 
ATOM     25  C   UNL A   1      34.601  30.876  27.410  1.00  0.00     0.251 C 
ATOM     26  H   UNL A   1      33.115  30.726  26.086  1.00  0.00     0.163 HD
ATOM     27  O   UNL A   1      34.265  32.003  27.761  1.00  0.00    -0.269 OA
BRANCH  25  28
ATOM     28  C   UNL A   1      35.819  30.254  27.970  1.00  0.00     0.039 A 
ATOM     29  C   UNL A   1      37.011  30.352  27.250  1.00  0.00     0.014 A 
ATOM     30  C   UNL A   1      35.787  29.559  29.184  1.00  0.00     0.014 A 
ATOM     31  C   UNL A   1      38.177  29.787  27.767  1.00  0.00     0.010 A 
ATOM     32  C   UNL A   1      36.968  29.077  29.739  1.00  0.00     0.010 A 
ATOM     33  C   UNL A   1      38.173  29.168  29.029  1.00  0.00    -0.014 A 
BRANCH  33  34
ATOM     34  C   UNL A   1      39.428  28.624  29.603  1.00  0.00     0.031 A 
ATOM     35  C   UNL A   1      40.024  29.216  30.854  1.00  0.00     0.074 A 
ATOM     36  C   UNL A   1      40.055  27.612  28.972  1.00  0.00     0.049 A 
ATOM     37  N   UNL A   1      41.079  28.832  31.523  1.00  0.00    -0.248 NA
ATOM     38  C   UNL A   1      39.365  30.408  31.413  1.00  0.00     0.031 C 
ATOM     39  C   UNL A   1      39.631  27.018  27.701  1.00  0.00     0.029 A 
ATOM     40  N   UNL A   1      41.185  26.908  29.304  1.00  0.00    -0.354 N 
ATOM     41  C   UNL A   1      41.227  29.744  32.561  1.00  0.00     0.074 A 
ATOM     42  C   UNL A   1      40.180  30.729  32.408  1.00  0.00     0.031 C 
ATOM     43  C   UNL A   1      40.472  26.024  27.377  1.00  0.00     0.029 A 
ATOM     44  C   UNL A   1      41.509  25.926  28.399  1.00  0.00     0.049 A 
ATOM     45  H   UNL A   1      41.713  27.090  30.115  1.00  0.00     0.167 HD
ATOM     46  C   UNL A   1      42.132  29.745  33.568  1.00  0.00     0.034 A 
ATOM     47  C   UNL A   1      42.524  25.041  28.395  1.00  0.00     0.034 A 
ATOM     48  C   UNL A   1      43.154  28.746  33.731  1.00  0.00     0.049 A 
ATOM     49  C   UNL A   1      43.482  25.030  29.554  1.00  0.00     0.074 A 
ATOM     50  C   UNL A   1      44.068  28.608  34.761  1.00  0.00     0.029 A 
ATOM     51  N   UNL A   1      43.408  27.720  32.832  1.00  0.00    -0.354 N 
ATOM     52  N   UNL A   1      43.502  25.798  30.617  1.00  0.00    -0.248 NA
ATOM     53  C   UNL A   1      44.530  24.001  29.536  1.00  0.00     0.031 C 
ATOM     54  C   UNL A   1      44.895  27.518  34.469  1.00  0.00     0.029 A 
ATOM     55  C   UNL A   1      44.469  26.951  33.278  1.00  0.00     0.049 A 
ATOM     56  H   UNL A   1      42.907  27.563  32.000  1.00  0.00     0.167 HD
ATOM     57  C   UNL A   1      44.541  25.324  31.410  1.00  0.00     0.074 A 
ATOM     58  C   UNL A   1      45.105  24.183  30.716  1.00  0.00     0.031 C 
ATOM     59  C   UNL A   1      44.995  25.796  32.597  1.00  0.00     0.034 A 
BRANCH  46  60
ATOM     60  C   UNL A   1      42.029  30.839  34.603  1.00  0.00     0.023 A 
ATOM     61  C   UNL A   1      41.257  30.629  35.765  1.00  0.00     0.012 A 
ATOM     62  C   UNL A   1      42.736  32.048  34.454  1.00  0.00     0.148 A 
ATOM     63  C   UNL A   1      41.161  31.618  36.744  1.00  0.00     0.002 A 
ATOM     64  C   UNL A   1      42.675  33.009  35.457  1.00  0.00     0.091 A 
ATOM     65  F   UNL A   1      43.448  32.239  33.335  1.00  0.00    -0.205 F 
ATOM     66  C   UNL A   1      41.877  32.802  36.595  1.00  0.00     0.022 A 
BRANCH  64  67
ATOM     67  S   UNL A   1      43.624  34.532  35.402  1.00  0.00     0.127 S 
ATOM     68  O   UNL A   1      44.991  34.024  35.294  1.00  0.00    -0.237 OA
ATOM     69  O   UNL A   1      43.113  35.167  34.187  1.00  0.00    -0.237 OA
ATOM     70  O   UNL A   1      43.319  35.243  36.636  1.00  0.00    -0.744 OA
ENDBRANCH  64  67
ENDBRANCH  46  60
BRANCH  47  71
ATOM     71  C   UNL A   1      42.641  24.045  27.293  1.00  0.00     0.023 A 
ATOM     72  C   UNL A   1      43.428  24.347  26.163  1.00  0.00     0.012 A 
ATOM     73  C   UNL A   1      41.997  22.795  27.367  1.00  0.00     0.148 A 
ATOM     74  C   UNL A   1      43.537  23.437  25.109  1.00  0.00     0.002 A 
ATOM     75  C   UNL A   1      42.158  21.871  26.342  1.00  0.00     0.091 A 
ATOM     76  F   UNL A   1      41.248  22.531  28.447  1.00  0.00    -0.205 F 
ATOM     77  C   UNL A   1      42.910  22.198  25.203  1.00  0.00     0.022 A 
BRANCH  75  78
ATOM     78  S   UNL A   1      41.500  20.204  26.436  1.00  0.00     0.127 S 
ATOM     79  O   UNL A   1      41.900  19.800  27.781  1.00  0.00    -0.237 OA
ATOM     80  O   UNL A   1      40.066  20.436  26.262  1.00  0.00    -0.237 OA
ATOM     81  O   UNL A   1      42.127  19.471  25.344  1.00  0.00    -0.744 OA
ENDBRANCH  75  78
ENDBRANCH  47  71
BRANCH  59  82
ATOM     82  C   UNL A   1      46.137  25.054  33.244  1.00  0.00     0.023 A 
ATOM     83  C   UNL A   1      47.463  25.498  33.063  1.00  0.00     0.012 A 
ATOM     84  C   UNL A   1      45.891  23.936  34.066  1.00  0.00     0.148 A 
ATOM     85  C   UNL A   1      48.527  24.810  33.644  1.00  0.00     0.002 A 
ATOM     86  C   UNL A   1      46.951  23.290  34.688  1.00  0.00     0.091 A 
ATOM     87  F   UNL A   1      44.625  23.516  34.214  1.00  0.00    -0.205 F 
ATOM     88  C   UNL A   1      48.271  23.714  34.464  1.00  0.00     0.022 A 
BRANCH  86  89
ATOM     89  S   UNL A   1      46.705  21.934  35.841  1.00  0.00     0.127 S 
ATOM     90  O   UNL A   1      48.077  21.641  36.252  1.00  0.00    -0.237 OA
ATOM     91  O   UNL A   1      45.876  22.553  36.877  1.00  0.00    -0.237 OA
ATOM     92  O   UNL A   1      46.040  20.882  35.084  1.00  0.00    -0.744 OA
ENDBRANCH  86  89
ENDBRANCH  59  82
ENDBRANCH  33  34
ENDBRANCH  25  28
ENDBRANCH  23  24
ENDBRANCH   1  23
TORSDOF 15
ENDMDL
MODEL 3
REMARK VINA RESULT:     -11.7      1.121      1.572
REMARK SMILES O=C(C[C@H]1C[N@@H+]([C@@H]2CC(=O)NC2=O)CCO1)NCCCNC(=O)c1ccc(-c2c3nc(c(-c4cccc(S(=O)(=O)[O-])c4F)c4ccc([nH]4)c(-c4cccc(S(=O)(=O)[O-])c4F)c4nc(c(-c5cccc(S(=O)(=O)[O-])c5F)c5ccc2[nH]5)C=C4)C=C3)cc1
REMARK SMILES IDX 19 1 18 2 17 3 1 4 2 5 3 7 4 8 5 9 16 10 6 11 15 12 14 13
REMARK SMILES IDX 7 15 8 16 12 17 9 18 11 19 13 20 10 21 20 23 21 24 22 25
REMARK SMILES IDX 23 27 24 28 25 29 86 30 26 31 85 32 27 33 28 34 29 35 79 36
REMARK SMILES IDX 30 37 84 38 78 39 80 40 31 41 83 42 77 43 76 44 32 46 64 47
REMARK SMILES IDX 44 48 63 49 45 50 48 51 62 52 81 53 46 54 47 55 61 57 82 58
REMARK SMILES IDX 49 59 33 60 34 61 42 62 35 63 37 64 43 65 36 66 38 67 39 68
REMARK SMILES IDX 40 69 41 70 65 71 66 72 74 73 67 74 69 75 75 76 68 77 70 78
REMARK SMILES IDX 71 79 72 80 73 81 50 82 51 83 59 84 52 85 54 86 60 87 53 88
REMARK SMILES IDX 55 89 56 90 57 91 58 92
REMARK H PARENT 17 6 6 14 11 22 21 26 80 45 48 56
REMARK Flexibility Score: inf
ROOT
ATOM      1  C   UNL A   1      33.636  28.946  23.487  1.00  0.00     0.042 C 
ENDROOT
BRANCH   1   2
ATOM      2  C   UNL A   1      32.690  27.975  22.789  1.00  0.00     0.117 C 
BRANCH   2   3
ATOM      3  N   UNL A   1      32.840  26.609  23.240  1.00  0.00    -0.356 N 
ATOM      4  O   UNL A   1      33.652  25.837  21.253  1.00  0.00    -0.275 OA
ATOM      5  C   UNL A   1      33.342  25.631  22.421  1.00  0.00     0.222 C 
ATOM      6  H   UNL A   1      32.574  26.374  24.158  1.00  0.00     0.163 HD
BRANCH   5   7
ATOM      7  C   UNL A   1      33.428  24.257  23.034  1.00  0.00     0.138 C 
BRANCH   7   8
ATOM      8  C   UNL A   1      32.149  23.412  23.125  1.00  0.00     0.182 C 
ATOM      9  C   UNL A   1      32.373  21.954  23.595  1.00  0.00     0.295 C 
ATOM     10  O   UNL A   1      31.034  24.036  23.777  1.00  0.00    -0.366 OA
ATOM     11  N   UNL A   1      32.278  21.692  25.030  1.00  0.00    -0.320 N 
ATOM     12  C   UNL A   1      31.019  23.863  25.200  1.00  0.00     0.222 C 
ATOM     13  C   UNL A   1      31.155  22.399  25.639  1.00  0.00     0.291 C 
ATOM     14  H   UNL A   1      32.059  20.696  25.049  1.00  0.00     0.348 HD
BRANCH  11  15
ATOM     15  C   UNL A   1      33.487  21.517  25.842  1.00  0.00     0.284 C 
ATOM     16  C   UNL A   1      34.217  22.750  26.371  1.00  0.00     0.176 C 
ATOM     17  C   UNL A   1      34.578  20.754  25.095  1.00  0.00     0.285 C 
ATOM     18  C   UNL A   1      35.578  22.677  25.745  1.00  0.00     0.233 C 
ATOM     19  N   UNL A   1      35.676  21.546  25.011  1.00  0.00    -0.291 N 
ATOM     20  O   UNL A   1      34.497  19.628  24.631  1.00  0.00    -0.268 OA
ATOM     21  O   UNL A   1      36.501  23.458  25.929  1.00  0.00    -0.274 OA
ATOM     22  H   UNL A   1      36.467  21.320  24.469  1.00  0.00     0.173 HD
ENDBRANCH  11  15
ENDBRANCH   7   8
ENDBRANCH   5   7
ENDBRANCH   2   3
ENDBRANCH   1   2
BRANCH   1  23
ATOM     23  C   UNL A   1      33.514  28.953  25.005  1.00  0.00     0.118 C 
BRANCH  23  24
ATOM     24  N   UNL A   1      32.864  30.154  25.514  1.00  0.00    -0.352 N 
ATOM     25  C   UNL A   1      33.140  30.901  26.628  1.00  0.00     0.251 C 
ATOM     26  H   UNL A   1      32.109  30.478  24.973  1.00  0.00     0.163 HD
ATOM     27  O   UNL A   1      32.361  31.788  26.967  1.00  0.00    -0.269 OA
BRANCH  25  28
ATOM     28  C   UNL A   1      34.356  30.634  27.425  1.00  0.00     0.039 A 
ATOM     29  C   UNL A   1      34.515  29.371  27.997  1.00  0.00     0.014 A 
ATOM     30  C   UNL A   1      35.323  31.623  27.627  1.00  0.00     0.014 A 
ATOM     31  C   UNL A   1      35.663  29.090  28.739  1.00  0.00     0.010 A 
ATOM     32  C   UNL A   1      36.506  31.312  28.290  1.00  0.00     0.010 A 
ATOM     33  C   UNL A   1      36.682  30.049  28.870  1.00  0.00    -0.014 A 
BRANCH  33  34
ATOM     34  C   UNL A   1      37.928  29.726  29.607  1.00  0.00     0.031 A 
ATOM     35  C   UNL A   1      38.183  30.295  30.978  1.00  0.00     0.074 A 
ATOM     36  C   UNL A   1      38.854  28.942  29.019  1.00  0.00     0.049 A 
ATOM     37  N   UNL A   1      39.187  30.074  31.786  1.00  0.00    -0.248 NA
ATOM     38  C   UNL A   1      37.196  31.255  31.501  1.00  0.00     0.031 C 
ATOM     39  C   UNL A   1      38.768  28.409  27.657  1.00  0.00     0.029 A 
ATOM     40  N   UNL A   1      40.051  28.463  29.487  1.00  0.00    -0.354 N 
ATOM     41  C   UNL A   1      38.969  30.882  32.896  1.00  0.00     0.074 A 
ATOM     42  C   UNL A   1      37.761  31.633  32.639  1.00  0.00     0.031 C 
ATOM     43  C   UNL A   1      39.851  27.656  27.410  1.00  0.00     0.029 A 
ATOM     44  C   UNL A   1      40.720  27.673  28.582  1.00  0.00     0.049 A 
ATOM     45  H   UNL A   1      40.399  28.665  30.385  1.00  0.00     0.167 HD
ATOM     46  C   UNL A   1      39.691  30.969  34.038  1.00  0.00     0.034 A 
ATOM     47  C   UNL A   1      41.898  27.028  28.686  1.00  0.00     0.034 A 
ATOM     48  C   UNL A   1      40.877  30.197  34.299  1.00  0.00     0.049 A 
ATOM     49  C   UNL A   1      42.651  27.098  29.985  1.00  0.00     0.074 A 
ATOM     50  C   UNL A   1      41.635  30.148  35.455  1.00  0.00     0.029 A 
ATOM     51  N   UNL A   1      41.486  29.350  33.386  1.00  0.00    -0.354 N 
ATOM     52  N   UNL A   1      42.339  27.736  31.088  1.00  0.00    -0.248 NA
ATOM     53  C   UNL A   1      43.896  26.323  30.071  1.00  0.00     0.031 C 
ATOM     54  C   UNL A   1      42.721  29.295  35.230  1.00  0.00     0.029 A 
ATOM     55  C   UNL A   1      42.616  28.780  33.948  1.00  0.00     0.049 A 
ATOM     56  H   UNL A   1      41.163  29.179  32.473  1.00  0.00     0.167 HD
ATOM     57  C   UNL A   1      43.329  27.412  32.008  1.00  0.00     0.074 A 
ATOM     58  C   UNL A   1      44.233  26.496  31.341  1.00  0.00     0.031 C 
ATOM     59  C   UNL A   1      43.484  27.841  33.286  1.00  0.00     0.034 A 
BRANCH  46  60
ATOM     60  C   UNL A   1      39.191  31.900  35.115  1.00  0.00     0.023 A 
ATOM     61  C   UNL A   1      38.208  31.453  36.023  1.00  0.00     0.012 A 
ATOM     62  C   UNL A   1      39.730  33.193  35.265  1.00  0.00     0.148 A 
ATOM     63  C   UNL A   1      37.743  32.289  37.037  1.00  0.00     0.002 A 
ATOM     64  C   UNL A   1      39.297  34.003  36.309  1.00  0.00     0.091 A 
ATOM     65  F   UNL A   1      40.649  33.609  34.382  1.00  0.00    -0.205 F 
ATOM     66  C   UNL A   1      38.294  33.558  37.187  1.00  0.00     0.022 A 
BRANCH  64  67
ATOM     67  S   UNL A   1      40.002  35.621  36.639  1.00  0.00     0.127 S 
ATOM     68  O   UNL A   1      39.347  35.977  37.897  1.00  0.00    -0.237 OA
ATOM     69  O   UNL A   1      41.427  35.315  36.760  1.00  0.00    -0.237 OA
ATOM     70  O   UNL A   1      39.652  36.454  35.496  1.00  0.00    -0.744 OA
ENDBRANCH  64  67
ENDBRANCH  46  60
BRANCH  47  71
ATOM     71  C   UNL A   1      42.399  26.202  27.552  1.00  0.00     0.023 A 
ATOM     72  C   UNL A   1      43.278  26.773  26.609  1.00  0.00     0.012 A 
ATOM     73  C   UNL A   1      42.029  24.851  27.414  1.00  0.00     0.148 A 
ATOM     74  C   UNL A   1      43.745  26.025  25.527  1.00  0.00     0.002 A 
ATOM     75  C   UNL A   1      42.545  24.095  26.368  1.00  0.00     0.091 A 
ATOM     76  F   UNL A   1      41.187  24.329  28.317  1.00  0.00    -0.205 F 
ATOM     77  C   UNL A   1      43.386  24.685  25.412  1.00  0.00     0.022 A 
BRANCH  75  78
ATOM     78  S   UNL A   1      42.246  22.331  26.216  1.00  0.00     0.127 S 
ATOM     79  O   UNL A   1      42.803  21.824  27.468  1.00  0.00    -0.237 OA
ATOM     80  O   UNL A   1      40.787  22.280  26.125  1.00  0.00    -0.237 OA
ATOM     81  O   UNL A   1      42.938  21.917  25.003  1.00  0.00    -0.744 OA
ENDBRANCH  75  78
ENDBRANCH  47  71
BRANCH  59  82
ATOM     82  C   UNL A   1      44.655  27.294  34.061  1.00  0.00     0.023 A 
ATOM     83  C   UNL A   1      45.906  27.941  34.005  1.00  0.00     0.012 A 
ATOM     84  C   UNL A   1      44.504  26.156  34.878  1.00  0.00     0.148 A 
ATOM     85  C   UNL A   1      46.999  27.435  34.706  1.00  0.00     0.002 A 
ATOM     86  C   UNL A   1      45.583  25.690  35.619  1.00  0.00     0.091 A 
ATOM     87  F   UNL A   1      43.312  25.541  34.907  1.00  0.00    -0.205 F 
ATOM     88  C   UNL A   1      46.836  26.317  35.520  1.00  0.00     0.022 A 
BRANCH  86  89
ATOM     89  S   UNL A   1      45.436  24.319  36.771  1.00  0.00     0.127 S 
ATOM     90  O   UNL A   1      44.432  24.823  37.706  1.00  0.00    -0.237 OA
ATOM     91  O   UNL A   1      44.973  23.234  35.905  1.00  0.00    -0.237 OA
ATOM     92  O   UNL A   1      46.767  24.121  37.327  1.00  0.00    -0.744 OA
ENDBRANCH  86  89
ENDBRANCH  59  82
ENDBRANCH  33  34
ENDBRANCH  25  28
ENDBRANCH  23  24
ENDBRANCH   1  23
TORSDOF 15
ENDMDL
