MODEL 1
REMARK VINA RESULT:     -11.4      0.000      0.000
REMARK SMILES COc1ccc(C(=O)N2CSC[C@H]2C(=O)NCCCNC(=O)c2ccc(-c3c4nc(c(-c5cccc(S(=O)(=O)[O-])c5F)c5ccc([nH]5)c(-c5cccc(S(=O)(=O)[O-])c5F)c5nc(c(-c6cccc(S(=O)(=O)[O-])c6F)c6ccc3[nH]6)C=C5)C=C4)cc2)cc1C#N
REMARK SMILES IDX 18 1 17 2 16 3 14 4 15 5 13 7 9 8 10 9 11 10 12 11 7 12 8 13
REMARK SMILES IDX 6 14 3 15 4 16 87 17 5 18 86 19 2 20 1 21 88 22 89 23 19 24
REMARK SMILES IDX 20 25 21 26 22 28 23 29 24 30 85 31 25 32 84 33 26 34 27 35
REMARK SMILES IDX 28 36 78 37 29 38 83 39 77 40 79 41 30 42 82 43 76 44 75 45
REMARK SMILES IDX 31 47 63 48 43 49 62 50 44 51 47 52 61 53 80 54 45 55 46 56
REMARK SMILES IDX 60 58 81 59 48 60 32 61 33 62 41 63 34 64 36 65 42 66 35 67
REMARK SMILES IDX 37 68 38 69 39 70 40 71 64 72 65 73 73 74 66 75 68 76 74 77
REMARK SMILES IDX 67 78 69 79 70 80 71 81 72 82 49 83 50 84 58 85 51 86 53 87
REMARK SMILES IDX 59 88 52 89 54 90 55 91 56 92 57 93
REMARK H PARENT 16 6 20 27 79 46 47 57
REMARK Flexibility Score: inf
ROOT
ATOM      1  C   UNL A   1      31.433  32.124  26.594  1.00  0.00     0.042 C 
ENDROOT
BRANCH   1   2
ATOM      2  C   UNL A   1      31.590  30.690  26.127  1.00  0.00     0.117 C 
BRANCH   2   3
ATOM      3  N   UNL A   1      32.873  30.134  26.490  1.00  0.00    -0.354 N 
ATOM      4  C   UNL A   1      33.416  28.917  26.214  1.00  0.00     0.243 C 
ATOM      5  O   UNL A   1      34.626  28.792  26.436  1.00  0.00    -0.273 OA
ATOM      6  H   UNL A   1      33.446  30.731  27.023  1.00  0.00     0.163 HD
BRANCH   4   7
ATOM      7  C   UNL A   1      32.633  27.800  25.497  1.00  0.00     0.185 C 
ATOM      8  N   UNL A   1      32.904  27.571  24.074  1.00  0.00    -0.317 N 
ATOM      9  C   UNL A   1      33.598  26.339  23.759  1.00  0.00     0.190 C 
ATOM     10  S   UNL A   1      33.133  25.175  25.059  1.00  0.00    -0.138 SA
ATOM     11  C   UNL A   1      32.711  26.476  26.260  1.00  0.00     0.106 C 
BRANCH   8  12
ATOM     12  C   UNL A   1      32.260  28.406  23.169  1.00  0.00     0.255 C 
ATOM     13  O   UNL A   1      32.882  29.159  22.425  1.00  0.00    -0.269 OA
BRANCH  12  14
ATOM     14  C   UNL A   1      30.776  28.539  23.228  1.00  0.00     0.041 A 
ATOM     15  C   UNL A   1      27.961  28.780  23.185  1.00  0.00     0.136 A 
ATOM     16  C   UNL A   1      28.583  27.544  23.431  1.00  0.00     0.048 A 
ATOM     17  C   UNL A   1      28.762  29.903  22.957  1.00  0.00     0.095 A 
ATOM     18  C   UNL A   1      29.978  27.419  23.456  1.00  0.00     0.018 A 
ATOM     19  C   UNL A   1      30.156  29.754  22.916  1.00  0.00     0.037 A 
BRANCH  15  20
ATOM     20  O   UNL A   1      26.596  28.724  23.247  1.00  0.00    -0.495 OA
ATOM     21  C   UNL A   1      26.007  27.615  23.915  1.00  0.00     0.278 C 
ENDBRANCH  15  20
BRANCH  17  22
ATOM     22  C   UNL A   1      28.272  31.242  22.803  1.00  0.00     0.103 C 
ATOM     23  N   UNL A   1      27.933  32.340  22.664  1.00  0.00    -0.192 NA
ENDBRANCH  17  22
ENDBRANCH  12  14
ENDBRANCH   8  12
ENDBRANCH   4   7
ENDBRANCH   2   3
ENDBRANCH   1   2
BRANCH   1  24
ATOM     24  C   UNL A   1      32.741  32.709  27.096  1.00  0.00     0.118 C 
BRANCH  24  25
ATOM     25  N   UNL A   1      32.553  34.041  27.670  1.00  0.00    -0.352 N 
ATOM     26  C   UNL A   1      33.172  34.620  28.749  1.00  0.00     0.251 C 
ATOM     27  H   UNL A   1      31.885  34.604  27.216  1.00  0.00     0.163 HD
ATOM     28  O   UNL A   1      32.721  35.650  29.239  1.00  0.00    -0.269 OA
BRANCH  26  29
ATOM     29  C   UNL A   1      34.378  33.984  29.308  1.00  0.00     0.039 A 
ATOM     30  C   UNL A   1      35.639  34.406  28.885  1.00  0.00     0.014 A 
ATOM     31  C   UNL A   1      34.250  32.987  30.278  1.00  0.00     0.014 A 
ATOM     32  C   UNL A   1      36.778  33.871  29.489  1.00  0.00     0.010 A 
ATOM     33  C   UNL A   1      35.376  32.538  30.950  1.00  0.00     0.010 A 
ATOM     34  C   UNL A   1      36.651  32.963  30.553  1.00  0.00    -0.014 A 
BRANCH  34  35
ATOM     35  C   UNL A   1      37.832  32.412  31.261  1.00  0.00     0.031 A 
ATOM     36  C   UNL A   1      38.559  31.233  30.673  1.00  0.00     0.074 A 
ATOM     37  C   UNL A   1      38.184  32.902  32.466  1.00  0.00     0.049 A 
ATOM     38  N   UNL A   1      39.511  30.507  31.197  1.00  0.00    -0.248 NA
ATOM     39  C   UNL A   1      38.137  30.790  29.331  1.00  0.00     0.031 C 
ATOM     40  C   UNL A   1      37.519  34.006  33.163  1.00  0.00     0.029 A 
ATOM     41  N   UNL A   1      39.168  32.506  33.338  1.00  0.00    -0.354 N 
ATOM     42  C   UNL A   1      39.782  29.513  30.265  1.00  0.00     0.074 A 
ATOM     43  C   UNL A   1      38.860  29.693  29.167  1.00  0.00     0.031 C 
ATOM     44  C   UNL A   1      38.109  34.194  34.354  1.00  0.00     0.029 A 
ATOM     45  C   UNL A   1      39.156  33.194  34.529  1.00  0.00     0.049 A 
ATOM     46  H   UNL A   1      39.819  31.797  33.130  1.00  0.00     0.167 HD
ATOM     47  C   UNL A   1      40.737  28.555  30.303  1.00  0.00     0.034 A 
ATOM     48  C   UNL A   1      39.885  33.014  35.649  1.00  0.00     0.034 A 
ATOM     49  C   UNL A   1      41.664  28.393  31.388  1.00  0.00     0.049 A 
ATOM     50  C   UNL A   1      40.923  31.923  35.674  1.00  0.00     0.074 A 
ATOM     51  C   UNL A   1      42.697  27.482  31.503  1.00  0.00     0.029 A 
ATOM     52  N   UNL A   1      41.665  29.154  32.545  1.00  0.00    -0.354 N 
ATOM     53  N   UNL A   1      41.239  31.062  34.737  1.00  0.00    -0.248 NA
ATOM     54  C   UNL A   1      41.730  31.798  36.897  1.00  0.00     0.031 C 
ATOM     55  C   UNL A   1      43.302  27.668  32.750  1.00  0.00     0.029 A 
ATOM     56  C   UNL A   1      42.680  28.732  33.383  1.00  0.00     0.049 A 
ATOM     57  H   UNL A   1      41.037  29.885  32.741  1.00  0.00     0.167 HD
ATOM     58  C   UNL A   1      42.312  30.332  35.236  1.00  0.00     0.074 A 
ATOM     59  C   UNL A   1      42.600  30.859  36.553  1.00  0.00     0.031 C 
ATOM     60  C   UNL A   1      42.995  29.314  34.661  1.00  0.00     0.034 A 
BRANCH  47  61
ATOM     61  C   UNL A   1      40.861  27.639  29.114  1.00  0.00     0.023 A 
ATOM     62  C   UNL A   1      40.050  26.488  29.036  1.00  0.00     0.012 A 
ATOM     63  C   UNL A   1      41.724  27.950  28.045  1.00  0.00     0.148 A 
ATOM     64  C   UNL A   1      40.118  25.643  27.930  1.00  0.00     0.002 A 
ATOM     65  C   UNL A   1      41.750  27.131  26.923  1.00  0.00     0.091 A 
ATOM     66  F   UNL A   1      42.497  29.040  28.147  1.00  0.00    -0.205 F 
ATOM     67  C   UNL A   1      40.958  25.972  26.869  1.00  0.00     0.022 A 
BRANCH  65  68
ATOM     68  S   UNL A   1      42.735  27.506  25.470  1.00  0.00     0.127 S 
ATOM     69  O   UNL A   1      44.042  27.786  26.064  1.00  0.00    -0.237 OA
ATOM     70  O   UNL A   1      42.660  26.252  24.721  1.00  0.00    -0.237 OA
ATOM     71  O   UNL A   1      42.092  28.643  24.826  1.00  0.00    -0.744 OA
ENDBRANCH  65  68
ENDBRANCH  47  61
BRANCH  48  72
ATOM     72  C   UNL A   1      39.672  33.883  36.843  1.00  0.00     0.023 A 
ATOM     73  C   UNL A   1      40.139  35.213  36.833  1.00  0.00     0.012 A 
ATOM     74  C   UNL A   1      39.041  33.388  38.000  1.00  0.00     0.148 A 
ATOM     75  C   UNL A   1      40.038  36.011  37.974  1.00  0.00     0.002 A 
ATOM     76  C   UNL A   1      38.887  34.207  39.110  1.00  0.00     0.091 A 
ATOM     77  F   UNL A   1      38.606  32.121  37.992  1.00  0.00    -0.205 F 
ATOM     78  C   UNL A   1      39.407  35.510  39.110  1.00  0.00     0.022 A 
BRANCH  76  79
ATOM     79  S   UNL A   1      37.976  33.688  40.568  1.00  0.00     0.127 S 
ATOM     80  O   UNL A   1      37.844  34.945  41.300  1.00  0.00    -0.237 OA
ATOM     81  O   UNL A   1      36.735  33.181  39.981  1.00  0.00    -0.237 OA
ATOM     82  O   UNL A   1      38.798  32.667  41.204  1.00  0.00    -0.744 OA
ENDBRANCH  76  79
ENDBRANCH  48  72
BRANCH  60  83
ATOM     83  C   UNL A   1      44.181  28.752  35.399  1.00  0.00     0.023 A 
ATOM     84  C   UNL A   1      45.456  29.330  35.252  1.00  0.00     0.012 A 
ATOM     85  C   UNL A   1      43.996  27.700  36.319  1.00  0.00     0.148 A 
ATOM     86  C   UNL A   1      46.537  28.849  35.991  1.00  0.00     0.002 A 
ATOM     87  C   UNL A   1      45.064  27.265  37.091  1.00  0.00     0.091 A 
ATOM     88  F   UNL A   1      42.776  27.156  36.429  1.00  0.00    -0.205 F 
ATOM     89  C   UNL A   1      46.338  27.829  36.919  1.00  0.00     0.022 A 
BRANCH  87  90
ATOM     90  S   UNL A   1      44.880  26.031  38.382  1.00  0.00     0.127 S 
ATOM     91  O   UNL A   1      46.224  26.000  38.956  1.00  0.00    -0.237 OA
ATOM     92  O   UNL A   1      43.862  26.637  39.241  1.00  0.00    -0.237 OA
ATOM     93  O   UNL A   1      44.464  24.804  37.716  1.00  0.00    -0.744 OA
ENDBRANCH  87  90
ENDBRANCH  60  83
ENDBRANCH  34  35
ENDBRANCH  26  29
ENDBRANCH  24  25
ENDBRANCH   1  24
TORSDOF 17
ENDMDL
MODEL 2
REMARK VINA RESULT:     -11.3      2.437      7.976
REMARK SMILES COc1ccc(C(=O)N2CSC[C@H]2C(=O)NCCCNC(=O)c2ccc(-c3c4nc(c(-c5cccc(S(=O)(=O)[O-])c5F)c5ccc([nH]5)c(-c5cccc(S(=O)(=O)[O-])c5F)c5nc(c(-c6cccc(S(=O)(=O)[O-])c6F)c6ccc3[nH]6)C=C5)C=C4)cc2)cc1C#N
REMARK SMILES IDX 18 1 17 2 16 3 14 4 15 5 13 7 9 8 10 9 11 10 12 11 7 12 8 13
REMARK SMILES IDX 6 14 3 15 4 16 87 17 5 18 86 19 2 20 1 21 88 22 89 23 19 24
REMARK SMILES IDX 20 25 21 26 22 28 23 29 24 30 85 31 25 32 84 33 26 34 27 35
REMARK SMILES IDX 28 36 78 37 29 38 83 39 77 40 79 41 30 42 82 43 76 44 75 45
REMARK SMILES IDX 31 47 63 48 43 49 62 50 44 51 47 52 61 53 80 54 45 55 46 56
REMARK SMILES IDX 60 58 81 59 48 60 32 61 33 62 41 63 34 64 36 65 42 66 35 67
REMARK SMILES IDX 37 68 38 69 39 70 40 71 64 72 65 73 73 74 66 75 68 76 74 77
REMARK SMILES IDX 67 78 69 79 70 80 71 81 72 82 49 83 50 84 58 85 51 86 53 87
REMARK SMILES IDX 59 88 52 89 54 90 55 91 56 92 57 93
REMARK H PARENT 16 6 20 27 79 46 47 57
REMARK Flexibility Score: inf
ROOT
ATOM      1  C   UNL A   1      31.703  29.001  26.441  1.00  0.00     0.042 C 
ENDROOT
BRANCH   1   2
ATOM      2  C   UNL A   1      32.110  27.600  26.854  1.00  0.00     0.117 C 
BRANCH   2   3
ATOM      3  N   UNL A   1      30.992  26.686  26.860  1.00  0.00    -0.354 N 
ATOM      4  C   UNL A   1      30.836  25.481  26.248  1.00  0.00     0.243 C 
ATOM      5  O   UNL A   1      29.876  24.796  26.619  1.00  0.00    -0.273 OA
ATOM      6  H   UNL A   1      30.219  26.982  27.391  1.00  0.00     0.163 HD
BRANCH   4   7
ATOM      7  C   UNL A   1      31.882  24.898  25.278  1.00  0.00     0.185 C 
ATOM      8  N   UNL A   1      32.432  25.780  24.243  1.00  0.00    -0.317 N 
ATOM      9  C   UNL A   1      33.818  26.162  24.418  1.00  0.00     0.190 C 
ATOM     10  S   UNL A   1      34.588  24.796  25.314  1.00  0.00    -0.138 SA
ATOM     11  C   UNL A   1      33.021  24.202  26.026  1.00  0.00     0.106 C 
BRANCH   8  12
ATOM     12  C   UNL A   1      31.670  25.951  23.093  1.00  0.00     0.255 C 
ATOM     13  O   UNL A   1      31.722  25.158  22.157  1.00  0.00    -0.269 OA
BRANCH  12  14
ATOM     14  C   UNL A   1      30.916  27.222  22.902  1.00  0.00     0.041 A 
ATOM     15  C   UNL A   1      29.502  29.659  22.690  1.00  0.00     0.136 A 
ATOM     16  C   UNL A   1      30.868  29.580  22.371  1.00  0.00     0.048 A 
ATOM     17  C   UNL A   1      28.843  28.505  23.121  1.00  0.00     0.095 A 
ATOM     18  C   UNL A   1      31.574  28.373  22.471  1.00  0.00     0.018 A 
ATOM     19  C   UNL A   1      29.573  27.319  23.284  1.00  0.00     0.037 A 
BRANCH  15  20
ATOM     20  O   UNL A   1      28.968  30.902  22.487  1.00  0.00    -0.495 OA
ATOM     21  C   UNL A   1      28.642  31.275  21.153  1.00  0.00     0.278 C 
ENDBRANCH  15  20
BRANCH  17  22
ATOM     22  C   UNL A   1      27.434  28.411  23.374  1.00  0.00     0.103 C 
ATOM     23  N   UNL A   1      26.291  28.308  23.524  1.00  0.00    -0.192 NA
ENDBRANCH  17  22
ENDBRANCH  12  14
ENDBRANCH   8  12
ENDBRANCH   4   7
ENDBRANCH   2   3
ENDBRANCH   1   2
BRANCH   1  24
ATOM     24  C   UNL A   1      32.891  29.834  25.993  1.00  0.00     0.118 C 
BRANCH  24  25
ATOM     25  N   UNL A   1      32.726  31.245  26.340  1.00  0.00    -0.352 N 
ATOM     26  C   UNL A   1      33.399  31.998  27.268  1.00  0.00     0.251 C 
ATOM     27  H   UNL A   1      32.031  31.723  25.833  1.00  0.00     0.163 HD
ATOM     28  O   UNL A   1      32.967  33.098  27.598  1.00  0.00    -0.269 OA
BRANCH  26  29
ATOM     29  C   UNL A   1      34.637  31.464  27.862  1.00  0.00     0.039 A 
ATOM     30  C   UNL A   1      35.754  32.292  27.986  1.00  0.00     0.014 A 
ATOM     31  C   UNL A   1      34.674  30.146  28.321  1.00  0.00     0.014 A 
ATOM     32  C   UNL A   1      36.891  31.812  28.638  1.00  0.00     0.010 A 
ATOM     33  C   UNL A   1      35.761  29.710  29.062  1.00  0.00     0.010 A 
ATOM     34  C   UNL A   1      36.886  30.532  29.215  1.00  0.00    -0.014 A 
BRANCH  34  35
ATOM     35  C   UNL A   1      38.051  30.003  29.964  1.00  0.00     0.031 A 
ATOM     36  C   UNL A   1      38.351  30.543  31.337  1.00  0.00     0.074 A 
ATOM     37  C   UNL A   1      38.886  29.123  29.378  1.00  0.00     0.049 A 
ATOM     38  N   UNL A   1      39.394  30.334  32.095  1.00  0.00    -0.248 NA
ATOM     39  C   UNL A   1      37.362  31.468  31.921  1.00  0.00     0.031 C 
ATOM     40  C   UNL A   1      38.730  28.571  28.030  1.00  0.00     0.029 A 
ATOM     41  N   UNL A   1      40.057  28.566  29.829  1.00  0.00    -0.354 N 
ATOM     42  C   UNL A   1      39.200  31.116  33.227  1.00  0.00     0.074 A 
ATOM     43  C   UNL A   1      37.968  31.846  33.035  1.00  0.00     0.031 C 
ATOM     44  C   UNL A   1      39.767  27.762  27.763  1.00  0.00     0.029 A 
ATOM     45  C   UNL A   1      40.687  27.777  28.895  1.00  0.00     0.049 A 
ATOM     46  H   UNL A   1      40.413  28.718  30.736  1.00  0.00     0.167 HD
ATOM     47  C   UNL A   1      39.962  31.194  34.343  1.00  0.00     0.034 A 
ATOM     48  C   UNL A   1      41.886  27.164  28.935  1.00  0.00     0.034 A 
ATOM     49  C   UNL A   1      41.175  30.451  34.536  1.00  0.00     0.049 A 
ATOM     50  C   UNL A   1      42.727  27.289  30.179  1.00  0.00     0.074 A 
ATOM     51  C   UNL A   1      41.997  30.425  35.647  1.00  0.00     0.029 A 
ATOM     52  N   UNL A   1      41.743  29.609  33.594  1.00  0.00    -0.354 N 
ATOM     53  N   UNL A   1      42.472  27.947  31.284  1.00  0.00    -0.248 NA
ATOM     54  C   UNL A   1      44.004  26.562  30.197  1.00  0.00     0.031 C 
ATOM     55  C   UNL A   1      43.085  29.595  35.363  1.00  0.00     0.029 A 
ATOM     56  C   UNL A   1      42.907  29.059  34.097  1.00  0.00     0.049 A 
ATOM     57  H   UNL A   1      41.373  29.428  32.700  1.00  0.00     0.167 HD
ATOM     58  C   UNL A   1      43.529  27.669  32.145  1.00  0.00     0.074 A 
ATOM     59  C   UNL A   1      44.420  26.775  31.437  1.00  0.00     0.031 C 
ATOM     60  C   UNL A   1      43.746  28.117  33.404  1.00  0.00     0.034 A 
BRANCH  47  61
ATOM     61  C   UNL A   1      39.478  32.077  35.463  1.00  0.00     0.023 A 
ATOM     62  C   UNL A   1      38.615  31.547  36.444  1.00  0.00     0.012 A 
ATOM     63  C   UNL A   1      39.930  33.405  35.585  1.00  0.00     0.148 A 
ATOM     64  C   UNL A   1      38.183  32.332  37.510  1.00  0.00     0.002 A 
ATOM     65  C   UNL A   1      39.536  34.167  36.678  1.00  0.00     0.091 A 
ATOM     66  F   UNL A   1      40.738  33.895  34.633  1.00  0.00    -0.205 F 
ATOM     67  C   UNL A   1      38.653  33.637  37.633  1.00  0.00     0.022 A 
BRANCH  65  68
ATOM     68  S   UNL A   1      40.146  35.829  36.975  1.00  0.00     0.127 S 
ATOM     69  O   UNL A   1      39.667  36.535  35.787  1.00  0.00    -0.237 OA
ATOM     70  O   UNL A   1      39.460  36.187  38.216  1.00  0.00    -0.237 OA
ATOM     71  O   UNL A   1      41.593  35.716  37.085  1.00  0.00    -0.744 OA
ENDBRANCH  65  68
ENDBRANCH  47  61
BRANCH  48  72
ATOM     72  C   UNL A   1      42.375  26.371  27.769  1.00  0.00     0.023 A 
ATOM     73  C   UNL A   1      43.186  26.986  26.794  1.00  0.00     0.012 A 
ATOM     74  C   UNL A   1      42.011  25.021  27.604  1.00  0.00     0.148 A 
ATOM     75  C   UNL A   1      43.572  26.291  25.647  1.00  0.00     0.002 A 
ATOM     76  C   UNL A   1      42.451  24.316  26.492  1.00  0.00     0.091 A 
ATOM     77  F   UNL A   1      41.237  24.453  28.539  1.00  0.00    -0.205 F 
ATOM     78  C   UNL A   1      43.209  24.954  25.499  1.00  0.00     0.022 A 
BRANCH  76  79
ATOM     79  S   UNL A   1      42.138  22.560  26.283  1.00  0.00     0.127 S 
ATOM     80  O   UNL A   1      40.678  22.514  26.295  1.00  0.00    -0.237 OA
ATOM     81  O   UNL A   1      42.755  22.297  24.983  1.00  0.00    -0.237 OA
ATOM     82  O   UNL A   1      42.800  21.906  27.404  1.00  0.00    -0.744 OA
ENDBRANCH  76  79
ENDBRANCH  48  72
BRANCH  60  83
ATOM     83  C   UNL A   1      44.943  27.586  34.147  1.00  0.00     0.023 A 
ATOM     84  C   UNL A   1      46.185  28.245  34.069  1.00  0.00     0.012 A 
ATOM     85  C   UNL A   1      44.796  26.476  35.004  1.00  0.00     0.148 A 
ATOM     86  C   UNL A   1      47.272  27.788  34.814  1.00  0.00     0.002 A 
ATOM     87  C   UNL A   1      45.867  26.064  35.785  1.00  0.00     0.091 A 
ATOM     88  F   UNL A   1      43.608  25.857  35.049  1.00  0.00    -0.205 F 
ATOM     89  C   UNL A   1      47.109  26.710  35.681  1.00  0.00     0.022 A 
BRANCH  87  90
ATOM     90  S   UNL A   1      45.722  24.753  37.003  1.00  0.00     0.127 S 
ATOM     91  O   UNL A   1      46.863  25.031  37.875  1.00  0.00    -0.237 OA
ATOM     92  O   UNL A   1      44.416  25.033  37.600  1.00  0.00    -0.237 OA
ATOM     93  O   UNL A   1      45.799  23.500  36.265  1.00  0.00    -0.744 OA
ENDBRANCH  87  90
ENDBRANCH  60  83
ENDBRANCH  34  35
ENDBRANCH  26  29
ENDBRANCH  24  25
ENDBRANCH   1  24
TORSDOF 17
ENDMDL
MODEL 3
REMARK VINA RESULT:     -11.2      6.231      9.367
REMARK SMILES COc1ccc(C(=O)N2CSC[C@H]2C(=O)NCCCNC(=O)c2ccc(-c3c4nc(c(-c5cccc(S(=O)(=O)[O-])c5F)c5ccc([nH]5)c(-c5cccc(S(=O)(=O)[O-])c5F)c5nc(c(-c6cccc(S(=O)(=O)[O-])c6F)c6ccc3[nH]6)C=C5)C=C4)cc2)cc1C#N
REMARK SMILES IDX 18 1 17 2 16 3 14 4 15 5 13 7 9 8 10 9 11 10 12 11 7 12 8 13
REMARK SMILES IDX 6 14 3 15 4 16 87 17 5 18 86 19 2 20 1 21 88 22 89 23 19 24
REMARK SMILES IDX 20 25 21 26 22 28 23 29 24 30 85 31 25 32 84 33 26 34 27 35
REMARK SMILES IDX 28 36 78 37 29 38 83 39 77 40 79 41 30 42 82 43 76 44 75 45
REMARK SMILES IDX 31 47 63 48 43 49 62 50 44 51 47 52 61 53 80 54 45 55 46 56
REMARK SMILES IDX 60 58 81 59 48 60 32 61 33 62 41 63 34 64 36 65 42 66 35 67
REMARK SMILES IDX 37 68 38 69 39 70 40 71 64 72 65 73 73 74 66 75 68 76 74 77
REMARK SMILES IDX 67 78 69 79 70 80 71 81 72 82 49 83 50 84 58 85 51 86 53 87
REMARK SMILES IDX 59 88 52 89 54 90 55 91 56 92 57 93
REMARK H PARENT 16 6 20 27 79 46 47 57
REMARK Flexibility Score: inf
ROOT
ATOM      1  C   UNL A   1      36.073  21.850  24.341  1.00  0.00     0.042 C 
ENDROOT
BRANCH   1   2
ATOM      2  C   UNL A   1      35.709  23.260  23.919  1.00  0.00     0.117 C 
BRANCH   2   3
ATOM      3  N   UNL A   1      34.875  23.280  22.741  1.00  0.00    -0.354 N 
ATOM      4  C   UNL A   1      33.660  23.855  22.530  1.00  0.00     0.243 C 
ATOM      5  O   UNL A   1      33.282  23.928  21.355  1.00  0.00    -0.273 OA
ATOM      6  H   UNL A   1      35.244  22.799  21.965  1.00  0.00     0.163 HD
BRANCH   4   7
ATOM      7  C   UNL A   1      32.863  24.549  23.651  1.00  0.00     0.185 C 
ATOM      8  N   UNL A   1      32.800  23.895  24.962  1.00  0.00    -0.317 N 
ATOM      9  C   UNL A   1      33.535  24.550  26.024  1.00  0.00     0.190 C 
ATOM     10  S   UNL A   1      33.545  26.304  25.597  1.00  0.00    -0.138 SA
ATOM     11  C   UNL A   1      33.280  26.012  23.820  1.00  0.00     0.106 C 
BRANCH   8  12
ATOM     12  C   UNL A   1      31.859  22.883  25.116  1.00  0.00     0.255 C 
ATOM     13  O   UNL A   1      30.694  23.122  25.419  1.00  0.00    -0.269 OA
BRANCH  12  14
ATOM     14  C   UNL A   1      32.309  21.463  25.101  1.00  0.00     0.041 A 
ATOM     15  C   UNL A   1      33.293  18.815  25.004  1.00  0.00     0.136 A 
ATOM     16  C   UNL A   1      33.413  19.596  26.168  1.00  0.00     0.048 A 
ATOM     17  C   UNL A   1      32.676  19.372  23.881  1.00  0.00     0.095 A 
ATOM     18  C   UNL A   1      32.925  20.908  26.222  1.00  0.00     0.018 A 
ATOM     19  C   UNL A   1      32.252  20.708  23.924  1.00  0.00     0.037 A 
BRANCH  15  20
ATOM     20  O   UNL A   1      33.781  17.546  25.149  1.00  0.00    -0.495 OA
ATOM     21  C   UNL A   1      32.872  16.526  25.547  1.00  0.00     0.278 C 
ENDBRANCH  15  20
BRANCH  17  22
ATOM     22  C   UNL A   1      32.386  18.663  22.669  1.00  0.00     0.103 C 
ATOM     23  N   UNL A   1      32.167  18.039  21.719  1.00  0.00    -0.192 NA
ENDBRANCH  17  22
ENDBRANCH  12  14
ENDBRANCH   8  12
ENDBRANCH   4   7
ENDBRANCH   2   3
ENDBRANCH   1   2
BRANCH   1  24
ATOM     24  C   UNL A   1      36.625  21.799  25.755  1.00  0.00     0.118 C 
BRANCH  24  25
ATOM     25  N   UNL A   1      37.677  20.793  25.891  1.00  0.00    -0.352 N 
ATOM     26  C   UNL A   1      39.020  20.962  26.114  1.00  0.00     0.251 C 
ATOM     27  H   UNL A   1      37.378  19.858  25.810  1.00  0.00     0.163 HD
ATOM     28  O   UNL A   1      39.793  20.023  25.957  1.00  0.00    -0.269 OA
BRANCH  26  29
ATOM     29  C   UNL A   1      39.515  22.284  26.537  1.00  0.00     0.039 A 
ATOM     30  C   UNL A   1      40.529  22.366  27.492  1.00  0.00     0.014 A 
ATOM     31  C   UNL A   1      38.987  23.440  25.958  1.00  0.00     0.014 A 
ATOM     32  C   UNL A   1      41.062  23.615  27.817  1.00  0.00     0.010 A 
ATOM     33  C   UNL A   1      39.591  24.663  26.200  1.00  0.00     0.010 A 
ATOM     34  C   UNL A   1      40.624  24.766  27.143  1.00  0.00    -0.014 A 
BRANCH  34  35
ATOM     35  C   UNL A   1      41.201  26.104  27.415  1.00  0.00     0.031 A 
ATOM     36  C   UNL A   1      42.624  26.389  27.014  1.00  0.00     0.074 A 
ATOM     37  C   UNL A   1      40.489  27.018  28.105  1.00  0.00     0.049 A 
ATOM     38  N   UNL A   1      43.366  27.427  27.291  1.00  0.00    -0.248 NA
ATOM     39  C   UNL A   1      43.314  25.352  26.224  1.00  0.00     0.031 C 
ATOM     40  C   UNL A   1      39.121  26.834  28.596  1.00  0.00     0.029 A 
ATOM     41  N   UNL A   1      40.834  28.271  28.546  1.00  0.00    -0.354 N 
ATOM     42  C   UNL A   1      44.611  27.159  26.734  1.00  0.00     0.074 A 
ATOM     43  C   UNL A   1      44.542  25.839  26.151  1.00  0.00     0.031 C 
ATOM     44  C   UNL A   1      38.747  27.931  29.275  1.00  0.00     0.029 A 
ATOM     45  C   UNL A   1      39.862  28.871  29.313  1.00  0.00     0.049 A 
ATOM     46  H   UNL A   1      41.696  28.699  28.335  1.00  0.00     0.167 HD
ATOM     47  C   UNL A   1      45.704  27.955  26.683  1.00  0.00     0.034 A 
ATOM     48  C   UNL A   1      39.882  30.031  29.997  1.00  0.00     0.034 A 
ATOM     49  C   UNL A   1      45.760  29.275  27.247  1.00  0.00     0.049 A 
ATOM     50  C   UNL A   1      41.121  30.886  29.945  1.00  0.00     0.074 A 
ATOM     51  C   UNL A   1      46.804  30.179  27.211  1.00  0.00     0.029 A 
ATOM     52  N   UNL A   1      44.731  29.874  27.955  1.00  0.00    -0.354 N 
ATOM     53  N   UNL A   1      42.252  30.663  29.320  1.00  0.00    -0.248 NA
ATOM     54  C   UNL A   1      41.078  32.168  30.664  1.00  0.00     0.031 C 
ATOM     55  C   UNL A   1      46.420  31.314  27.931  1.00  0.00     0.029 A 
ATOM     56  C   UNL A   1      45.116  31.137  28.364  1.00  0.00     0.049 A 
ATOM     57  H   UNL A   1      43.856  29.462  28.139  1.00  0.00     0.167 HD
ATOM     58  C   UNL A   1      43.031  31.797  29.525  1.00  0.00     0.074 A 
ATOM     59  C   UNL A   1      42.240  32.709  30.323  1.00  0.00     0.031 C 
ATOM     60  C   UNL A   1      44.289  32.058  29.099  1.00  0.00     0.034 A 
BRANCH  47  61
ATOM     61  C   UNL A   1      46.914  27.441  25.949  1.00  0.00     0.023 A 
ATOM     62  C   UNL A   1      47.780  26.530  26.588  1.00  0.00     0.012 A 
ATOM     63  C   UNL A   1      47.156  27.801  24.609  1.00  0.00     0.148 A 
ATOM     64  C   UNL A   1      48.886  26.010  25.918  1.00  0.00     0.002 A 
ATOM     65  C   UNL A   1      48.231  27.240  23.931  1.00  0.00     0.091 A 
ATOM     66  F   UNL A   1      46.329  28.680  24.025  1.00  0.00    -0.205 F 
ATOM     67  C   UNL A   1      49.103  26.355  24.587  1.00  0.00     0.022 A 
BRANCH  65  68
ATOM     68  S   UNL A   1      48.555  27.554  22.193  1.00  0.00     0.127 S 
ATOM     69  O   UNL A   1      48.748  26.198  21.679  1.00  0.00    -0.237 OA
ATOM     70  O   UNL A   1      47.315  28.199  21.765  1.00  0.00    -0.237 OA
ATOM     71  O   UNL A   1      49.736  28.406  22.149  1.00  0.00    -0.744 OA
ENDBRANCH  65  68
ENDBRANCH  47  61
BRANCH  48  72
ATOM     72  C   UNL A   1      38.696  30.467  30.790  1.00  0.00     0.023 A 
ATOM     73  C   UNL A   1      38.583  30.094  32.145  1.00  0.00     0.012 A 
ATOM     74  C   UNL A   1      37.663  31.220  30.200  1.00  0.00     0.148 A 
ATOM     75  C   UNL A   1      37.437  30.407  32.877  1.00  0.00     0.002 A 
ATOM     76  C   UNL A   1      36.553  31.583  30.952  1.00  0.00     0.091 A 
ATOM     77  F   UNL A   1      37.785  31.564  28.911  1.00  0.00    -0.205 F 
ATOM     78  C   UNL A   1      36.425  31.156  32.282  1.00  0.00     0.022 A 
BRANCH  76  79
ATOM     79  S   UNL A   1      35.264  32.653  30.305  1.00  0.00     0.127 S 
ATOM     80  O   UNL A   1      34.803  31.897  29.144  1.00  0.00    -0.237 OA
ATOM     81  O   UNL A   1      34.323  32.701  31.425  1.00  0.00    -0.237 OA
ATOM     82  O   UNL A   1      35.915  33.924  30.015  1.00  0.00    -0.744 OA
ENDBRANCH  76  79
ENDBRANCH  48  72
BRANCH  60  83
ATOM     83  C   UNL A   1      44.870  33.414  29.398  1.00  0.00     0.023 A 
ATOM     84  C   UNL A   1      45.623  33.629  30.569  1.00  0.00     0.012 A 
ATOM     85  C   UNL A   1      44.742  34.453  28.453  1.00  0.00     0.148 A 
ATOM     86  C   UNL A   1      46.217  34.868  30.807  1.00  0.00     0.002 A 
ATOM     87  C   UNL A   1      45.384  35.664  28.671  1.00  0.00     0.091 A 
ATOM     88  F   UNL A   1      44.008  34.228  27.354  1.00  0.00    -0.205 F 
ATOM     89  C   UNL A   1      46.110  35.878  29.853  1.00  0.00     0.022 A 
BRANCH  87  90
ATOM     90  S   UNL A   1      45.389  36.984  27.454  1.00  0.00     0.127 S 
ATOM     91  O   UNL A   1      46.079  38.051  28.176  1.00  0.00    -0.237 OA
ATOM     92  O   UNL A   1      46.158  36.389  26.360  1.00  0.00    -0.237 OA
ATOM     93  O   UNL A   1      43.992  37.253  27.140  1.00  0.00    -0.744 OA
ENDBRANCH  87  90
ENDBRANCH  60  83
ENDBRANCH  34  35
ENDBRANCH  26  29
ENDBRANCH  24  25
ENDBRANCH   1  24
TORSDOF 17
ENDMDL
