MODEL 1
REMARK VINA RESULT:     -11.8      0.000      0.000
REMARK SMILES Cc1cc(C)c2c(O[C@@H](C)C(=O)NCCCNC(=O)c3ccc(-c4c5nc(c(-c6cccc(S(=O)(=O)[O-])c6F)c6ccc([nH]6)c(-c6cccc(S(=O)(=O)[O-])c6F)c6nc(c(-c7cccc(S(=O)(=O)[O-])c7F)c7ccc4[nH]7)C=C6)C=C5)cc3)nsc2n1
REMARK SMILES IDX 15 1 14 2 13 3 11 4 12 5 9 7 10 8 8 9 7 10 1 11 2 12 3 13
REMARK SMILES IDX 86 14 4 15 85 16 5 17 6 18 84 19 83 20 16 21 17 22 18 23
REMARK SMILES IDX 19 25 20 26 21 27 82 28 22 29 81 30 23 31 24 32 25 33 75 34
REMARK SMILES IDX 26 35 80 36 74 37 76 38 27 39 79 40 73 41 72 42 28 44 60 45
REMARK SMILES IDX 40 46 59 47 41 48 44 49 58 50 77 51 42 52 43 53 57 55 78 56
REMARK SMILES IDX 45 57 29 58 30 59 38 60 31 61 33 62 39 63 32 64 34 65 35 66
REMARK SMILES IDX 36 67 37 68 61 69 62 70 70 71 63 72 65 73 71 74 64 75 66 76
REMARK SMILES IDX 67 77 68 78 69 79 46 80 47 81 55 82 48 83 50 84 56 85 49 86
REMARK SMILES IDX 51 87 52 88 53 89 54 90
REMARK H PARENT 13 6 17 24 76 43 44 54
REMARK Flexibility Score: inf
ROOT
ATOM      1  C   UNL A   1      37.647  21.620  24.835  1.00  0.00     0.042 C 
ENDROOT
BRANCH   1   2
ATOM      2  C   UNL A   1      36.395  20.858  25.251  1.00  0.00     0.118 C 
BRANCH   2   3
ATOM      3  N   UNL A   1      35.629  21.455  26.330  1.00  0.00    -0.353 N 
ATOM      4  C   UNL A   1      34.418  22.080  26.238  1.00  0.00     0.260 C 
ATOM      5  O   UNL A   1      33.537  21.733  27.032  1.00  0.00    -0.271 OA
ATOM      6  H   UNL A   1      36.027  21.404  27.229  1.00  0.00     0.163 HD
BRANCH   4   7
ATOM      7  C   UNL A   1      34.189  23.308  25.310  1.00  0.00     0.260 C 
ATOM      8  C   UNL A   1      35.136  24.490  25.540  1.00  0.00     0.064 C 
BRANCH   7   9
ATOM      9  O   UNL A   1      32.989  23.663  24.702  1.00  0.00    -0.463 OA
BRANCH   9  10
ATOM     10  C   UNL A   1      32.806  24.687  23.844  1.00  0.00     0.235 A 
ATOM     11  C   UNL A   1      29.362  28.922  22.387  1.00  0.00     0.067 C 
ATOM     12  C   UNL A   1      30.395  27.967  22.906  1.00  0.00     0.039 A 
ATOM     13  C   UNL A   1      30.653  27.886  24.264  1.00  0.00     0.027 A 
ATOM     14  N   UNL A   1      31.028  27.213  22.001  1.00  0.00    -0.240 NA
ATOM     15  C   UNL A   1      31.515  26.893  24.791  1.00  0.00    -0.034 A 
ATOM     16  C   UNL A   1      31.843  26.275  22.515  1.00  0.00     0.147 A 
ATOM     17  C   UNL A   1      31.712  26.952  26.284  1.00  0.00     0.045 C 
ATOM     18  C   UNL A   1      32.094  25.967  23.862  1.00  0.00     0.078 A 
ATOM     19  S   UNL A   1      32.709  25.251  21.477  1.00  0.00    -0.012 S 
ATOM     20  N   UNL A   1      33.289  24.287  22.666  1.00  0.00    -0.153 NA
ENDBRANCH   9  10
ENDBRANCH   7   9
ENDBRANCH   4   7
ENDBRANCH   2   3
ENDBRANCH   1   2
BRANCH   1  21
ATOM     21  C   UNL A   1      38.813  21.384  25.795  1.00  0.00     0.118 C 
BRANCH  21  22
ATOM     22  N   UNL A   1      39.424  20.045  25.734  1.00  0.00    -0.352 N 
ATOM     23  C   UNL A   1      40.773  19.737  25.866  1.00  0.00     0.251 C 
ATOM     24  H   UNL A   1      38.812  19.289  25.583  1.00  0.00     0.163 HD
ATOM     25  O   UNL A   1      41.248  18.665  25.506  1.00  0.00    -0.269 OA
BRANCH  23  26
ATOM     26  C   UNL A   1      41.645  20.757  26.457  1.00  0.00     0.039 A 
ATOM     27  C   UNL A   1      42.074  21.847  25.696  1.00  0.00     0.014 A 
ATOM     28  C   UNL A   1      41.747  20.740  27.839  1.00  0.00     0.014 A 
ATOM     29  C   UNL A   1      42.440  23.016  26.359  1.00  0.00     0.010 A 
ATOM     30  C   UNL A   1      41.938  21.944  28.472  1.00  0.00     0.010 A 
ATOM     31  C   UNL A   1      42.289  23.091  27.753  1.00  0.00    -0.014 A 
BRANCH  31  32
ATOM     32  C   UNL A   1      42.335  24.390  28.437  1.00  0.00     0.031 A 
ATOM     33  C   UNL A   1      41.164  25.304  28.247  1.00  0.00     0.074 A 
ATOM     34  C   UNL A   1      43.248  24.707  29.380  1.00  0.00     0.049 A 
ATOM     35  N   UNL A   1      41.146  26.432  27.611  1.00  0.00    -0.248 NA
ATOM     36  C   UNL A   1      39.846  24.893  28.752  1.00  0.00     0.031 C 
ATOM     37  C   UNL A   1      44.307  23.866  29.955  1.00  0.00     0.029 A 
ATOM     38  N   UNL A   1      43.326  25.837  30.134  1.00  0.00    -0.354 N 
ATOM     39  C   UNL A   1      39.876  26.977  27.813  1.00  0.00     0.074 A 
ATOM     40  C   UNL A   1      39.077  25.920  28.377  1.00  0.00     0.031 C 
ATOM     41  C   UNL A   1      44.714  24.388  31.129  1.00  0.00     0.029 A 
ATOM     42  C   UNL A   1      44.132  25.706  31.255  1.00  0.00     0.049 A 
ATOM     43  H   UNL A   1      42.854  26.671  29.904  1.00  0.00     0.167 HD
ATOM     44  C   UNL A   1      39.641  28.316  27.693  1.00  0.00     0.034 A 
ATOM     45  C   UNL A   1      44.338  26.625  32.220  1.00  0.00     0.034 A 
ATOM     46  C   UNL A   1      40.761  28.993  27.094  1.00  0.00     0.049 A 
ATOM     47  C   UNL A   1      44.063  27.944  31.613  1.00  0.00     0.074 A 
ATOM     48  C   UNL A   1      41.418  28.951  25.883  1.00  0.00     0.029 A 
ATOM     49  N   UNL A   1      41.593  29.658  27.961  1.00  0.00    -0.354 N 
ATOM     50  N   UNL A   1      44.766  28.447  30.633  1.00  0.00    -0.248 NA
ATOM     51  C   UNL A   1      42.778  28.576  31.849  1.00  0.00     0.031 C 
ATOM     52  C   UNL A   1      42.787  29.198  26.200  1.00  0.00     0.029 A 
ATOM     53  C   UNL A   1      42.883  29.414  27.578  1.00  0.00     0.049 A 
ATOM     54  H   UNL A   1      41.310  30.212  28.725  1.00  0.00     0.167 HD
ATOM     55  C   UNL A   1      43.843  29.142  29.867  1.00  0.00     0.074 A 
ATOM     56  C   UNL A   1      42.692  29.324  30.746  1.00  0.00     0.031 C 
ATOM     57  C   UNL A   1      43.984  29.247  28.510  1.00  0.00     0.034 A 
BRANCH  44  58
ATOM     58  C   UNL A   1      38.566  29.117  28.402  1.00  0.00     0.023 A 
ATOM     59  C   UNL A   1      37.784  30.000  27.614  1.00  0.00     0.012 A 
ATOM     60  C   UNL A   1      38.456  29.258  29.802  1.00  0.00     0.148 A 
ATOM     61  C   UNL A   1      36.981  30.995  28.186  1.00  0.00     0.002 A 
ATOM     62  C   UNL A   1      37.590  30.192  30.367  1.00  0.00     0.091 A 
ATOM     63  F   UNL A   1      39.287  28.588  30.607  1.00  0.00    -0.205 F 
ATOM     64  C   UNL A   1      36.875  31.084  29.565  1.00  0.00     0.022 A 
BRANCH  62  65
ATOM     65  S   UNL A   1      37.360  30.296  32.146  1.00  0.00     0.127 S 
ATOM     66  O   UNL A   1      38.654  30.814  32.580  1.00  0.00    -0.237 OA
ATOM     67  O   UNL A   1      36.247  31.241  32.253  1.00  0.00    -0.237 OA
ATOM     68  O   UNL A   1      37.030  28.940  32.565  1.00  0.00    -0.744 OA
ENDBRANCH  62  65
ENDBRANCH  44  58
BRANCH  45  69
ATOM     69  C   UNL A   1      44.628  26.426  33.652  1.00  0.00     0.023 A 
ATOM     70  C   UNL A   1      45.928  26.644  34.139  1.00  0.00     0.012 A 
ATOM     71  C   UNL A   1      43.573  26.277  34.582  1.00  0.00     0.148 A 
ATOM     72  C   UNL A   1      46.167  26.758  35.512  1.00  0.00     0.002 A 
ATOM     73  C   UNL A   1      43.816  26.392  35.946  1.00  0.00     0.091 A 
ATOM     74  F   UNL A   1      42.325  26.109  34.120  1.00  0.00    -0.205 F 
ATOM     75  C   UNL A   1      45.112  26.645  36.415  1.00  0.00     0.022 A 
BRANCH  73  76
ATOM     76  S   UNL A   1      42.502  26.292  37.170  1.00  0.00     0.127 S 
ATOM     77  O   UNL A   1      41.896  24.996  36.860  1.00  0.00    -0.237 OA
ATOM     78  O   UNL A   1      43.254  26.331  38.422  1.00  0.00    -0.237 OA
ATOM     79  O   UNL A   1      41.636  27.436  36.916  1.00  0.00    -0.744 OA
ENDBRANCH  73  76
ENDBRANCH  45  69
BRANCH  57  80
ATOM     80  C   UNL A   1      45.309  28.867  27.888  1.00  0.00     0.023 A 
ATOM     81  C   UNL A   1      46.430  29.719  27.947  1.00  0.00     0.012 A 
ATOM     82  C   UNL A   1      45.489  27.545  27.443  1.00  0.00     0.148 A 
ATOM     83  C   UNL A   1      47.698  29.270  27.566  1.00  0.00     0.002 A 
ATOM     84  C   UNL A   1      46.759  27.085  27.114  1.00  0.00     0.091 A 
ATOM     85  F   UNL A   1      44.415  26.741  27.398  1.00  0.00    -0.205 F 
ATOM     86  C   UNL A   1      47.866  27.948  27.167  1.00  0.00     0.022 A 
BRANCH  84  87
ATOM     87  S   UNL A   1      47.075  25.358  26.739  1.00  0.00     0.127 S 
ATOM     88  O   UNL A   1      46.174  25.120  25.614  1.00  0.00    -0.237 OA
ATOM     89  O   UNL A   1      48.498  25.368  26.391  1.00  0.00    -0.237 OA
ATOM     90  O   UNL A   1      46.766  24.617  27.955  1.00  0.00    -0.744 OA
ENDBRANCH  84  87
ENDBRANCH  57  80
ENDBRANCH  31  32
ENDBRANCH  23  26
ENDBRANCH  21  22
ENDBRANCH   1  21
TORSDOF 15
ENDMDL
MODEL 2
REMARK VINA RESULT:     -11.5      4.314      9.659
REMARK SMILES Cc1cc(C)c2c(O[C@@H](C)C(=O)NCCCNC(=O)c3ccc(-c4c5nc(c(-c6cccc(S(=O)(=O)[O-])c6F)c6ccc([nH]6)c(-c6cccc(S(=O)(=O)[O-])c6F)c6nc(c(-c7cccc(S(=O)(=O)[O-])c7F)c7ccc4[nH]7)C=C6)C=C5)cc3)nsc2n1
REMARK SMILES IDX 15 1 14 2 13 3 11 4 12 5 9 7 10 8 8 9 7 10 1 11 2 12 3 13
REMARK SMILES IDX 86 14 4 15 85 16 5 17 6 18 84 19 83 20 16 21 17 22 18 23
REMARK SMILES IDX 19 25 20 26 21 27 82 28 22 29 81 30 23 31 24 32 25 33 75 34
REMARK SMILES IDX 26 35 80 36 74 37 76 38 27 39 79 40 73 41 72 42 28 44 60 45
REMARK SMILES IDX 40 46 59 47 41 48 44 49 58 50 77 51 42 52 43 53 57 55 78 56
REMARK SMILES IDX 45 57 29 58 30 59 38 60 31 61 33 62 39 63 32 64 34 65 35 66
REMARK SMILES IDX 36 67 37 68 61 69 62 70 70 71 63 72 65 73 71 74 64 75 66 76
REMARK SMILES IDX 67 77 68 78 69 79 46 80 47 81 55 82 48 83 50 84 56 85 49 86
REMARK SMILES IDX 51 87 52 88 53 89 54 90
REMARK H PARENT 13 6 17 24 76 43 44 54
REMARK Flexibility Score: inf
ROOT
ATOM      1  C   UNL A   1      33.296  33.886  28.293  1.00  0.00     0.042 C 
ENDROOT
BRANCH   1   2
ATOM      2  C   UNL A   1      33.600  35.029  29.253  1.00  0.00     0.118 C 
BRANCH   2   3
ATOM      3  N   UNL A   1      33.033  34.896  30.583  1.00  0.00    -0.353 N 
ATOM      4  C   UNL A   1      33.679  35.046  31.777  1.00  0.00     0.260 C 
ATOM      5  O   UNL A   1      33.152  35.778  32.621  1.00  0.00    -0.271 OA
ATOM      6  H   UNL A   1      32.076  34.672  30.630  1.00  0.00     0.163 HD
BRANCH   4   7
ATOM      7  C   UNL A   1      34.928  34.198  32.155  1.00  0.00     0.260 C 
ATOM      8  C   UNL A   1      34.790  32.689  31.924  1.00  0.00     0.064 C 
BRANCH   7   9
ATOM      9  O   UNL A   1      35.891  34.533  33.101  1.00  0.00    -0.463 OA
BRANCH   9  10
ATOM     10  C   UNL A   1      37.223  34.587  32.895  1.00  0.00     0.235 A 
ATOM     11  C   UNL A   1      41.555  32.274  30.103  1.00  0.00     0.067 C 
ATOM     12  C   UNL A   1      40.399  33.050  30.660  1.00  0.00     0.039 A 
ATOM     13  C   UNL A   1      39.293  33.319  29.871  1.00  0.00     0.027 A 
ATOM     14  N   UNL A   1      40.495  33.446  31.932  1.00  0.00    -0.240 NA
ATOM     15  C   UNL A   1      38.130  33.919  30.413  1.00  0.00    -0.034 A 
ATOM     16  C   UNL A   1      39.385  34.015  32.435  1.00  0.00     0.147 A 
ATOM     17  C   UNL A   1      37.024  34.168  29.421  1.00  0.00     0.045 C 
ATOM     18  C   UNL A   1      38.141  34.220  31.815  1.00  0.00     0.078 A 
ATOM     19  S   UNL A   1      39.372  34.566  34.039  1.00  0.00    -0.012 S 
ATOM     20  N   UNL A   1      37.774  34.920  34.064  1.00  0.00    -0.153 NA
ENDBRANCH   9  10
ENDBRANCH   7   9
ENDBRANCH   4   7
ENDBRANCH   2   3
ENDBRANCH   1   2
BRANCH   1  21
ATOM     21  C   UNL A   1      34.394  32.823  28.294  1.00  0.00     0.118 C 
BRANCH  21  22
ATOM     22  N   UNL A   1      33.937  31.438  28.095  1.00  0.00    -0.352 N 
ATOM     23  C   UNL A   1      34.730  30.297  28.036  1.00  0.00     0.251 C 
ATOM     24  H   UNL A   1      32.967  31.306  27.991  1.00  0.00     0.163 HD
ATOM     25  O   UNL A   1      34.332  29.235  27.570  1.00  0.00    -0.269 OA
BRANCH  23  26
ATOM     26  C   UNL A   1      36.098  30.398  28.554  1.00  0.00     0.039 A 
ATOM     27  C   UNL A   1      36.384  30.034  29.872  1.00  0.00     0.014 A 
ATOM     28  C   UNL A   1      37.094  30.561  27.603  1.00  0.00     0.014 A 
ATOM     29  C   UNL A   1      37.685  29.647  30.185  1.00  0.00     0.010 A 
ATOM     30  C   UNL A   1      38.323  30.012  27.878  1.00  0.00     0.010 A 
ATOM     31  C   UNL A   1      38.641  29.555  29.161  1.00  0.00    -0.014 A 
BRANCH  31  32
ATOM     32  C   UNL A   1      39.902  28.836  29.383  1.00  0.00     0.031 A 
ATOM     33  C   UNL A   1      40.330  28.629  30.804  1.00  0.00     0.074 A 
ATOM     34  C   UNL A   1      40.567  28.174  28.412  1.00  0.00     0.049 A 
ATOM     35  N   UNL A   1      41.346  29.165  31.402  1.00  0.00    -0.248 NA
ATOM     36  C   UNL A   1      39.501  27.795  31.686  1.00  0.00     0.031 C 
ATOM     37  C   UNL A   1      40.186  27.977  27.006  1.00  0.00     0.029 A 
ATOM     38  N   UNL A   1      41.686  27.408  28.525  1.00  0.00    -0.354 N 
ATOM     39  C   UNL A   1      41.413  28.577  32.667  1.00  0.00     0.074 A 
ATOM     40  C   UNL A   1      40.169  27.873  32.841  1.00  0.00     0.031 C 
ATOM     41  C   UNL A   1      40.874  26.938  26.492  1.00  0.00     0.029 A 
ATOM     42  C   UNL A   1      41.903  26.572  27.440  1.00  0.00     0.049 A 
ATOM     43  H   UNL A   1      42.285  27.443  29.306  1.00  0.00     0.167 HD
ATOM     44  C   UNL A   1      42.573  28.545  33.384  1.00  0.00     0.034 A 
ATOM     45  C   UNL A   1      42.880  25.653  27.304  1.00  0.00     0.034 A 
ATOM     46  C   UNL A   1      43.576  29.396  32.798  1.00  0.00     0.049 A 
ATOM     47  C   UNL A   1      43.984  26.076  28.190  1.00  0.00     0.074 A 
ATOM     48  C   UNL A   1      43.712  30.744  32.546  1.00  0.00     0.029 A 
ATOM     49  N   UNL A   1      44.533  28.763  32.044  1.00  0.00    -0.354 N 
ATOM     50  N   UNL A   1      44.657  27.184  28.024  1.00  0.00    -0.248 NA
ATOM     51  C   UNL A   1      44.128  25.447  29.490  1.00  0.00     0.031 C 
ATOM     52  C   UNL A   1      44.445  30.816  31.324  1.00  0.00     0.029 A 
ATOM     53  C   UNL A   1      44.746  29.512  30.919  1.00  0.00     0.049 A 
ATOM     54  H   UNL A   1      44.986  27.919  32.272  1.00  0.00     0.167 HD
ATOM     55  C   UNL A   1      44.942  27.613  29.311  1.00  0.00     0.074 A 
ATOM     56  C   UNL A   1      44.744  26.432  30.147  1.00  0.00     0.031 C 
ATOM     57  C   UNL A   1      45.026  28.944  29.613  1.00  0.00     0.034 A 
BRANCH  44  58
ATOM     58  C   UNL A   1      42.973  27.512  34.421  1.00  0.00     0.023 A 
ATOM     59  C   UNL A   1      43.144  27.960  35.755  1.00  0.00     0.012 A 
ATOM     60  C   UNL A   1      43.442  26.214  34.127  1.00  0.00     0.148 A 
ATOM     61  C   UNL A   1      43.790  27.182  36.724  1.00  0.00     0.002 A 
ATOM     62  C   UNL A   1      44.006  25.410  35.116  1.00  0.00     0.091 A 
ATOM     63  F   UNL A   1      43.477  25.788  32.860  1.00  0.00    -0.205 F 
ATOM     64  C   UNL A   1      44.212  25.901  36.407  1.00  0.00     0.022 A 
BRANCH  62  65
ATOM     65  S   UNL A   1      44.500  23.717  34.774  1.00  0.00     0.127 S 
ATOM     66  O   UNL A   1      44.905  23.255  36.098  1.00  0.00    -0.237 OA
ATOM     67  O   UNL A   1      43.255  23.135  34.268  1.00  0.00    -0.237 OA
ATOM     68  O   UNL A   1      45.554  23.824  33.773  1.00  0.00    -0.744 OA
ENDBRANCH  62  65
ENDBRANCH  44  58
BRANCH  45  69
ATOM     69  C   UNL A   1      42.864  24.378  26.564  1.00  0.00     0.023 A 
ATOM     70  C   UNL A   1      43.990  23.989  25.818  1.00  0.00     0.012 A 
ATOM     71  C   UNL A   1      41.849  23.423  26.804  1.00  0.00     0.148 A 
ATOM     72  C   UNL A   1      44.126  22.674  25.361  1.00  0.00     0.002 A 
ATOM     73  C   UNL A   1      41.989  22.117  26.348  1.00  0.00     0.091 A 
ATOM     74  F   UNL A   1      40.793  23.778  27.550  1.00  0.00    -0.205 F 
ATOM     75  C   UNL A   1      43.134  21.735  25.635  1.00  0.00     0.022 A 
BRANCH  73  76
ATOM     76  S   UNL A   1      40.768  20.841  26.691  1.00  0.00     0.127 S 
ATOM     77  O   UNL A   1      39.574  21.382  26.043  1.00  0.00    -0.237 OA
ATOM     78  O   UNL A   1      41.354  19.679  26.026  1.00  0.00    -0.237 OA
ATOM     79  O   UNL A   1      40.678  20.759  28.144  1.00  0.00    -0.744 OA
ENDBRANCH  73  76
ENDBRANCH  45  69
BRANCH  57  80
ATOM     80  C   UNL A   1      45.112  29.939  28.477  1.00  0.00     0.023 A 
ATOM     81  C   UNL A   1      43.960  30.486  27.877  1.00  0.00     0.012 A 
ATOM     82  C   UNL A   1      46.365  30.500  28.167  1.00  0.00     0.148 A 
ATOM     83  C   UNL A   1      44.051  31.559  26.987  1.00  0.00     0.002 A 
ATOM     84  C   UNL A   1      46.448  31.600  27.322  1.00  0.00     0.091 A 
ATOM     85  F   UNL A   1      47.454  29.974  28.750  1.00  0.00    -0.205 F 
ATOM     86  C   UNL A   1      45.293  32.128  26.723  1.00  0.00     0.022 A 
BRANCH  84  87
ATOM     87  S   UNL A   1      47.991  32.478  27.057  1.00  0.00     0.127 S 
ATOM     88  O   UNL A   1      48.293  32.977  28.397  1.00  0.00    -0.237 OA
ATOM     89  O   UNL A   1      48.880  31.414  26.586  1.00  0.00    -0.237 OA
ATOM     90  O   UNL A   1      47.708  33.502  26.059  1.00  0.00    -0.744 OA
ENDBRANCH  84  87
ENDBRANCH  57  80
ENDBRANCH  31  32
ENDBRANCH  23  26
ENDBRANCH  21  22
ENDBRANCH   1  21
TORSDOF 15
ENDMDL
MODEL 3
REMARK VINA RESULT:     -11.4      3.303      7.885
REMARK SMILES Cc1cc(C)c2c(O[C@@H](C)C(=O)NCCCNC(=O)c3ccc(-c4c5nc(c(-c6cccc(S(=O)(=O)[O-])c6F)c6ccc([nH]6)c(-c6cccc(S(=O)(=O)[O-])c6F)c6nc(c(-c7cccc(S(=O)(=O)[O-])c7F)c7ccc4[nH]7)C=C6)C=C5)cc3)nsc2n1
REMARK SMILES IDX 15 1 14 2 13 3 11 4 12 5 9 7 10 8 8 9 7 10 1 11 2 12 3 13
REMARK SMILES IDX 86 14 4 15 85 16 5 17 6 18 84 19 83 20 16 21 17 22 18 23
REMARK SMILES IDX 19 25 20 26 21 27 82 28 22 29 81 30 23 31 24 32 25 33 75 34
REMARK SMILES IDX 26 35 80 36 74 37 76 38 27 39 79 40 73 41 72 42 28 44 60 45
REMARK SMILES IDX 40 46 59 47 41 48 44 49 58 50 77 51 42 52 43 53 57 55 78 56
REMARK SMILES IDX 45 57 29 58 30 59 38 60 31 61 33 62 39 63 32 64 34 65 35 66
REMARK SMILES IDX 36 67 37 68 61 69 62 70 70 71 63 72 65 73 71 74 64 75 66 76
REMARK SMILES IDX 67 77 68 78 69 79 46 80 47 81 55 82 48 83 50 84 56 85 49 86
REMARK SMILES IDX 51 87 52 88 53 89 54 90
REMARK H PARENT 13 6 17 24 76 43 44 54
REMARK Flexibility Score: inf
ROOT
ATOM      1  C   UNL A   1      33.568  28.558  27.236  1.00  0.00     0.042 C 
ENDROOT
BRANCH   1   2
ATOM      2  C   UNL A   1      32.369  29.310  26.673  1.00  0.00     0.118 C 
BRANCH   2   3
ATOM      3  N   UNL A   1      32.209  29.243  25.233  1.00  0.00    -0.353 N 
ATOM      4  C   UNL A   1      31.213  28.616  24.539  1.00  0.00     0.260 C 
ATOM      5  O   UNL A   1      30.643  29.263  23.653  1.00  0.00    -0.271 OA
ATOM      6  H   UNL A   1      32.895  29.700  24.695  1.00  0.00     0.163 HD
BRANCH   4   7
ATOM      7  C   UNL A   1      30.916  27.098  24.707  1.00  0.00     0.260 C 
ATOM      8  C   UNL A   1      30.351  26.399  23.465  1.00  0.00     0.064 C 
BRANCH   7   9
ATOM      9  O   UNL A   1      30.615  26.448  25.899  1.00  0.00    -0.463 OA
BRANCH   9  10
ATOM     10  C   UNL A   1      30.972  25.191  26.231  1.00  0.00     0.235 A 
ATOM     11  C   UNL A   1      34.049  20.711  24.688  1.00  0.00     0.067 C 
ATOM     12  C   UNL A   1      33.426  21.961  25.234  1.00  0.00     0.039 A 
ATOM     13  C   UNL A   1      34.104  23.166  25.166  1.00  0.00     0.027 A 
ATOM     14  N   UNL A   1      32.206  21.844  25.768  1.00  0.00    -0.240 NA
ATOM     15  C   UNL A   1      33.482  24.383  25.541  1.00  0.00    -0.034 A 
ATOM     16  C   UNL A   1      31.627  23.006  26.119  1.00  0.00     0.147 A 
ATOM     17  C   UNL A   1      34.360  25.603  25.433  1.00  0.00     0.045 C 
ATOM     18  C   UNL A   1      32.117  24.315  25.975  1.00  0.00     0.078 A 
ATOM     19  S   UNL A   1      30.079  23.001  26.811  1.00  0.00    -0.012 S 
ATOM     20  N   UNL A   1      29.902  24.629  26.795  1.00  0.00    -0.153 NA
ENDBRANCH   9  10
ENDBRANCH   7   9
ENDBRANCH   4   7
ENDBRANCH   2   3
ENDBRANCH   1   2
BRANCH   1  21
ATOM     21  C   UNL A   1      34.870  29.343  27.075  1.00  0.00     0.118 C 
BRANCH  21  22
ATOM     22  N   UNL A   1      34.731  30.809  27.068  1.00  0.00    -0.352 N 
ATOM     23  C   UNL A   1      35.237  31.700  28.007  1.00  0.00     0.251 C 
ATOM     24  H   UNL A   1      34.225  31.199  26.319  1.00  0.00     0.163 HD
ATOM     25  O   UNL A   1      34.835  32.854  28.112  1.00  0.00    -0.269 OA
BRANCH  23  26
ATOM     26  C   UNL A   1      36.290  31.212  28.903  1.00  0.00     0.039 A 
ATOM     27  C   UNL A   1      36.219  29.926  29.443  1.00  0.00     0.014 A 
ATOM     28  C   UNL A   1      37.462  31.953  28.920  1.00  0.00     0.014 A 
ATOM     29  C   UNL A   1      37.402  29.307  29.839  1.00  0.00     0.010 A 
ATOM     30  C   UNL A   1      38.634  31.273  29.146  1.00  0.00     0.010 A 
ATOM     31  C   UNL A   1      38.627  29.954  29.610  1.00  0.00    -0.014 A 
BRANCH  31  32
ATOM     32  C   UNL A   1      39.889  29.207  29.694  1.00  0.00     0.031 A 
ATOM     33  C   UNL A   1      40.432  28.935  31.062  1.00  0.00     0.074 A 
ATOM     34  C   UNL A   1      40.456  28.577  28.642  1.00  0.00     0.049 A 
ATOM     35  N   UNL A   1      41.505  29.429  31.592  1.00  0.00    -0.248 NA
ATOM     36  C   UNL A   1      39.666  28.076  31.978  1.00  0.00     0.031 C 
ATOM     37  C   UNL A   1      39.953  28.444  27.268  1.00  0.00     0.029 A 
ATOM     38  N   UNL A   1      41.566  27.789  28.628  1.00  0.00    -0.354 N 
ATOM     39  C   UNL A   1      41.669  28.787  32.822  1.00  0.00     0.074 A 
ATOM     40  C   UNL A   1      40.432  28.096  33.074  1.00  0.00     0.031 C 
ATOM     41  C   UNL A   1      40.575  27.417  26.655  1.00  0.00     0.029 A 
ATOM     42  C   UNL A   1      41.674  26.997  27.495  1.00  0.00     0.049 A 
ATOM     43  H   UNL A   1      42.230  27.783  29.355  1.00  0.00     0.167 HD
ATOM     44  C   UNL A   1      42.885  28.707  33.435  1.00  0.00     0.034 A 
ATOM     45  C   UNL A   1      42.618  26.070  27.239  1.00  0.00     0.034 A 
ATOM     46  C   UNL A   1      43.850  29.567  32.800  1.00  0.00     0.049 A 
ATOM     47  C   UNL A   1      43.802  26.439  28.042  1.00  0.00     0.074 A 
ATOM     48  C   UNL A   1      43.990  30.923  32.592  1.00  0.00     0.029 A 
ATOM     49  N   UNL A   1      44.727  28.953  31.941  1.00  0.00    -0.354 N 
ATOM     50  N   UNL A   1      44.479  27.542  27.864  1.00  0.00    -0.248 NA
ATOM     51  C   UNL A   1      44.045  25.753  29.299  1.00  0.00     0.031 C 
ATOM     52  C   UNL A   1      44.617  31.035  31.315  1.00  0.00     0.029 A 
ATOM     53  C   UNL A   1      44.858  29.745  30.833  1.00  0.00     0.049 A 
ATOM     54  H   UNL A   1      45.182  28.092  32.095  1.00  0.00     0.167 HD
ATOM     55  C   UNL A   1      44.880  27.912  29.139  1.00  0.00     0.074 A 
ATOM     56  C   UNL A   1      44.733  26.701  29.940  1.00  0.00     0.031 C 
ATOM     57  C   UNL A   1      45.014  29.228  29.486  1.00  0.00     0.034 A 
BRANCH  44  58
ATOM     58  C   UNL A   1      43.353  27.626  34.390  1.00  0.00     0.023 A 
ATOM     59  C   UNL A   1      43.748  28.032  35.691  1.00  0.00     0.012 A 
ATOM     60  C   UNL A   1      43.677  26.304  34.016  1.00  0.00     0.148 A 
ATOM     61  C   UNL A   1      44.467  27.188  36.547  1.00  0.00     0.002 A 
ATOM     62  C   UNL A   1      44.317  25.441  34.904  1.00  0.00     0.091 A 
ATOM     63  F   UNL A   1      43.497  25.905  32.754  1.00  0.00    -0.205 F 
ATOM     64  C   UNL A   1      44.743  25.887  36.157  1.00  0.00     0.022 A 
BRANCH  62  65
ATOM     65  S   UNL A   1      44.628  23.725  34.475  1.00  0.00     0.127 S 
ATOM     66  O   UNL A   1      44.841  23.126  35.789  1.00  0.00    -0.237 OA
ATOM     67  O   UNL A   1      43.377  23.345  33.816  1.00  0.00    -0.237 OA
ATOM     68  O   UNL A   1      45.781  23.760  33.583  1.00  0.00    -0.744 OA
ENDBRANCH  62  65
ENDBRANCH  44  58
BRANCH  45  69
ATOM     69  C   UNL A   1      42.516  24.827  26.452  1.00  0.00     0.023 A 
ATOM     70  C   UNL A   1      43.487  24.535  25.478  1.00  0.00     0.012 A 
ATOM     71  C   UNL A   1      41.617  23.806  26.839  1.00  0.00     0.148 A 
ATOM     72  C   UNL A   1      43.590  23.250  24.935  1.00  0.00     0.002 A 
ATOM     73  C   UNL A   1      41.726  22.530  26.297  1.00  0.00     0.091 A 
ATOM     74  F   UNL A   1      40.717  24.069  27.797  1.00  0.00    -0.205 F 
ATOM     75  C   UNL A   1      42.720  22.245  25.353  1.00  0.00     0.022 A 
BRANCH  73  76
ATOM     76  S   UNL A   1      40.662  21.173  26.810  1.00  0.00     0.127 S 
ATOM     77  O   UNL A   1      39.353  21.616  26.331  1.00  0.00    -0.237 OA
ATOM     78  O   UNL A   1      41.235  20.049  26.074  1.00  0.00    -0.237 OA
ATOM     79  O   UNL A   1      40.779  21.104  28.261  1.00  0.00    -0.744 OA
ENDBRANCH  73  76
ENDBRANCH  45  69
BRANCH  57  80
ATOM     80  C   UNL A   1      45.023  30.268  28.388  1.00  0.00     0.023 A 
ATOM     81  C   UNL A   1      43.830  30.818  27.875  1.00  0.00     0.012 A 
ATOM     82  C   UNL A   1      46.248  30.862  28.033  1.00  0.00     0.148 A 
ATOM     83  C   UNL A   1      43.855  31.927  27.025  1.00  0.00     0.002 A 
ATOM     84  C   UNL A   1      46.266  31.997  27.229  1.00  0.00     0.091 A 
ATOM     85  F   UNL A   1      47.375  30.333  28.533  1.00  0.00    -0.205 F 
ATOM     86  C   UNL A   1      45.072  32.528  26.716  1.00  0.00     0.022 A 
BRANCH  84  87
ATOM     87  S   UNL A   1      47.779  32.911  26.915  1.00  0.00     0.127 S 
ATOM     88  O   UNL A   1      48.057  33.500  28.224  1.00  0.00    -0.237 OA
ATOM     89  O   UNL A   1      48.707  31.853  26.512  1.00  0.00    -0.237 OA
ATOM     90  O   UNL A   1      47.465  33.861  25.856  1.00  0.00    -0.744 OA
ENDBRANCH  84  87
ENDBRANCH  57  80
ENDBRANCH  31  32
ENDBRANCH  23  26
ENDBRANCH  21  22
ENDBRANCH   1  21
TORSDOF 15
ENDMDL
