MODEL 1
REMARK VINA RESULT:     -12.3      0.000      0.000
REMARK SMILES COc1ccc(-c2ccc(CCC(=O)NCCCNC(=O)c3ccc(-c4c5nc(c(-c6cccc(S(=O)(=O)[O-])c6F)c6ccc([nH]6)c(-c6cccc(S(=O)(=O)[O-])c6F)c6nc(c(-c7cccc(S(=O)(=O)[O-])c7F)c7ccc4[nH]7)C=C6)C=C5)cc3)n2-c2ccc(C(C)=O)cc2)cc1
REMARK SMILES IDX 16 1 15 2 13 3 14 4 12 6 11 7 10 8 7 9 8 10 85 11 9 12 6 13
REMARK SMILES IDX 3 14 4 15 96 16 5 17 95 18 2 19 1 20 86 21 87 22 94 23 88 24
REMARK SMILES IDX 93 25 89 26 90 27 91 28 92 29 17 30 18 31 19 32 20 33 21 35
REMARK SMILES IDX 22 36 23 37 84 38 24 39 83 40 25 41 26 42 27 43 77 44 28 45
REMARK SMILES IDX 82 46 76 47 78 48 29 49 81 50 75 51 74 52 30 54 62 55 42 56
REMARK SMILES IDX 61 57 43 58 46 59 60 60 79 61 44 62 45 63 59 65 80 66 47 67
REMARK SMILES IDX 31 68 32 69 40 70 33 71 35 72 41 73 34 74 36 75 37 76 38 77
REMARK SMILES IDX 39 78 63 79 64 80 72 81 65 82 67 83 73 84 66 85 68 86 69 87
REMARK SMILES IDX 70 88 71 89 48 90 49 91 57 92 50 93 52 94 58 95 51 96 53 97
REMARK SMILES IDX 54 98 55 99 56 100
REMARK H PARENT 15 5 19 34 78 53 46 64
REMARK Flexibility Score: inf
ROOT
ATOM      1  C   UNL A   1      35.313  23.587  24.361  1.00  0.00     0.117 C 
ENDROOT
BRANCH   1   2
ATOM      2  N   UNL A   1      34.735  22.259  24.258  1.00  0.00    -0.356 N 
ATOM      3  C   UNL A   1      33.538  21.877  23.728  1.00  0.00     0.220 C 
ATOM      4  O   UNL A   1      33.181  20.705  23.854  1.00  0.00    -0.275 OA
ATOM      5  H   UNL A   1      35.285  21.529  24.624  1.00  0.00     0.163 HD
BRANCH   3   6
ATOM      6  C   UNL A   1      32.690  22.858  22.938  1.00  0.00     0.106 C 
BRANCH   6   7
ATOM      7  C   UNL A   1      31.465  23.354  23.712  1.00  0.00     0.064 C 
BRANCH   7   8
ATOM      8  C   UNL A   1      31.816  24.204  24.907  1.00  0.00     0.024 A 
ATOM      9  C   UNL A   1      32.474  26.052  26.034  1.00  0.00     0.053 A 
ATOM     10  C   UNL A   1      32.677  24.945  26.847  1.00  0.00     0.029 A 
ATOM     11  N   UNL A   1      31.730  25.595  24.945  1.00  0.00    -0.314 N 
ATOM     12  C   UNL A   1      32.241  23.795  26.156  1.00  0.00     0.024 A 
BRANCH   9  13
ATOM     13  C   UNL A   1      32.724  27.447  26.396  1.00  0.00    -0.001 A 
ATOM     14  C   UNL A   1      33.217  30.076  27.262  1.00  0.00     0.118 A 
ATOM     15  C   UNL A   1      31.954  29.504  27.419  1.00  0.00     0.047 A 
ATOM     16  C   UNL A   1      34.244  29.326  26.688  1.00  0.00     0.047 A 
ATOM     17  C   UNL A   1      31.705  28.201  26.983  1.00  0.00     0.014 A 
ATOM     18  C   UNL A   1      33.997  28.014  26.258  1.00  0.00     0.014 A 
BRANCH  14  19
ATOM     19  O   UNL A   1      33.344  31.344  27.761  1.00  0.00    -0.497 OA
ATOM     20  C   UNL A   1      32.421  32.298  27.254  1.00  0.00     0.278 C 
ENDBRANCH  14  19
ENDBRANCH   9  13
BRANCH  11  21
ATOM     21  C   UNL A   1      30.787  26.367  24.219  1.00  0.00     0.046 A 
ATOM     22  C   UNL A   1      29.441  26.219  24.572  1.00  0.00     0.027 A 
ATOM     23  C   UNL A   1      31.169  27.333  23.291  1.00  0.00     0.027 A 
ATOM     24  C   UNL A   1      28.469  27.042  24.010  1.00  0.00     0.014 A 
ATOM     25  C   UNL A   1      30.185  28.144  22.711  1.00  0.00     0.014 A 
ATOM     26  C   UNL A   1      28.832  28.019  23.079  1.00  0.00     0.017 A 
BRANCH  26  27
ATOM     27  C   UNL A   1      27.837  28.953  22.467  1.00  0.00     0.159 C 
ATOM     28  C   UNL A   1      28.268  29.998  21.466  1.00  0.00     0.093 C 
ATOM     29  O   UNL A   1      26.648  28.855  22.774  1.00  0.00    -0.295 OA
ENDBRANCH  26  27
ENDBRANCH  11  21
ENDBRANCH   7   8
ENDBRANCH   6   7
ENDBRANCH   3   6
ENDBRANCH   1   2
BRANCH   1  30
ATOM     30  C   UNL A   1      36.808  23.503  24.638  1.00  0.00     0.042 C 
BRANCH  30  31
ATOM     31  C   UNL A   1      37.246  24.189  25.919  1.00  0.00     0.118 C 
BRANCH  31  32
ATOM     32  N   UNL A   1      38.256  23.408  26.613  1.00  0.00    -0.352 N 
ATOM     33  C   UNL A   1      39.347  23.844  27.325  1.00  0.00     0.251 C 
ATOM     34  H   UNL A   1      38.143  22.432  26.568  1.00  0.00     0.163 HD
ATOM     35  O   UNL A   1      40.233  23.028  27.579  1.00  0.00    -0.269 OA
BRANCH  33  36
ATOM     36  C   UNL A   1      39.480  25.252  27.783  1.00  0.00     0.039 A 
ATOM     37  C   UNL A   1      38.998  25.574  29.062  1.00  0.00     0.014 A 
ATOM     38  C   UNL A   1      39.997  26.264  26.969  1.00  0.00     0.014 A 
ATOM     39  C   UNL A   1      39.085  26.882  29.538  1.00  0.00     0.010 A 
ATOM     40  C   UNL A   1      40.106  27.564  27.447  1.00  0.00     0.010 A 
ATOM     41  C   UNL A   1      39.664  27.871  28.734  1.00  0.00    -0.014 A 
BRANCH  41  42
ATOM     42  C   UNL A   1      39.937  29.217  29.289  1.00  0.00     0.031 A 
ATOM     43  C   UNL A   1      38.760  30.190  29.065  1.00  0.00     0.074 A 
ATOM     44  C   UNL A   1      41.140  29.379  29.922  1.00  0.00     0.049 A 
ATOM     45  N   UNL A   1      38.753  31.487  28.970  1.00  0.00    -0.248 NA
ATOM     46  C   UNL A   1      37.401  29.634  28.804  1.00  0.00     0.031 C 
ATOM     47  C   UNL A   1      42.149  28.307  30.078  1.00  0.00     0.029 A 
ATOM     48  N   UNL A   1      41.761  30.431  30.570  1.00  0.00    -0.354 N 
ATOM     49  C   UNL A   1      37.394  31.892  28.901  1.00  0.00     0.074 A 
ATOM     50  C   UNL A   1      36.631  30.712  28.647  1.00  0.00     0.031 C 
ATOM     51  C   UNL A   1      43.254  28.769  30.700  1.00  0.00     0.029 A 
ATOM     52  C   UNL A   1      43.073  30.167  31.045  1.00  0.00     0.049 A 
ATOM     53  H   UNL A   1      41.324  31.305  30.694  1.00  0.00     0.167 HD
ATOM     54  C   UNL A   1      36.971  33.149  29.234  1.00  0.00     0.034 A 
ATOM     55  C   UNL A   1      43.969  31.005  31.653  1.00  0.00     0.034 A 
ATOM     56  C   UNL A   1      38.093  33.914  29.667  1.00  0.00     0.049 A 
ATOM     57  C   UNL A   1      43.236  32.243  31.946  1.00  0.00     0.074 A 
ATOM     58  C   UNL A   1      39.140  34.508  29.019  1.00  0.00     0.029 A 
ATOM     59  N   UNL A   1      38.357  33.843  31.014  1.00  0.00    -0.354 N 
ATOM     60  N   UNL A   1      42.352  32.362  32.893  1.00  0.00    -0.248 NA
ATOM     61  C   UNL A   1      43.428  33.413  31.082  1.00  0.00     0.031 C 
ATOM     62  C   UNL A   1      40.194  34.430  29.951  1.00  0.00     0.029 A 
ATOM     63  C   UNL A   1      39.712  33.936  31.171  1.00  0.00     0.049 A 
ATOM     64  H   UNL A   1      37.693  33.744  31.733  1.00  0.00     0.167 HD
ATOM     65  C   UNL A   1      41.641  33.459  32.475  1.00  0.00     0.074 A 
ATOM     66  C   UNL A   1      42.527  34.223  31.628  1.00  0.00     0.031 C 
ATOM     67  C   UNL A   1      40.291  33.363  32.361  1.00  0.00     0.034 A 
BRANCH  54  68
ATOM     68  C   UNL A   1      35.621  33.788  29.497  1.00  0.00     0.023 A 
ATOM     69  C   UNL A   1      35.043  34.456  28.375  1.00  0.00     0.012 A 
ATOM     70  C   UNL A   1      35.052  34.049  30.754  1.00  0.00     0.148 A 
ATOM     71  C   UNL A   1      34.065  35.439  28.503  1.00  0.00     0.002 A 
ATOM     72  C   UNL A   1      34.025  34.996  30.870  1.00  0.00     0.091 A 
ATOM     73  F   UNL A   1      35.551  33.455  31.842  1.00  0.00    -0.205 F 
ATOM     74  C   UNL A   1      33.567  35.721  29.758  1.00  0.00     0.022 A 
BRANCH  72  75
ATOM     75  S   UNL A   1      33.217  35.353  32.436  1.00  0.00     0.127 S 
ATOM     76  O   UNL A   1      32.918  34.004  32.935  1.00  0.00    -0.237 OA
ATOM     77  O   UNL A   1      34.286  36.038  33.180  1.00  0.00    -0.237 OA
ATOM     78  O   UNL A   1      32.091  36.195  32.113  1.00  0.00    -0.744 OA
ENDBRANCH  72  75
ENDBRANCH  54  68
BRANCH  55  79
ATOM     79  C   UNL A   1      45.443  30.990  31.999  1.00  0.00     0.023 A 
ATOM     80  C   UNL A   1      45.949  30.912  33.303  1.00  0.00     0.012 A 
ATOM     81  C   UNL A   1      46.420  30.955  30.958  1.00  0.00     0.148 A 
ATOM     82  C   UNL A   1      47.322  30.699  33.548  1.00  0.00     0.002 A 
ATOM     83  C   UNL A   1      47.747  30.618  31.190  1.00  0.00     0.091 A 
ATOM     84  F   UNL A   1      46.077  31.288  29.710  1.00  0.00    -0.205 F 
ATOM     85  C   UNL A   1      48.211  30.499  32.494  1.00  0.00     0.022 A 
BRANCH  83  86
ATOM     86  S   UNL A   1      48.858  30.161  29.842  1.00  0.00     0.127 S 
ATOM     87  O   UNL A   1      48.986  31.416  29.104  1.00  0.00    -0.237 OA
ATOM     88  O   UNL A   1      50.056  29.756  30.579  1.00  0.00    -0.237 OA
ATOM     89  O   UNL A   1      48.204  29.079  29.116  1.00  0.00    -0.744 OA
ENDBRANCH  83  86
ENDBRANCH  55  79
BRANCH  67  90
ATOM     90  C   UNL A   1      39.647  32.356  33.314  1.00  0.00     0.023 A 
ATOM     91  C   UNL A   1      39.260  31.114  32.767  1.00  0.00     0.012 A 
ATOM     92  C   UNL A   1      39.296  32.603  34.664  1.00  0.00     0.148 A 
ATOM     93  C   UNL A   1      38.541  30.172  33.508  1.00  0.00     0.002 A 
ATOM     94  C   UNL A   1      38.570  31.663  35.405  1.00  0.00     0.091 A 
ATOM     95  F   UNL A   1      39.653  33.762  35.214  1.00  0.00    -0.205 F 
ATOM     96  C   UNL A   1      38.195  30.446  34.825  1.00  0.00     0.022 A 
BRANCH  94  97
ATOM     97  S   UNL A   1      38.024  31.924  37.107  1.00  0.00     0.127 S 
ATOM     98  O   UNL A   1      39.263  32.318  37.780  1.00  0.00    -0.237 OA
ATOM     99  O   UNL A   1      37.055  33.008  36.960  1.00  0.00    -0.237 OA
ATOM    100  O   UNL A   1      37.470  30.657  37.568  1.00  0.00    -0.744 OA
ENDBRANCH  94  97
ENDBRANCH  67  90
ENDBRANCH  41  42
ENDBRANCH  33  36
ENDBRANCH  31  32
ENDBRANCH  30  31
ENDBRANCH   1  30
TORSDOF 19
ENDMDL
MODEL 2
REMARK VINA RESULT:     -12.2      3.082      8.770
REMARK SMILES COc1ccc(-c2ccc(CCC(=O)NCCCNC(=O)c3ccc(-c4c5nc(c(-c6cccc(S(=O)(=O)[O-])c6F)c6ccc([nH]6)c(-c6cccc(S(=O)(=O)[O-])c6F)c6nc(c(-c7cccc(S(=O)(=O)[O-])c7F)c7ccc4[nH]7)C=C6)C=C5)cc3)n2-c2ccc(C(C)=O)cc2)cc1
REMARK SMILES IDX 16 1 15 2 13 3 14 4 12 6 11 7 10 8 7 9 8 10 85 11 9 12 6 13
REMARK SMILES IDX 3 14 4 15 96 16 5 17 95 18 2 19 1 20 86 21 87 22 94 23 88 24
REMARK SMILES IDX 93 25 89 26 90 27 91 28 92 29 17 30 18 31 19 32 20 33 21 35
REMARK SMILES IDX 22 36 23 37 84 38 24 39 83 40 25 41 26 42 27 43 77 44 28 45
REMARK SMILES IDX 82 46 76 47 78 48 29 49 81 50 75 51 74 52 30 54 62 55 42 56
REMARK SMILES IDX 61 57 43 58 46 59 60 60 79 61 44 62 45 63 59 65 80 66 47 67
REMARK SMILES IDX 31 68 32 69 40 70 33 71 35 72 41 73 34 74 36 75 37 76 38 77
REMARK SMILES IDX 39 78 63 79 64 80 72 81 65 82 67 83 73 84 66 85 68 86 69 87
REMARK SMILES IDX 70 88 71 89 48 90 49 91 57 92 50 93 52 94 58 95 51 96 53 97
REMARK SMILES IDX 54 98 55 99 56 100
REMARK H PARENT 15 5 19 34 78 53 46 64
REMARK Flexibility Score: inf
ROOT
ATOM      1  C   UNL A   1      34.842  23.223  24.065  1.00  0.00     0.117 C 
ENDROOT
BRANCH   1   2
ATOM      2  N   UNL A   1      34.361  23.961  22.909  1.00  0.00    -0.356 N 
ATOM      3  C   UNL A   1      33.221  23.779  22.182  1.00  0.00     0.220 C 
ATOM      4  O   UNL A   1      33.063  24.441  21.155  1.00  0.00    -0.275 OA
ATOM      5  H   UNL A   1      34.941  24.696  22.607  1.00  0.00     0.163 HD
BRANCH   3   6
ATOM      6  C   UNL A   1      32.136  22.833  22.663  1.00  0.00     0.106 C 
BRANCH   6   7
ATOM      7  C   UNL A   1      30.955  23.556  23.318  1.00  0.00     0.064 C 
BRANCH   7   8
ATOM      8  C   UNL A   1      31.322  24.267  24.595  1.00  0.00     0.024 A 
ATOM      9  C   UNL A   1      32.153  25.916  25.903  1.00  0.00     0.053 A 
ATOM     10  C   UNL A   1      32.107  24.745  26.647  1.00  0.00     0.029 A 
ATOM     11  N   UNL A   1      31.450  25.650  24.727  1.00  0.00    -0.314 N 
ATOM     12  C   UNL A   1      31.563  23.723  25.841  1.00  0.00     0.024 A 
BRANCH   9  13
ATOM     13  C   UNL A   1      32.582  27.229  26.384  1.00  0.00    -0.001 A 
ATOM     14  C   UNL A   1      33.402  29.811  27.139  1.00  0.00     0.118 A 
ATOM     15  C   UNL A   1      34.310  28.918  26.569  1.00  0.00     0.047 A 
ATOM     16  C   UNL A   1      32.074  29.420  27.316  1.00  0.00     0.047 A 
ATOM     17  C   UNL A   1      33.907  27.633  26.201  1.00  0.00     0.014 A 
ATOM     18  C   UNL A   1      31.666  28.133  26.936  1.00  0.00     0.014 A 
BRANCH  14  19
ATOM     19  O   UNL A   1      33.909  31.049  27.425  1.00  0.00    -0.497 OA
ATOM     20  C   UNL A   1      35.208  31.063  28.000  1.00  0.00     0.278 C 
ENDBRANCH  14  19
ENDBRANCH   9  13
BRANCH  11  21
ATOM     21  C   UNL A   1      30.708  26.605  23.985  1.00  0.00     0.046 A 
ATOM     22  C   UNL A   1      29.323  26.622  24.181  1.00  0.00     0.027 A 
ATOM     23  C   UNL A   1      31.320  27.578  23.199  1.00  0.00     0.027 A 
ATOM     24  C   UNL A   1      28.541  27.619  23.603  1.00  0.00     0.014 A 
ATOM     25  C   UNL A   1      30.527  28.565  22.600  1.00  0.00     0.014 A 
ATOM     26  C   UNL A   1      29.135  28.605  22.813  1.00  0.00     0.017 A 
BRANCH  26  27
ATOM     27  C   UNL A   1      28.352  29.718  22.194  1.00  0.00     0.159 C 
ATOM     28  C   UNL A   1      27.586  30.698  23.050  1.00  0.00     0.093 C 
ATOM     29  O   UNL A   1      28.348  29.845  20.969  1.00  0.00    -0.295 OA
ENDBRANCH  26  27
ENDBRANCH  11  21
ENDBRANCH   7   8
ENDBRANCH   6   7
ENDBRANCH   3   6
ENDBRANCH   1   2
BRANCH   1  30
ATOM     30  C   UNL A   1      35.378  24.175  25.125  1.00  0.00     0.042 C 
BRANCH  30  31
ATOM     31  C   UNL A   1      36.013  23.486  26.319  1.00  0.00     0.118 C 
BRANCH  31  32
ATOM     32  N   UNL A   1      36.778  22.322  25.909  1.00  0.00    -0.352 N 
ATOM     33  C   UNL A   1      38.141  22.154  25.870  1.00  0.00     0.251 C 
ATOM     34  H   UNL A   1      36.247  21.546  25.618  1.00  0.00     0.163 HD
ATOM     35  O   UNL A   1      38.587  21.210  25.216  1.00  0.00    -0.269 OA
BRANCH  33  36
ATOM     36  C   UNL A   1      39.071  23.068  26.583  1.00  0.00     0.039 A 
ATOM     37  C   UNL A   1      38.995  24.439  26.291  1.00  0.00     0.014 A 
ATOM     38  C   UNL A   1      40.050  22.608  27.468  1.00  0.00     0.014 A 
ATOM     39  C   UNL A   1      39.853  25.341  26.920  1.00  0.00     0.010 A 
ATOM     40  C   UNL A   1      40.892  23.505  28.114  1.00  0.00     0.010 A 
ATOM     41  C   UNL A   1      40.785  24.872  27.852  1.00  0.00    -0.014 A 
BRANCH  41  42
ATOM     42  C   UNL A   1      41.571  25.826  28.666  1.00  0.00     0.031 A 
ATOM     43  C   UNL A   1      43.086  25.538  28.601  1.00  0.00     0.074 A 
ATOM     44  C   UNL A   1      40.860  26.805  29.308  1.00  0.00     0.049 A 
ATOM     45  N   UNL A   1      44.025  25.803  29.460  1.00  0.00    -0.248 NA
ATOM     46  C   UNL A   1      43.624  24.748  27.457  1.00  0.00     0.031 C 
ATOM     47  C   UNL A   1      39.390  26.953  29.227  1.00  0.00     0.029 A 
ATOM     48  N   UNL A   1      41.194  27.868  30.127  1.00  0.00    -0.354 N 
ATOM     49  C   UNL A   1      45.258  25.449  28.851  1.00  0.00     0.074 A 
ATOM     50  C   UNL A   1      44.934  24.670  27.699  1.00  0.00     0.031 C 
ATOM     51  C   UNL A   1      38.963  27.974  29.999  1.00  0.00     0.029 A 
ATOM     52  C   UNL A   1      40.099  28.617  30.632  1.00  0.00     0.049 A 
ATOM     53  H   UNL A   1      42.128  28.090  30.346  1.00  0.00     0.167 HD
ATOM     54  C   UNL A   1      46.461  25.971  29.240  1.00  0.00     0.034 A 
ATOM     55  C   UNL A   1      40.089  29.667  31.512  1.00  0.00     0.034 A 
ATOM     56  C   UNL A   1      46.239  26.907  30.292  1.00  0.00     0.049 A 
ATOM     57  C   UNL A   1      41.492  30.056  31.700  1.00  0.00     0.074 A 
ATOM     58  C   UNL A   1      45.937  26.783  31.620  1.00  0.00     0.029 A 
ATOM     59  N   UNL A   1      46.016  28.200  29.881  1.00  0.00    -0.354 N 
ATOM     60  N   UNL A   1      42.198  30.695  30.815  1.00  0.00    -0.248 NA
ATOM     61  C   UNL A   1      42.195  29.639  32.918  1.00  0.00     0.031 C 
ATOM     62  C   UNL A   1      45.159  27.926  31.890  1.00  0.00     0.029 A 
ATOM     63  C   UNL A   1      45.147  28.768  30.769  1.00  0.00     0.049 A 
ATOM     64  H   UNL A   1      46.411  28.636  29.092  1.00  0.00     0.167 HD
ATOM     65  C   UNL A   1      43.478  30.401  31.213  1.00  0.00     0.074 A 
ATOM     66  C   UNL A   1      43.409  30.094  32.623  1.00  0.00     0.031 C 
ATOM     67  C   UNL A   1      44.343  29.873  30.309  1.00  0.00     0.034 A 
BRANCH  54  68
ATOM     68  C   UNL A   1      47.859  25.988  28.653  1.00  0.00     0.023 A 
ATOM     69  C   UNL A   1      48.904  25.690  29.579  1.00  0.00     0.012 A 
ATOM     70  C   UNL A   1      48.240  26.548  27.423  1.00  0.00     0.148 A 
ATOM     71  C   UNL A   1      50.229  26.064  29.369  1.00  0.00     0.002 A 
ATOM     72  C   UNL A   1      49.586  26.868  27.191  1.00  0.00     0.091 A 
ATOM     73  F   UNL A   1      47.307  26.851  26.516  1.00  0.00    -0.205 F 
ATOM     74  C   UNL A   1      50.566  26.670  28.176  1.00  0.00     0.022 A 
BRANCH  72  75
ATOM     75  S   UNL A   1      50.158  27.546  25.628  1.00  0.00     0.127 S 
ATOM     76  O   UNL A   1      49.804  26.476  24.687  1.00  0.00    -0.237 OA
ATOM     77  O   UNL A   1      49.325  28.752  25.496  1.00  0.00    -0.237 OA
ATOM     78  O   UNL A   1      51.564  27.818  25.810  1.00  0.00    -0.744 OA
ENDBRANCH  72  75
ENDBRANCH  54  68
BRANCH  55  79
ATOM     79  C   UNL A   1      39.060  30.414  32.333  1.00  0.00     0.023 A 
ATOM     80  C   UNL A   1      38.735  30.110  33.662  1.00  0.00     0.012 A 
ATOM     81  C   UNL A   1      38.419  31.571  31.794  1.00  0.00     0.148 A 
ATOM     82  C   UNL A   1      37.919  30.963  34.433  1.00  0.00     0.002 A 
ATOM     83  C   UNL A   1      37.724  32.477  32.585  1.00  0.00     0.091 A 
ATOM     84  F   UNL A   1      38.446  31.795  30.477  1.00  0.00    -0.205 F 
ATOM     85  C   UNL A   1      37.458  32.171  33.913  1.00  0.00     0.022 A 
BRANCH  83  86
ATOM     86  S   UNL A   1      37.296  34.124  31.984  1.00  0.00     0.127 S 
ATOM     87  O   UNL A   1      36.813  34.784  33.196  1.00  0.00    -0.237 OA
ATOM     88  O   UNL A   1      38.591  34.601  31.498  1.00  0.00    -0.237 OA
ATOM     89  O   UNL A   1      36.295  33.937  30.940  1.00  0.00    -0.744 OA
ENDBRANCH  83  86
ENDBRANCH  55  79
BRANCH  67  90
ATOM     90  C   UNL A   1      44.070  30.282  28.861  1.00  0.00     0.023 A 
ATOM     91  C   UNL A   1      43.430  29.332  28.037  1.00  0.00     0.012 A 
ATOM     92  C   UNL A   1      44.510  31.478  28.243  1.00  0.00     0.148 A 
ATOM     93  C   UNL A   1      43.254  29.542  26.667  1.00  0.00     0.002 A 
ATOM     94  C   UNL A   1      44.340  31.687  26.870  1.00  0.00     0.091 A 
ATOM     95  F   UNL A   1      45.111  32.400  28.993  1.00  0.00    -0.205 F 
ATOM     96  C   UNL A   1      43.709  30.717  26.082  1.00  0.00     0.022 A 
BRANCH  94  97
ATOM     97  S   UNL A   1      44.929  33.151  25.991  1.00  0.00     0.127 S 
ATOM     98  O   UNL A   1      44.355  32.971  24.656  1.00  0.00    -0.237 OA
ATOM     99  O   UNL A   1      44.324  34.239  26.758  1.00  0.00    -0.237 OA
ATOM    100  O   UNL A   1      46.385  33.104  26.027  1.00  0.00    -0.744 OA
ENDBRANCH  94  97
ENDBRANCH  67  90
ENDBRANCH  41  42
ENDBRANCH  33  36
ENDBRANCH  31  32
ENDBRANCH  30  31
ENDBRANCH   1  30
TORSDOF 19
ENDMDL
MODEL 3
REMARK VINA RESULT:     -10.3      3.626      5.658
REMARK SMILES COc1ccc(-c2ccc(CCC(=O)NCCCNC(=O)c3ccc(-c4c5nc(c(-c6cccc(S(=O)(=O)[O-])c6F)c6ccc([nH]6)c(-c6cccc(S(=O)(=O)[O-])c6F)c6nc(c(-c7cccc(S(=O)(=O)[O-])c7F)c7ccc4[nH]7)C=C6)C=C5)cc3)n2-c2ccc(C(C)=O)cc2)cc1
REMARK SMILES IDX 16 1 15 2 13 3 14 4 12 6 11 7 10 8 7 9 8 10 85 11 9 12 6 13
REMARK SMILES IDX 3 14 4 15 96 16 5 17 95 18 2 19 1 20 86 21 87 22 94 23 88 24
REMARK SMILES IDX 93 25 89 26 90 27 91 28 92 29 17 30 18 31 19 32 20 33 21 35
REMARK SMILES IDX 22 36 23 37 84 38 24 39 83 40 25 41 26 42 27 43 77 44 28 45
REMARK SMILES IDX 82 46 76 47 78 48 29 49 81 50 75 51 74 52 30 54 62 55 42 56
REMARK SMILES IDX 61 57 43 58 46 59 60 60 79 61 44 62 45 63 59 65 80 66 47 67
REMARK SMILES IDX 31 68 32 69 40 70 33 71 35 72 41 73 34 74 36 75 37 76 38 77
REMARK SMILES IDX 39 78 63 79 64 80 72 81 65 82 67 83 73 84 66 85 68 86 69 87
REMARK SMILES IDX 70 88 71 89 48 90 49 91 57 92 50 93 52 94 58 95 51 96 53 97
REMARK SMILES IDX 54 98 55 99 56 100
REMARK H PARENT 15 5 19 34 78 53 46 64
REMARK Flexibility Score: inf
ROOT
ATOM      1  C   UNL A   1      34.377  23.088  24.500  1.00  0.00     0.117 C 
ENDROOT
BRANCH   1   2
ATOM      2  N   UNL A   1      34.214  22.759  23.095  1.00  0.00    -0.356 N 
ATOM      3  C   UNL A   1      33.454  23.377  22.146  1.00  0.00     0.220 C 
ATOM      4  O   UNL A   1      33.360  22.858  21.032  1.00  0.00    -0.275 OA
ATOM      5  H   UNL A   1      34.726  21.979  22.782  1.00  0.00     0.163 HD
BRANCH   3   6
ATOM      6  C   UNL A   1      32.790  24.712  22.431  1.00  0.00     0.106 C 
BRANCH   6   7
ATOM      7  C   UNL A   1      31.636  24.607  23.434  1.00  0.00     0.064 C 
BRANCH   7   8
ATOM      8  C   UNL A   1      31.855  25.417  24.686  1.00  0.00     0.024 A 
ATOM      9  C   UNL A   1      32.479  27.194  25.941  1.00  0.00     0.053 A 
ATOM     10  C   UNL A   1      32.441  26.070  26.756  1.00  0.00     0.029 A 
ATOM     11  N   UNL A   1      31.890  26.811  24.734  1.00  0.00    -0.314 N 
ATOM     12  C   UNL A   1      32.025  24.968  25.980  1.00  0.00     0.024 A 
BRANCH   9  13
ATOM     13  C   UNL A   1      32.789  28.559  26.365  1.00  0.00    -0.001 A 
ATOM     14  C   UNL A   1      33.333  31.137  27.346  1.00  0.00     0.118 A 
ATOM     15  C   UNL A   1      32.021  30.744  27.076  1.00  0.00     0.047 A 
ATOM     16  C   UNL A   1      34.376  30.232  27.144  1.00  0.00     0.047 A 
ATOM     17  C   UNL A   1      31.750  29.467  26.581  1.00  0.00     0.014 A 
ATOM     18  C   UNL A   1      34.103  28.945  26.657  1.00  0.00     0.014 A 
BRANCH  14  19
ATOM     19  O   UNL A   1      33.466  32.399  27.859  1.00  0.00    -0.497 OA
ATOM     20  C   UNL A   1      32.511  33.349  27.406  1.00  0.00     0.278 C 
ENDBRANCH  14  19
ENDBRANCH   9  13
BRANCH  11  21
ATOM     21  C   UNL A   1      31.156  27.669  23.875  1.00  0.00     0.046 A 
ATOM     22  C   UNL A   1      29.765  27.681  24.030  1.00  0.00     0.027 A 
ATOM     23  C   UNL A   1      31.776  28.565  23.008  1.00  0.00     0.027 A 
ATOM     24  C   UNL A   1      28.986  28.597  23.328  1.00  0.00     0.014 A 
ATOM     25  C   UNL A   1      30.986  29.469  22.286  1.00  0.00     0.014 A 
ATOM     26  C   UNL A   1      29.588  29.505  22.455  1.00  0.00     0.017 A 
BRANCH  26  27
ATOM     27  C   UNL A   1      28.806  30.533  21.701  1.00  0.00     0.159 C 
ATOM     28  C   UNL A   1      28.826  31.983  22.117  1.00  0.00     0.093 C 
ATOM     29  O   UNL A   1      28.152  30.189  20.715  1.00  0.00    -0.295 OA
ENDBRANCH  26  27
ENDBRANCH  11  21
ENDBRANCH   7   8
ENDBRANCH   6   7
ENDBRANCH   3   6
ENDBRANCH   1   2
BRANCH   1  30
ATOM     30  C   UNL A   1      35.593  23.980  24.707  1.00  0.00     0.042 C 
BRANCH  30  31
ATOM     31  C   UNL A   1      36.347  23.719  25.999  1.00  0.00     0.118 C 
BRANCH  31  32
ATOM     32  N   UNL A   1      37.023  22.433  25.961  1.00  0.00    -0.352 N 
ATOM     33  C   UNL A   1      38.368  22.163  26.035  1.00  0.00     0.251 C 
ATOM     34  H   UNL A   1      36.437  21.648  25.871  1.00  0.00     0.163 HD
ATOM     35  O   UNL A   1      38.751  21.045  25.688  1.00  0.00    -0.269 OA
BRANCH  33  36
ATOM     36  C   UNL A   1      39.352  23.170  26.511  1.00  0.00     0.039 A 
ATOM     37  C   UNL A   1      39.377  24.418  25.868  1.00  0.00     0.014 A 
ATOM     38  C   UNL A   1      40.285  22.896  27.515  1.00  0.00     0.014 A 
ATOM     39  C   UNL A   1      40.290  25.395  26.264  1.00  0.00     0.010 A 
ATOM     40  C   UNL A   1      41.181  23.874  27.929  1.00  0.00     0.010 A 
ATOM     41  C   UNL A   1      41.175  25.127  27.314  1.00  0.00    -0.014 A 
BRANCH  41  42
ATOM     42  C   UNL A   1      42.018  26.209  27.874  1.00  0.00     0.031 A 
ATOM     43  C   UNL A   1      41.201  27.199  28.731  1.00  0.00     0.074 A 
ATOM     44  C   UNL A   1      43.354  26.149  27.581  1.00  0.00     0.049 A 
ATOM     45  N   UNL A   1      41.423  28.453  28.998  1.00  0.00    -0.248 NA
ATOM     46  C   UNL A   1      39.891  26.763  29.291  1.00  0.00     0.031 C 
ATOM     47  C   UNL A   1      43.979  25.088  26.760  1.00  0.00     0.029 A 
ATOM     48  N   UNL A   1      44.454  26.923  27.905  1.00  0.00    -0.354 N 
ATOM     49  C   UNL A   1      40.440  28.857  29.940  1.00  0.00     0.074 A 
ATOM     50  C   UNL A   1      39.447  27.831  29.956  1.00  0.00     0.031 C 
ATOM     51  C   UNL A   1      45.300  25.314  26.599  1.00  0.00     0.029 A 
ATOM     52  C   UNL A   1      45.681  26.515  27.319  1.00  0.00     0.049 A 
ATOM     53  H   UNL A   1      44.391  27.704  28.501  1.00  0.00     0.167 HD
ATOM     54  C   UNL A   1      40.600  29.929  30.774  1.00  0.00     0.034 A 
ATOM     55  C   UNL A   1      46.918  27.101  27.382  1.00  0.00     0.034 A 
ATOM     56  C   UNL A   1      41.883  30.504  30.544  1.00  0.00     0.049 A 
ATOM     57  C   UNL A   1      46.814  28.167  28.385  1.00  0.00     0.074 A 
ATOM     58  C   UNL A   1      42.408  31.282  29.549  1.00  0.00     0.029 A 
ATOM     59  N   UNL A   1      42.897  29.985  31.314  1.00  0.00    -0.354 N 
ATOM     60  N   UNL A   1      46.753  27.961  29.667  1.00  0.00    -0.248 NA
ATOM     61  C   UNL A   1      46.684  29.560  27.941  1.00  0.00     0.031 C 
ATOM     62  C   UNL A   1      43.761  30.896  29.506  1.00  0.00     0.029 A 
ATOM     63  C   UNL A   1      44.039  30.021  30.565  1.00  0.00     0.049 A 
ATOM     64  H   UNL A   1      42.814  29.649  32.236  1.00  0.00     0.167 HD
ATOM     65  C   UNL A   1      46.198  29.134  30.113  1.00  0.00     0.074 A 
ATOM     66  C   UNL A   1      46.515  30.140  29.125  1.00  0.00     0.031 C 
ATOM     67  C   UNL A   1      45.085  29.082  30.889  1.00  0.00     0.034 A 
BRANCH  54  68
ATOM     68  C   UNL A   1      39.879  30.441  32.005  1.00  0.00     0.023 A 
ATOM     69  C   UNL A   1      39.115  31.630  31.804  1.00  0.00     0.012 A 
ATOM     70  C   UNL A   1      40.128  30.064  33.335  1.00  0.00     0.148 A 
ATOM     71  C   UNL A   1      38.749  32.479  32.846  1.00  0.00     0.002 A 
ATOM     72  C   UNL A   1      39.705  30.892  34.384  1.00  0.00     0.091 A 
ATOM     73  F   UNL A   1      40.840  28.962  33.587  1.00  0.00    -0.205 F 
ATOM     74  C   UNL A   1      39.061  32.115  34.139  1.00  0.00     0.022 A 
BRANCH  72  75
ATOM     75  S   UNL A   1      39.947  30.456  36.112  1.00  0.00     0.127 S 
ATOM     76  O   UNL A   1      38.594  30.625  36.658  1.00  0.00    -0.237 OA
ATOM     77  O   UNL A   1      40.375  29.052  36.013  1.00  0.00    -0.237 OA
ATOM     78  O   UNL A   1      40.967  31.350  36.602  1.00  0.00    -0.744 OA
ENDBRANCH  72  75
ENDBRANCH  54  68
BRANCH  55  79
ATOM     79  C   UNL A   1      48.243  26.970  26.662  1.00  0.00     0.023 A 
ATOM     80  C   UNL A   1      49.394  26.400  27.220  1.00  0.00     0.012 A 
ATOM     81  C   UNL A   1      48.350  27.354  25.290  1.00  0.00     0.148 A 
ATOM     82  C   UNL A   1      50.534  26.126  26.435  1.00  0.00     0.002 A 
ATOM     83  C   UNL A   1      49.418  26.969  24.488  1.00  0.00     0.091 A 
ATOM     84  F   UNL A   1      47.419  28.140  24.742  1.00  0.00    -0.205 F 
ATOM     85  C   UNL A   1      50.527  26.361  25.061  1.00  0.00     0.022 A 
BRANCH  83  86
ATOM     86  S   UNL A   1      49.340  27.084  22.688  1.00  0.00     0.127 S 
ATOM     87  O   UNL A   1      50.738  26.902  22.303  1.00  0.00    -0.237 OA
ATOM     88  O   UNL A   1      48.460  25.960  22.364  1.00  0.00    -0.237 OA
ATOM     89  O   UNL A   1      48.779  28.394  22.382  1.00  0.00    -0.744 OA
ENDBRANCH  83  86
ENDBRANCH  55  79
BRANCH  67  90
ATOM     90  C   UNL A   1      44.963  27.812  31.733  1.00  0.00     0.023 A 
ATOM     91  C   UNL A   1      44.267  26.728  31.159  1.00  0.00     0.012 A 
ATOM     92  C   UNL A   1      45.379  27.671  33.079  1.00  0.00     0.148 A 
ATOM     93  C   UNL A   1      43.976  25.570  31.886  1.00  0.00     0.002 A 
ATOM     94  C   UNL A   1      45.083  26.516  33.811  1.00  0.00     0.091 A 
ATOM     95  F   UNL A   1      46.047  28.674  33.649  1.00  0.00    -0.205 F 
ATOM     96  C   UNL A   1      44.382  25.463  33.211  1.00  0.00     0.022 A 
BRANCH  94  97
ATOM     97  S   UNL A   1      45.517  26.281  35.548  1.00  0.00     0.127 S 
ATOM     98  O   UNL A   1      44.640  27.238  36.225  1.00  0.00    -0.237 OA
ATOM     99  O   UNL A   1      45.158  24.881  35.771  1.00  0.00    -0.237 OA
ATOM    100  O   UNL A   1      46.938  26.582  35.669  1.00  0.00    -0.744 OA
ENDBRANCH  94  97
ENDBRANCH  67  90
ENDBRANCH  41  42
ENDBRANCH  33  36
ENDBRANCH  31  32
ENDBRANCH  30  31
ENDBRANCH   1  30
TORSDOF 19
ENDMDL
