MODEL 1
REMARK VINA RESULT:     -11.1      0.000      0.000
REMARK SMILES C[C@H]1[C@H]([NH+]2CCC(CC(=O)NCCCNC(=O)c3ccc(-c4c5nc(c(-c6cccc(S(=O)(=O)[O-])c6F)c6ccc([nH]6)c(-c6cccc(S(=O)(=O)[O-])c6F)c6nc(c(-c7cccc(S(=O)(=O)[O-])c7F)c7ccc4[nH]7)C=C6)C=C5)cc3)CC2)CCC[C@@H]1C
REMARK SMILES IDX 13 1 12 2 11 3 9 4 10 5 8 7 7 8 4 9 5 10 82 11 6 13 81 14
REMARK SMILES IDX 3 15 1 16 2 17 86 18 83 19 85 20 87 21 84 22 14 23 15 24
REMARK SMILES IDX 16 25 17 27 18 28 19 29 80 30 20 31 79 32 21 33 22 34 23 35
REMARK SMILES IDX 73 36 24 37 78 38 72 39 74 40 25 41 77 42 71 43 70 44 26 46
REMARK SMILES IDX 58 47 38 48 57 49 39 50 42 51 56 52 75 53 40 54 41 55 55 57
REMARK SMILES IDX 76 58 43 59 27 60 28 61 36 62 29 63 31 64 37 65 30 66 32 67
REMARK SMILES IDX 33 68 34 69 35 70 59 71 60 72 68 73 61 74 63 75 69 76 62 77
REMARK SMILES IDX 64 78 65 79 66 80 67 81 44 82 45 83 53 84 46 85 48 86 54 87
REMARK SMILES IDX 47 88 49 89 50 90 51 91 52 92
REMARK H PARENT 11 6 4 12 15 26 74 45 42 56
REMARK Flexibility Score: inf
ROOT
ATOM      1  C   UNL A   1      34.247  34.774  28.633  1.00  0.00     0.042 C 
ENDROOT
BRANCH   1   2
ATOM      2  C   UNL A   1      33.321  35.075  29.811  1.00  0.00     0.117 C 
BRANCH   2   3
ATOM      3  N   UNL A   1      33.978  35.896  30.821  1.00  0.00    -0.356 N 
ATOM      4  C   UNL A   1      34.032  35.775  32.180  1.00  0.00     0.220 C 
ATOM      5  O   UNL A   1      34.647  36.635  32.814  1.00  0.00    -0.275 OA
ATOM      6  H   UNL A   1      34.467  36.671  30.461  1.00  0.00     0.163 HD
BRANCH   4   7
ATOM      7  C   UNL A   1      33.390  34.599  32.899  1.00  0.00     0.104 C 
BRANCH   7   8
ATOM      8  C   UNL A   1      34.373  33.523  33.418  1.00  0.00     0.009 C 
ATOM      9  N   UNL A   1      37.291  32.989  33.169  1.00  0.00    -0.332 N 
ATOM     10  C   UNL A   1      36.717  33.399  34.448  1.00  0.00     0.262 C 
ATOM     11  C   UNL A   1      36.362  32.107  32.480  1.00  0.00     0.262 C 
ATOM     12  H   UNL A   1      38.124  32.454  33.414  1.00  0.00     0.348 HD
ATOM     13  C   UNL A   1      35.431  34.202  34.308  1.00  0.00     0.066 C 
ATOM     14  C   UNL A   1      34.994  32.745  32.254  1.00  0.00     0.066 C 
BRANCH   9  15
ATOM     15  C   UNL A   1      38.148  33.910  32.374  1.00  0.00     0.187 C 
ATOM     16  C   UNL A   1      39.962  34.970  33.854  1.00  0.00     0.014 C 
ATOM     17  C   UNL A   1      39.689  33.986  32.693  1.00  0.00     0.047 C 
ATOM     18  C   UNL A   1      40.634  34.447  31.536  1.00  0.00    -0.006 C 
ATOM     19  C   UNL A   1      37.831  33.714  30.875  1.00  0.00     0.065 C 
ATOM     20  C   UNL A   1      40.149  34.098  30.135  1.00  0.00     0.004 C 
ATOM     21  C   UNL A   1      42.064  33.917  31.733  1.00  0.00     0.008 C 
ATOM     22  C   UNL A   1      38.711  34.546  29.961  1.00  0.00     0.006 C 
ENDBRANCH   9  15
ENDBRANCH   7   8
ENDBRANCH   4   7
ENDBRANCH   2   3
ENDBRANCH   1   2
BRANCH   1  23
ATOM     23  C   UNL A   1      34.962  33.437  28.711  1.00  0.00     0.118 C 
BRANCH  23  24
ATOM     24  N   UNL A   1      34.216  32.387  28.033  1.00  0.00    -0.352 N 
ATOM     25  C   UNL A   1      34.580  31.108  27.679  1.00  0.00     0.251 C 
ATOM     26  H   UNL A   1      33.294  32.634  27.787  1.00  0.00     0.163 HD
ATOM     27  O   UNL A   1      33.859  30.492  26.893  1.00  0.00    -0.269 OA
BRANCH  25  28
ATOM     28  C   UNL A   1      35.810  30.462  28.206  1.00  0.00     0.039 A 
ATOM     29  C   UNL A   1      36.999  30.571  27.474  1.00  0.00     0.014 A 
ATOM     30  C   UNL A   1      35.804  29.701  29.375  1.00  0.00     0.014 A 
ATOM     31  C   UNL A   1      38.176  29.969  27.941  1.00  0.00     0.010 A 
ATOM     32  C   UNL A   1      36.994  29.196  29.895  1.00  0.00     0.010 A 
ATOM     33  C   UNL A   1      38.193  29.304  29.176  1.00  0.00    -0.014 A 
BRANCH  33  34
ATOM     34  C   UNL A   1      39.434  28.697  29.733  1.00  0.00     0.031 A 
ATOM     35  C   UNL A   1      40.114  29.320  30.927  1.00  0.00     0.074 A 
ATOM     36  C   UNL A   1      40.012  27.652  29.106  1.00  0.00     0.049 A 
ATOM     37  N   UNL A   1      41.260  29.015  31.480  1.00  0.00    -0.248 NA
ATOM     38  C   UNL A   1      39.431  30.460  31.565  1.00  0.00     0.031 C 
ATOM     39  C   UNL A   1      39.499  26.999  27.900  1.00  0.00     0.029 A 
ATOM     40  N   UNL A   1      41.176  26.975  29.377  1.00  0.00    -0.354 N 
ATOM     41  C   UNL A   1      41.459  29.951  32.490  1.00  0.00     0.074 A 
ATOM     42  C   UNL A   1      40.330  30.855  32.454  1.00  0.00     0.031 C 
ATOM     43  C   UNL A   1      40.343  26.020  27.536  1.00  0.00     0.029 A 
ATOM     44  C   UNL A   1      41.475  25.999  28.454  1.00  0.00     0.049 A 
ATOM     45  H   UNL A   1      41.744  27.171  30.158  1.00  0.00     0.167 HD
ATOM     46  C   UNL A   1      42.470  30.035  33.386  1.00  0.00     0.034 A 
ATOM     47  C   UNL A   1      42.549  25.190  28.347  1.00  0.00     0.034 A 
ATOM     48  C   UNL A   1      43.561  29.101  33.460  1.00  0.00     0.049 A 
ATOM     49  C   UNL A   1      43.643  25.283  29.376  1.00  0.00     0.074 A 
ATOM     50  C   UNL A   1      44.576  29.037  34.398  1.00  0.00     0.029 A 
ATOM     51  N   UNL A   1      43.783  28.072  32.559  1.00  0.00    -0.354 N 
ATOM     52  N   UNL A   1      43.730  26.072  30.419  1.00  0.00    -0.248 NA
ATOM     53  C   UNL A   1      44.774  24.354  29.230  1.00  0.00     0.031 C 
ATOM     54  C   UNL A   1      45.429  27.987  34.045  1.00  0.00     0.029 A 
ATOM     55  C   UNL A   1      44.930  27.379  32.904  1.00  0.00     0.049 A 
ATOM     56  H   UNL A   1      43.211  27.865  31.785  1.00  0.00     0.167 HD
ATOM     57  C   UNL A   1      44.909  25.718  31.066  1.00  0.00     0.074 A 
ATOM     58  C   UNL A   1      45.488  24.624  30.315  1.00  0.00     0.031 C 
ATOM     59  C   UNL A   1      45.472  26.263  32.174  1.00  0.00     0.034 A 
BRANCH  46  60
ATOM     60  C   UNL A   1      42.419  31.150  34.400  1.00  0.00     0.023 A 
ATOM     61  C   UNL A   1      43.377  32.184  34.350  1.00  0.00     0.012 A 
ATOM     62  C   UNL A   1      41.393  31.209  35.363  1.00  0.00     0.148 A 
ATOM     63  C   UNL A   1      43.339  33.236  35.264  1.00  0.00     0.002 A 
ATOM     64  C   UNL A   1      41.333  32.285  36.242  1.00  0.00     0.091 A 
ATOM     65  F   UNL A   1      40.500  30.209  35.410  1.00  0.00    -0.205 F 
ATOM     66  C   UNL A   1      42.312  33.292  36.203  1.00  0.00     0.022 A 
BRANCH  64  67
ATOM     67  S   UNL A   1      40.006  32.493  37.436  1.00  0.00     0.127 S 
ATOM     68  O   UNL A   1      40.714  32.288  38.700  1.00  0.00    -0.237 OA
ATOM     69  O   UNL A   1      39.586  33.873  37.190  1.00  0.00    -0.237 OA
ATOM     70  O   UNL A   1      39.009  31.484  37.108  1.00  0.00    -0.744 OA
ENDBRANCH  64  67
ENDBRANCH  46  60
BRANCH  47  71
ATOM     71  C   UNL A   1      42.619  24.186  27.246  1.00  0.00     0.023 A 
ATOM     72  C   UNL A   1      43.316  24.506  26.065  1.00  0.00     0.012 A 
ATOM     73  C   UNL A   1      42.026  22.915  27.371  1.00  0.00     0.148 A 
ATOM     74  C   UNL A   1      43.395  23.589  25.015  1.00  0.00     0.002 A 
ATOM     75  C   UNL A   1      42.155  21.987  26.344  1.00  0.00     0.091 A 
ATOM     76  F   UNL A   1      41.356  22.635  28.498  1.00  0.00    -0.205 F 
ATOM     77  C   UNL A   1      42.825  22.328  25.158  1.00  0.00     0.022 A 
BRANCH  75  78
ATOM     78  S   UNL A   1      41.568  20.297  26.492  1.00  0.00     0.127 S 
ATOM     79  O   UNL A   1      40.126  20.466  26.342  1.00  0.00    -0.237 OA
ATOM     80  O   UNL A   1      42.235  19.646  25.364  1.00  0.00    -0.237 OA
ATOM     81  O   UNL A   1      42.020  19.838  27.800  1.00  0.00    -0.744 OA
ENDBRANCH  75  78
ENDBRANCH  47  71
BRANCH  59  82
ATOM     82  C   UNL A   1      46.772  25.676  32.659  1.00  0.00     0.023 A 
ATOM     83  C   UNL A   1      47.993  26.208  32.198  1.00  0.00     0.012 A 
ATOM     84  C   UNL A   1      46.785  24.656  33.631  1.00  0.00     0.148 A 
ATOM     85  C   UNL A   1      49.206  25.713  32.675  1.00  0.00     0.002 A 
ATOM     86  C   UNL A   1      47.996  24.203  34.138  1.00  0.00     0.091 A 
ATOM     87  F   UNL A   1      45.612  24.153  34.045  1.00  0.00    -0.205 F 
ATOM     88  C   UNL A   1      49.207  24.721  33.653  1.00  0.00     0.022 A 
BRANCH  86  89
ATOM     89  S   UNL A   1      48.097  22.997  35.466  1.00  0.00     0.127 S 
ATOM     90  O   UNL A   1      49.541  22.904  35.675  1.00  0.00    -0.237 OA
ATOM     91  O   UNL A   1      47.366  23.664  36.545  1.00  0.00    -0.237 OA
ATOM     92  O   UNL A   1      47.461  21.787  34.962  1.00  0.00    -0.744 OA
ENDBRANCH  86  89
ENDBRANCH  59  82
ENDBRANCH  33  34
ENDBRANCH  25  28
ENDBRANCH  23  24
ENDBRANCH   1  23
TORSDOF 15
ENDMDL
MODEL 2
REMARK VINA RESULT:     -11.0      4.334     10.513
REMARK SMILES C[C@H]1[C@H]([NH+]2CCC(CC(=O)NCCCNC(=O)c3ccc(-c4c5nc(c(-c6cccc(S(=O)(=O)[O-])c6F)c6ccc([nH]6)c(-c6cccc(S(=O)(=O)[O-])c6F)c6nc(c(-c7cccc(S(=O)(=O)[O-])c7F)c7ccc4[nH]7)C=C6)C=C5)cc3)CC2)CCC[C@@H]1C
REMARK SMILES IDX 13 1 12 2 11 3 9 4 10 5 8 7 7 8 4 9 5 10 82 11 6 13 81 14
REMARK SMILES IDX 3 15 1 16 2 17 86 18 83 19 85 20 87 21 84 22 14 23 15 24
REMARK SMILES IDX 16 25 17 27 18 28 19 29 80 30 20 31 79 32 21 33 22 34 23 35
REMARK SMILES IDX 73 36 24 37 78 38 72 39 74 40 25 41 77 42 71 43 70 44 26 46
REMARK SMILES IDX 58 47 38 48 57 49 39 50 42 51 56 52 75 53 40 54 41 55 55 57
REMARK SMILES IDX 76 58 43 59 27 60 28 61 36 62 29 63 31 64 37 65 30 66 32 67
REMARK SMILES IDX 33 68 34 69 35 70 59 71 60 72 68 73 61 74 63 75 69 76 62 77
REMARK SMILES IDX 64 78 65 79 66 80 67 81 44 82 45 83 53 84 46 85 48 86 54 87
REMARK SMILES IDX 47 88 49 89 50 90 51 91 52 92
REMARK H PARENT 11 6 4 12 15 26 74 45 42 56
REMARK Flexibility Score: inf
ROOT
ATOM      1  C   UNL A   1      31.395  31.946  26.410  1.00  0.00     0.042 C 
ENDROOT
BRANCH   1   2
ATOM      2  C   UNL A   1      31.555  30.560  25.786  1.00  0.00     0.117 C 
BRANCH   2   3
ATOM      3  N   UNL A   1      30.736  30.405  24.591  1.00  0.00    -0.356 N 
ATOM      4  C   UNL A   1      30.397  29.294  23.873  1.00  0.00     0.220 C 
ATOM      5  O   UNL A   1      29.698  29.445  22.868  1.00  0.00    -0.275 OA
ATOM      6  H   UNL A   1      30.363  31.246  24.241  1.00  0.00     0.163 HD
BRANCH   4   7
ATOM      7  C   UNL A   1      30.829  27.904  24.310  1.00  0.00     0.104 C 
BRANCH   7   8
ATOM      8  C   UNL A   1      31.070  26.894  23.162  1.00  0.00     0.009 C 
ATOM      9  N   UNL A   1      33.034  24.731  22.587  1.00  0.00    -0.332 N 
ATOM     10  C   UNL A   1      31.638  24.411  22.874  1.00  0.00     0.262 C 
ATOM     11  C   UNL A   1      33.101  25.957  21.805  1.00  0.00     0.262 C 
ATOM     12  H   UNL A   1      33.367  23.960  22.009  1.00  0.00     0.348 HD
ATOM     13  C   UNL A   1      30.933  25.465  23.718  1.00  0.00     0.066 C 
ATOM     14  C   UNL A   1      32.427  27.140  22.495  1.00  0.00     0.066 C 
BRANCH   9  15
ATOM     15  C   UNL A   1      34.114  24.433  23.565  1.00  0.00     0.187 C 
ATOM     16  C   UNL A   1      33.745  25.733  25.752  1.00  0.00     0.014 C 
ATOM     17  C   UNL A   1      33.751  24.332  25.095  1.00  0.00     0.047 C 
ATOM     18  C   UNL A   1      34.690  23.464  25.995  1.00  0.00    -0.006 C 
ATOM     19  C   UNL A   1      34.944  23.240  23.042  1.00  0.00     0.065 C 
ATOM     20  C   UNL A   1      35.366  22.301  25.280  1.00  0.00     0.004 C 
ATOM     21  C   UNL A   1      33.955  22.946  27.242  1.00  0.00     0.008 C 
ATOM     22  C   UNL A   1      36.026  22.792  24.007  1.00  0.00     0.006 C 
ENDBRANCH   9  15
ENDBRANCH   7   8
ENDBRANCH   4   7
ENDBRANCH   2   3
ENDBRANCH   1   2
BRANCH   1  23
ATOM     23  C   UNL A   1      32.579  32.414  27.236  1.00  0.00     0.118 C 
BRANCH  23  24
ATOM     24  N   UNL A   1      32.458  33.818  27.602  1.00  0.00    -0.352 N 
ATOM     25  C   UNL A   1      33.089  34.552  28.582  1.00  0.00     0.251 C 
ATOM     26  H   UNL A   1      31.817  34.330  27.056  1.00  0.00     0.163 HD
ATOM     27  O   UNL A   1      32.640  35.664  28.859  1.00  0.00    -0.269 OA
BRANCH  25  28
ATOM     28  C   UNL A   1      34.277  34.038  29.311  1.00  0.00     0.039 A 
ATOM     29  C   UNL A   1      34.083  33.204  30.420  1.00  0.00     0.014 A 
ATOM     30  C   UNL A   1      35.576  34.409  28.964  1.00  0.00     0.014 A 
ATOM     31  C   UNL A   1      35.182  32.707  31.133  1.00  0.00     0.010 A 
ATOM     32  C   UNL A   1      36.671  33.828  29.603  1.00  0.00     0.010 A 
ATOM     33  C   UNL A   1      36.490  32.986  30.710  1.00  0.00    -0.014 A 
BRANCH  33  34
ATOM     34  C   UNL A   1      37.685  32.435  31.408  1.00  0.00     0.031 A 
ATOM     35  C   UNL A   1      38.478  31.314  30.784  1.00  0.00     0.074 A 
ATOM     36  C   UNL A   1      37.997  32.863  32.648  1.00  0.00     0.049 A 
ATOM     37  N   UNL A   1      39.469  30.620  31.285  1.00  0.00    -0.248 NA
ATOM     38  C   UNL A   1      38.084  30.892  29.427  1.00  0.00     0.031 C 
ATOM     39  C   UNL A   1      37.270  33.889  33.398  1.00  0.00     0.029 A 
ATOM     40  N   UNL A   1      38.988  32.464  33.512  1.00  0.00    -0.354 N 
ATOM     41  C   UNL A   1      39.779  29.654  30.334  1.00  0.00     0.074 A 
ATOM     42  C   UNL A   1      38.852  29.828  29.238  1.00  0.00     0.031 C 
ATOM     43  C   UNL A   1      37.838  34.039  34.605  1.00  0.00     0.029 A 
ATOM     44  C   UNL A   1      38.941  33.094  34.735  1.00  0.00     0.049 A 
ATOM     45  H   UNL A   1      39.668  31.791  33.278  1.00  0.00     0.167 HD
ATOM     46  C   UNL A   1      40.765  28.725  30.354  1.00  0.00     0.034 A 
ATOM     47  C   UNL A   1      39.689  32.918  35.843  1.00  0.00     0.034 A 
ATOM     48  C   UNL A   1      41.724  28.592  31.416  1.00  0.00     0.049 A 
ATOM     49  C   UNL A   1      40.798  31.902  35.827  1.00  0.00     0.074 A 
ATOM     50  C   UNL A   1      42.824  27.755  31.481  1.00  0.00     0.029 A 
ATOM     51  N   UNL A   1      41.695  29.307  32.603  1.00  0.00    -0.354 N 
ATOM     52  N   UNL A   1      41.176  31.109  34.854  1.00  0.00    -0.248 NA
ATOM     53  C   UNL A   1      41.603  31.775  37.051  1.00  0.00     0.031 C 
ATOM     54  C   UNL A   1      43.443  27.944  32.721  1.00  0.00     0.029 A 
ATOM     55  C   UNL A   1      42.745  28.919  33.416  1.00  0.00     0.049 A 
ATOM     56  H   UNL A   1      41.025  29.991  32.834  1.00  0.00     0.167 HD
ATOM     57  C   UNL A   1      42.277  30.409  35.339  1.00  0.00     0.074 A 
ATOM     58  C   UNL A   1      42.522  30.893  36.681  1.00  0.00     0.031 C 
ATOM     59  C   UNL A   1      43.006  29.440  34.733  1.00  0.00     0.034 A 
BRANCH  46  60
ATOM     60  C   UNL A   1      40.892  27.809  29.162  1.00  0.00     0.023 A 
ATOM     61  C   UNL A   1      40.153  26.609  29.122  1.00  0.00     0.012 A 
ATOM     62  C   UNL A   1      41.691  28.162  28.057  1.00  0.00     0.148 A 
ATOM     63  C   UNL A   1      40.238  25.756  28.023  1.00  0.00     0.002 A 
ATOM     64  C   UNL A   1      41.735  27.330  26.944  1.00  0.00     0.091 A 
ATOM     65  F   UNL A   1      42.401  29.299  28.118  1.00  0.00    -0.205 F 
ATOM     66  C   UNL A   1      41.021  26.121  26.931  1.00  0.00     0.022 A 
BRANCH  64  67
ATOM     67  S   UNL A   1      42.649  27.746  25.454  1.00  0.00     0.127 S 
ATOM     68  O   UNL A   1      42.422  26.561  24.629  1.00  0.00    -0.237 OA
ATOM     69  O   UNL A   1      41.954  28.950  24.996  1.00  0.00    -0.237 OA
ATOM     70  O   UNL A   1      44.026  27.961  25.874  1.00  0.00    -0.744 OA
ENDBRANCH  64  67
ENDBRANCH  46  60
BRANCH  47  71
ATOM     71  C   UNL A   1      39.442  33.759  37.050  1.00  0.00     0.023 A 
ATOM     72  C   UNL A   1      39.846  35.109  37.044  1.00  0.00     0.012 A 
ATOM     73  C   UNL A   1      38.789  33.243  38.186  1.00  0.00     0.148 A 
ATOM     74  C   UNL A   1      39.633  35.920  38.159  1.00  0.00     0.002 A 
ATOM     75  C   UNL A   1      38.531  34.072  39.272  1.00  0.00     0.091 A 
ATOM     76  F   UNL A   1      38.423  31.953  38.176  1.00  0.00    -0.205 F 
ATOM     77  C   UNL A   1      38.966  35.406  39.268  1.00  0.00     0.022 A 
BRANCH  75  78
ATOM     78  S   UNL A   1      37.564  33.533  40.687  1.00  0.00     0.127 S 
ATOM     79  O   UNL A   1      37.443  34.769  41.454  1.00  0.00    -0.237 OA
ATOM     80  O   UNL A   1      36.328  33.077  40.051  1.00  0.00    -0.237 OA
ATOM     81  O   UNL A   1      38.343  32.471  41.312  1.00  0.00    -0.744 OA
ENDBRANCH  75  78
ENDBRANCH  47  71
BRANCH  59  82
ATOM     82  C   UNL A   1      44.157  28.845  35.503  1.00  0.00     0.023 A 
ATOM     83  C   UNL A   1      45.419  29.470  35.465  1.00  0.00     0.012 A 
ATOM     84  C   UNL A   1      43.967  27.719  36.328  1.00  0.00     0.148 A 
ATOM     85  C   UNL A   1      46.482  28.966  36.212  1.00  0.00     0.002 A 
ATOM     86  C   UNL A   1      45.018  27.252  37.108  1.00  0.00     0.091 A 
ATOM     87  F   UNL A   1      42.761  27.129  36.338  1.00  0.00    -0.205 F 
ATOM     88  C   UNL A   1      46.278  27.865  37.042  1.00  0.00     0.022 A 
BRANCH  86  89
ATOM     89  S   UNL A   1      44.826  25.901  38.278  1.00  0.00     0.127 S 
ATOM     90  O   UNL A   1      44.153  26.565  39.392  1.00  0.00    -0.237 OA
ATOM     91  O   UNL A   1      43.988  24.962  37.530  1.00  0.00    -0.237 OA
ATOM     92  O   UNL A   1      46.172  25.419  38.560  1.00  0.00    -0.744 OA
ENDBRANCH  86  89
ENDBRANCH  59  82
ENDBRANCH  33  34
ENDBRANCH  25  28
ENDBRANCH  23  24
ENDBRANCH   1  23
TORSDOF 15
ENDMDL
MODEL 3
REMARK VINA RESULT:     -10.9      6.300     10.613
REMARK SMILES C[C@H]1[C@H]([NH+]2CCC(CC(=O)NCCCNC(=O)c3ccc(-c4c5nc(c(-c6cccc(S(=O)(=O)[O-])c6F)c6ccc([nH]6)c(-c6cccc(S(=O)(=O)[O-])c6F)c6nc(c(-c7cccc(S(=O)(=O)[O-])c7F)c7ccc4[nH]7)C=C6)C=C5)cc3)CC2)CCC[C@@H]1C
REMARK SMILES IDX 13 1 12 2 11 3 9 4 10 5 8 7 7 8 4 9 5 10 82 11 6 13 81 14
REMARK SMILES IDX 3 15 1 16 2 17 86 18 83 19 85 20 87 21 84 22 14 23 15 24
REMARK SMILES IDX 16 25 17 27 18 28 19 29 80 30 20 31 79 32 21 33 22 34 23 35
REMARK SMILES IDX 73 36 24 37 78 38 72 39 74 40 25 41 77 42 71 43 70 44 26 46
REMARK SMILES IDX 58 47 38 48 57 49 39 50 42 51 56 52 75 53 40 54 41 55 55 57
REMARK SMILES IDX 76 58 43 59 27 60 28 61 36 62 29 63 31 64 37 65 30 66 32 67
REMARK SMILES IDX 33 68 34 69 35 70 59 71 60 72 68 73 61 74 63 75 69 76 62 77
REMARK SMILES IDX 64 78 65 79 66 80 67 81 44 82 45 83 53 84 46 85 48 86 54 87
REMARK SMILES IDX 47 88 49 89 50 90 51 91 52 92
REMARK H PARENT 11 6 4 12 15 26 74 45 42 56
REMARK Flexibility Score: inf
ROOT
ATOM      1  C   UNL A   1      37.356  19.668  24.970  1.00  0.00     0.042 C 
ENDROOT
BRANCH   1   2
ATOM      2  C   UNL A   1      36.075  20.502  24.994  1.00  0.00     0.117 C 
BRANCH   2   3
ATOM      3  N   UNL A   1      34.883  19.665  24.958  1.00  0.00    -0.356 N 
ATOM      4  C   UNL A   1      33.593  19.954  24.615  1.00  0.00     0.220 C 
ATOM      5  O   UNL A   1      32.756  19.052  24.696  1.00  0.00    -0.275 OA
ATOM      6  H   UNL A   1      35.033  18.729  25.227  1.00  0.00     0.163 HD
BRANCH   4   7
ATOM      7  C   UNL A   1      33.195  21.332  24.110  1.00  0.00     0.104 C 
BRANCH   7   8
ATOM      8  C   UNL A   1      31.978  21.971  24.820  1.00  0.00     0.009 C 
ATOM      9  N   UNL A   1      31.354  24.614  26.040  1.00  0.00    -0.332 N 
ATOM     10  C   UNL A   1      30.694  24.190  24.809  1.00  0.00     0.262 C 
ATOM     11  C   UNL A   1      31.529  23.467  26.918  1.00  0.00     0.262 C 
ATOM     12  H   UNL A   1      30.700  25.261  26.480  1.00  0.00     0.348 HD
ATOM     13  C   UNL A   1      31.503  23.185  23.999  1.00  0.00     0.066 C 
ATOM     14  C   UNL A   1      32.321  22.336  26.267  1.00  0.00     0.066 C 
BRANCH   9  15
ATOM     15  C   UNL A   1      32.380  25.692  26.037  1.00  0.00     0.187 C 
ATOM     16  C   UNL A   1      34.346  25.071  24.503  1.00  0.00     0.014 C 
ATOM     17  C   UNL A   1      33.140  26.019  24.697  1.00  0.00     0.047 C 
ATOM     18  C   UNL A   1      33.725  27.461  24.542  1.00  0.00    -0.006 C 
ATOM     19  C   UNL A   1      31.797  26.936  26.742  1.00  0.00     0.065 C 
ATOM     20  C   UNL A   1      32.954  28.547  25.281  1.00  0.00     0.004 C 
ATOM     21  C   UNL A   1      33.876  27.852  23.063  1.00  0.00     0.008 C 
ATOM     22  C   UNL A   1      32.732  28.131  26.722  1.00  0.00     0.006 C 
ENDBRANCH   9  15
ENDBRANCH   7   8
ENDBRANCH   4   7
ENDBRANCH   2   3
ENDBRANCH   1   2
BRANCH   1  23
ATOM     23  C   UNL A   1      38.583  20.369  25.524  1.00  0.00     0.118 C 
BRANCH  23  24
ATOM     24  N   UNL A   1      39.640  19.423  25.854  1.00  0.00    -0.352 N 
ATOM     25  C   UNL A   1      40.963  19.625  26.177  1.00  0.00     0.251 C 
ATOM     26  H   UNL A   1      39.361  18.478  25.844  1.00  0.00     0.163 HD
ATOM     27  O   UNL A   1      41.720  18.655  26.173  1.00  0.00    -0.269 OA
BRANCH  25  28
ATOM     28  C   UNL A   1      41.495  20.971  26.515  1.00  0.00     0.039 A 
ATOM     29  C   UNL A   1      41.775  21.870  25.478  1.00  0.00     0.014 A 
ATOM     30  C   UNL A   1      41.782  21.345  27.828  1.00  0.00     0.014 A 
ATOM     31  C   UNL A   1      42.283  23.144  25.763  1.00  0.00     0.010 A 
ATOM     32  C   UNL A   1      42.183  22.648  28.120  1.00  0.00     0.010 A 
ATOM     33  C   UNL A   1      42.460  23.559  27.090  1.00  0.00    -0.014 A 
BRANCH  33  34
ATOM     34  C   UNL A   1      42.948  24.923  27.438  1.00  0.00     0.031 A 
ATOM     35  C   UNL A   1      42.012  25.927  28.064  1.00  0.00     0.074 A 
ATOM     36  C   UNL A   1      44.196  25.299  27.096  1.00  0.00     0.049 A 
ATOM     37  N   UNL A   1      42.210  27.194  28.326  1.00  0.00    -0.248 NA
ATOM     38  C   UNL A   1      40.660  25.453  28.413  1.00  0.00     0.031 C 
ATOM     39  C   UNL A   1      45.181  24.451  26.420  1.00  0.00     0.029 A 
ATOM     40  N   UNL A   1      44.842  26.503  27.239  1.00  0.00    -0.354 N 
ATOM     41  C   UNL A   1      41.002  27.677  28.817  1.00  0.00     0.074 A 
ATOM     42  C   UNL A   1      40.065  26.576  28.788  1.00  0.00     0.031 C 
ATOM     43  C   UNL A   1      46.301  25.159  26.207  1.00  0.00     0.029 A 
ATOM     44  C   UNL A   1      46.106  26.520  26.692  1.00  0.00     0.049 A 
ATOM     45  H   UNL A   1      44.439  27.280  27.689  1.00  0.00     0.167 HD
ATOM     46  C   UNL A   1      40.703  28.915  29.279  1.00  0.00     0.034 A 
ATOM     47  C   UNL A   1      46.999  27.524  26.576  1.00  0.00     0.034 A 
ATOM     48  C   UNL A   1      41.652  29.992  29.363  1.00  0.00     0.049 A 
ATOM     49  C   UNL A   1      46.655  28.881  27.127  1.00  0.00     0.074 A 
ATOM     50  C   UNL A   1      41.478  31.249  29.915  1.00  0.00     0.029 A 
ATOM     51  N   UNL A   1      42.948  29.945  28.878  1.00  0.00    -0.354 N 
ATOM     52  N   UNL A   1      45.560  29.271  27.734  1.00  0.00    -0.248 NA
ATOM     53  C   UNL A   1      47.679  29.929  27.003  1.00  0.00     0.031 C 
ATOM     54  C   UNL A   1      42.661  31.972  29.735  1.00  0.00     0.029 A 
ATOM     55  C   UNL A   1      43.581  31.156  29.097  1.00  0.00     0.049 A 
ATOM     56  H   UNL A   1      43.359  29.165  28.439  1.00  0.00     0.167 HD
ATOM     57  C   UNL A   1      45.774  30.600  28.087  1.00  0.00     0.074 A 
ATOM     58  C   UNL A   1      47.113  30.938  27.652  1.00  0.00     0.031 C 
ATOM     59  C   UNL A   1      44.930  31.467  28.699  1.00  0.00     0.034 A 
BRANCH  46  60
ATOM     60  C   UNL A   1      39.303  29.159  29.782  1.00  0.00     0.023 A 
ATOM     61  C   UNL A   1      38.957  28.778  31.095  1.00  0.00     0.012 A 
ATOM     62  C   UNL A   1      38.348  29.817  28.982  1.00  0.00     0.148 A 
ATOM     63  C   UNL A   1      37.674  29.011  31.590  1.00  0.00     0.002 A 
ATOM     64  C   UNL A   1      37.086  30.089  29.498  1.00  0.00     0.091 A 
ATOM     65  F   UNL A   1      38.688  30.157  27.730  1.00  0.00    -0.205 F 
ATOM     66  C   UNL A   1      36.743  29.674  30.796  1.00  0.00     0.022 A 
BRANCH  64  67
ATOM     67  S   UNL A   1      35.840  31.008  28.586  1.00  0.00     0.127 S 
ATOM     68  O   UNL A   1      36.600  32.178  28.149  1.00  0.00    -0.237 OA
ATOM     69  O   UNL A   1      35.492  30.073  27.516  1.00  0.00    -0.237 OA
ATOM     70  O   UNL A   1      34.767  31.278  29.532  1.00  0.00    -0.744 OA
ENDBRANCH  64  67
ENDBRANCH  46  60
BRANCH  47  71
ATOM     71  C   UNL A   1      48.328  27.269  25.950  1.00  0.00     0.023 A 
ATOM     72  C   UNL A   1      49.380  26.771  26.744  1.00  0.00     0.012 A 
ATOM     73  C   UNL A   1      48.549  27.489  24.576  1.00  0.00     0.148 A 
ATOM     74  C   UNL A   1      50.637  26.527  26.187  1.00  0.00     0.002 A 
ATOM     75  C   UNL A   1      49.787  27.191  24.018  1.00  0.00     0.091 A 
ATOM     76  F   UNL A   1      47.539  27.974  23.841  1.00  0.00    -0.205 F 
ATOM     77  C   UNL A   1      50.838  26.726  24.824  1.00  0.00     0.022 A 
BRANCH  75  78
ATOM     78  S   UNL A   1      50.098  27.292  22.252  1.00  0.00     0.127 S 
ATOM     79  O   UNL A   1      51.478  26.827  22.164  1.00  0.00    -0.237 OA
ATOM     80  O   UNL A   1      49.099  26.366  21.718  1.00  0.00    -0.237 OA
ATOM     81  O   UNL A   1      49.874  28.687  21.893  1.00  0.00    -0.744 OA
ENDBRANCH  75  78
ENDBRANCH  47  71
BRANCH  59  82
ATOM     82  C   UNL A   1      45.430  32.865  28.959  1.00  0.00     0.023 A 
ATOM     83  C   UNL A   1      46.145  33.142  30.140  1.00  0.00     0.012 A 
ATOM     84  C   UNL A   1      45.262  33.880  27.996  1.00  0.00     0.148 A 
ATOM     85  C   UNL A   1      46.660  34.416  30.374  1.00  0.00     0.002 A 
ATOM     86  C   UNL A   1      45.821  35.133  28.214  1.00  0.00     0.091 A 
ATOM     87  F   UNL A   1      44.565  33.599  26.885  1.00  0.00    -0.205 F 
ATOM     88  C   UNL A   1      46.509  35.407  29.406  1.00  0.00     0.022 A 
BRANCH  86  89
ATOM     89  S   UNL A   1      45.762  36.444  26.986  1.00  0.00     0.127 S 
ATOM     90  O   UNL A   1      44.325  36.692  26.883  1.00  0.00    -0.237 OA
ATOM     91  O   UNL A   1      46.521  37.512  27.638  1.00  0.00    -0.237 OA
ATOM     92  O   UNL A   1      46.388  35.902  25.787  1.00  0.00    -0.744 OA
ENDBRANCH  86  89
ENDBRANCH  59  82
ENDBRANCH  33  34
ENDBRANCH  25  28
ENDBRANCH  23  24
ENDBRANCH   1  23
TORSDOF 15
ENDMDL
