MODEL 1
REMARK VINA RESULT:     -13.3      0.000      0.000
REMARK SMILES Cc1cc(C(=O)N[C@@H]2C(=O)N3C(C(=O)NCCCNC(=O)c4ccc(-c5c6nc(c(-c7cccc(S(=O)(=O)[O-])c7F)c7ccc([nH]7)c(-c7cccc(S(=O)(=O)[O-])c7F)c7nc(c(-c8cccc(S(=O)(=O)[O-])c8F)c8ccc5[nH]8)C=C7)C=C6)cc4)=C(CSc4nnc(C)s4)CS[C@H]23)n(C)n1
REMARK SMILES IDX 17 1 16 2 15 3 13 4 14 5 12 7 8 8 9 9 96 10 10 11 11 12
REMARK SMILES IDX 95 13 94 14 85 15 7 16 5 17 6 18 4 20 1 21 2 22 3 23 99 24
REMARK SMILES IDX 97 25 98 26 86 27 87 28 88 29 89 30 93 31 90 32 91 33 92 34
REMARK SMILES IDX 18 35 19 36 20 37 21 39 22 40 23 41 84 42 24 43 83 44 25 45
REMARK SMILES IDX 26 46 27 47 77 48 28 49 82 50 76 51 78 52 29 53 81 54 75 55
REMARK SMILES IDX 74 56 30 58 62 59 42 60 61 61 43 62 46 63 60 64 79 65 44 66
REMARK SMILES IDX 45 67 59 69 80 70 47 71 31 72 32 73 40 74 33 75 35 76 41 77
REMARK SMILES IDX 34 78 36 79 37 80 38 81 39 82 63 83 64 84 72 85 65 86 67 87
REMARK SMILES IDX 73 88 66 89 68 90 69 91 70 92 71 93 48 94 49 95 57 96 50 97
REMARK SMILES IDX 52 98 58 99 51 100 53 101 54 102 55 103 56 104
REMARK H PARENT 15 6 7 19 19 38 78 57 46 68
REMARK Flexibility Score: inf
ROOT
ATOM      1  C   UNL A   1      35.262  22.598  26.974  1.00  0.00     0.042 C 
ENDROOT
BRANCH   1   2
ATOM      2  C   UNL A   1      34.212  21.590  27.434  1.00  0.00     0.118 C 
BRANCH   2   3
ATOM      3  N   UNL A   1      32.913  22.215  27.603  1.00  0.00    -0.351 N 
ATOM      4  C   UNL A   1      31.911  22.663  26.805  1.00  0.00     0.268 C 
ATOM      5  O   UNL A   1      30.874  22.898  27.441  1.00  0.00    -0.268 OA
ATOM      6  H   UNL A   1      32.702  22.353  28.555  1.00  0.00     0.163 HD
BRANCH   4   7
ATOM      7  C   UNL A   1      31.876  22.700  25.264  1.00  0.00     0.111 C 
ATOM      8  C   UNL A   1      32.110  25.781  23.723  1.00  0.00     0.206 C 
ATOM      9  C   UNL A   1      32.653  25.083  25.007  1.00  0.00     0.253 C 
ATOM     10  C   UNL A   1      31.600  24.353  23.389  1.00  0.00     0.181 C 
ATOM     11  O   UNL A   1      33.516  25.361  25.813  1.00  0.00    -0.272 OA
ATOM     12  N   UNL A   1      31.846  23.999  24.771  1.00  0.00    -0.290 N 
ATOM     13  S   UNL A   1      32.657  23.339  22.315  1.00  0.00    -0.129 SA
ATOM     14  C   UNL A   1      31.787  21.874  22.862  1.00  0.00     0.106 C 
ATOM     15  C   UNL A   1      32.015  21.683  24.353  1.00  0.00    -0.020 C 
BRANCH   8  16
ATOM     16  N   UNL A   1      33.070  26.452  22.802  1.00  0.00    -0.336 N 
ATOM     17  C   UNL A   1      33.458  27.781  22.753  1.00  0.00     0.270 C 
ATOM     18  O   UNL A   1      34.305  28.099  21.919  1.00  0.00    -0.268 OA
ATOM     19  H   UNL A   1      33.490  25.866  22.131  1.00  0.00     0.164 HD
BRANCH  17  20
ATOM     20  C   UNL A   1      32.811  28.740  23.626  1.00  0.00     0.126 A 
ATOM     21  C   UNL A   1      31.816  29.910  26.923  1.00  0.00     0.069 C 
ATOM     22  C   UNL A   1      32.034  29.690  25.472  1.00  0.00     0.060 A 
ATOM     23  C   UNL A   1      33.228  29.324  24.813  1.00  0.00     0.059 A 
ATOM     24  N   UNL A   1      31.008  29.714  24.621  1.00  0.00    -0.178 NA
ATOM     25  N   UNL A   1      31.524  29.214  23.473  1.00  0.00    -0.263 N 
ATOM     26  C   UNL A   1      30.666  29.195  22.312  1.00  0.00     0.174 C 
ENDBRANCH  17  20
ENDBRANCH   8  16
BRANCH  15  27
ATOM     27  C   UNL A   1      32.723  20.368  24.582  1.00  0.00     0.111 C 
BRANCH  27  28
ATOM     28  S   UNL A   1      32.528  19.380  23.100  1.00  0.00    -0.089 SA
BRANCH  28  29
ATOM     29  C   UNL A   1      32.839  17.759  23.577  1.00  0.00     0.174 A 
ATOM     30  N   UNL A   1      33.291  16.853  22.742  1.00  0.00    -0.132 NA
ATOM     31  S   UNL A   1      33.117  17.414  25.229  1.00  0.00    -0.091 S 
ATOM     32  N   UNL A   1      34.223  16.047  23.377  1.00  0.00    -0.143 NA
ATOM     33  C   UNL A   1      34.357  16.377  24.649  1.00  0.00     0.115 A 
ATOM     34  C   UNL A   1      35.529  16.090  25.505  1.00  0.00     0.081 C 
ENDBRANCH  28  29
ENDBRANCH  27  28
ENDBRANCH  15  27
ENDBRANCH   4   7
ENDBRANCH   2   3
ENDBRANCH   1   2
BRANCH   1  35
ATOM     35  C   UNL A   1      35.937  22.325  25.648  1.00  0.00     0.118 C 
BRANCH  35  36
ATOM     36  N   UNL A   1      36.934  21.280  25.747  1.00  0.00    -0.352 N 
ATOM     37  C   UNL A   1      38.294  21.367  25.931  1.00  0.00     0.251 C 
ATOM     38  H   UNL A   1      36.583  20.363  25.670  1.00  0.00     0.163 HD
ATOM     39  O   UNL A   1      38.973  20.357  25.753  1.00  0.00    -0.269 OA
BRANCH  37  40
ATOM     40  C   UNL A   1      38.953  22.642  26.318  1.00  0.00     0.039 A 
ATOM     41  C   UNL A   1      39.997  22.600  27.248  1.00  0.00     0.014 A 
ATOM     42  C   UNL A   1      38.531  23.880  25.825  1.00  0.00     0.014 A 
ATOM     43  C   UNL A   1      40.629  23.781  27.648  1.00  0.00     0.010 A 
ATOM     44  C   UNL A   1      39.241  25.040  26.131  1.00  0.00     0.010 A 
ATOM     45  C   UNL A   1      40.277  25.012  27.073  1.00  0.00    -0.014 A 
BRANCH  45  46
ATOM     46  C   UNL A   1      40.950  26.277  27.471  1.00  0.00     0.031 A 
ATOM     47  C   UNL A   1      42.398  26.511  27.118  1.00  0.00     0.074 A 
ATOM     48  C   UNL A   1      40.277  27.194  28.193  1.00  0.00     0.049 A 
ATOM     49  N   UNL A   1      43.164  27.530  27.410  1.00  0.00    -0.248 NA
ATOM     50  C   UNL A   1      43.085  25.450  26.360  1.00  0.00     0.031 C 
ATOM     51  C   UNL A   1      38.895  27.059  28.657  1.00  0.00     0.029 A 
ATOM     52  N   UNL A   1      40.669  28.417  28.677  1.00  0.00    -0.354 N 
ATOM     53  C   UNL A   1      44.421  27.220  26.903  1.00  0.00     0.074 A 
ATOM     54  C   UNL A   1      44.331  25.898  26.329  1.00  0.00     0.031 C 
ATOM     55  C   UNL A   1      38.547  28.165  29.334  1.00  0.00     0.029 A 
ATOM     56  C   UNL A   1      39.691  29.069  29.390  1.00  0.00     0.049 A 
ATOM     57  H   UNL A   1      41.567  28.793  28.527  1.00  0.00     0.167 HD
ATOM     58  C   UNL A   1      45.543  27.979  26.883  1.00  0.00     0.034 A 
ATOM     59  C   UNL A   1      39.712  30.258  30.022  1.00  0.00     0.034 A 
ATOM     60  C   UNL A   1      45.621  29.310  27.423  1.00  0.00     0.049 A 
ATOM     61  C   UNL A   1      40.963  31.091  29.973  1.00  0.00     0.074 A 
ATOM     62  C   UNL A   1      46.690  30.187  27.398  1.00  0.00     0.029 A 
ATOM     63  N   UNL A   1      44.590  29.955  28.090  1.00  0.00    -0.354 N 
ATOM     64  N   UNL A   1      42.105  30.828  29.386  1.00  0.00    -0.248 NA
ATOM     65  C   UNL A   1      40.918  32.397  30.645  1.00  0.00     0.031 C 
ATOM     66  C   UNL A   1      46.317  31.350  28.077  1.00  0.00     0.029 A 
ATOM     67  C   UNL A   1      45.000  31.215  28.487  1.00  0.00     0.049 A 
ATOM     68  H   UNL A   1      43.698  29.572  28.256  1.00  0.00     0.167 HD
ATOM     69  C   UNL A   1      42.901  31.950  29.583  1.00  0.00     0.074 A 
ATOM     70  C   UNL A   1      42.104  32.902  30.329  1.00  0.00     0.031 C 
ATOM     71  C   UNL A   1      44.181  32.169  29.190  1.00  0.00     0.034 A 
BRANCH  58  72
ATOM     72  C   UNL A   1      46.766  27.409  26.211  1.00  0.00     0.023 A 
ATOM     73  C   UNL A   1      47.586  26.499  26.911  1.00  0.00     0.012 A 
ATOM     74  C   UNL A   1      47.073  27.724  24.873  1.00  0.00     0.148 A 
ATOM     75  C   UNL A   1      48.711  25.941  26.305  1.00  0.00     0.002 A 
ATOM     76  C   UNL A   1      48.167  27.124  24.259  1.00  0.00     0.091 A 
ATOM     77  F   UNL A   1      46.294  28.603  24.229  1.00  0.00    -0.205 F 
ATOM     78  C   UNL A   1      48.994  26.244  24.977  1.00  0.00     0.022 A 
BRANCH  76  79
ATOM     79  S   UNL A   1      48.574  27.384  22.529  1.00  0.00     0.127 S 
ATOM     80  O   UNL A   1      49.885  28.024  22.627  1.00  0.00    -0.237 OA
ATOM     81  O   UNL A   1      48.603  26.014  22.013  1.00  0.00    -0.237 OA
ATOM     82  O   UNL A   1      47.513  28.220  21.985  1.00  0.00    -0.744 OA
ENDBRANCH  76  79
ENDBRANCH  58  72
BRANCH  59  83
ATOM     83  C   UNL A   1      38.486  30.758  30.707  1.00  0.00     0.023 A 
ATOM     84  C   UNL A   1      38.360  30.614  32.101  1.00  0.00     0.012 A 
ATOM     85  C   UNL A   1      37.463  31.405  29.987  1.00  0.00     0.148 A 
ATOM     86  C   UNL A   1      37.224  31.079  32.766  1.00  0.00     0.002 A 
ATOM     87  C   UNL A   1      36.361  31.917  30.661  1.00  0.00     0.091 A 
ATOM     88  F   UNL A   1      37.601  31.527  28.659  1.00  0.00    -0.205 F 
ATOM     89  C   UNL A   1      36.230  31.740  32.047  1.00  0.00     0.022 A 
BRANCH  87  90
ATOM     90  S   UNL A   1      35.097  32.891  29.839  1.00  0.00     0.127 S 
ATOM     91  O   UNL A   1      34.311  33.375  30.972  1.00  0.00    -0.237 OA
ATOM     92  O   UNL A   1      35.900  33.910  29.163  1.00  0.00    -0.237 OA
ATOM     93  O   UNL A   1      34.407  31.971  28.944  1.00  0.00    -0.744 OA
ENDBRANCH  87  90
ENDBRANCH  59  83
BRANCH  71  94
ATOM     94  C   UNL A   1      44.792  33.506  29.515  1.00  0.00     0.023 A 
ATOM     95  C   UNL A   1      45.540  33.675  30.696  1.00  0.00     0.012 A 
ATOM     96  C   UNL A   1      44.686  34.577  28.604  1.00  0.00     0.148 A 
ATOM     97  C   UNL A   1      46.141  34.900  30.984  1.00  0.00     0.002 A 
ATOM     98  C   UNL A   1      45.332  35.776  28.871  1.00  0.00     0.091 A 
ATOM     99  F   UNL A   1      43.956  34.400  27.493  1.00  0.00    -0.205 F 
ATOM    100  C   UNL A   1      46.048  35.944  30.067  1.00  0.00     0.022 A 
BRANCH  98 101
ATOM    101  S   UNL A   1      45.353  37.141  27.704  1.00  0.00     0.127 S 
ATOM    102  O   UNL A   1      43.929  37.460  27.596  1.00  0.00    -0.237 OA
ATOM    103  O   UNL A   1      46.150  38.141  28.415  1.00  0.00    -0.237 OA
ATOM    104  O   UNL A   1      45.969  36.626  26.490  1.00  0.00    -0.744 OA
ENDBRANCH  98 101
ENDBRANCH  71  94
ENDBRANCH  45  46
ENDBRANCH  37  40
ENDBRANCH  35  36
ENDBRANCH   1  35
TORSDOF 18
ENDMDL
MODEL 2
REMARK VINA RESULT:     -13.3      0.885      7.226
REMARK SMILES Cc1cc(C(=O)N[C@@H]2C(=O)N3C(C(=O)NCCCNC(=O)c4ccc(-c5c6nc(c(-c7cccc(S(=O)(=O)[O-])c7F)c7ccc([nH]7)c(-c7cccc(S(=O)(=O)[O-])c7F)c7nc(c(-c8cccc(S(=O)(=O)[O-])c8F)c8ccc5[nH]8)C=C7)C=C6)cc4)=C(CSc4nnc(C)s4)CS[C@H]23)n(C)n1
REMARK SMILES IDX 17 1 16 2 15 3 13 4 14 5 12 7 8 8 9 9 96 10 10 11 11 12
REMARK SMILES IDX 95 13 94 14 85 15 7 16 5 17 6 18 4 20 1 21 2 22 3 23 99 24
REMARK SMILES IDX 97 25 98 26 86 27 87 28 88 29 89 30 93 31 90 32 91 33 92 34
REMARK SMILES IDX 18 35 19 36 20 37 21 39 22 40 23 41 84 42 24 43 83 44 25 45
REMARK SMILES IDX 26 46 27 47 77 48 28 49 82 50 76 51 78 52 29 53 81 54 75 55
REMARK SMILES IDX 74 56 30 58 62 59 42 60 61 61 43 62 46 63 60 64 79 65 44 66
REMARK SMILES IDX 45 67 59 69 80 70 47 71 31 72 32 73 40 74 33 75 35 76 41 77
REMARK SMILES IDX 34 78 36 79 37 80 38 81 39 82 63 83 64 84 72 85 65 86 67 87
REMARK SMILES IDX 73 88 66 89 68 90 69 91 70 92 71 93 48 94 49 95 57 96 50 97
REMARK SMILES IDX 52 98 58 99 51 100 53 101 54 102 55 103 56 104
REMARK H PARENT 15 6 7 19 19 38 78 57 46 68
REMARK Flexibility Score: inf
ROOT
ATOM      1  C   UNL A   1      34.974  22.700  27.193  1.00  0.00     0.042 C 
ENDROOT
BRANCH   1   2
ATOM      2  C   UNL A   1      33.925  21.645  27.537  1.00  0.00     0.118 C 
BRANCH   2   3
ATOM      3  N   UNL A   1      32.619  22.243  27.747  1.00  0.00    -0.351 N 
ATOM      4  C   UNL A   1      31.646  22.807  26.987  1.00  0.00     0.268 C 
ATOM      5  O   UNL A   1      30.586  22.949  27.612  1.00  0.00    -0.268 OA
ATOM      6  H   UNL A   1      32.372  22.240  28.700  1.00  0.00     0.163 HD
BRANCH   4   7
ATOM      7  C   UNL A   1      31.670  23.071  25.468  1.00  0.00     0.111 C 
ATOM      8  C   UNL A   1      31.815  26.353  24.408  1.00  0.00     0.206 C 
ATOM      9  C   UNL A   1      32.341  25.496  25.599  1.00  0.00     0.253 C 
ATOM     10  C   UNL A   1      31.387  24.972  23.845  1.00  0.00     0.181 C 
ATOM     11  O   UNL A   1      33.158  25.687  26.474  1.00  0.00    -0.272 OA
ATOM     12  N   UNL A   1      31.596  24.427  25.170  1.00  0.00    -0.290 N 
ATOM     13  S   UNL A   1      32.532  24.173  22.683  1.00  0.00    -0.129 SA
ATOM     14  C   UNL A   1      31.713  22.608  22.969  1.00  0.00     0.106 C 
ATOM     15  C   UNL A   1      31.892  22.207  24.425  1.00  0.00    -0.020 C 
BRANCH   8  16
ATOM     16  N   UNL A   1      32.776  27.194  23.640  1.00  0.00    -0.336 N 
ATOM     17  C   UNL A   1      33.239  28.471  23.911  1.00  0.00     0.270 C 
ATOM     18  O   UNL A   1      34.070  28.953  23.142  1.00  0.00    -0.268 OA
ATOM     19  H   UNL A   1      33.135  26.781  22.820  1.00  0.00     0.164 HD
BRANCH  17  20
ATOM     20  C   UNL A   1      32.683  29.202  25.032  1.00  0.00     0.126 A 
ATOM     21  C   UNL A   1      31.029  32.109  26.459  1.00  0.00     0.069 C 
ATOM     22  C   UNL A   1      31.734  30.830  26.198  1.00  0.00     0.060 A 
ATOM     23  C   UNL A   1      31.487  29.890  25.173  1.00  0.00     0.059 A 
ATOM     24  N   UNL A   1      32.814  30.495  26.902  1.00  0.00    -0.178 NA
ATOM     25  N   UNL A   1      33.331  29.442  26.226  1.00  0.00    -0.263 N 
ATOM     26  C   UNL A   1      34.481  28.784  26.800  1.00  0.00     0.174 C 
ENDBRANCH  17  20
ENDBRANCH   8  16
BRANCH  15  27
ATOM     27  C   UNL A   1      32.653  20.904  24.491  1.00  0.00     0.111 C 
BRANCH  27  28
ATOM     28  S   UNL A   1      32.427  20.063  22.924  1.00  0.00    -0.089 SA
BRANCH  28  29
ATOM     29  C   UNL A   1      32.525  18.384  23.279  1.00  0.00     0.174 A 
ATOM     30  N   UNL A   1      32.876  17.494  22.381  1.00  0.00    -0.132 NA
ATOM     31  S   UNL A   1      32.729  17.885  24.902  1.00  0.00    -0.091 S 
ATOM     32  N   UNL A   1      33.688  16.532  22.960  1.00  0.00    -0.143 NA
ATOM     33  C   UNL A   1      33.840  16.746  24.255  1.00  0.00     0.115 A 
ATOM     34  C   UNL A   1      34.951  16.251  25.096  1.00  0.00     0.081 C 
ENDBRANCH  28  29
ENDBRANCH  27  28
ENDBRANCH  15  27
ENDBRANCH   4   7
ENDBRANCH   2   3
ENDBRANCH   1   2
BRANCH   1  35
ATOM     35  C   UNL A   1      35.611  22.610  25.823  1.00  0.00     0.118 C 
BRANCH  35  36
ATOM     36  N   UNL A   1      36.511  21.482  25.712  1.00  0.00    -0.352 N 
ATOM     37  C   UNL A   1      37.885  21.437  25.754  1.00  0.00     0.251 C 
ATOM     38  H   UNL A   1      36.071  20.609  25.587  1.00  0.00     0.163 HD
ATOM     39  O   UNL A   1      38.446  20.399  25.407  1.00  0.00    -0.269 OA
BRANCH  37  40
ATOM     40  C   UNL A   1      38.694  22.607  26.186  1.00  0.00     0.039 A 
ATOM     41  C   UNL A   1      38.340  23.875  25.715  1.00  0.00     0.014 A 
ATOM     42  C   UNL A   1      39.822  22.475  27.001  1.00  0.00     0.014 A 
ATOM     43  C   UNL A   1      39.088  24.997  26.087  1.00  0.00     0.010 A 
ATOM     44  C   UNL A   1      40.491  23.604  27.468  1.00  0.00     0.010 A 
ATOM     45  C   UNL A   1      40.155  24.877  26.991  1.00  0.00    -0.014 A 
BRANCH  45  46
ATOM     46  C   UNL A   1      40.952  26.060  27.413  1.00  0.00     0.031 A 
ATOM     47  C   UNL A   1      40.320  27.140  28.255  1.00  0.00     0.074 A 
ATOM     48  C   UNL A   1      42.228  26.190  27.000  1.00  0.00     0.049 A 
ATOM     49  N   UNL A   1      40.839  28.260  28.688  1.00  0.00    -0.248 NA
ATOM     50  C   UNL A   1      38.910  26.954  28.640  1.00  0.00     0.031 C 
ATOM     51  C   UNL A   1      42.935  25.250  26.128  1.00  0.00     0.029 A 
ATOM     52  N   UNL A   1      43.154  27.172  27.247  1.00  0.00    -0.354 N 
ATOM     53  C   UNL A   1      39.819  28.919  29.363  1.00  0.00     0.074 A 
ATOM     54  C   UNL A   1      38.634  28.101  29.242  1.00  0.00     0.031 C 
ATOM     55  C   UNL A   1      44.190  25.687  25.935  1.00  0.00     0.029 A 
ATOM     56  C   UNL A   1      44.365  26.957  26.632  1.00  0.00     0.049 A 
ATOM     57  H   UNL A   1      42.969  27.958  27.812  1.00  0.00     0.167 HD
ATOM     58  C   UNL A   1      39.867  30.083  30.054  1.00  0.00     0.034 A 
ATOM     59  C   UNL A   1      45.489  27.699  26.625  1.00  0.00     0.034 A 
ATOM     60  C   UNL A   1      41.055  30.878  30.205  1.00  0.00     0.049 A 
ATOM     61  C   UNL A   1      45.525  28.980  27.413  1.00  0.00     0.074 A 
ATOM     62  C   UNL A   1      41.226  32.040  30.936  1.00  0.00     0.029 A 
ATOM     63  N   UNL A   1      42.276  30.596  29.610  1.00  0.00    -0.354 N 
ATOM     64  N   UNL A   1      44.581  29.526  28.141  1.00  0.00    -0.248 NA
ATOM     65  C   UNL A   1      46.788  29.730  27.404  1.00  0.00     0.031 C 
ATOM     66  C   UNL A   1      42.542  32.479  30.758  1.00  0.00     0.029 A 
ATOM     67  C   UNL A   1      43.203  31.566  29.952  1.00  0.00     0.049 A 
ATOM     68  H   UNL A   1      42.457  29.821  29.031  1.00  0.00     0.167 HD
ATOM     69  C   UNL A   1      45.147  30.661  28.709  1.00  0.00     0.074 A 
ATOM     70  C   UNL A   1      46.522  30.714  28.253  1.00  0.00     0.031 C 
ATOM     71  C   UNL A   1      44.579  31.582  29.526  1.00  0.00     0.034 A 
BRANCH  58  72
ATOM     72  C   UNL A   1      38.608  30.544  30.744  1.00  0.00     0.023 A 
ATOM     73  C   UNL A   1      38.417  30.255  32.112  1.00  0.00     0.012 A 
ATOM     74  C   UNL A   1      37.644  31.311  30.062  1.00  0.00     0.148 A 
ATOM     75  C   UNL A   1      37.272  30.688  32.779  1.00  0.00     0.002 A 
ATOM     76  C   UNL A   1      36.529  31.782  30.746  1.00  0.00     0.091 A 
ATOM     77  F   UNL A   1      37.832  31.561  28.759  1.00  0.00    -0.205 F 
ATOM     78  C   UNL A   1      36.334  31.461  32.100  1.00  0.00     0.022 A 
BRANCH  76  79
ATOM     79  S   UNL A   1      35.302  32.852  29.987  1.00  0.00     0.127 S 
ATOM     80  O   UNL A   1      34.742  31.975  28.958  1.00  0.00    -0.237 OA
ATOM     81  O   UNL A   1      34.403  33.128  31.107  1.00  0.00    -0.237 OA
ATOM     82  O   UNL A   1      36.030  34.010  29.487  1.00  0.00    -0.744 OA
ENDBRANCH  76  79
ENDBRANCH  58  72
BRANCH  59  83
ATOM     83  C   UNL A   1      46.694  27.217  25.893  1.00  0.00     0.023 A 
ATOM     84  C   UNL A   1      47.540  26.266  26.496  1.00  0.00     0.012 A 
ATOM     85  C   UNL A   1      46.984  27.669  24.592  1.00  0.00     0.148 A 
ATOM     86  C   UNL A   1      48.672  25.796  25.828  1.00  0.00     0.002 A 
ATOM     87  C   UNL A   1      48.080  27.154  23.909  1.00  0.00     0.091 A 
ATOM     88  F   UNL A   1      46.168  28.578  24.039  1.00  0.00    -0.205 F 
ATOM     89  C   UNL A   1      48.936  26.231  24.531  1.00  0.00     0.022 A 
BRANCH  87  90
ATOM     90  S   UNL A   1      48.424  27.559  22.195  1.00  0.00     0.127 S 
ATOM     91  O   UNL A   1      48.657  26.237  21.618  1.00  0.00    -0.237 OA
ATOM     92  O   UNL A   1      47.175  28.202  21.785  1.00  0.00    -0.237 OA
ATOM     93  O   UNL A   1      49.580  28.445  22.221  1.00  0.00    -0.744 OA
ENDBRANCH  87  90
ENDBRANCH  59  83
BRANCH  71  94
ATOM     94  C   UNL A   1      45.449  32.706  30.025  1.00  0.00     0.023 A 
ATOM     95  C   UNL A   1      46.213  32.543  31.196  1.00  0.00     0.012 A 
ATOM     96  C   UNL A   1      45.562  33.899  29.284  1.00  0.00     0.148 A 
ATOM     97  C   UNL A   1      47.050  33.566  31.643  1.00  0.00     0.002 A 
ATOM     98  C   UNL A   1      46.438  34.891  29.705  1.00  0.00     0.091 A 
ATOM     99  F   UNL A   1      44.814  34.040  28.180  1.00  0.00    -0.205 F 
ATOM    100  C   UNL A   1      47.172  34.732  30.892  1.00  0.00     0.022 A 
BRANCH  98 101
ATOM    101  S   UNL A   1      46.737  36.382  28.750  1.00  0.00     0.127 S 
ATOM    102  O   UNL A   1      47.037  35.833  27.428  1.00  0.00    -0.237 OA
ATOM    103  O   UNL A   1      45.450  37.072  28.846  1.00  0.00    -0.237 OA
ATOM    104  O   UNL A   1      47.842  37.067  29.405  1.00  0.00    -0.744 OA
ENDBRANCH  98 101
ENDBRANCH  71  94
ENDBRANCH  45  46
ENDBRANCH  37  40
ENDBRANCH  35  36
ENDBRANCH   1  35
TORSDOF 18
ENDMDL
MODEL 3
REMARK VINA RESULT:     -12.3      2.384      3.308
REMARK SMILES Cc1cc(C(=O)N[C@@H]2C(=O)N3C(C(=O)NCCCNC(=O)c4ccc(-c5c6nc(c(-c7cccc(S(=O)(=O)[O-])c7F)c7ccc([nH]7)c(-c7cccc(S(=O)(=O)[O-])c7F)c7nc(c(-c8cccc(S(=O)(=O)[O-])c8F)c8ccc5[nH]8)C=C7)C=C6)cc4)=C(CSc4nnc(C)s4)CS[C@H]23)n(C)n1
REMARK SMILES IDX 17 1 16 2 15 3 13 4 14 5 12 7 8 8 9 9 96 10 10 11 11 12
REMARK SMILES IDX 95 13 94 14 85 15 7 16 5 17 6 18 4 20 1 21 2 22 3 23 99 24
REMARK SMILES IDX 97 25 98 26 86 27 87 28 88 29 89 30 93 31 90 32 91 33 92 34
REMARK SMILES IDX 18 35 19 36 20 37 21 39 22 40 23 41 84 42 24 43 83 44 25 45
REMARK SMILES IDX 26 46 27 47 77 48 28 49 82 50 76 51 78 52 29 53 81 54 75 55
REMARK SMILES IDX 74 56 30 58 62 59 42 60 61 61 43 62 46 63 60 64 79 65 44 66
REMARK SMILES IDX 45 67 59 69 80 70 47 71 31 72 32 73 40 74 33 75 35 76 41 77
REMARK SMILES IDX 34 78 36 79 37 80 38 81 39 82 63 83 64 84 72 85 65 86 67 87
REMARK SMILES IDX 73 88 66 89 68 90 69 91 70 92 71 93 48 94 49 95 57 96 50 97
REMARK SMILES IDX 52 98 58 99 51 100 53 101 54 102 55 103 56 104
REMARK H PARENT 15 6 7 19 19 38 78 57 46 68
REMARK Flexibility Score: inf
ROOT
ATOM      1  C   UNL A   1      38.698  23.511  26.138  1.00  0.00     0.042 C 
ENDROOT
BRANCH   1   2
ATOM      2  C   UNL A   1      37.179  23.357  26.145  1.00  0.00     0.118 C 
BRANCH   2   3
ATOM      3  N   UNL A   1      36.777  22.035  25.701  1.00  0.00    -0.351 N 
ATOM      4  C   UNL A   1      35.631  21.418  25.316  1.00  0.00     0.268 C 
ATOM      5  O   UNL A   1      35.846  20.322  24.780  1.00  0.00    -0.268 OA
ATOM      6  H   UNL A   1      37.543  21.417  25.672  1.00  0.00     0.163 HD
BRANCH   4   7
ATOM      7  C   UNL A   1      34.206  22.006  25.290  1.00  0.00     0.111 C 
ATOM      8  C   UNL A   1      33.710  24.941  23.541  1.00  0.00     0.206 C 
ATOM      9  C   UNL A   1      34.607  23.670  23.440  1.00  0.00     0.253 C 
ATOM     10  C   UNL A   1      33.020  24.137  24.675  1.00  0.00     0.181 C 
ATOM     11  O   UNL A   1      35.318  23.211  22.572  1.00  0.00    -0.272 OA
ATOM     12  N   UNL A   1      34.163  23.249  24.668  1.00  0.00    -0.290 N 
ATOM     13  S   UNL A   1      31.532  23.199  24.222  1.00  0.00    -0.129 SA
ATOM     14  C   UNL A   1      31.709  22.222  25.711  1.00  0.00     0.106 C 
ATOM     15  C   UNL A   1      33.009  21.436  25.643  1.00  0.00    -0.020 C 
BRANCH   8  16
ATOM     16  N   UNL A   1      32.916  25.364  22.353  1.00  0.00    -0.336 N 
ATOM     17  C   UNL A   1      32.109  26.477  22.185  1.00  0.00     0.270 C 
ATOM     18  O   UNL A   1      31.578  26.638  21.087  1.00  0.00    -0.268 OA
ATOM     19  H   UNL A   1      32.975  24.766  21.572  1.00  0.00     0.164 HD
BRANCH  17  20
ATOM     20  C   UNL A   1      31.871  27.354  23.314  1.00  0.00     0.126 A 
ATOM     21  C   UNL A   1      32.991  29.135  26.281  1.00  0.00     0.069 C 
ATOM     22  C   UNL A   1      32.231  28.518  25.165  1.00  0.00     0.060 A 
ATOM     23  C   UNL A   1      32.593  28.432  23.803  1.00  0.00     0.059 A 
ATOM     24  N   UNL A   1      31.107  27.844  25.403  1.00  0.00    -0.178 NA
ATOM     25  N   UNL A   1      30.852  27.211  24.233  1.00  0.00    -0.263 N 
ATOM     26  C   UNL A   1      29.625  26.455  24.140  1.00  0.00     0.174 C 
ENDBRANCH  17  20
ENDBRANCH   8  16
BRANCH  15  27
ATOM     27  C   UNL A   1      32.697  19.958  25.674  1.00  0.00     0.111 C 
BRANCH  27  28
ATOM     28  S   UNL A   1      32.409  19.428  23.987  1.00  0.00    -0.089 SA
BRANCH  28  29
ATOM     29  C   UNL A   1      32.766  17.747  23.959  1.00  0.00     0.174 A 
ATOM     30  N   UNL A   1      33.231  17.144  22.891  1.00  0.00    -0.132 NA
ATOM     31  S   UNL A   1      33.074  16.935  25.432  1.00  0.00    -0.091 S 
ATOM     32  N   UNL A   1      34.190  16.212  23.253  1.00  0.00    -0.143 NA
ATOM     33  C   UNL A   1      34.332  16.152  24.565  1.00  0.00     0.115 A 
ATOM     34  C   UNL A   1      35.521  15.656  25.292  1.00  0.00     0.081 C 
ENDBRANCH  28  29
ENDBRANCH  27  28
ENDBRANCH  15  27
ENDBRANCH   4   7
ENDBRANCH   2   3
ENDBRANCH   1   2
BRANCH   1  35
ATOM     35  C   UNL A   1      39.499  22.416  26.809  1.00  0.00     0.118 C 
BRANCH  35  36
ATOM     36  N   UNL A   1      40.727  22.124  26.101  1.00  0.00    -0.352 N 
ATOM     37  C   UNL A   1      41.819  22.923  25.855  1.00  0.00     0.251 C 
ATOM     38  H   UNL A   1      40.790  21.211  25.737  1.00  0.00     0.163 HD
ATOM     39  O   UNL A   1      42.651  22.539  25.034  1.00  0.00    -0.269 OA
BRANCH  37  40
ATOM     40  C   UNL A   1      42.004  24.230  26.539  1.00  0.00     0.039 A 
ATOM     41  C   UNL A   1      41.927  25.400  25.776  1.00  0.00     0.014 A 
ATOM     42  C   UNL A   1      42.304  24.325  27.900  1.00  0.00     0.014 A 
ATOM     43  C   UNL A   1      42.112  26.647  26.380  1.00  0.00     0.010 A 
ATOM     44  C   UNL A   1      42.367  25.570  28.524  1.00  0.00     0.010 A 
ATOM     45  C   UNL A   1      42.306  26.747  27.767  1.00  0.00    -0.014 A 
BRANCH  45  46
ATOM     46  C   UNL A   1      42.487  28.065  28.433  1.00  0.00     0.031 A 
ATOM     47  C   UNL A   1      43.872  28.615  28.666  1.00  0.00     0.074 A 
ATOM     48  C   UNL A   1      41.411  28.746  28.873  1.00  0.00     0.049 A 
ATOM     49  N   UNL A   1      44.231  29.723  29.260  1.00  0.00    -0.248 NA
ATOM     50  C   UNL A   1      45.006  27.802  28.193  1.00  0.00     0.031 C 
ATOM     51  C   UNL A   1      40.022  28.293  28.771  1.00  0.00     0.029 A 
ATOM     52  N   UNL A   1      41.316  29.959  29.509  1.00  0.00    -0.354 N 
ATOM     53  C   UNL A   1      45.621  29.724  29.261  1.00  0.00     0.074 A 
ATOM     54  C   UNL A   1      46.045  28.483  28.653  1.00  0.00     0.031 C 
ATOM     55  C   UNL A   1      39.214  29.225  29.299  1.00  0.00     0.029 A 
ATOM     56  C   UNL A   1      40.026  30.322  29.816  1.00  0.00     0.049 A 
ATOM     57  H   UNL A   1      42.099  30.516  29.724  1.00  0.00     0.167 HD
ATOM     58  C   UNL A   1      46.473  30.684  29.694  1.00  0.00     0.034 A 
ATOM     59  C   UNL A   1      39.549  31.412  30.446  1.00  0.00     0.034 A 
ATOM     60  C   UNL A   1      46.050  31.933  30.265  1.00  0.00     0.049 A 
ATOM     61  C   UNL A   1      40.512  32.472  30.905  1.00  0.00     0.074 A 
ATOM     62  C   UNL A   1      46.831  32.998  30.677  1.00  0.00     0.029 A 
ATOM     63  N   UNL A   1      44.731  32.285  30.510  1.00  0.00    -0.354 N 
ATOM     64  N   UNL A   1      41.818  32.505  30.789  1.00  0.00    -0.248 NA
ATOM     65  C   UNL A   1      39.935  33.660  31.550  1.00  0.00     0.031 C 
ATOM     66  C   UNL A   1      45.986  33.982  31.201  1.00  0.00     0.029 A 
ATOM     67  C   UNL A   1      44.676  33.548  31.073  1.00  0.00     0.049 A 
ATOM     68  H   UNL A   1      43.950  31.720  30.311  1.00  0.00     0.167 HD
ATOM     69  C   UNL A   1      42.215  33.730  31.310  1.00  0.00     0.074 A 
ATOM     70  C   UNL A   1      41.010  34.418  31.727  1.00  0.00     0.031 C 
ATOM     71  C   UNL A   1      43.466  34.237  31.442  1.00  0.00     0.034 A 
BRANCH  58  72
ATOM     72  C   UNL A   1      47.952  30.442  29.521  1.00  0.00     0.023 A 
ATOM     73  C   UNL A   1      48.705  29.927  30.596  1.00  0.00     0.012 A 
ATOM     74  C   UNL A   1      48.584  30.667  28.282  1.00  0.00     0.148 A 
ATOM     75  C   UNL A   1      50.069  29.675  30.455  1.00  0.00     0.002 A 
ATOM     76  C   UNL A   1      49.933  30.365  28.134  1.00  0.00     0.091 A 
ATOM     77  F   UNL A   1      47.858  31.173  27.276  1.00  0.00    -0.205 F 
ATOM     78  C   UNL A   1      50.680  29.882  29.222  1.00  0.00     0.022 A 
BRANCH  76  79
ATOM     79  S   UNL A   1      50.798  30.520  26.567  1.00  0.00     0.127 S 
ATOM     80  O   UNL A   1      52.182  30.268  26.969  1.00  0.00    -0.237 OA
ATOM     81  O   UNL A   1      50.190  29.450  25.776  1.00  0.00    -0.237 OA
ATOM     82  O   UNL A   1      50.526  31.867  26.086  1.00  0.00    -0.744 OA
ENDBRANCH  76  79
ENDBRANCH  58  72
BRANCH  59  83
ATOM     83  C   UNL A   1      38.079  31.583  30.628  1.00  0.00     0.023 A 
ATOM     84  C   UNL A   1      37.459  31.085  31.790  1.00  0.00     0.012 A 
ATOM     85  C   UNL A   1      37.303  32.266  29.673  1.00  0.00     0.148 A 
ATOM     86  C   UNL A   1      36.086  31.238  31.985  1.00  0.00     0.002 A 
ATOM     87  C   UNL A   1      35.946  32.465  29.899  1.00  0.00     0.091 A 
ATOM     88  F   UNL A   1      37.913  32.727  28.571  1.00  0.00    -0.205 F 
ATOM     89  C   UNL A   1      35.331  31.937  31.045  1.00  0.00     0.022 A 
BRANCH  87  90
ATOM     90  S   UNL A   1      34.924  33.460  28.809  1.00  0.00     0.127 S 
ATOM     91  O   UNL A   1      34.818  32.600  27.633  1.00  0.00    -0.237 OA
ATOM     92  O   UNL A   1      33.694  33.590  29.593  1.00  0.00    -0.237 OA
ATOM     93  O   UNL A   1      35.651  34.707  28.613  1.00  0.00    -0.744 OA
ENDBRANCH  87  90
ENDBRANCH  59  83
BRANCH  71  94
ATOM     94  C   UNL A   1      43.602  35.622  32.017  1.00  0.00     0.023 A 
ATOM     95  C   UNL A   1      43.619  35.810  33.413  1.00  0.00     0.012 A 
ATOM     96  C   UNL A   1      43.790  36.731  31.167  1.00  0.00     0.148 A 
ATOM     97  C   UNL A   1      43.782  37.085  33.953  1.00  0.00     0.002 A 
ATOM     98  C   UNL A   1      44.008  37.988  31.713  1.00  0.00     0.091 A 
ATOM     99  F   UNL A   1      43.756  36.532  29.842  1.00  0.00    -0.205 F 
ATOM    100  C   UNL A   1      43.990  38.171  33.105  1.00  0.00     0.022 A 
BRANCH  98 101
ATOM    101  S   UNL A   1      44.383  39.425  30.703  1.00  0.00     0.127 S 
ATOM    102  O   UNL A   1      44.590  40.456  31.720  1.00  0.00    -0.237 OA
ATOM    103  O   UNL A   1      45.599  39.003  30.007  1.00  0.00    -0.237 OA
ATOM    104  O   UNL A   1      43.228  39.626  29.840  1.00  0.00    -0.744 OA
ENDBRANCH  98 101
ENDBRANCH  71  94
ENDBRANCH  45  46
ENDBRANCH  37  40
ENDBRANCH  35  36
ENDBRANCH   1  35
TORSDOF 18
ENDMDL
