MODEL 1
REMARK VINA RESULT:      -9.0      0.000      0.000
REMARK SMILES CCOc1ccc(-c2nn(-c3ccccc3)cc2/C=C2/SC(=S)N(CC(=O)NCCCNC(=O)c3ccc(-c4c5nc(c(-c6cccc(S(=O)(=O)[O-])c6F)c6ccc([nH]6)c(-c6cccc(S(=O)(=O)[O-])c6F)c6nc(c(-c7cccc(S(=O)(=O)[O-])c7F)c7ccc4[nH]7)C=C6)C=C5)cc3)C2=O)cc1F
REMARK SMILES IDX 29 1 28 2 26 3 27 4 25 6 24 7 19 8 20 9 21 10 98 11 22 12
REMARK SMILES IDX 99 13 23 14 18 15 8 16 9 17 10 18 17 19 7 20 4 21 5 22
REMARK SMILES IDX 101 23 6 24 100 25 102 26 3 27 2 28 1 29 11 30 12 31 16 32
REMARK SMILES IDX 13 33 15 34 14 35 30 36 31 37 32 38 33 39 34 41 35 42 36 43
REMARK SMILES IDX 97 44 37 45 96 46 38 47 39 48 40 49 90 50 41 51 95 52 89 53
REMARK SMILES IDX 91 54 42 55 94 56 88 57 87 58 43 60 75 61 55 62 74 63 56 64
REMARK SMILES IDX 59 65 73 66 92 67 57 68 58 69 72 71 93 72 60 73 44 74 45 75
REMARK SMILES IDX 53 76 46 77 48 78 54 79 47 80 49 81 50 82 51 83 52 84 76 85
REMARK SMILES IDX 77 86 85 87 78 88 80 89 86 90 79 91 81 92 82 93 83 94 84 95
REMARK SMILES IDX 61 96 62 97 70 98 63 99 65 100 71 101 64 102 66 103 67 104
REMARK SMILES IDX 68 105 69 106
REMARK H PARENT 28 5 32 40 91 59 59 70
REMARK Flexibility Score: inf
ROOT
ATOM      1  C   UNL A   1      43.679  27.491  25.452  1.00  0.00     0.117 C 
ENDROOT
BRANCH   1   2
ATOM      2  N   UNL A   1      44.928  27.780  24.778  1.00  0.00    -0.354 N 
ATOM      3  C   UNL A   1      46.085  28.282  25.308  1.00  0.00     0.240 C 
ATOM      4  O   UNL A   1      47.141  27.977  24.752  1.00  0.00    -0.273 OA
ATOM      5  H   UNL A   1      44.947  27.591  23.812  1.00  0.00     0.163 HD
BRANCH   3   6
ATOM      6  C   UNL A   1      46.093  29.028  26.649  1.00  0.00     0.227 C 
BRANCH   6   7
ATOM      7  N   UNL A   1      46.812  28.307  27.701  1.00  0.00    -0.283 N 
ATOM      8  C   UNL A   1      46.786  25.353  29.836  1.00  0.00     0.033 C 
ATOM      9  C   UNL A   1      47.051  26.517  29.223  1.00  0.00     0.081 C 
ATOM     10  S   UNL A   1      48.471  27.454  29.479  1.00  0.00    -0.054 SA
ATOM     11  C   UNL A   1      46.162  27.210  28.245  1.00  0.00     0.266 C 
ATOM     12  C   UNL A   1      47.973  28.692  28.322  1.00  0.00     0.148 C 
ATOM     13  O   UNL A   1      45.016  26.902  28.001  1.00  0.00    -0.268 OA
ATOM     14  S   UNL A   1      48.847  30.099  28.113  1.00  0.00    -0.052 S 
BRANCH   8  15
ATOM     15  C   UNL A   1      45.581  24.620  29.659  1.00  0.00     0.022 A 
ATOM     16  C   UNL A   1      44.448  24.556  30.506  1.00  0.00     0.100 A 
ATOM     17  N   UNL A   1      43.435  23.934  29.896  1.00  0.00    -0.167 NA
ATOM     18  N   UNL A   1      43.954  23.454  28.741  1.00  0.00    -0.240 N 
ATOM     19  C   UNL A   1      45.276  23.818  28.585  1.00  0.00     0.123 A 
BRANCH  16  20
ATOM     20  C   UNL A   1      44.288  25.000  31.880  1.00  0.00     0.006 A 
ATOM     21  C   UNL A   1      44.066  25.736  34.567  1.00  0.00     0.154 A 
ATOM     22  C   UNL A   1      43.991  26.712  33.571  1.00  0.00     0.050 A 
ATOM     23  C   UNL A   1      44.188  24.393  34.213  1.00  0.00     0.165 A 
ATOM     24  C   UNL A   1      44.106  26.345  32.224  1.00  0.00     0.014 A 
ATOM     25  C   UNL A   1      44.319  24.024  32.886  1.00  0.00     0.053 A 
ATOM     26  F   UNL A   1      44.168  23.432  35.146  1.00  0.00    -0.203 F 
BRANCH  21  27
ATOM     27  O   UNL A   1      43.912  26.114  35.874  1.00  0.00    -0.491 OA
BRANCH  27  28
ATOM     28  C   UNL A   1      42.570  25.921  36.342  1.00  0.00     0.226 C 
ATOM     29  C   UNL A   1      41.787  27.220  36.434  1.00  0.00     0.049 C 
ENDBRANCH  27  28
ENDBRANCH  21  27
ENDBRANCH  16  20
BRANCH  18  30
ATOM     30  C   UNL A   1      43.175  22.637  27.899  1.00  0.00     0.065 A 
ATOM     31  C   UNL A   1      41.862  22.332  28.280  1.00  0.00     0.028 A 
ATOM     32  C   UNL A   1      43.715  22.110  26.720  1.00  0.00     0.028 A 
ATOM     33  C   UNL A   1      41.085  21.510  27.470  1.00  0.00     0.002 A 
ATOM     34  C   UNL A   1      42.944  21.243  25.944  1.00  0.00     0.002 A 
ATOM     35  C   UNL A   1      41.631  20.952  26.316  1.00  0.00     0.000 A 
ENDBRANCH  18  30
ENDBRANCH   8  15
ENDBRANCH   6   7
ENDBRANCH   3   6
ENDBRANCH   1   2
BRANCH   1  36
ATOM     36  C   UNL A   1      42.823  26.441  24.743  1.00  0.00     0.042 C 
BRANCH  36  37
ATOM     37  C   UNL A   1      42.615  25.200  25.591  1.00  0.00     0.118 C 
BRANCH  37  38
ATOM     38  N   UNL A   1      41.199  24.853  25.765  1.00  0.00    -0.352 N 
ATOM     39  C   UNL A   1      40.309  25.326  26.714  1.00  0.00     0.251 C 
ATOM     40  H   UNL A   1      40.835  24.199  25.124  1.00  0.00     0.163 HD
ATOM     41  O   UNL A   1      39.265  24.730  26.948  1.00  0.00    -0.269 OA
BRANCH  39  42
ATOM     42  C   UNL A   1      40.646  26.567  27.433  1.00  0.00     0.039 A 
ATOM     43  C   UNL A   1      40.302  27.832  26.945  1.00  0.00     0.014 A 
ATOM     44  C   UNL A   1      41.284  26.429  28.658  1.00  0.00     0.014 A 
ATOM     45  C   UNL A   1      40.538  28.944  27.752  1.00  0.00     0.010 A 
ATOM     46  C   UNL A   1      41.301  27.477  29.530  1.00  0.00     0.010 A 
ATOM     47  C   UNL A   1      41.024  28.749  29.053  1.00  0.00    -0.014 A 
BRANCH  47  48
ATOM     48  C   UNL A   1      41.179  29.843  29.998  1.00  0.00     0.031 A 
ATOM     49  C   UNL A   1      39.897  30.362  30.542  1.00  0.00     0.074 A 
ATOM     50  C   UNL A   1      42.382  30.158  30.527  1.00  0.00     0.049 A 
ATOM     51  N   UNL A   1      39.350  31.506  30.300  1.00  0.00    -0.248 NA
ATOM     52  C   UNL A   1      39.035  29.441  31.300  1.00  0.00     0.031 C 
ATOM     53  C   UNL A   1      43.673  29.482  30.322  1.00  0.00     0.029 A 
ATOM     54  N   UNL A   1      42.681  31.060  31.497  1.00  0.00    -0.354 N 
ATOM     55  C   UNL A   1      38.202  31.547  31.090  1.00  0.00     0.074 A 
ATOM     56  C   UNL A   1      37.940  30.186  31.469  1.00  0.00     0.031 C 
ATOM     57  C   UNL A   1      44.522  29.818  31.316  1.00  0.00     0.029 A 
ATOM     58  C   UNL A   1      43.908  30.849  32.127  1.00  0.00     0.049 A 
ATOM     59  H   UNL A   1      42.080  31.802  31.736  1.00  0.00     0.167 HD
ATOM     60  C   UNL A   1      37.738  32.728  31.588  1.00  0.00     0.034 A 
ATOM     61  C   UNL A   1      44.349  31.457  33.258  1.00  0.00     0.034 A 
ATOM     62  C   UNL A   1      38.389  33.845  30.943  1.00  0.00     0.049 A 
ATOM     63  C   UNL A   1      43.535  32.690  33.400  1.00  0.00     0.074 A 
ATOM     64  C   UNL A   1      38.516  34.288  29.642  1.00  0.00     0.029 A 
ATOM     65  N   UNL A   1      39.389  34.467  31.655  1.00  0.00    -0.354 N 
ATOM     66  N   UNL A   1      43.595  33.693  32.569  1.00  0.00    -0.248 NA
ATOM     67  C   UNL A   1      42.328  32.617  34.210  1.00  0.00     0.031 C 
ATOM     68  C   UNL A   1      39.861  34.751  29.547  1.00  0.00     0.029 A 
ATOM     69  C   UNL A   1      40.450  34.643  30.810  1.00  0.00     0.049 A 
ATOM     70  H   UNL A   1      39.348  34.736  32.601  1.00  0.00     0.167 HD
ATOM     71  C   UNL A   1      42.274  34.091  32.415  1.00  0.00     0.074 A 
ATOM     72  C   UNL A   1      41.556  33.467  33.528  1.00  0.00     0.031 C 
ATOM     73  C   UNL A   1      41.830  34.629  31.241  1.00  0.00     0.034 A 
BRANCH  60  74
ATOM     74  C   UNL A   1      37.019  32.919  32.911  1.00  0.00     0.023 A 
ATOM     75  C   UNL A   1      35.875  33.755  32.895  1.00  0.00     0.012 A 
ATOM     76  C   UNL A   1      37.535  32.583  34.183  1.00  0.00     0.148 A 
ATOM     77  C   UNL A   1      35.342  34.306  34.065  1.00  0.00     0.002 A 
ATOM     78  C   UNL A   1      36.957  33.074  35.349  1.00  0.00     0.091 A 
ATOM     79  F   UNL A   1      38.666  31.886  34.291  1.00  0.00    -0.205 F 
ATOM     80  C   UNL A   1      35.885  33.967  35.295  1.00  0.00     0.022 A 
BRANCH  78  81
ATOM     81  S   UNL A   1      37.596  32.635  36.972  1.00  0.00     0.127 S 
ATOM     82  O   UNL A   1      38.865  33.356  36.989  1.00  0.00    -0.237 OA
ATOM     83  O   UNL A   1      36.560  33.172  37.853  1.00  0.00    -0.237 OA
ATOM     84  O   UNL A   1      37.690  31.180  36.977  1.00  0.00    -0.744 OA
ENDBRANCH  78  81
ENDBRANCH  60  74
BRANCH  61  85
ATOM     85  C   UNL A   1      45.262  30.999  34.339  1.00  0.00     0.023 A 
ATOM     86  C   UNL A   1      46.635  31.317  34.248  1.00  0.00     0.012 A 
ATOM     87  C   UNL A   1      44.788  30.507  35.575  1.00  0.00     0.148 A 
ATOM     88  C   UNL A   1      47.482  31.227  35.360  1.00  0.00     0.002 A 
ATOM     89  C   UNL A   1      45.639  30.402  36.676  1.00  0.00     0.091 A 
ATOM     90  F   UNL A   1      43.495  30.182  35.695  1.00  0.00    -0.205 F 
ATOM     91  C   UNL A   1      46.981  30.791  36.580  1.00  0.00     0.022 A 
BRANCH  89  92
ATOM     92  S   UNL A   1      45.041  29.844  38.280  1.00  0.00     0.127 S 
ATOM     93  O   UNL A   1      44.601  28.485  37.973  1.00  0.00    -0.237 OA
ATOM     94  O   UNL A   1      46.242  29.924  39.113  1.00  0.00    -0.237 OA
ATOM     95  O   UNL A   1      43.987  30.780  38.642  1.00  0.00    -0.744 OA
ENDBRANCH  89  92
ENDBRANCH  61  85
BRANCH  73  96
ATOM     96  C   UNL A   1      42.843  35.009  30.189  1.00  0.00     0.023 A 
ATOM     97  C   UNL A   1      43.595  36.201  30.254  1.00  0.00     0.012 A 
ATOM     98  C   UNL A   1      43.206  34.028  29.252  1.00  0.00     0.148 A 
ATOM     99  C   UNL A   1      44.684  36.408  29.401  1.00  0.00     0.002 A 
ATOM    100  C   UNL A   1      44.321  34.212  28.446  1.00  0.00     0.091 A 
ATOM    101  F   UNL A   1      42.477  32.903  29.203  1.00  0.00    -0.205 F 
ATOM    102  C   UNL A   1      45.059  35.404  28.510  1.00  0.00     0.022 A 
BRANCH 100 103
ATOM    103  S   UNL A   1      44.942  32.896  27.398  1.00  0.00     0.127 S 
ATOM    104  O   UNL A   1      44.179  33.099  26.168  1.00  0.00    -0.237 OA
ATOM    105  O   UNL A   1      46.366  33.219  27.297  1.00  0.00    -0.237 OA
ATOM    106  O   UNL A   1      44.665  31.653  28.108  1.00  0.00    -0.744 OA
ENDBRANCH 100 103
ENDBRANCH  73  96
ENDBRANCH  47  48
ENDBRANCH  39  42
ENDBRANCH  37  38
ENDBRANCH  36  37
ENDBRANCH   1  36
TORSDOF 19
ENDMDL
MODEL 2
REMARK VINA RESULT:      -8.9      3.531      7.283
REMARK SMILES CCOc1ccc(-c2nn(-c3ccccc3)cc2/C=C2/SC(=S)N(CC(=O)NCCCNC(=O)c3ccc(-c4c5nc(c(-c6cccc(S(=O)(=O)[O-])c6F)c6ccc([nH]6)c(-c6cccc(S(=O)(=O)[O-])c6F)c6nc(c(-c7cccc(S(=O)(=O)[O-])c7F)c7ccc4[nH]7)C=C6)C=C5)cc3)C2=O)cc1F
REMARK SMILES IDX 29 1 28 2 26 3 27 4 25 6 24 7 19 8 20 9 21 10 98 11 22 12
REMARK SMILES IDX 99 13 23 14 18 15 8 16 9 17 10 18 17 19 7 20 4 21 5 22
REMARK SMILES IDX 101 23 6 24 100 25 102 26 3 27 2 28 1 29 11 30 12 31 16 32
REMARK SMILES IDX 13 33 15 34 14 35 30 36 31 37 32 38 33 39 34 41 35 42 36 43
REMARK SMILES IDX 97 44 37 45 96 46 38 47 39 48 40 49 90 50 41 51 95 52 89 53
REMARK SMILES IDX 91 54 42 55 94 56 88 57 87 58 43 60 75 61 55 62 74 63 56 64
REMARK SMILES IDX 59 65 73 66 92 67 57 68 58 69 72 71 93 72 60 73 44 74 45 75
REMARK SMILES IDX 53 76 46 77 48 78 54 79 47 80 49 81 50 82 51 83 52 84 76 85
REMARK SMILES IDX 77 86 85 87 78 88 80 89 86 90 79 91 81 92 82 93 83 94 84 95
REMARK SMILES IDX 61 96 62 97 70 98 63 99 65 100 71 101 64 102 66 103 67 104
REMARK SMILES IDX 68 105 69 106
REMARK H PARENT 28 5 32 40 91 59 59 70
REMARK Flexibility Score: inf
ROOT
ATOM      1  C   UNL A   1      44.618  27.018  31.755  1.00  0.00     0.117 C 
ENDROOT
BRANCH   1   2
ATOM      2  N   UNL A   1      45.643  27.705  30.997  1.00  0.00    -0.354 N 
ATOM      3  C   UNL A   1      46.138  27.396  29.759  1.00  0.00     0.240 C 
ATOM      4  O   UNL A   1      46.579  28.323  29.078  1.00  0.00    -0.273 OA
ATOM      5  H   UNL A   1      46.036  28.497  31.428  1.00  0.00     0.163 HD
BRANCH   3   6
ATOM      6  C   UNL A   1      45.972  25.994  29.159  1.00  0.00     0.227 C 
BRANCH   6   7
ATOM      7  N   UNL A   1      45.351  26.009  27.833  1.00  0.00    -0.283 N 
ATOM      8  C   UNL A   1      42.202  26.315  26.023  1.00  0.00     0.033 C 
ATOM      9  C   UNL A   1      43.479  26.145  26.399  1.00  0.00     0.081 C 
ATOM     10  S   UNL A   1      44.806  25.999  25.314  1.00  0.00    -0.054 SA
ATOM     11  C   UNL A   1      43.965  26.025  27.805  1.00  0.00     0.266 C 
ATOM     12  C   UNL A   1      45.979  25.838  26.624  1.00  0.00     0.148 C 
ATOM     13  O   UNL A   1      43.259  25.898  28.781  1.00  0.00    -0.268 OA
ATOM     14  S   UNL A   1      47.586  25.499  26.326  1.00  0.00    -0.052 S 
BRANCH   8  15
ATOM     15  C   UNL A   1      41.109  26.373  26.930  1.00  0.00     0.022 A 
ATOM     16  C   UNL A   1      40.472  25.316  27.622  1.00  0.00     0.100 A 
ATOM     17  N   UNL A   1      39.629  25.792  28.543  1.00  0.00    -0.167 NA
ATOM     18  N   UNL A   1      39.592  27.130  28.335  1.00  0.00    -0.240 N 
ATOM     19  C   UNL A   1      40.452  27.514  27.327  1.00  0.00     0.123 A 
BRANCH  16  20
ATOM     20  C   UNL A   1      40.575  23.880  27.424  1.00  0.00     0.006 A 
ATOM     21  C   UNL A   1      40.704  21.136  26.909  1.00  0.00     0.154 A 
ATOM     22  C   UNL A   1      41.663  21.734  27.729  1.00  0.00     0.050 A 
ATOM     23  C   UNL A   1      39.653  21.898  26.404  1.00  0.00     0.165 A 
ATOM     24  C   UNL A   1      41.602  23.111  27.986  1.00  0.00     0.014 A 
ATOM     25  C   UNL A   1      39.593  23.261  26.639  1.00  0.00     0.053 A 
ATOM     26  F   UNL A   1      38.671  21.328  25.693  1.00  0.00    -0.203 F 
BRANCH  21  27
ATOM     27  O   UNL A   1      40.763  19.784  26.705  1.00  0.00    -0.491 OA
BRANCH  27  28
ATOM     28  C   UNL A   1      42.059  19.245  27.000  1.00  0.00     0.226 C 
ATOM     29  C   UNL A   1      42.885  18.986  25.750  1.00  0.00     0.049 C 
ENDBRANCH  27  28
ENDBRANCH  21  27
ENDBRANCH  16  20
BRANCH  18  30
ATOM     30  C   UNL A   1      38.700  27.937  29.069  1.00  0.00     0.065 A 
ATOM     31  C   UNL A   1      38.655  27.799  30.462  1.00  0.00     0.028 A 
ATOM     32  C   UNL A   1      37.850  28.834  28.413  1.00  0.00     0.028 A 
ATOM     33  C   UNL A   1      37.766  28.574  31.200  1.00  0.00     0.002 A 
ATOM     34  C   UNL A   1      36.925  29.567  29.159  1.00  0.00     0.002 A 
ATOM     35  C   UNL A   1      36.891  29.441  30.548  1.00  0.00     0.000 A 
ENDBRANCH  18  30
ENDBRANCH   8  15
ENDBRANCH   6   7
ENDBRANCH   3   6
ENDBRANCH   1   2
BRANCH   1  36
ATOM     36  C   UNL A   1      45.143  25.850  32.589  1.00  0.00     0.042 C 
BRANCH  36  37
ATOM     37  C   UNL A   1      44.136  25.383  33.625  1.00  0.00     0.118 C 
BRANCH  37  38
ATOM     38  N   UNL A   1      44.753  25.037  34.911  1.00  0.00    -0.352 N 
ATOM     39  C   UNL A   1      45.144  25.888  35.931  1.00  0.00     0.251 C 
ATOM     40  H   UNL A   1      44.909  24.078  35.069  1.00  0.00     0.163 HD
ATOM     41  O   UNL A   1      45.924  25.511  36.798  1.00  0.00    -0.269 OA
BRANCH  39  42
ATOM     42  C   UNL A   1      44.596  27.255  35.953  1.00  0.00     0.039 A 
ATOM     43  C   UNL A   1      45.246  28.332  35.339  1.00  0.00     0.014 A 
ATOM     44  C   UNL A   1      43.366  27.429  36.573  1.00  0.00     0.014 A 
ATOM     45  C   UNL A   1      44.593  29.563  35.291  1.00  0.00     0.010 A 
ATOM     46  C   UNL A   1      42.640  28.556  36.325  1.00  0.00     0.010 A 
ATOM     47  C   UNL A   1      43.280  29.656  35.774  1.00  0.00    -0.014 A 
BRANCH  47  48
ATOM     48  C   UNL A   1      42.488  30.869  35.647  1.00  0.00     0.031 A 
ATOM     49  C   UNL A   1      41.688  30.944  34.396  1.00  0.00     0.074 A 
ATOM     50  C   UNL A   1      42.295  31.703  36.693  1.00  0.00     0.049 A 
ATOM     51  N   UNL A   1      41.876  31.735  33.393  1.00  0.00    -0.248 NA
ATOM     52  C   UNL A   1      40.674  29.906  34.151  1.00  0.00     0.031 C 
ATOM     53  C   UNL A   1      42.757  31.546  38.081  1.00  0.00     0.029 A 
ATOM     54  N   UNL A   1      41.500  32.799  36.778  1.00  0.00    -0.354 N 
ATOM     55  C   UNL A   1      40.835  31.467  32.506  1.00  0.00     0.074 A 
ATOM     56  C   UNL A   1      40.300  30.194  32.902  1.00  0.00     0.031 C 
ATOM     57  C   UNL A   1      42.029  32.341  38.893  1.00  0.00     0.029 A 
ATOM     58  C   UNL A   1      41.174  33.182  38.080  1.00  0.00     0.049 A 
ATOM     59  H   UNL A   1      41.179  33.285  35.984  1.00  0.00     0.167 HD
ATOM     60  C   UNL A   1      40.331  32.448  31.704  1.00  0.00     0.034 A 
ATOM     61  C   UNL A   1      40.235  34.093  38.443  1.00  0.00     0.034 A 
ATOM     62  C   UNL A   1      41.199  33.604  31.703  1.00  0.00     0.049 A 
ATOM     63  C   UNL A   1      39.994  34.928  37.239  1.00  0.00     0.074 A 
ATOM     64  C   UNL A   1      42.521  33.835  31.384  1.00  0.00     0.029 A 
ATOM     65  N   UNL A   1      40.803  34.670  32.478  1.00  0.00    -0.354 N 
ATOM     66  N   UNL A   1      40.889  35.723  36.722  1.00  0.00    -0.248 NA
ATOM     67  C   UNL A   1      38.911  34.538  36.350  1.00  0.00     0.031 C 
ATOM     68  C   UNL A   1      42.978  34.753  32.376  1.00  0.00     0.029 A 
ATOM     69  C   UNL A   1      41.892  35.092  33.188  1.00  0.00     0.049 A 
ATOM     70  H   UNL A   1      39.900  35.059  32.514  1.00  0.00     0.167 HD
ATOM     71  C   UNL A   1      40.745  35.555  35.351  1.00  0.00     0.074 A 
ATOM     72  C   UNL A   1      39.445  34.902  35.182  1.00  0.00     0.031 C 
ATOM     73  C   UNL A   1      41.812  35.677  34.508  1.00  0.00     0.034 A 
BRANCH  60  74
ATOM     74  C   UNL A   1      38.890  32.571  31.241  1.00  0.00     0.023 A 
ATOM     75  C   UNL A   1      38.683  32.672  29.843  1.00  0.00     0.012 A 
ATOM     76  C   UNL A   1      37.785  32.878  32.066  1.00  0.00     0.148 A 
ATOM     77  C   UNL A   1      37.482  33.147  29.304  1.00  0.00     0.002 A 
ATOM     78  C   UNL A   1      36.569  33.279  31.523  1.00  0.00     0.091 A 
ATOM     79  F   UNL A   1      37.918  32.908  33.392  1.00  0.00    -0.205 F 
ATOM     80  C   UNL A   1      36.423  33.453  30.145  1.00  0.00     0.022 A 
BRANCH  78  81
ATOM     81  S   UNL A   1      35.151  33.651  32.565  1.00  0.00     0.127 S 
ATOM     82  O   UNL A   1      35.394  35.051  32.896  1.00  0.00    -0.237 OA
ATOM     83  O   UNL A   1      34.038  33.410  31.648  1.00  0.00    -0.237 OA
ATOM     84  O   UNL A   1      35.223  32.711  33.677  1.00  0.00    -0.744 OA
ENDBRANCH  78  81
ENDBRANCH  60  74
BRANCH  61  85
ATOM     85  C   UNL A   1      39.379  34.206  39.653  1.00  0.00     0.023 A 
ATOM     86  C   UNL A   1      39.490  35.362  40.457  1.00  0.00     0.012 A 
ATOM     87  C   UNL A   1      38.276  33.355  39.885  1.00  0.00     0.148 A 
ATOM     88  C   UNL A   1      38.505  35.698  41.395  1.00  0.00     0.002 A 
ATOM     89  C   UNL A   1      37.306  33.684  40.832  1.00  0.00     0.091 A 
ATOM     90  F   UNL A   1      38.145  32.243  39.151  1.00  0.00    -0.205 F 
ATOM     91  C   UNL A   1      37.401  34.872  41.567  1.00  0.00     0.022 A 
BRANCH  89  92
ATOM     92  S   UNL A   1      35.856  32.650  41.095  1.00  0.00     0.127 S 
ATOM     93  O   UNL A   1      35.153  32.800  39.823  1.00  0.00    -0.237 OA
ATOM     94  O   UNL A   1      36.444  31.328  41.317  1.00  0.00    -0.237 OA
ATOM     95  O   UNL A   1      35.186  33.220  42.255  1.00  0.00    -0.744 OA
ENDBRANCH  89  92
ENDBRANCH  61  85
BRANCH  73  96
ATOM     96  C   UNL A   1      43.106  36.232  35.053  1.00  0.00     0.023 A 
ATOM     97  C   UNL A   1      43.330  37.615  35.217  1.00  0.00     0.012 A 
ATOM     98  C   UNL A   1      44.011  35.324  35.628  1.00  0.00     0.148 A 
ATOM     99  C   UNL A   1      44.434  38.080  35.939  1.00  0.00     0.002 A 
ATOM    100  C   UNL A   1      45.073  35.788  36.391  1.00  0.00     0.091 A 
ATOM    101  F   UNL A   1      43.783  34.013  35.458  1.00  0.00    -0.205 F 
ATOM    102  C   UNL A   1      45.295  37.165  36.544  1.00  0.00     0.022 A 
BRANCH 100 103
ATOM    103  S   UNL A   1      46.117  34.662  37.319  1.00  0.00     0.127 S 
ATOM    104  O   UNL A   1      45.158  34.037  38.229  1.00  0.00    -0.237 OA
ATOM    105  O   UNL A   1      46.636  33.779  36.274  1.00  0.00    -0.237 OA
ATOM    106  O   UNL A   1      47.135  35.490  37.955  1.00  0.00    -0.744 OA
ENDBRANCH 100 103
ENDBRANCH  73  96
ENDBRANCH  47  48
ENDBRANCH  39  42
ENDBRANCH  37  38
ENDBRANCH  36  37
ENDBRANCH   1  36
TORSDOF 19
ENDMDL
MODEL 3
REMARK VINA RESULT:      -8.7      4.979     11.839
REMARK SMILES CCOc1ccc(-c2nn(-c3ccccc3)cc2/C=C2/SC(=S)N(CC(=O)NCCCNC(=O)c3ccc(-c4c5nc(c(-c6cccc(S(=O)(=O)[O-])c6F)c6ccc([nH]6)c(-c6cccc(S(=O)(=O)[O-])c6F)c6nc(c(-c7cccc(S(=O)(=O)[O-])c7F)c7ccc4[nH]7)C=C6)C=C5)cc3)C2=O)cc1F
REMARK SMILES IDX 29 1 28 2 26 3 27 4 25 6 24 7 19 8 20 9 21 10 98 11 22 12
REMARK SMILES IDX 99 13 23 14 18 15 8 16 9 17 10 18 17 19 7 20 4 21 5 22
REMARK SMILES IDX 101 23 6 24 100 25 102 26 3 27 2 28 1 29 11 30 12 31 16 32
REMARK SMILES IDX 13 33 15 34 14 35 30 36 31 37 32 38 33 39 34 41 35 42 36 43
REMARK SMILES IDX 97 44 37 45 96 46 38 47 39 48 40 49 90 50 41 51 95 52 89 53
REMARK SMILES IDX 91 54 42 55 94 56 88 57 87 58 43 60 75 61 55 62 74 63 56 64
REMARK SMILES IDX 59 65 73 66 92 67 57 68 58 69 72 71 93 72 60 73 44 74 45 75
REMARK SMILES IDX 53 76 46 77 48 78 54 79 47 80 49 81 50 82 51 83 52 84 76 85
REMARK SMILES IDX 77 86 85 87 78 88 80 89 86 90 79 91 81 92 82 93 83 94 84 95
REMARK SMILES IDX 61 96 62 97 70 98 63 99 65 100 71 101 64 102 66 103 67 104
REMARK SMILES IDX 68 105 69 106
REMARK H PARENT 28 5 32 40 91 59 59 70
REMARK Flexibility Score: inf
ROOT
ATOM      1  C   UNL A   1      46.655  37.348  34.263  1.00  0.00     0.117 C 
ENDROOT
BRANCH   1   2
ATOM      2  N   UNL A   1      45.321  37.558  34.789  1.00  0.00    -0.354 N 
ATOM      3  C   UNL A   1      44.499  38.638  34.618  1.00  0.00     0.240 C 
ATOM      4  O   UNL A   1      43.284  38.438  34.671  1.00  0.00    -0.273 OA
ATOM      5  H   UNL A   1      44.959  36.828  35.341  1.00  0.00     0.163 HD
BRANCH   3   6
ATOM      6  C   UNL A   1      45.051  40.002  34.182  1.00  0.00     0.227 C 
BRANCH   6   7
ATOM      7  N   UNL A   1      44.056  40.828  33.495  1.00  0.00    -0.283 N 
ATOM      8  C   UNL A   1      42.382  41.446  30.317  1.00  0.00     0.033 C 
ATOM      9  C   UNL A   1      42.836  41.476  31.579  1.00  0.00     0.081 C 
ATOM     10  S   UNL A   1      42.226  42.510  32.812  1.00  0.00    -0.054 SA
ATOM     11  C   UNL A   1      43.953  40.650  32.124  1.00  0.00     0.266 C 
ATOM     12  C   UNL A   1      43.339  41.872  34.025  1.00  0.00     0.148 C 
ATOM     13  O   UNL A   1      44.706  39.968  31.464  1.00  0.00    -0.268 OA
ATOM     14  S   UNL A   1      43.443  42.533  35.554  1.00  0.00    -0.052 S 
BRANCH   8  15
ATOM     15  C   UNL A   1      42.936  40.628  29.294  1.00  0.00     0.022 A 
ATOM     16  C   UNL A   1      43.959  40.939  28.366  1.00  0.00     0.100 A 
ATOM     17  N   UNL A   1      44.351  39.844  27.708  1.00  0.00    -0.167 NA
ATOM     18  N   UNL A   1      43.482  38.874  28.080  1.00  0.00    -0.240 N 
ATOM     19  C   UNL A   1      42.576  39.331  29.016  1.00  0.00     0.123 A 
BRANCH  16  20
ATOM     20  C   UNL A   1      44.548  42.224  28.027  1.00  0.00     0.006 A 
ATOM     21  C   UNL A   1      45.582  44.704  27.259  1.00  0.00     0.154 A 
ATOM     22  C   UNL A   1      45.652  44.306  28.595  1.00  0.00     0.050 A 
ATOM     23  C   UNL A   1      45.055  43.835  26.305  1.00  0.00     0.165 A 
ATOM     24  C   UNL A   1      45.130  43.065  28.983  1.00  0.00     0.014 A 
ATOM     25  C   UNL A   1      44.523  42.614  26.681  1.00  0.00     0.053 A 
ATOM     26  F   UNL A   1      45.064  44.156  25.005  1.00  0.00    -0.203 F 
BRANCH  21  27
ATOM     27  O   UNL A   1      46.134  45.904  26.899  1.00  0.00    -0.491 OA
BRANCH  27  28
ATOM     28  C   UNL A   1      47.257  46.255  27.719  1.00  0.00     0.226 C 
ATOM     29  C   UNL A   1      47.276  47.729  28.090  1.00  0.00     0.049 C 
ENDBRANCH  27  28
ENDBRANCH  21  27
ENDBRANCH  16  20
BRANCH  18  30
ATOM     30  C   UNL A   1      43.538  37.603  27.477  1.00  0.00     0.065 A 
ATOM     31  C   UNL A   1      44.740  37.185  26.891  1.00  0.00     0.028 A 
ATOM     32  C   UNL A   1      42.402  36.786  27.432  1.00  0.00     0.028 A 
ATOM     33  C   UNL A   1      44.807  35.940  26.273  1.00  0.00     0.002 A 
ATOM     34  C   UNL A   1      42.467  35.563  26.763  1.00  0.00     0.002 A 
ATOM     35  C   UNL A   1      43.669  35.140  26.193  1.00  0.00     0.000 A 
ENDBRANCH  18  30
ENDBRANCH   8  15
ENDBRANCH   6   7
ENDBRANCH   3   6
ENDBRANCH   1   2
BRANCH   1  36
ATOM     36  C   UNL A   1      46.952  35.894  33.895  1.00  0.00     0.042 C 
BRANCH  36  37
ATOM     37  C   UNL A   1      47.404  35.746  32.453  1.00  0.00     0.118 C 
BRANCH  37  38
ATOM     38  N   UNL A   1      47.153  36.947  31.646  1.00  0.00    -0.352 N 
ATOM     39  C   UNL A   1      46.319  37.085  30.550  1.00  0.00     0.251 C 
ATOM     40  H   UNL A   1      47.640  37.758  31.919  1.00  0.00     0.163 HD
ATOM     41  O   UNL A   1      46.441  38.034  29.784  1.00  0.00    -0.269 OA
BRANCH  39  42
ATOM     42  C   UNL A   1      45.279  36.066  30.327  1.00  0.00     0.039 A 
ATOM     43  C   UNL A   1      45.495  34.937  29.531  1.00  0.00     0.014 A 
ATOM     44  C   UNL A   1      44.072  36.247  30.989  1.00  0.00     0.014 A 
ATOM     45  C   UNL A   1      44.504  33.957  29.483  1.00  0.00     0.010 A 
ATOM     46  C   UNL A   1      43.215  35.196  31.125  1.00  0.00     0.010 A 
ATOM     47  C   UNL A   1      43.373  34.092  30.301  1.00  0.00    -0.014 A 
BRANCH  47  48
ATOM     48  C   UNL A   1      42.357  33.057  30.403  1.00  0.00     0.031 A 
ATOM     49  C   UNL A   1      40.985  33.574  30.641  1.00  0.00     0.074 A 
ATOM     50  C   UNL A   1      42.608  31.779  30.040  1.00  0.00     0.049 A 
ATOM     51  N   UNL A   1      40.283  33.463  31.719  1.00  0.00    -0.248 NA
ATOM     52  C   UNL A   1      40.390  34.468  29.636  1.00  0.00     0.031 C 
ATOM     53  C   UNL A   1      43.840  31.222  29.458  1.00  0.00     0.029 A 
ATOM     54  N   UNL A   1      41.753  30.728  29.962  1.00  0.00    -0.354 N 
ATOM     55  C   UNL A   1      39.053  34.049  31.426  1.00  0.00     0.074 A 
ATOM     56  C   UNL A   1      39.270  34.851  30.253  1.00  0.00     0.031 C 
ATOM     57  C   UNL A   1      43.564  30.045  28.859  1.00  0.00     0.029 A 
ATOM     58  C   UNL A   1      42.193  29.680  29.153  1.00  0.00     0.049 A 
ATOM     59  H   UNL A   1      40.891  30.708  30.438  1.00  0.00     0.167 HD
ATOM     60  C   UNL A   1      37.906  33.598  32.011  1.00  0.00     0.034 A 
ATOM     61  C   UNL A   1      41.455  28.622  28.731  1.00  0.00     0.034 A 
ATOM     62  C   UNL A   1      38.209  32.720  33.118  1.00  0.00     0.049 A 
ATOM     63  C   UNL A   1      40.301  28.535  29.661  1.00  0.00     0.074 A 
ATOM     64  C   UNL A   1      38.924  32.836  34.293  1.00  0.00     0.029 A 
ATOM     65  N   UNL A   1      38.078  31.371  32.886  1.00  0.00    -0.354 N 
ATOM     66  N   UNL A   1      40.415  28.237  30.926  1.00  0.00    -0.248 NA
ATOM     67  C   UNL A   1      39.074  29.220  29.284  1.00  0.00     0.031 C 
ATOM     68  C   UNL A   1      39.596  31.586  34.433  1.00  0.00     0.029 A 
ATOM     69  C   UNL A   1      39.191  30.754  33.386  1.00  0.00     0.049 A 
ATOM     70  H   UNL A   1      37.319  30.929  32.441  1.00  0.00     0.167 HD
ATOM     71  C   UNL A   1      39.524  29.092  31.560  1.00  0.00     0.074 A 
ATOM     72  C   UNL A   1      38.652  29.592  30.496  1.00  0.00     0.031 C 
ATOM     73  C   UNL A   1      39.764  29.552  32.823  1.00  0.00     0.034 A 
BRANCH  60  74
ATOM     74  C   UNL A   1      36.525  33.588  31.381  1.00  0.00     0.023 A 
ATOM     75  C   UNL A   1      36.361  32.778  30.230  1.00  0.00     0.012 A 
ATOM     76  C   UNL A   1      35.490  34.510  31.655  1.00  0.00     0.148 A 
ATOM     77  C   UNL A   1      35.286  32.946  29.352  1.00  0.00     0.002 A 
ATOM     78  C   UNL A   1      34.385  34.624  30.819  1.00  0.00     0.091 A 
ATOM     79  F   UNL A   1      35.608  35.380  32.658  1.00  0.00    -0.205 F 
ATOM     80  C   UNL A   1      34.296  33.872  29.645  1.00  0.00     0.022 A 
BRANCH  78  81
ATOM     81  S   UNL A   1      33.053  35.780  31.172  1.00  0.00     0.127 S 
ATOM     82  O   UNL A   1      32.247  35.013  32.117  1.00  0.00    -0.237 OA
ATOM     83  O   UNL A   1      33.786  36.907  31.748  1.00  0.00    -0.237 OA
ATOM     84  O   UNL A   1      32.429  36.066  29.887  1.00  0.00    -0.744 OA
ENDBRANCH  78  81
ENDBRANCH  60  74
BRANCH  61  85
ATOM     85  C   UNL A   1      41.526  27.791  27.499  1.00  0.00     0.023 A 
ATOM     86  C   UNL A   1      41.751  28.432  26.260  1.00  0.00     0.012 A 
ATOM     87  C   UNL A   1      41.655  26.385  27.538  1.00  0.00     0.148 A 
ATOM     88  C   UNL A   1      42.165  27.715  25.130  1.00  0.00     0.002 A 
ATOM     89  C   UNL A   1      42.050  25.673  26.406  1.00  0.00     0.091 A 
ATOM     90  F   UNL A   1      41.436  25.742  28.692  1.00  0.00    -0.205 F 
ATOM     91  C   UNL A   1      42.337  26.338  25.207  1.00  0.00     0.022 A 
BRANCH  89  92
ATOM     92  S   UNL A   1      42.288  23.888  26.450  1.00  0.00     0.127 S 
ATOM     93  O   UNL A   1      40.922  23.414  26.660  1.00  0.00    -0.237 OA
ATOM     94  O   UNL A   1      42.836  23.607  25.122  1.00  0.00    -0.237 OA
ATOM     95  O   UNL A   1      43.212  23.654  27.551  1.00  0.00    -0.744 OA
ENDBRANCH  89  92
ENDBRANCH  61  85
BRANCH  73  96
ATOM     96  C   UNL A   1      40.888  28.934  33.618  1.00  0.00     0.023 A 
ATOM     97  C   UNL A   1      40.784  27.663  34.222  1.00  0.00     0.012 A 
ATOM     98  C   UNL A   1      42.149  29.550  33.547  1.00  0.00     0.148 A 
ATOM     99  C   UNL A   1      41.913  27.023  34.743  1.00  0.00     0.002 A 
ATOM    100  C   UNL A   1      43.276  28.887  34.014  1.00  0.00     0.091 A 
ATOM    101  F   UNL A   1      42.228  30.759  32.973  1.00  0.00    -0.205 F 
ATOM    102  C   UNL A   1      43.163  27.627  34.620  1.00  0.00     0.022 A 
BRANCH 100 103
ATOM    103  S   UNL A   1      44.923  29.543  33.742  1.00  0.00     0.127 S 
ATOM    104  O   UNL A   1      44.780  30.199  32.444  1.00  0.00    -0.237 OA
ATOM    105  O   UNL A   1      45.090  30.455  34.875  1.00  0.00    -0.237 OA
ATOM    106  O   UNL A   1      45.821  28.395  33.768  1.00  0.00    -0.744 OA
ENDBRANCH 100 103
ENDBRANCH  73  96
ENDBRANCH  47  48
ENDBRANCH  39  42
ENDBRANCH  37  38
ENDBRANCH  36  37
ENDBRANCH   1  36
TORSDOF 19
ENDMDL
