MODEL 1
REMARK VINA RESULT:     -12.5      0.000      0.000
REMARK SMILES O=C(NCCCNC(=O)[C@@H](Cc1ccccc1)N1C(=O)/C(=C/c2ccncc2)SC1=S)c1ccc(-c2c3nc(c(-c4cccc(S(=O)(=O)[O-])c4F)c4ccc([nH]4)c(-c4cccc(S(=O)(=O)[O-])c4F)c4nc(c(-c5cccc(S(=O)(=O)[O-])c5F)c5ccc2[nH]5)C=C4)C=C3)cc1
REMARK SMILES IDX 4 1 3 2 1 3 2 4 32 6 33 7 94 8 34 9 93 10 35 11 36 12 37 13
REMARK SMILES IDX 87 14 38 15 92 16 86 17 88 18 39 19 91 20 85 21 84 22 40 24
REMARK SMILES IDX 72 25 52 26 71 27 53 28 56 29 70 30 89 31 54 32 55 33 69 35
REMARK SMILES IDX 90 36 57 37 41 38 42 39 50 40 43 41 45 42 51 43 44 44 46 45
REMARK SMILES IDX 47 46 48 47 49 48 73 49 74 50 82 51 75 52 77 53 83 54 76 55
REMARK SMILES IDX 78 56 79 57 80 58 81 59 58 60 59 61 67 62 60 63 62 64 68 65
REMARK SMILES IDX 61 66 63 67 64 68 65 69 66 70 5 71 6 72 7 73 8 74 9 76 10 77
REMARK SMILES IDX 11 78 12 79 13 80 17 81 14 82 16 83 15 84 18 85 19 86 30 87
REMARK SMILES IDX 20 88 21 89 29 90 31 91 22 92 23 93 24 94 28 95 25 96 27 97
REMARK SMILES IDX 26 98
REMARK H PARENT 3 5 88 23 56 34 7 75
REMARK Flexibility Score: inf
ROOT
ATOM      1  C   UNL A   1      33.083  29.195  25.182  1.00  0.00     0.118 C 
ENDROOT
BRANCH   1   2
ATOM      2  N   UNL A   1      32.677  30.472  25.755  1.00  0.00    -0.352 N 
ATOM      3  O   UNL A   1      32.446  32.106  27.255  1.00  0.00    -0.269 OA
ATOM      4  C   UNL A   1      33.150  31.192  26.827  1.00  0.00     0.251 C 
ATOM      5  H   UNL A   1      31.923  30.899  25.288  1.00  0.00     0.163 HD
BRANCH   4   6
ATOM      6  C   UNL A   1      34.456  30.906  27.475  1.00  0.00     0.039 A 
ATOM      7  C   UNL A   1      35.424  31.892  27.676  1.00  0.00     0.014 A 
ATOM      8  C   UNL A   1      34.681  29.624  27.997  1.00  0.00     0.014 A 
ATOM      9  C   UNL A   1      36.652  31.575  28.255  1.00  0.00     0.010 A 
ATOM     10  C   UNL A   1      35.870  29.333  28.675  1.00  0.00     0.010 A 
ATOM     11  C   UNL A   1      36.879  30.299  28.790  1.00  0.00    -0.014 A 
BRANCH  11  12
ATOM     12  C   UNL A   1      38.130  30.017  29.541  1.00  0.00     0.031 A 
ATOM     13  C   UNL A   1      39.164  29.074  28.992  1.00  0.00     0.074 A 
ATOM     14  C   UNL A   1      38.307  30.577  30.755  1.00  0.00     0.049 A 
ATOM     15  N   UNL A   1      40.268  28.647  29.547  1.00  0.00    -0.248 NA
ATOM     16  C   UNL A   1      38.920  28.531  27.647  1.00  0.00     0.031 C 
ATOM     17  C   UNL A   1      37.359  31.483  31.409  1.00  0.00     0.029 A 
ATOM     18  N   UNL A   1      39.325  30.451  31.667  1.00  0.00    -0.354 N 
ATOM     19  C   UNL A   1      40.824  27.745  28.648  1.00  0.00     0.074 A 
ATOM     20  C   UNL A   1      39.932  27.686  27.509  1.00  0.00     0.031 C 
ATOM     21  C   UNL A   1      37.836  31.830  32.611  1.00  0.00     0.029 A 
ATOM     22  C   UNL A   1      39.086  31.119  32.847  1.00  0.00     0.049 A 
ATOM     23  H   UNL A   1      40.145  29.934  31.495  1.00  0.00     0.167 HD
ATOM     24  C   UNL A   1      41.974  27.035  28.760  1.00  0.00     0.034 A 
ATOM     25  C   UNL A   1      39.768  31.127  34.008  1.00  0.00     0.034 A 
ATOM     26  C   UNL A   1      42.858  27.114  29.892  1.00  0.00     0.049 A 
ATOM     27  C   UNL A   1      41.036  30.332  34.112  1.00  0.00     0.074 A 
ATOM     28  C   UNL A   1      44.079  26.488  30.076  1.00  0.00     0.029 A 
ATOM     29  N   UNL A   1      42.609  27.847  31.044  1.00  0.00    -0.354 N 
ATOM     30  N   UNL A   1      41.602  29.570  33.209  1.00  0.00    -0.248 NA
ATOM     31  C   UNL A   1      41.775  30.417  35.378  1.00  0.00     0.031 C 
ATOM     32  C   UNL A   1      44.544  26.807  31.355  1.00  0.00     0.029 A 
ATOM     33  C   UNL A   1      43.642  27.676  31.949  1.00  0.00     0.049 A 
ATOM     34  H   UNL A   1      41.814  28.408  31.195  1.00  0.00     0.167 HD
ATOM     35  C   UNL A   1      42.783  29.114  33.780  1.00  0.00     0.074 A 
ATOM     36  C   UNL A   1      42.853  29.690  35.109  1.00  0.00     0.031 C 
ATOM     37  C   UNL A   1      43.722  28.295  33.249  1.00  0.00     0.034 A 
BRANCH  24  38
ATOM     38  C   UNL A   1      42.335  26.107  27.627  1.00  0.00     0.023 A 
ATOM     39  C   UNL A   1      43.144  26.565  26.566  1.00  0.00     0.012 A 
ATOM     40  C   UNL A   1      41.893  24.769  27.627  1.00  0.00     0.148 A 
ATOM     41  C   UNL A   1      43.462  25.723  25.499  1.00  0.00     0.002 A 
ATOM     42  C   UNL A   1      42.256  23.922  26.585  1.00  0.00     0.091 A 
ATOM     43  F   UNL A   1      41.111  24.351  28.632  1.00  0.00    -0.205 F 
ATOM     44  C   UNL A   1      43.024  24.402  25.513  1.00  0.00     0.022 A 
BRANCH  42  45
ATOM     45  S   UNL A   1      41.810  22.182  26.556  1.00  0.00     0.127 S 
ATOM     46  O   UNL A   1      40.358  22.253  26.401  1.00  0.00    -0.237 OA
ATOM     47  O   UNL A   1      42.526  21.700  25.374  1.00  0.00    -0.237 OA
ATOM     48  O   UNL A   1      42.282  21.627  27.816  1.00  0.00    -0.744 OA
ENDBRANCH  42  45
ENDBRANCH  24  38
BRANCH  25  49
ATOM     49  C   UNL A   1      39.254  31.935  35.148  1.00  0.00     0.023 A 
ATOM     50  C   UNL A   1      38.365  31.354  36.072  1.00  0.00     0.012 A 
ATOM     51  C   UNL A   1      39.711  33.251  35.365  1.00  0.00     0.148 A 
ATOM     52  C   UNL A   1      37.928  32.074  37.184  1.00  0.00     0.002 A 
ATOM     53  C   UNL A   1      39.319  33.940  36.506  1.00  0.00     0.091 A 
ATOM     54  F   UNL A   1      40.555  33.783  34.471  1.00  0.00    -0.205 F 
ATOM     55  C   UNL A   1      38.415  33.360  37.409  1.00  0.00     0.022 A 
BRANCH  53  56
ATOM     56  S   UNL A   1      40.002  35.540  36.951  1.00  0.00     0.127 S 
ATOM     57  O   UNL A   1      39.340  35.803  38.226  1.00  0.00    -0.237 OA
ATOM     58  O   UNL A   1      41.430  35.236  37.050  1.00  0.00    -0.237 OA
ATOM     59  O   UNL A   1      39.650  36.441  35.863  1.00  0.00    -0.744 OA
ENDBRANCH  53  56
ENDBRANCH  25  49
BRANCH  37  60
ATOM     60  C   UNL A   1      44.953  28.011  34.067  1.00  0.00     0.023 A 
ATOM     61  C   UNL A   1      46.119  28.780  33.891  1.00  0.00     0.012 A 
ATOM     62  C   UNL A   1      44.906  27.046  35.094  1.00  0.00     0.148 A 
ATOM     63  C   UNL A   1      47.227  28.579  34.715  1.00  0.00     0.002 A 
ATOM     64  C   UNL A   1      45.992  26.890  35.943  1.00  0.00     0.091 A 
ATOM     65  F   UNL A   1      43.792  26.311  35.227  1.00  0.00    -0.205 F 
ATOM     66  C   UNL A   1      47.158  27.648  35.749  1.00  0.00     0.022 A 
BRANCH  64  67
ATOM     67  S   UNL A   1      45.954  25.793  37.366  1.00  0.00     0.127 S 
ATOM     68  O   UNL A   1      47.291  25.984  37.924  1.00  0.00    -0.237 OA
ATOM     69  O   UNL A   1      44.871  26.364  38.164  1.00  0.00    -0.237 OA
ATOM     70  O   UNL A   1      45.685  24.460  36.842  1.00  0.00    -0.744 OA
ENDBRANCH  64  67
ENDBRANCH  37  60
ENDBRANCH  11  12
ENDBRANCH   4   6
ENDBRANCH   1   2
BRANCH   1  71
ATOM     71  C   UNL A   1      32.244  28.039  25.711  1.00  0.00     0.042 C 
BRANCH  71  72
ATOM     72  C   UNL A   1      33.041  26.816  26.172  1.00  0.00     0.117 C 
BRANCH  72  73
ATOM     73  N   UNL A   1      33.688  26.145  25.059  1.00  0.00    -0.354 N 
ATOM     74  C   UNL A   1      33.491  24.963  24.422  1.00  0.00     0.243 C 
ATOM     75  H   UNL A   1      34.436  26.663  24.682  1.00  0.00     0.163 HD
ATOM     76  O   UNL A   1      34.370  24.662  23.599  1.00  0.00    -0.273 OA
BRANCH  74  77
ATOM     77  C   UNL A   1      32.362  23.925  24.713  1.00  0.00     0.185 C 
BRANCH  77  78
ATOM     78  C   UNL A   1      31.193  24.190  23.714  1.00  0.00     0.071 C 
BRANCH  78  79
ATOM     79  C   UNL A   1      30.643  25.570  23.391  1.00  0.00    -0.045 A 
ATOM     80  C   UNL A   1      29.466  25.959  24.055  1.00  0.00     0.004 A 
ATOM     81  C   UNL A   1      31.202  26.483  22.489  1.00  0.00     0.004 A 
ATOM     82  C   UNL A   1      28.911  27.228  23.867  1.00  0.00     0.000 A 
ATOM     83  C   UNL A   1      30.660  27.762  22.313  1.00  0.00     0.000 A 
ATOM     84  C   UNL A   1      29.520  28.137  23.011  1.00  0.00     0.000 A 
ENDBRANCH  78  79
ENDBRANCH  77  78
BRANCH  77  85
ATOM     85  N   UNL A   1      32.728  22.517  24.986  1.00  0.00    -0.280 N 
ATOM     86  C   UNL A   1      32.747  21.605  23.942  1.00  0.00     0.266 C 
ATOM     87  C   UNL A   1      33.488  22.087  26.063  1.00  0.00     0.149 C 
ATOM     88  O   UNL A   1      32.555  21.842  22.754  1.00  0.00    -0.268 OA
ATOM     89  C   UNL A   1      33.117  20.250  24.433  1.00  0.00     0.081 C 
ATOM     90  S   UNL A   1      33.481  20.330  26.105  1.00  0.00    -0.054 SA
ATOM     91  S   UNL A   1      34.403  22.947  27.160  1.00  0.00    -0.052 S 
ATOM     92  C   UNL A   1      33.159  19.157  23.658  1.00  0.00     0.029 C 
BRANCH  92  93
ATOM     93  C   UNL A   1      33.375  17.813  24.202  1.00  0.00    -0.021 A 
ATOM     94  C   UNL A   1      32.297  17.145  24.786  1.00  0.00     0.028 A 
ATOM     95  C   UNL A   1      34.639  17.229  24.239  1.00  0.00     0.028 A 
ATOM     96  C   UNL A   1      32.530  15.924  25.393  1.00  0.00     0.111 A 
ATOM     97  C   UNL A   1      34.767  15.999  24.867  1.00  0.00     0.111 A 
ATOM     98  N   UNL A   1      33.741  15.332  25.441  1.00  0.00    -0.265 NA
ENDBRANCH  92  93
ENDBRANCH  77  85
ENDBRANCH  74  77
ENDBRANCH  72  73
ENDBRANCH  71  72
ENDBRANCH   1  71
TORSDOF 17
ENDMDL
MODEL 2
REMARK VINA RESULT:     -12.4      2.623      3.801
REMARK SMILES O=C(NCCCNC(=O)[C@@H](Cc1ccccc1)N1C(=O)/C(=C/c2ccncc2)SC1=S)c1ccc(-c2c3nc(c(-c4cccc(S(=O)(=O)[O-])c4F)c4ccc([nH]4)c(-c4cccc(S(=O)(=O)[O-])c4F)c4nc(c(-c5cccc(S(=O)(=O)[O-])c5F)c5ccc2[nH]5)C=C4)C=C3)cc1
REMARK SMILES IDX 4 1 3 2 1 3 2 4 32 6 33 7 94 8 34 9 93 10 35 11 36 12 37 13
REMARK SMILES IDX 87 14 38 15 92 16 86 17 88 18 39 19 91 20 85 21 84 22 40 24
REMARK SMILES IDX 72 25 52 26 71 27 53 28 56 29 70 30 89 31 54 32 55 33 69 35
REMARK SMILES IDX 90 36 57 37 41 38 42 39 50 40 43 41 45 42 51 43 44 44 46 45
REMARK SMILES IDX 47 46 48 47 49 48 73 49 74 50 82 51 75 52 77 53 83 54 76 55
REMARK SMILES IDX 78 56 79 57 80 58 81 59 58 60 59 61 67 62 60 63 62 64 68 65
REMARK SMILES IDX 61 66 63 67 64 68 65 69 66 70 5 71 6 72 7 73 8 74 9 76 10 77
REMARK SMILES IDX 11 78 12 79 13 80 17 81 14 82 16 83 15 84 18 85 19 86 30 87
REMARK SMILES IDX 20 88 21 89 29 90 31 91 22 92 23 93 24 94 28 95 25 96 27 97
REMARK SMILES IDX 26 98
REMARK H PARENT 3 5 88 23 56 34 7 75
REMARK Flexibility Score: inf
ROOT
ATOM      1  C   UNL A   1      32.748  32.418  27.117  1.00  0.00     0.118 C 
ENDROOT
BRANCH   1   2
ATOM      2  N   UNL A   1      32.638  33.798  27.575  1.00  0.00    -0.352 N 
ATOM      3  O   UNL A   1      32.747  35.557  28.941  1.00  0.00    -0.269 OA
ATOM      4  C   UNL A   1      33.228  34.470  28.619  1.00  0.00     0.251 C 
ATOM      5  H   UNL A   1      32.028  34.352  27.036  1.00  0.00     0.163 HD
BRANCH   4   6
ATOM      6  C   UNL A   1      34.400  33.937  29.361  1.00  0.00     0.039 A 
ATOM      7  C   UNL A   1      34.278  32.953  30.344  1.00  0.00     0.014 A 
ATOM      8  C   UNL A   1      35.682  34.362  28.987  1.00  0.00     0.014 A 
ATOM      9  C   UNL A   1      35.398  32.506  31.043  1.00  0.00     0.010 A 
ATOM     10  C   UNL A   1      36.816  33.833  29.614  1.00  0.00     0.010 A 
ATOM     11  C   UNL A   1      36.684  32.916  30.667  1.00  0.00    -0.014 A 
BRANCH  11  12
ATOM     12  C   UNL A   1      37.880  32.316  31.316  1.00  0.00     0.031 A 
ATOM     13  C   UNL A   1      38.618  31.178  30.669  1.00  0.00     0.074 A 
ATOM     14  C   UNL A   1      38.268  32.771  32.524  1.00  0.00     0.049 A 
ATOM     15  N   UNL A   1      39.624  30.480  31.129  1.00  0.00    -0.248 NA
ATOM     16  C   UNL A   1      38.160  30.761  29.335  1.00  0.00     0.031 C 
ATOM     17  C   UNL A   1      37.611  33.850  33.267  1.00  0.00     0.029 A 
ATOM     18  N   UNL A   1      39.287  32.372  33.353  1.00  0.00    -0.354 N 
ATOM     19  C   UNL A   1      39.885  29.508  30.171  1.00  0.00     0.074 A 
ATOM     20  C   UNL A   1      38.929  29.707  29.102  1.00  0.00     0.031 C 
ATOM     21  C   UNL A   1      38.239  34.027  34.437  1.00  0.00     0.029 A 
ATOM     22  C   UNL A   1      39.296  33.031  34.562  1.00  0.00     0.049 A 
ATOM     23  H   UNL A   1      39.946  31.683  33.108  1.00  0.00     0.167 HD
ATOM     24  C   UNL A   1      40.837  28.543  30.180  1.00  0.00     0.034 A 
ATOM     25  C   UNL A   1      40.038  32.832  35.668  1.00  0.00     0.034 A 
ATOM     26  C   UNL A   1      41.790  28.366  31.243  1.00  0.00     0.049 A 
ATOM     27  C   UNL A   1      41.084  31.756  35.658  1.00  0.00     0.074 A 
ATOM     28  C   UNL A   1      42.836  27.462  31.320  1.00  0.00     0.029 A 
ATOM     29  N   UNL A   1      41.803  29.091  32.426  1.00  0.00    -0.354 N 
ATOM     30  N   UNL A   1      41.388  30.917  34.698  1.00  0.00    -0.248 NA
ATOM     31  C   UNL A   1      41.907  31.614  36.866  1.00  0.00     0.031 C 
ATOM     32  C   UNL A   1      43.450  27.611  32.567  1.00  0.00     0.029 A 
ATOM     33  C   UNL A   1      42.825  28.645  33.246  1.00  0.00     0.049 A 
ATOM     34  H   UNL A   1      41.177  29.818  32.649  1.00  0.00     0.167 HD
ATOM     35  C   UNL A   1      42.462  30.173  35.167  1.00  0.00     0.074 A 
ATOM     36  C   UNL A   1      42.758  30.663  36.500  1.00  0.00     0.031 C 
ATOM     37  C   UNL A   1      43.139  29.176  34.550  1.00  0.00     0.034 A 
BRANCH  24  38
ATOM     38  C   UNL A   1      40.888  27.600  29.003  1.00  0.00     0.023 A 
ATOM     39  C   UNL A   1      40.029  26.482  28.953  1.00  0.00     0.012 A 
ATOM     40  C   UNL A   1      41.770  27.838  27.930  1.00  0.00     0.148 A 
ATOM     41  C   UNL A   1      40.086  25.588  27.883  1.00  0.00     0.002 A 
ATOM     42  C   UNL A   1      41.785  26.971  26.843  1.00  0.00     0.091 A 
ATOM     43  F   UNL A   1      42.592  28.895  27.998  1.00  0.00    -0.205 F 
ATOM     44  C   UNL A   1      40.958  25.836  26.827  1.00  0.00     0.022 A 
BRANCH  42  45
ATOM     45  S   UNL A   1      42.814  27.253  25.398  1.00  0.00     0.127 S 
ATOM     46  O   UNL A   1      44.130  27.440  26.006  1.00  0.00    -0.237 OA
ATOM     47  O   UNL A   1      42.657  26.000  24.658  1.00  0.00    -0.237 OA
ATOM     48  O   UNL A   1      42.256  28.421  24.732  1.00  0.00    -0.744 OA
ENDBRANCH  42  45
ENDBRANCH  24  38
BRANCH  25  49
ATOM     49  C   UNL A   1      39.811  33.694  36.861  1.00  0.00     0.023 A 
ATOM     50  C   UNL A   1      40.214  35.042  36.835  1.00  0.00     0.012 A 
ATOM     51  C   UNL A   1      39.121  33.202  37.987  1.00  0.00     0.148 A 
ATOM     52  C   UNL A   1      39.947  35.882  37.916  1.00  0.00     0.002 A 
ATOM     53  C   UNL A   1      38.807  34.059  39.035  1.00  0.00     0.091 A 
ATOM     54  F   UNL A   1      38.750  31.915  37.990  1.00  0.00    -0.205 F 
ATOM     55  C   UNL A   1      39.232  35.396  39.008  1.00  0.00     0.022 A 
BRANCH  53  56
ATOM     56  S   UNL A   1      37.770  33.560  40.414  1.00  0.00     0.127 S 
ATOM     57  O   UNL A   1      38.595  32.538  41.053  1.00  0.00    -0.237 OA
ATOM     58  O   UNL A   1      37.649  34.812  41.162  1.00  0.00    -0.237 OA
ATOM     59  O   UNL A   1      36.525  33.085  39.825  1.00  0.00    -0.744 OA
ENDBRANCH  53  56
ENDBRANCH  25  49
BRANCH  37  60
ATOM     60  C   UNL A   1      44.320  28.577  35.266  1.00  0.00     0.023 A 
ATOM     61  C   UNL A   1      45.616  29.085  35.052  1.00  0.00     0.012 A 
ATOM     62  C   UNL A   1      44.118  27.578  36.239  1.00  0.00     0.148 A 
ATOM     63  C   UNL A   1      46.696  28.594  35.787  1.00  0.00     0.002 A 
ATOM     64  C   UNL A   1      45.187  27.133  37.003  1.00  0.00     0.091 A 
ATOM     65  F   UNL A   1      42.878  27.095  36.407  1.00  0.00    -0.205 F 
ATOM     66  C   UNL A   1      46.479  27.632  36.771  1.00  0.00     0.022 A 
BRANCH  64  67
ATOM     67  S   UNL A   1      44.985  25.976  38.363  1.00  0.00     0.127 S 
ATOM     68  O   UNL A   1      44.077  26.709  39.243  1.00  0.00    -0.237 OA
ATOM     69  O   UNL A   1      44.389  24.820  37.696  1.00  0.00    -0.237 OA
ATOM     70  O   UNL A   1      46.319  25.747  38.901  1.00  0.00    -0.744 OA
ENDBRANCH  64  67
ENDBRANCH  37  60
ENDBRANCH  11  12
ENDBRANCH   4   6
ENDBRANCH   1   2
BRANCH   1  71
ATOM     71  C   UNL A   1      31.416  31.877  26.613  1.00  0.00     0.042 C 
BRANCH  71  72
ATOM     72  C   UNL A   1      31.405  30.381  26.288  1.00  0.00     0.117 C 
BRANCH  72  73
ATOM     73  N   UNL A   1      31.987  30.109  24.986  1.00  0.00    -0.354 N 
ATOM     74  C   UNL A   1      31.848  29.111  24.076  1.00  0.00     0.243 C 
ATOM     75  H   UNL A   1      32.624  30.802  24.698  1.00  0.00     0.163 HD
ATOM     76  O   UNL A   1      32.652  29.151  23.131  1.00  0.00    -0.273 OA
BRANCH  74  77
ATOM     77  C   UNL A   1      30.882  27.888  24.175  1.00  0.00     0.185 C 
BRANCH  77  78
ATOM     78  C   UNL A   1      29.626  28.194  23.300  1.00  0.00     0.071 C 
BRANCH  78  79
ATOM     79  C   UNL A   1      29.159  29.593  22.937  1.00  0.00    -0.045 A 
ATOM     80  C   UNL A   1      29.385  30.018  21.615  1.00  0.00     0.004 A 
ATOM     81  C   UNL A   1      28.528  30.496  23.801  1.00  0.00     0.004 A 
ATOM     82  C   UNL A   1      28.944  31.267  21.167  1.00  0.00     0.000 A 
ATOM     83  C   UNL A   1      28.069  31.740  23.351  1.00  0.00     0.000 A 
ATOM     84  C   UNL A   1      28.268  32.120  22.031  1.00  0.00     0.000 A 
ENDBRANCH  78  79
ENDBRANCH  77  78
BRANCH  77  85
ATOM     85  N   UNL A   1      31.442  26.519  24.122  1.00  0.00    -0.280 N 
ATOM     86  C   UNL A   1      31.097  25.607  25.108  1.00  0.00     0.266 C 
ATOM     87  C   UNL A   1      31.906  25.892  22.976  1.00  0.00     0.149 C 
ATOM     88  O   UNL A   1      30.299  25.778  26.023  1.00  0.00    -0.268 OA
ATOM     89  C   UNL A   1      31.781  24.305  24.882  1.00  0.00     0.081 C 
ATOM     90  S   UNL A   1      32.675  24.377  23.422  1.00  0.00    -0.054 SA
ATOM     91  S   UNL A   1      31.750  26.311  21.370  1.00  0.00    -0.052 S 
ATOM     92  C   UNL A   1      31.683  23.253  25.708  1.00  0.00     0.029 C 
BRANCH  92  93
ATOM     93  C   UNL A   1      32.490  22.041  25.539  1.00  0.00    -0.021 A 
ATOM     94  C   UNL A   1      33.817  22.053  25.972  1.00  0.00     0.028 A 
ATOM     95  C   UNL A   1      32.002  20.919  24.875  1.00  0.00     0.028 A 
ATOM     96  C   UNL A   1      34.605  20.946  25.714  1.00  0.00     0.111 A 
ATOM     97  C   UNL A   1      32.870  19.858  24.668  1.00  0.00     0.111 A 
ATOM     98  N   UNL A   1      34.158  19.844  25.076  1.00  0.00    -0.265 NA
ENDBRANCH  92  93
ENDBRANCH  77  85
ENDBRANCH  74  77
ENDBRANCH  72  73
ENDBRANCH  71  72
ENDBRANCH   1  71
TORSDOF 17
ENDMDL
MODEL 3
REMARK VINA RESULT:     -12.4      5.161     10.278
REMARK SMILES O=C(NCCCNC(=O)[C@@H](Cc1ccccc1)N1C(=O)/C(=C/c2ccncc2)SC1=S)c1ccc(-c2c3nc(c(-c4cccc(S(=O)(=O)[O-])c4F)c4ccc([nH]4)c(-c4cccc(S(=O)(=O)[O-])c4F)c4nc(c(-c5cccc(S(=O)(=O)[O-])c5F)c5ccc2[nH]5)C=C4)C=C3)cc1
REMARK SMILES IDX 4 1 3 2 1 3 2 4 32 6 33 7 94 8 34 9 93 10 35 11 36 12 37 13
REMARK SMILES IDX 87 14 38 15 92 16 86 17 88 18 39 19 91 20 85 21 84 22 40 24
REMARK SMILES IDX 72 25 52 26 71 27 53 28 56 29 70 30 89 31 54 32 55 33 69 35
REMARK SMILES IDX 90 36 57 37 41 38 42 39 50 40 43 41 45 42 51 43 44 44 46 45
REMARK SMILES IDX 47 46 48 47 49 48 73 49 74 50 82 51 75 52 77 53 83 54 76 55
REMARK SMILES IDX 78 56 79 57 80 58 81 59 58 60 59 61 67 62 60 63 62 64 68 65
REMARK SMILES IDX 61 66 63 67 64 68 65 69 66 70 5 71 6 72 7 73 8 74 9 76 10 77
REMARK SMILES IDX 11 78 12 79 13 80 17 81 14 82 16 83 15 84 18 85 19 86 30 87
REMARK SMILES IDX 20 88 21 89 29 90 31 91 22 92 23 93 24 94 28 95 25 96 27 97
REMARK SMILES IDX 26 98
REMARK H PARENT 3 5 88 23 56 34 7 75
REMARK Flexibility Score: inf
ROOT
ATOM      1  C   UNL A   1      35.759  22.588  26.418  1.00  0.00     0.118 C 
ENDROOT
BRANCH   1   2
ATOM      2  N   UNL A   1      36.737  21.565  26.064  1.00  0.00    -0.352 N 
ATOM      3  O   UNL A   1      38.626  20.662  25.299  1.00  0.00    -0.269 OA
ATOM      4  C   UNL A   1      38.094  21.624  25.853  1.00  0.00     0.251 C 
ATOM      5  H   UNL A   1      36.354  20.665  25.957  1.00  0.00     0.163 HD
BRANCH   4   6
ATOM      6  C   UNL A   1      38.923  22.789  26.259  1.00  0.00     0.039 A 
ATOM      7  C   UNL A   1      38.705  24.073  25.757  1.00  0.00     0.014 A 
ATOM      8  C   UNL A   1      39.889  22.610  27.259  1.00  0.00     0.014 A 
ATOM      9  C   UNL A   1      39.528  25.132  26.135  1.00  0.00     0.010 A 
ATOM     10  C   UNL A   1      40.644  23.696  27.719  1.00  0.00     0.010 A 
ATOM     11  C   UNL A   1      40.488  24.965  27.143  1.00  0.00    -0.014 A 
BRANCH  11  12
ATOM     12  C   UNL A   1      41.254  26.135  27.647  1.00  0.00     0.031 A 
ATOM     13  C   UNL A   1      40.580  27.206  28.458  1.00  0.00     0.074 A 
ATOM     14  C   UNL A   1      42.557  26.254  27.325  1.00  0.00     0.049 A 
ATOM     15  N   UNL A   1      41.070  28.333  28.904  1.00  0.00    -0.248 NA
ATOM     16  C   UNL A   1      39.167  26.989  28.802  1.00  0.00     0.031 C 
ATOM     17  C   UNL A   1      43.315  25.295  26.516  1.00  0.00     0.029 A 
ATOM     18  N   UNL A   1      43.471  27.238  27.611  1.00  0.00    -0.354 N 
ATOM     19  C   UNL A   1      40.017  28.986  29.534  1.00  0.00     0.074 A 
ATOM     20  C   UNL A   1      38.858  28.126  29.409  1.00  0.00     0.031 C 
ATOM     21  C   UNL A   1      44.571  25.734  26.369  1.00  0.00     0.029 A 
ATOM     22  C   UNL A   1      44.694  27.037  27.011  1.00  0.00     0.049 A 
ATOM     23  H   UNL A   1      43.272  28.010  28.187  1.00  0.00     0.167 HD
ATOM     24  C   UNL A   1      40.017  30.188  30.161  1.00  0.00     0.034 A 
ATOM     25  C   UNL A   1      45.781  27.829  26.941  1.00  0.00     0.034 A 
ATOM     26  C   UNL A   1      41.180  31.025  30.290  1.00  0.00     0.049 A 
ATOM     27  C   UNL A   1      45.760  29.156  27.640  1.00  0.00     0.074 A 
ATOM     28  C   UNL A   1      41.304  32.229  30.962  1.00  0.00     0.029 A 
ATOM     29  N   UNL A   1      42.416  30.759  29.717  1.00  0.00    -0.354 N 
ATOM     30  N   UNL A   1      44.787  29.707  28.323  1.00  0.00    -0.248 NA
ATOM     31  C   UNL A   1      46.988  29.959  27.585  1.00  0.00     0.031 C 
ATOM     32  C   UNL A   1      42.600  32.711  30.757  1.00  0.00     0.029 A 
ATOM     33  C   UNL A   1      43.302  31.783  30.004  1.00  0.00     0.049 A 
ATOM     34  H   UNL A   1      42.631  29.959  29.185  1.00  0.00     0.167 HD
ATOM     35  C   UNL A   1      45.294  30.904  28.814  1.00  0.00     0.074 A 
ATOM     36  C   UNL A   1      46.665  30.995  28.350  1.00  0.00     0.031 C 
ATOM     37  C   UNL A   1      44.679  31.837  29.578  1.00  0.00     0.034 A 
BRANCH  24  38
ATOM     38  C   UNL A   1      38.715  30.668  30.751  1.00  0.00     0.023 A 
ATOM     39  C   UNL A   1      38.420  30.427  32.109  1.00  0.00     0.012 A 
ATOM     40  C   UNL A   1      37.791  31.385  29.964  1.00  0.00     0.148 A 
ATOM     41  C   UNL A   1      37.207  30.842  32.659  1.00  0.00     0.002 A 
ATOM     42  C   UNL A   1      36.606  31.840  30.532  1.00  0.00     0.091 A 
ATOM     43  F   UNL A   1      38.076  31.593  28.671  1.00  0.00    -0.205 F 
ATOM     44  C   UNL A   1      36.304  31.554  31.873  1.00  0.00     0.022 A 
BRANCH  42  45
ATOM     45  S   UNL A   1      35.420  32.837  29.622  1.00  0.00     0.127 S 
ATOM     46  O   UNL A   1      34.964  31.894  28.603  1.00  0.00    -0.237 OA
ATOM     47  O   UNL A   1      34.427  33.149  30.651  1.00  0.00    -0.237 OA
ATOM     48  O   UNL A   1      36.162  33.988  29.129  1.00  0.00    -0.744 OA
ENDBRANCH  42  45
ENDBRANCH  24  38
BRANCH  25  49
ATOM     49  C   UNL A   1      46.977  27.358  26.189  1.00  0.00     0.023 A 
ATOM     50  C   UNL A   1      47.852  26.427  26.780  1.00  0.00     0.012 A 
ATOM     51  C   UNL A   1      47.201  27.766  24.859  1.00  0.00     0.148 A 
ATOM     52  C   UNL A   1      48.938  25.922  26.065  1.00  0.00     0.002 A 
ATOM     53  C   UNL A   1      48.249  27.214  24.133  1.00  0.00     0.091 A 
ATOM     54  F   UNL A   1      46.356  28.654  24.319  1.00  0.00    -0.205 F 
ATOM     55  C   UNL A   1      49.129  26.303  24.739  1.00  0.00     0.022 A 
BRANCH  53  56
ATOM     56  S   UNL A   1      48.488  27.537  22.382  1.00  0.00     0.127 S 
ATOM     57  O   UNL A   1      47.314  28.347  22.066  1.00  0.00    -0.237 OA
ATOM     58  O   UNL A   1      49.757  28.265  22.385  1.00  0.00    -0.237 OA
ATOM     59  O   UNL A   1      48.541  26.231  21.740  1.00  0.00    -0.744 OA
ENDBRANCH  53  56
ENDBRANCH  25  49
BRANCH  37  60
ATOM     60  C   UNL A   1      45.490  33.022  30.032  1.00  0.00     0.023 A 
ATOM     61  C   UNL A   1      46.259  32.950  31.209  1.00  0.00     0.012 A 
ATOM     62  C   UNL A   1      45.571  34.170  29.218  1.00  0.00     0.148 A 
ATOM     63  C   UNL A   1      47.083  34.014  31.578  1.00  0.00     0.002 A 
ATOM     64  C   UNL A   1      46.434  35.200  29.563  1.00  0.00     0.091 A 
ATOM     65  F   UNL A   1      44.812  34.223  28.113  1.00  0.00    -0.205 F 
ATOM     66  C   UNL A   1      47.183  35.128  30.748  1.00  0.00     0.022 A 
BRANCH  64  67
ATOM     67  S   UNL A   1      46.707  36.624  28.503  1.00  0.00     0.127 S 
ATOM     68  O   UNL A   1      45.395  37.268  28.526  1.00  0.00    -0.237 OA
ATOM     69  O   UNL A   1      47.754  37.347  29.223  1.00  0.00    -0.237 OA
ATOM     70  O   UNL A   1      47.115  36.093  27.209  1.00  0.00    -0.744 OA
ENDBRANCH  64  67
ENDBRANCH  37  60
ENDBRANCH  11  12
ENDBRANCH   4   6
ENDBRANCH   1   2
BRANCH   1  71
ATOM     71  C   UNL A   1      35.175  23.268  25.187  1.00  0.00     0.042 C 
BRANCH  71  72
ATOM     72  C   UNL A   1      34.855  24.756  25.358  1.00  0.00     0.117 C 
BRANCH  72  73
ATOM     73  N   UNL A   1      33.582  24.959  26.025  1.00  0.00    -0.354 N 
ATOM     74  C   UNL A   1      32.334  25.287  25.603  1.00  0.00     0.243 C 
ATOM     75  H   UNL A   1      33.635  24.829  26.999  1.00  0.00     0.163 HD
ATOM     76  O   UNL A   1      31.524  25.528  26.512  1.00  0.00    -0.273 OA
BRANCH  74  77
ATOM     77  C   UNL A   1      31.876  25.504  24.127  1.00  0.00     0.185 C 
BRANCH  77  78
ATOM     78  C   UNL A   1      31.025  24.269  23.699  1.00  0.00     0.071 C 
BRANCH  78  79
ATOM     79  C   UNL A   1      31.500  22.829  23.799  1.00  0.00    -0.045 A 
ATOM     80  C   UNL A   1      31.790  22.168  22.592  1.00  0.00     0.004 A 
ATOM     81  C   UNL A   1      31.669  22.103  24.984  1.00  0.00     0.004 A 
ATOM     82  C   UNL A   1      32.285  20.860  22.579  1.00  0.00     0.000 A 
ATOM     83  C   UNL A   1      32.182  20.800  24.976  1.00  0.00     0.000 A 
ATOM     84  C   UNL A   1      32.500  20.183  23.773  1.00  0.00     0.000 A 
ENDBRANCH  78  79
ENDBRANCH  77  78
BRANCH  77  85
ATOM     85  N   UNL A   1      31.408  26.843  23.705  1.00  0.00    -0.280 N 
ATOM     86  C   UNL A   1      30.064  27.163  23.830  1.00  0.00     0.266 C 
ATOM     87  C   UNL A   1      32.204  27.975  23.621  1.00  0.00     0.149 C 
ATOM     88  O   UNL A   1      29.186  26.470  24.330  1.00  0.00    -0.268 OA
ATOM     89  C   UNL A   1      29.803  28.541  23.331  1.00  0.00     0.081 C 
ATOM     90  S   UNL A   1      31.284  29.271  22.871  1.00  0.00    -0.054 SA
ATOM     91  S   UNL A   1      33.748  28.262  24.183  1.00  0.00    -0.052 S 
ATOM     92  C   UNL A   1      28.586  29.098  23.274  1.00  0.00     0.029 C 
BRANCH  92  93
ATOM     93  C   UNL A   1      28.343  30.395  22.635  1.00  0.00    -0.021 A 
ATOM     94  C   UNL A   1      28.125  30.433  21.256  1.00  0.00     0.028 A 
ATOM     95  C   UNL A   1      28.420  31.591  23.344  1.00  0.00     0.028 A 
ATOM     96  C   UNL A   1      28.003  31.667  20.642  1.00  0.00     0.111 A 
ATOM     97  C   UNL A   1      28.281  32.776  22.637  1.00  0.00     0.111 A 
ATOM     98  N   UNL A   1      28.070  32.841  21.304  1.00  0.00    -0.265 NA
ENDBRANCH  92  93
ENDBRANCH  77  85
ENDBRANCH  74  77
ENDBRANCH  72  73
ENDBRANCH  71  72
ENDBRANCH   1  71
TORSDOF 17
ENDMDL
