MODEL 1
REMARK VINA RESULT:     -11.8      0.000      0.000
REMARK SMILES N#Cc1ccc(C(=O)N2CCC[C@H]2C(=O)NCCCNC(=O)c2ccc(-c3c4nc(c(-c5cccc(S(=O)(=O)[O-])c5F)c5ccc([nH]5)c(-c5cccc(S(=O)(=O)[O-])c5F)c5nc(c(-c6cccc(S(=O)(=O)[O-])c6F)c6ccc3[nH]6)C=C5)C=C4)cc2)cc1
REMARK SMILES IDX 18 1 17 2 16 3 14 4 15 5 13 7 9 8 10 9 11 10 12 11 7 12 8 13
REMARK SMILES IDX 6 14 3 15 4 16 87 17 5 18 86 19 2 20 1 21 19 22 20 23 21 24
REMARK SMILES IDX 22 26 23 27 24 28 85 29 25 30 84 31 26 32 27 33 28 34 78 35
REMARK SMILES IDX 29 36 83 37 77 38 79 39 30 40 82 41 76 42 75 43 31 45 63 46
REMARK SMILES IDX 43 47 62 48 44 49 47 50 61 51 80 52 45 53 46 54 60 56 81 57
REMARK SMILES IDX 48 58 32 59 33 60 41 61 34 62 36 63 42 64 35 65 37 66 38 67
REMARK SMILES IDX 39 68 40 69 64 70 65 71 73 72 66 73 68 74 74 75 67 76 69 77
REMARK SMILES IDX 70 78 71 79 72 80 49 81 50 82 58 83 51 84 53 85 59 86 52 87
REMARK SMILES IDX 54 88 55 89 56 90 57 91
REMARK H PARENT 16 6 20 25 79 44 47 55
REMARK Flexibility Score: inf
ROOT
ATOM      1  C   UNL A   1      31.847  28.886  27.162  1.00  0.00     0.042 C 
ENDROOT
BRANCH   1   2
ATOM      2  C   UNL A   1      32.119  27.410  26.952  1.00  0.00     0.117 C 
BRANCH   2   3
ATOM      3  N   UNL A   1      33.170  27.134  25.987  1.00  0.00    -0.354 N 
ATOM      4  C   UNL A   1      33.217  26.157  25.033  1.00  0.00     0.242 C 
ATOM      5  O   UNL A   1      34.036  26.291  24.118  1.00  0.00    -0.273 OA
ATOM      6  H   UNL A   1      33.952  27.732  26.026  1.00  0.00     0.163 HD
BRANCH   4   7
ATOM      7  C   UNL A   1      32.245  24.957  25.104  1.00  0.00     0.174 C 
ATOM      8  N   UNL A   1      30.989  25.153  24.372  1.00  0.00    -0.327 N 
ATOM      9  C   UNL A   1      31.066  24.552  23.061  1.00  0.00     0.121 C 
ATOM     10  C   UNL A   1      31.867  23.296  23.329  1.00  0.00     0.024 C 
ATOM     11  C   UNL A   1      32.875  23.728  24.401  1.00  0.00     0.037 C 
BRANCH   8  12
ATOM     12  C   UNL A   1      29.973  25.971  24.810  1.00  0.00     0.254 C 
ATOM     13  O   UNL A   1      29.289  25.700  25.791  1.00  0.00    -0.269 OA
BRANCH  12  14
ATOM     14  C   UNL A   1      29.604  27.170  23.992  1.00  0.00     0.040 A 
ATOM     15  C   UNL A   1      28.763  29.320  22.373  1.00  0.00     0.052 A 
ATOM     16  C   UNL A   1      27.827  28.411  22.867  1.00  0.00     0.020 A 
ATOM     17  C   UNL A   1      30.119  29.141  22.664  1.00  0.00     0.020 A 
ATOM     18  C   UNL A   1      28.246  27.347  23.674  1.00  0.00     0.015 A 
ATOM     19  C   UNL A   1      30.538  28.060  23.450  1.00  0.00     0.015 A 
BRANCH  15  20
ATOM     20  C   UNL A   1      28.340  30.434  21.573  1.00  0.00     0.099 C 
ATOM     21  N   UNL A   1      28.008  31.323  20.908  1.00  0.00    -0.192 NA
ENDBRANCH  15  20
ENDBRANCH  12  14
ENDBRANCH   8  12
ENDBRANCH   4   7
ENDBRANCH   2   3
ENDBRANCH   1   2
BRANCH   1  22
ATOM     22  C   UNL A   1      32.512  29.806  26.152  1.00  0.00     0.118 C 
BRANCH  22  23
ATOM     23  N   UNL A   1      32.376  31.221  26.469  1.00  0.00    -0.352 N 
ATOM     24  C   UNL A   1      33.169  32.029  27.250  1.00  0.00     0.251 C 
ATOM     25  H   UNL A   1      31.598  31.667  26.062  1.00  0.00     0.163 HD
ATOM     26  O   UNL A   1      32.813  33.181  27.488  1.00  0.00    -0.269 OA
BRANCH  24  27
ATOM     27  C   UNL A   1      34.427  31.511  27.834  1.00  0.00     0.039 A 
ATOM     28  C   UNL A   1      35.493  32.394  28.022  1.00  0.00     0.014 A 
ATOM     29  C   UNL A   1      34.564  30.171  28.201  1.00  0.00     0.014 A 
ATOM     30  C   UNL A   1      36.666  31.945  28.634  1.00  0.00     0.010 A 
ATOM     31  C   UNL A   1      35.685  29.755  28.914  1.00  0.00     0.010 A 
ATOM     32  C   UNL A   1      36.759  30.631  29.124  1.00  0.00    -0.014 A 
BRANCH  32  33
ATOM     33  C   UNL A   1      37.969  30.170  29.855  1.00  0.00     0.031 A 
ATOM     34  C   UNL A   1      38.233  30.625  31.266  1.00  0.00     0.074 A 
ATOM     35  C   UNL A   1      38.865  29.383  29.228  1.00  0.00     0.049 A 
ATOM     36  N   UNL A   1      39.219  30.303  32.064  1.00  0.00    -0.248 NA
ATOM     37  C   UNL A   1      37.283  31.584  31.852  1.00  0.00     0.031 C 
ATOM     38  C   UNL A   1      38.770  28.935  27.838  1.00  0.00     0.029 A 
ATOM     39  N   UNL A   1      40.038  28.826  29.676  1.00  0.00    -0.354 N 
ATOM     40  C   UNL A   1      39.029  31.043  33.225  1.00  0.00     0.074 A 
ATOM     41  C   UNL A   1      37.858  31.866  33.010  1.00  0.00     0.031 C 
ATOM     42  C   UNL A   1      39.815  28.142  27.558  1.00  0.00     0.029 A 
ATOM     43  C   UNL A   1      40.679  28.060  28.731  1.00  0.00     0.049 A 
ATOM     44  H   UNL A   1      40.386  28.962  30.586  1.00  0.00     0.167 HD
ATOM     45  C   UNL A   1      39.743  31.025  34.375  1.00  0.00     0.034 A 
ATOM     46  C   UNL A   1      41.834  27.369  28.797  1.00  0.00     0.034 A 
ATOM     47  C   UNL A   1      40.900  30.198  34.589  1.00  0.00     0.049 A 
ATOM     48  C   UNL A   1      42.610  27.357  30.085  1.00  0.00     0.074 A 
ATOM     49  C   UNL A   1      41.641  30.039  35.746  1.00  0.00     0.029 A 
ATOM     50  N   UNL A   1      41.503  29.413  33.618  1.00  0.00    -0.354 N 
ATOM     51  N   UNL A   1      42.327  27.941  31.224  1.00  0.00    -0.248 NA
ATOM     52  C   UNL A   1      43.847  26.564  30.107  1.00  0.00     0.031 C 
ATOM     53  C   UNL A   1      42.731  29.211  35.456  1.00  0.00     0.029 A 
ATOM     54  C   UNL A   1      42.627  28.794  34.138  1.00  0.00     0.049 A 
ATOM     55  H   UNL A   1      41.179  29.310  32.694  1.00  0.00     0.167 HD
ATOM     56  C   UNL A   1      43.326  27.554  32.110  1.00  0.00     0.074 A 
ATOM     57  C   UNL A   1      44.213  26.675  31.376  1.00  0.00     0.031 C 
ATOM     58  C   UNL A   1      43.491  27.898  33.411  1.00  0.00     0.034 A 
BRANCH  45  59
ATOM     59  C   UNL A   1      39.286  31.931  35.494  1.00  0.00     0.023 A 
ATOM     60  C   UNL A   1      38.353  31.467  36.445  1.00  0.00     0.012 A 
ATOM     61  C   UNL A   1      39.795  33.239  35.612  1.00  0.00     0.148 A 
ATOM     62  C   UNL A   1      37.887  32.309  37.455  1.00  0.00     0.002 A 
ATOM     63  C   UNL A   1      39.371  34.052  36.657  1.00  0.00     0.091 A 
ATOM     64  F   UNL A   1      40.669  33.672  34.694  1.00  0.00    -0.205 F 
ATOM     65  C   UNL A   1      38.402  33.597  37.566  1.00  0.00     0.022 A 
BRANCH  63  66
ATOM     66  S   UNL A   1      40.038  35.695  36.935  1.00  0.00     0.127 S 
ATOM     67  O   UNL A   1      39.375  36.075  38.182  1.00  0.00    -0.237 OA
ATOM     68  O   UNL A   1      41.471  35.426  37.063  1.00  0.00    -0.237 OA
ATOM     69  O   UNL A   1      39.671  36.482  35.766  1.00  0.00    -0.744 OA
ENDBRANCH  63  66
ENDBRANCH  45  59
BRANCH  46  70
ATOM     70  C   UNL A   1      42.289  26.574  27.621  1.00  0.00     0.023 A 
ATOM     71  C   UNL A   1      43.116  27.177  26.654  1.00  0.00     0.012 A 
ATOM     72  C   UNL A   1      41.943  25.217  27.481  1.00  0.00     0.148 A 
ATOM     73  C   UNL A   1      43.566  26.451  25.551  1.00  0.00     0.002 A 
ATOM     74  C   UNL A   1      42.440  24.483  26.411  1.00  0.00     0.091 A 
ATOM     75  F   UNL A   1      41.156  24.664  28.414  1.00  0.00    -0.205 F 
ATOM     76  C   UNL A   1      43.238  25.102  25.435  1.00  0.00     0.022 A 
BRANCH  74  77
ATOM     77  S   UNL A   1      42.173  22.716  26.242  1.00  0.00     0.127 S 
ATOM     78  O   UNL A   1      42.819  22.199  27.446  1.00  0.00    -0.237 OA
ATOM     79  O   UNL A   1      40.712  22.634  26.242  1.00  0.00    -0.237 OA
ATOM     80  O   UNL A   1      42.800  22.336  24.983  1.00  0.00    -0.744 OA
ENDBRANCH  74  77
ENDBRANCH  46  70
BRANCH  58  81
ATOM     81  C   UNL A   1      44.649  27.283  34.157  1.00  0.00     0.023 A 
ATOM     82  C   UNL A   1      45.888  27.950  34.225  1.00  0.00     0.012 A 
ATOM     83  C   UNL A   1      44.479  26.068  34.850  1.00  0.00     0.148 A 
ATOM     84  C   UNL A   1      46.952  27.395  34.938  1.00  0.00     0.002 A 
ATOM     85  C   UNL A   1      45.524  25.553  35.606  1.00  0.00     0.091 A 
ATOM     86  F   UNL A   1      43.297  25.441  34.761  1.00  0.00    -0.205 F 
ATOM     87  C   UNL A   1      46.766  26.205  35.638  1.00  0.00     0.022 A 
BRANCH  85  88
ATOM     88  S   UNL A   1      45.346  24.081  36.620  1.00  0.00     0.127 S 
ATOM     89  O   UNL A   1      46.733  23.806  36.992  1.00  0.00    -0.237 OA
ATOM     90  O   UNL A   1      44.504  24.563  37.716  1.00  0.00    -0.237 OA
ATOM     91  O   UNL A   1      44.721  23.076  35.771  1.00  0.00    -0.744 OA
ENDBRANCH  85  88
ENDBRANCH  58  81
ENDBRANCH  32  33
ENDBRANCH  24  27
ENDBRANCH  22  23
ENDBRANCH   1  22
TORSDOF 16
ENDMDL
MODEL 2
REMARK VINA RESULT:     -11.8      5.573     10.770
REMARK SMILES N#Cc1ccc(C(=O)N2CCC[C@H]2C(=O)NCCCNC(=O)c2ccc(-c3c4nc(c(-c5cccc(S(=O)(=O)[O-])c5F)c5ccc([nH]5)c(-c5cccc(S(=O)(=O)[O-])c5F)c5nc(c(-c6cccc(S(=O)(=O)[O-])c6F)c6ccc3[nH]6)C=C5)C=C4)cc2)cc1
REMARK SMILES IDX 18 1 17 2 16 3 14 4 15 5 13 7 9 8 10 9 11 10 12 11 7 12 8 13
REMARK SMILES IDX 6 14 3 15 4 16 87 17 5 18 86 19 2 20 1 21 19 22 20 23 21 24
REMARK SMILES IDX 22 26 23 27 24 28 85 29 25 30 84 31 26 32 27 33 28 34 78 35
REMARK SMILES IDX 29 36 83 37 77 38 79 39 30 40 82 41 76 42 75 43 31 45 63 46
REMARK SMILES IDX 43 47 62 48 44 49 47 50 61 51 80 52 45 53 46 54 60 56 81 57
REMARK SMILES IDX 48 58 32 59 33 60 41 61 34 62 36 63 42 64 35 65 37 66 38 67
REMARK SMILES IDX 39 68 40 69 64 70 65 71 73 72 66 73 68 74 74 75 67 76 69 77
REMARK SMILES IDX 70 78 71 79 72 80 49 81 50 82 58 83 51 84 53 85 59 86 52 87
REMARK SMILES IDX 54 88 55 89 56 90 57 91
REMARK H PARENT 16 6 20 25 79 44 47 55
REMARK Flexibility Score: inf
ROOT
ATOM      1  C   UNL A   1      36.804  21.064  24.688  1.00  0.00     0.042 C 
ENDROOT
BRANCH   1   2
ATOM      2  C   UNL A   1      35.641  22.019  24.870  1.00  0.00     0.117 C 
BRANCH   2   3
ATOM      3  N   UNL A   1      35.179  22.131  26.244  1.00  0.00    -0.354 N 
ATOM      4  C   UNL A   1      33.938  22.477  26.701  1.00  0.00     0.242 C 
ATOM      5  O   UNL A   1      33.666  22.204  27.875  1.00  0.00    -0.273 OA
ATOM      6  H   UNL A   1      35.850  21.931  26.936  1.00  0.00     0.163 HD
BRANCH   4   7
ATOM      7  C   UNL A   1      32.923  23.152  25.751  1.00  0.00     0.174 C 
ATOM      8  N   UNL A   1      31.988  22.224  25.107  1.00  0.00    -0.327 N 
ATOM      9  C   UNL A   1      30.739  22.179  25.829  1.00  0.00     0.121 C 
ATOM     10  C   UNL A   1      30.562  23.620  26.257  1.00  0.00     0.024 C 
ATOM     11  C   UNL A   1      31.989  24.088  26.560  1.00  0.00     0.037 C 
BRANCH   8  12
ATOM     12  C   UNL A   1      32.343  21.375  24.084  1.00  0.00     0.254 C 
ATOM     13  O   UNL A   1      32.370  21.735  22.911  1.00  0.00    -0.269 OA
BRANCH  12  14
ATOM     14  C   UNL A   1      32.584  19.930  24.392  1.00  0.00     0.040 A 
ATOM     15  C   UNL A   1      32.918  17.163  24.823  1.00  0.00     0.052 A 
ATOM     16  C   UNL A   1      32.717  17.649  23.531  1.00  0.00     0.020 A 
ATOM     17  C   UNL A   1      32.925  18.053  25.901  1.00  0.00     0.020 A 
ATOM     18  C   UNL A   1      32.556  19.023  23.318  1.00  0.00     0.015 A 
ATOM     19  C   UNL A   1      32.738  19.425  25.688  1.00  0.00     0.015 A 
BRANCH  15  20
ATOM     20  C   UNL A   1      33.117  15.760  25.048  1.00  0.00     0.099 C 
ATOM     21  N   UNL A   1      33.255  14.624  25.230  1.00  0.00    -0.192 NA
ENDBRANCH  15  20
ENDBRANCH  12  14
ENDBRANCH   8  12
ENDBRANCH   4   7
ENDBRANCH   2   3
ENDBRANCH   1   2
BRANCH   1  22
ATOM     22  C   UNL A   1      38.159  21.628  25.082  1.00  0.00     0.118 C 
BRANCH  22  23
ATOM     23  N   UNL A   1      39.007  20.677  25.787  1.00  0.00    -0.352 N 
ATOM     24  C   UNL A   1      40.058  20.901  26.645  1.00  0.00     0.251 C 
ATOM     25  H   UNL A   1      38.796  19.729  25.624  1.00  0.00     0.163 HD
ATOM     26  O   UNL A   1      40.725  19.951  27.048  1.00  0.00    -0.269 OA
BRANCH  24  27
ATOM     27  C   UNL A   1      40.412  22.278  27.058  1.00  0.00     0.039 A 
ATOM     28  C   UNL A   1      41.403  22.455  28.026  1.00  0.00     0.014 A 
ATOM     29  C   UNL A   1      39.782  23.392  26.500  1.00  0.00     0.014 A 
ATOM     30  C   UNL A   1      41.803  23.746  28.382  1.00  0.00     0.010 A 
ATOM     31  C   UNL A   1      40.260  24.671  26.770  1.00  0.00     0.010 A 
ATOM     32  C   UNL A   1      41.264  24.867  27.727  1.00  0.00    -0.014 A 
BRANCH  32  33
ATOM     33  C   UNL A   1      41.747  26.239  28.037  1.00  0.00     0.031 A 
ATOM     34  C   UNL A   1      43.138  26.669  27.654  1.00  0.00     0.074 A 
ATOM     35  C   UNL A   1      40.950  27.086  28.717  1.00  0.00     0.049 A 
ATOM     36  N   UNL A   1      43.716  27.832  27.819  1.00  0.00    -0.248 NA
ATOM     37  C   UNL A   1      44.004  25.658  27.026  1.00  0.00     0.031 C 
ATOM     38  C   UNL A   1      39.611  26.770  29.216  1.00  0.00     0.029 A 
ATOM     39  N   UNL A   1      41.152  28.386  29.113  1.00  0.00    -0.354 N 
ATOM     40  C   UNL A   1      45.016  27.682  27.351  1.00  0.00     0.074 A 
ATOM     41  C   UNL A   1      45.157  26.302  26.939  1.00  0.00     0.031 C 
ATOM     42  C   UNL A   1      39.096  27.854  29.816  1.00  0.00     0.029 A 
ATOM     43  C   UNL A   1      40.083  28.929  29.786  1.00  0.00     0.049 A 
ATOM     44  H   UNL A   1      41.983  28.881  28.933  1.00  0.00     0.167 HD
ATOM     45  C   UNL A   1      45.998  28.609  27.248  1.00  0.00     0.034 A 
ATOM     46  C   UNL A   1      39.912  30.154  30.321  1.00  0.00     0.034 A 
ATOM     47  C   UNL A   1      45.851  29.982  27.650  1.00  0.00     0.049 A 
ATOM     48  C   UNL A   1      41.012  31.171  30.192  1.00  0.00     0.074 A 
ATOM     49  C   UNL A   1      46.752  31.021  27.507  1.00  0.00     0.029 A 
ATOM     50  N   UNL A   1      44.742  30.503  28.301  1.00  0.00    -0.354 N 
ATOM     51  N   UNL A   1      42.179  31.054  29.604  1.00  0.00    -0.248 NA
ATOM     52  C   UNL A   1      40.760  32.498  30.769  1.00  0.00     0.031 C 
ATOM     53  C   UNL A   1      46.217  32.153  28.130  1.00  0.00     0.029 A 
ATOM     54  C   UNL A   1      44.949  31.839  28.596  1.00  0.00     0.049 A 
ATOM     55  H   UNL A   1      43.926  29.996  28.519  1.00  0.00     0.167 HD
ATOM     56  C   UNL A   1      42.782  32.303  29.705  1.00  0.00     0.074 A 
ATOM     57  C   UNL A   1      41.846  33.163  30.399  1.00  0.00     0.031 C 
ATOM     58  C   UNL A   1      44.002  32.698  29.262  1.00  0.00     0.034 A 
BRANCH  45  59
ATOM     59  C   UNL A   1      47.321  28.162  26.674  1.00  0.00     0.023 A 
ATOM     60  C   UNL A   1      48.417  27.914  27.528  1.00  0.00     0.012 A 
ATOM     61  C   UNL A   1      47.474  27.971  25.287  1.00  0.00     0.148 A 
ATOM     62  C   UNL A   1      49.657  27.547  27.007  1.00  0.00     0.002 A 
ATOM     63  C   UNL A   1      48.697  27.547  24.781  1.00  0.00     0.091 A 
ATOM     64  F   UNL A   1      46.430  28.224  24.486  1.00  0.00    -0.205 F 
ATOM     65  C   UNL A   1      49.795  27.355  25.635  1.00  0.00     0.022 A 
BRANCH  63  66
ATOM     66  S   UNL A   1      48.951  27.190  23.040  1.00  0.00     0.127 S 
ATOM     67  O   UNL A   1      48.365  28.370  22.407  1.00  0.00    -0.237 OA
ATOM     68  O   UNL A   1      50.410  27.111  22.953  1.00  0.00    -0.237 OA
ATOM     69  O   UNL A   1      48.259  25.934  22.782  1.00  0.00    -0.744 OA
ENDBRANCH  63  66
ENDBRANCH  45  59
BRANCH  46  70
ATOM     70  C   UNL A   1      38.617  30.505  30.969  1.00  0.00     0.023 A 
ATOM     71  C   UNL A   1      38.416  30.199  32.329  1.00  0.00     0.012 A 
ATOM     72  C   UNL A   1      37.604  31.175  30.258  1.00  0.00     0.148 A 
ATOM     73  C   UNL A   1      37.218  30.529  32.963  1.00  0.00     0.002 A 
ATOM     74  C   UNL A   1      36.435  31.552  30.908  1.00  0.00     0.091 A 
ATOM     75  F   UNL A   1      37.817  31.456  28.965  1.00  0.00    -0.205 F 
ATOM     76  C   UNL A   1      36.233  31.215  32.256  1.00  0.00     0.022 A 
BRANCH  74  77
ATOM     77  S   UNL A   1      35.164  32.542  30.117  1.00  0.00     0.127 S 
ATOM     78  O   UNL A   1      34.200  32.713  31.201  1.00  0.00    -0.237 OA
ATOM     79  O   UNL A   1      35.909  33.749  29.756  1.00  0.00    -0.237 OA
ATOM     80  O   UNL A   1      34.697  31.758  28.982  1.00  0.00    -0.744 OA
ENDBRANCH  74  77
ENDBRANCH  46  70
BRANCH  58  81
ATOM     81  C   UNL A   1      44.387  34.142  29.464  1.00  0.00     0.023 A 
ATOM     82  C   UNL A   1      45.085  34.540  30.620  1.00  0.00     0.012 A 
ATOM     83  C   UNL A   1      44.110  35.094  28.462  1.00  0.00     0.148 A 
ATOM     84  C   UNL A   1      45.466  35.871  30.794  1.00  0.00     0.002 A 
ATOM     85  C   UNL A   1      44.544  36.404  28.615  1.00  0.00     0.091 A 
ATOM     86  F   UNL A   1      43.431  34.699  27.375  1.00  0.00    -0.205 F 
ATOM     87  C   UNL A   1      45.208  36.799  29.787  1.00  0.00     0.022 A 
BRANCH  85  88
ATOM     88  S   UNL A   1      44.346  37.643  27.330  1.00  0.00     0.127 S 
ATOM     89  O   UNL A   1      45.498  37.369  26.472  1.00  0.00    -0.237 OA
ATOM     90  O   UNL A   1      43.053  37.279  26.750  1.00  0.00    -0.237 OA
ATOM     91  O   UNL A   1      44.367  38.934  28.004  1.00  0.00    -0.744 OA
ENDBRANCH  85  88
ENDBRANCH  58  81
ENDBRANCH  32  33
ENDBRANCH  24  27
ENDBRANCH  22  23
ENDBRANCH   1  22
TORSDOF 16
ENDMDL
MODEL 3
REMARK VINA RESULT:     -11.6      2.057      3.836
REMARK SMILES N#Cc1ccc(C(=O)N2CCC[C@H]2C(=O)NCCCNC(=O)c2ccc(-c3c4nc(c(-c5cccc(S(=O)(=O)[O-])c5F)c5ccc([nH]5)c(-c5cccc(S(=O)(=O)[O-])c5F)c5nc(c(-c6cccc(S(=O)(=O)[O-])c6F)c6ccc3[nH]6)C=C5)C=C4)cc2)cc1
REMARK SMILES IDX 18 1 17 2 16 3 14 4 15 5 13 7 9 8 10 9 11 10 12 11 7 12 8 13
REMARK SMILES IDX 6 14 3 15 4 16 87 17 5 18 86 19 2 20 1 21 19 22 20 23 21 24
REMARK SMILES IDX 22 26 23 27 24 28 85 29 25 30 84 31 26 32 27 33 28 34 78 35
REMARK SMILES IDX 29 36 83 37 77 38 79 39 30 40 82 41 76 42 75 43 31 45 63 46
REMARK SMILES IDX 43 47 62 48 44 49 47 50 61 51 80 52 45 53 46 54 60 56 81 57
REMARK SMILES IDX 48 58 32 59 33 60 41 61 34 62 36 63 42 64 35 65 37 66 38 67
REMARK SMILES IDX 39 68 40 69 64 70 65 71 73 72 66 73 68 74 74 75 67 76 69 77
REMARK SMILES IDX 70 78 71 79 72 80 49 81 50 82 58 83 51 84 53 85 59 86 52 87
REMARK SMILES IDX 54 88 55 89 56 90 57 91
REMARK H PARENT 16 6 20 25 79 44 47 55
REMARK Flexibility Score: inf
ROOT
ATOM      1  C   UNL A   1      31.857  29.269  27.174  1.00  0.00     0.042 C 
ENDROOT
BRANCH   1   2
ATOM      2  C   UNL A   1      32.046  27.771  27.038  1.00  0.00     0.117 C 
BRANCH   2   3
ATOM      3  N   UNL A   1      30.805  27.030  26.890  1.00  0.00    -0.354 N 
ATOM      4  C   UNL A   1      30.592  25.840  26.251  1.00  0.00     0.242 C 
ATOM      5  O   UNL A   1      29.549  25.231  26.511  1.00  0.00    -0.273 OA
ATOM      6  H   UNL A   1      30.011  27.441  27.305  1.00  0.00     0.163 HD
BRANCH   4   7
ATOM      7  C   UNL A   1      31.652  25.287  25.271  1.00  0.00     0.174 C 
ATOM      8  N   UNL A   1      31.696  23.823  25.192  1.00  0.00    -0.327 N 
ATOM      9  C   UNL A   1      30.927  23.352  24.064  1.00  0.00     0.121 C 
ATOM     10  C   UNL A   1      31.213  24.406  23.016  1.00  0.00     0.024 C 
ATOM     11  C   UNL A   1      31.297  25.707  23.821  1.00  0.00     0.037 C 
BRANCH   8  12
ATOM     12  C   UNL A   1      32.227  23.024  26.178  1.00  0.00     0.254 C 
ATOM     13  O   UNL A   1      31.774  22.999  27.318  1.00  0.00    -0.269 OA
BRANCH  12  14
ATOM     14  C   UNL A   1      33.478  22.253  25.891  1.00  0.00     0.040 A 
ATOM     15  C   UNL A   1      35.920  20.970  25.305  1.00  0.00     0.052 A 
ATOM     16  C   UNL A   1      35.919  22.257  25.846  1.00  0.00     0.020 A 
ATOM     17  C   UNL A   1      34.704  20.337  25.031  1.00  0.00     0.020 A 
ATOM     18  C   UNL A   1      34.706  22.889  26.141  1.00  0.00     0.015 A 
ATOM     19  C   UNL A   1      33.492  20.983  25.302  1.00  0.00     0.015 A 
BRANCH  15  20
ATOM     20  C   UNL A   1      37.159  20.300  25.030  1.00  0.00     0.099 C 
ATOM     21  N   UNL A   1      38.159  19.767  24.787  1.00  0.00    -0.192 NA
ENDBRANCH  15  20
ENDBRANCH  12  14
ENDBRANCH   8  12
ENDBRANCH   4   7
ENDBRANCH   2   3
ENDBRANCH   1   2
BRANCH   1  22
ATOM     22  C   UNL A   1      32.898  30.110  26.455  1.00  0.00     0.118 C 
BRANCH  22  23
ATOM     23  N   UNL A   1      32.863  31.520  26.815  1.00  0.00    -0.352 N 
ATOM     24  C   UNL A   1      33.736  32.257  27.581  1.00  0.00     0.251 C 
ATOM     25  H   UNL A   1      32.096  32.024  26.456  1.00  0.00     0.163 HD
ATOM     26  O   UNL A   1      33.461  33.421  27.864  1.00  0.00    -0.269 OA
BRANCH  24  27
ATOM     27  C   UNL A   1      34.985  31.649  28.092  1.00  0.00     0.039 A 
ATOM     28  C   UNL A   1      36.141  32.432  28.145  1.00  0.00     0.014 A 
ATOM     29  C   UNL A   1      35.027  30.322  28.524  1.00  0.00     0.014 A 
ATOM     30  C   UNL A   1      37.314  31.902  28.689  1.00  0.00     0.010 A 
ATOM     31  C   UNL A   1      36.160  29.834  29.169  1.00  0.00     0.010 A 
ATOM     32  C   UNL A   1      37.325  30.611  29.244  1.00  0.00    -0.014 A 
BRANCH  32  33
ATOM     33  C   UNL A   1      38.543  30.072  29.904  1.00  0.00     0.031 A 
ATOM     34  C   UNL A   1      38.919  30.505  31.296  1.00  0.00     0.074 A 
ATOM     35  C   UNL A   1      39.349  29.231  29.226  1.00  0.00     0.049 A 
ATOM     36  N   UNL A   1      39.928  30.118  32.034  1.00  0.00    -0.248 NA
ATOM     37  C   UNL A   1      38.068  31.522  31.935  1.00  0.00     0.031 C 
ATOM     38  C   UNL A   1      39.143  28.792  27.844  1.00  0.00     0.029 A 
ATOM     39  N   UNL A   1      40.507  28.598  29.604  1.00  0.00    -0.354 N 
ATOM     40  C   UNL A   1      39.854  30.866  33.203  1.00  0.00     0.074 A 
ATOM     41  C   UNL A   1      38.728  31.763  33.057  1.00  0.00     0.031 C 
ATOM     42  C   UNL A   1      40.117  27.935  27.504  1.00  0.00     0.029 A 
ATOM     43  C   UNL A   1      41.041  27.794  28.624  1.00  0.00     0.049 A 
ATOM     44  H   UNL A   1      40.917  28.708  30.493  1.00  0.00     0.167 HD
ATOM     45  C   UNL A   1      40.631  30.800  34.310  1.00  0.00     0.034 A 
ATOM     46  C   UNL A   1      42.151  27.030  28.623  1.00  0.00     0.034 A 
ATOM     47  C   UNL A   1      41.744  29.900  34.457  1.00  0.00     0.049 A 
ATOM     48  C   UNL A   1      42.999  26.966  29.863  1.00  0.00     0.074 A 
ATOM     49  C   UNL A   1      42.540  29.691  35.567  1.00  0.00     0.029 A 
ATOM     50  N   UNL A   1      42.237  29.079  33.452  1.00  0.00    -0.354 N 
ATOM     51  N   UNL A   1      42.822  27.564  31.016  1.00  0.00    -0.248 NA
ATOM     52  C   UNL A   1      44.182  26.095  29.814  1.00  0.00     0.031 C 
ATOM     53  C   UNL A   1      43.555  28.794  35.215  1.00  0.00     0.029 A 
ATOM     54  C   UNL A   1      43.347  28.388  33.906  1.00  0.00     0.049 A 
ATOM     55  H   UNL A   1      41.853  29.000  32.549  1.00  0.00     0.167 HD
ATOM     56  C   UNL A   1      43.844  27.112  31.842  1.00  0.00     0.074 A 
ATOM     57  C   UNL A   1      44.629  26.179  31.059  1.00  0.00     0.031 C 
ATOM     58  C   UNL A   1      44.108  27.440  33.131  1.00  0.00     0.034 A 
BRANCH  45  59
ATOM     59  C   UNL A   1      40.300  31.730  35.452  1.00  0.00     0.023 A 
ATOM     60  C   UNL A   1      41.042  32.916  35.640  1.00  0.00     0.012 A 
ATOM     61  C   UNL A   1      39.240  31.437  36.332  1.00  0.00     0.148 A 
ATOM     62  C   UNL A   1      40.777  33.759  36.718  1.00  0.00     0.002 A 
ATOM     63  C   UNL A   1      38.944  32.313  37.370  1.00  0.00     0.091 A 
ATOM     64  F   UNL A   1      38.553  30.301  36.152  1.00  0.00    -0.205 F 
ATOM     65  C   UNL A   1      39.723  33.463  37.578  1.00  0.00     0.022 A 
BRANCH  63  66
ATOM     66  S   UNL A   1      37.552  32.065  38.477  1.00  0.00     0.127 S 
ATOM     67  O   UNL A   1      38.148  32.384  39.774  1.00  0.00    -0.237 OA
ATOM     68  O   UNL A   1      36.591  33.053  37.987  1.00  0.00    -0.237 OA
ATOM     69  O   UNL A   1      37.141  30.679  38.302  1.00  0.00    -0.744 OA
ENDBRANCH  63  66
ENDBRANCH  45  59
BRANCH  46  70
ATOM     70  C   UNL A   1      42.485  26.211  27.424  1.00  0.00     0.023 A 
ATOM     71  C   UNL A   1      43.237  26.783  26.379  1.00  0.00     0.012 A 
ATOM     72  C   UNL A   1      42.097  24.861  27.333  1.00  0.00     0.148 A 
ATOM     73  C   UNL A   1      43.574  26.032  25.252  1.00  0.00     0.002 A 
ATOM     74  C   UNL A   1      42.483  24.103  26.234  1.00  0.00     0.091 A 
ATOM     75  F   UNL A   1      41.382  24.338  28.338  1.00  0.00    -0.205 F 
ATOM     76  C   UNL A   1      43.206  24.691  25.184  1.00  0.00     0.022 A 
BRANCH  74  77
ATOM     77  S   UNL A   1      42.162  22.340  26.114  1.00  0.00     0.127 S 
ATOM     78  O   UNL A   1      40.705  22.306  26.026  1.00  0.00    -0.237 OA
ATOM     79  O   UNL A   1      42.864  21.994  24.877  1.00  0.00    -0.237 OA
ATOM     80  O   UNL A   1      42.731  21.749  27.318  1.00  0.00    -0.744 OA
ENDBRANCH  74  77
ENDBRANCH  46  70
BRANCH  58  81
ATOM     81  C   UNL A   1      45.266  26.751  33.808  1.00  0.00     0.023 A 
ATOM     82  C   UNL A   1      46.547  27.336  33.801  1.00  0.00     0.012 A 
ATOM     83  C   UNL A   1      45.059  25.548  34.512  1.00  0.00     0.148 A 
ATOM     84  C   UNL A   1      47.613  26.712  34.451  1.00  0.00     0.002 A 
ATOM     85  C   UNL A   1      46.111  24.964  35.206  1.00  0.00     0.091 A 
ATOM     86  F   UNL A   1      43.836  24.999  34.494  1.00  0.00    -0.205 F 
ATOM     87  C   UNL A   1      47.392  25.535  35.163  1.00  0.00     0.022 A 
BRANCH  85  88
ATOM     88  S   UNL A   1      45.899  23.505  36.232  1.00  0.00     0.127 S 
ATOM     89  O   UNL A   1      45.460  22.513  35.251  1.00  0.00    -0.237 OA
ATOM     90  O   UNL A   1      47.251  23.295  36.750  1.00  0.00    -0.237 OA
ATOM     91  O   UNL A   1      44.910  23.860  37.241  1.00  0.00    -0.744 OA
ENDBRANCH  85  88
ENDBRANCH  58  81
ENDBRANCH  32  33
ENDBRANCH  24  27
ENDBRANCH  22  23
ENDBRANCH   1  22
TORSDOF 16
ENDMDL
