MODEL 1
REMARK VINA RESULT:     -10.7      0.000      0.000
REMARK SMILES CC[N@@H+](Cc1cccc(C)n1)Cc1csc(C(=O)NCCCNC(=O)c2ccc(-c3c4nc(c(-c5cccc(S(=O)(=O)[O-])c5F)c5ccc([nH]5)c(-c5cccc(S(=O)(=O)[O-])c5F)c5nc(c(-c6cccc(S(=O)(=O)[O-])c6F)c6ccc3[nH]6)C=C5)C=C4)cc2)n1
REMARK SMILES IDX 20 1 19 2 17 3 18 4 16 6 13 7 14 8 89 9 15 10 12 11 3 12
REMARK SMILES IDX 2 14 1 15 4 16 5 17 6 18 11 19 7 20 9 21 8 22 10 23 21 24
REMARK SMILES IDX 22 25 23 26 24 27 25 29 26 30 27 31 88 32 28 33 87 34 29 35
REMARK SMILES IDX 30 36 31 37 81 38 32 39 86 40 80 41 82 42 33 43 85 44 79 45
REMARK SMILES IDX 78 46 34 48 66 49 46 50 65 51 47 52 50 53 64 54 83 55 48 56
REMARK SMILES IDX 49 57 63 59 84 60 51 61 35 62 36 63 44 64 37 65 39 66 45 67
REMARK SMILES IDX 38 68 40 69 41 70 42 71 43 72 67 73 68 74 76 75 69 76 71 77
REMARK SMILES IDX 77 78 70 79 72 80 73 81 74 82 75 83 52 84 53 85 61 86 54 87
REMARK SMILES IDX 56 88 62 89 55 90 57 91 58 92 59 93 60 94
REMARK H PARENT 19 5 3 13 23 28 82 47 50 58
REMARK Flexibility Score: inf
ROOT
ATOM      1  C   UNL A   1      33.411  28.853  24.870  1.00  0.00     0.118 C 
ENDROOT
BRANCH   1   2
ATOM      2  N   UNL A   1      34.005  28.506  23.590  1.00  0.00    -0.350 N 
ATOM      3  C   UNL A   1      33.541  27.610  22.639  1.00  0.00     0.280 C 
ATOM      4  O   UNL A   1      34.064  27.658  21.529  1.00  0.00    -0.267 OA
ATOM      5  H   UNL A   1      34.846  28.968  23.369  1.00  0.00     0.163 HD
BRANCH   3   6
ATOM      6  C   UNL A   1      32.441  26.715  22.990  1.00  0.00     0.181 A 
ATOM      7  C   UNL A   1      31.373  24.882  23.656  1.00  0.00     0.106 A 
ATOM      8  C   UNL A   1      30.320  25.779  23.660  1.00  0.00     0.097 A 
ATOM      9  N   UNL A   1      32.588  25.440  23.283  1.00  0.00    -0.230 NA
ATOM     10  S   UNL A   1      30.838  27.313  23.091  1.00  0.00    -0.117 S 
BRANCH   7  11
ATOM     11  C   UNL A   1      31.364  23.439  24.058  1.00  0.00     0.320 C 
BRANCH  11  12
ATOM     12  N   UNL A   1      31.919  23.185  25.377  1.00  0.00    -0.325 N 
ATOM     13  H   UNL A   1      32.413  24.077  25.336  1.00  0.00     0.348 HD
BRANCH  12  14
ATOM     14  C   UNL A   1      31.277  23.622  26.600  1.00  0.00     0.259 C 
ATOM     15  C   UNL A   1      29.913  23.011  26.906  1.00  0.00     0.071 C 
ENDBRANCH  12  14
BRANCH  12  16
ATOM     16  C   UNL A   1      32.936  22.131  25.486  1.00  0.00     0.319 C 
BRANCH  16  17
ATOM     17  C   UNL A   1      34.417  22.490  25.494  1.00  0.00     0.095 A 
ATOM     18  C   UNL A   1      34.893  23.787  25.656  1.00  0.00     0.030 A 
ATOM     19  N   UNL A   1      35.269  21.463  25.233  1.00  0.00    -0.252 NA
ATOM     20  C   UNL A   1      36.263  24.028  25.615  1.00  0.00     0.004 A 
ATOM     21  C   UNL A   1      36.601  21.707  25.191  1.00  0.00     0.038 A 
ATOM     22  C   UNL A   1      37.133  22.975  25.375  1.00  0.00     0.023 A 
ATOM     23  C   UNL A   1      37.492  20.547  24.862  1.00  0.00     0.067 C 
ENDBRANCH  16  17
ENDBRANCH  12  16
ENDBRANCH  11  12
ENDBRANCH   7  11
ENDBRANCH   3   6
ENDBRANCH   1   2
BRANCH   1  24
ATOM     24  C   UNL A   1      33.863  27.936  26.000  1.00  0.00     0.042 C 
BRANCH  24  25
ATOM     25  C   UNL A   1      33.524  28.456  27.395  1.00  0.00     0.118 C 
BRANCH  25  26
ATOM     26  N   UNL A   1      33.503  29.913  27.460  1.00  0.00    -0.352 N 
ATOM     27  C   UNL A   1      34.425  30.793  27.967  1.00  0.00     0.251 C 
ATOM     28  H   UNL A   1      32.697  30.332  27.080  1.00  0.00     0.163 HD
ATOM     29  O   UNL A   1      34.123  31.979  28.072  1.00  0.00    -0.269 OA
BRANCH  27  30
ATOM     30  C   UNL A   1      35.765  30.330  28.389  1.00  0.00     0.039 A 
ATOM     31  C   UNL A   1      35.881  29.631  29.595  1.00  0.00     0.014 A 
ATOM     32  C   UNL A   1      36.907  30.623  27.639  1.00  0.00     0.014 A 
ATOM     33  C   UNL A   1      37.135  29.188  30.024  1.00  0.00     0.010 A 
ATOM     34  C   UNL A   1      38.145  30.125  28.035  1.00  0.00     0.010 A 
ATOM     35  C   UNL A   1      38.274  29.415  29.238  1.00  0.00    -0.014 A 
BRANCH  35  36
ATOM     36  C   UNL A   1      39.608  28.925  29.661  1.00  0.00     0.031 A 
ATOM     37  C   UNL A   1      40.360  29.627  30.758  1.00  0.00     0.074 A 
ATOM     38  C   UNL A   1      40.175  27.893  29.006  1.00  0.00     0.049 A 
ATOM     39  N   UNL A   1      41.547  29.364  31.243  1.00  0.00    -0.248 NA
ATOM     40  C   UNL A   1      39.707  30.794  31.375  1.00  0.00     0.031 C 
ATOM     41  C   UNL A   1      39.579  27.185  27.870  1.00  0.00     0.029 A 
ATOM     42  N   UNL A   1      41.386  27.275  29.185  1.00  0.00    -0.354 N 
ATOM     43  C   UNL A   1      41.797  30.349  32.191  1.00  0.00     0.074 A 
ATOM     44  C   UNL A   1      40.653  31.234  32.193  1.00  0.00     0.031 C 
ATOM     45  C   UNL A   1      40.423  26.223  27.461  1.00  0.00     0.029 A 
ATOM     46  C   UNL A   1      41.622  26.255  28.293  1.00  0.00     0.049 A 
ATOM     47  H   UNL A   1      42.025  27.536  29.887  1.00  0.00     0.167 HD
ATOM     48  C   UNL A   1      42.865  30.484  33.013  1.00  0.00     0.034 A 
ATOM     49  C   UNL A   1      42.681  25.432  28.169  1.00  0.00     0.034 A 
ATOM     50  C   UNL A   1      43.971  29.566  33.051  1.00  0.00     0.049 A 
ATOM     51  C   UNL A   1      43.820  25.555  29.145  1.00  0.00     0.074 A 
ATOM     52  C   UNL A   1      45.062  29.566  33.903  1.00  0.00     0.029 A 
ATOM     53  N   UNL A   1      44.123  28.479  32.205  1.00  0.00    -0.354 N 
ATOM     54  N   UNL A   1      43.963  26.395  30.142  1.00  0.00    -0.248 NA
ATOM     55  C   UNL A   1      44.921  24.593  29.006  1.00  0.00     0.031 C 
ATOM     56  C   UNL A   1      45.873  28.473  33.573  1.00  0.00     0.029 A 
ATOM     57  C   UNL A   1      45.285  27.795  32.517  1.00  0.00     0.049 A 
ATOM     58  H   UNL A   1      43.497  28.229  31.488  1.00  0.00     0.167 HD
ATOM     59  C   UNL A   1      45.151  26.039  30.771  1.00  0.00     0.074 A 
ATOM     60  C   UNL A   1      45.678  24.897  30.053  1.00  0.00     0.031 C 
ATOM     61  C   UNL A   1      45.759  26.618  31.834  1.00  0.00     0.034 A 
BRANCH  48  62
ATOM     62  C   UNL A   1      42.848  31.625  33.994  1.00  0.00     0.023 A 
ATOM     63  C   UNL A   1      43.401  32.864  33.613  1.00  0.00     0.012 A 
ATOM     64  C   UNL A   1      42.251  31.495  35.262  1.00  0.00     0.148 A 
ATOM     65  C   UNL A   1      43.390  33.949  34.488  1.00  0.00     0.002 A 
ATOM     66  C   UNL A   1      42.211  32.593  36.118  1.00  0.00     0.091 A 
ATOM     67  F   UNL A   1      41.754  30.303  35.620  1.00  0.00    -0.205 F 
ATOM     68  C   UNL A   1      42.787  33.816  35.737  1.00  0.00     0.022 A 
BRANCH  66  69
ATOM     69  S   UNL A   1      41.393  32.533  37.716  1.00  0.00     0.127 S 
ATOM     70  O   UNL A   1      41.475  33.929  38.144  1.00  0.00    -0.237 OA
ATOM     71  O   UNL A   1      40.046  32.083  37.363  1.00  0.00    -0.237 OA
ATOM     72  O   UNL A   1      42.154  31.581  38.513  1.00  0.00    -0.744 OA
ENDBRANCH  66  69
ENDBRANCH  48  62
BRANCH  49  73
ATOM     73  C   UNL A   1      42.657  24.346  27.149  1.00  0.00     0.023 A 
ATOM     74  C   UNL A   1      43.305  24.556  25.917  1.00  0.00     0.012 A 
ATOM     75  C   UNL A   1      42.049  23.102  27.404  1.00  0.00     0.148 A 
ATOM     76  C   UNL A   1      43.327  23.555  24.945  1.00  0.00     0.002 A 
ATOM     77  C   UNL A   1      42.117  22.092  26.450  1.00  0.00     0.091 A 
ATOM     78  F   UNL A   1      41.423  22.927  28.577  1.00  0.00    -0.205 F 
ATOM     79  C   UNL A   1      42.744  22.320  25.216  1.00  0.00     0.022 A 
BRANCH  77  80
ATOM     80  S   UNL A   1      41.503  20.434  26.772  1.00  0.00     0.127 S 
ATOM     81  O   UNL A   1      40.103  20.690  27.096  1.00  0.00    -0.237 OA
ATOM     82  O   UNL A   1      41.726  19.768  25.488  1.00  0.00    -0.237 OA
ATOM     83  O   UNL A   1      42.329  19.923  27.858  1.00  0.00    -0.744 OA
ENDBRANCH  77  80
ENDBRANCH  49  73
BRANCH  61  84
ATOM     84  C   UNL A   1      47.052  26.014  32.311  1.00  0.00     0.023 A 
ATOM     85  C   UNL A   1      48.270  26.470  31.770  1.00  0.00     0.012 A 
ATOM     86  C   UNL A   1      47.067  25.060  33.346  1.00  0.00     0.148 A 
ATOM     87  C   UNL A   1      49.484  25.965  32.235  1.00  0.00     0.002 A 
ATOM     88  C   UNL A   1      48.283  24.591  33.832  1.00  0.00     0.091 A 
ATOM     89  F   UNL A   1      45.897  24.621  33.833  1.00  0.00    -0.205 F 
ATOM     90  C   UNL A   1      49.491  25.036  33.273  1.00  0.00     0.022 A 
BRANCH  88  91
ATOM     91  S   UNL A   1      48.375  23.460  35.225  1.00  0.00     0.127 S 
ATOM     92  O   UNL A   1      47.844  24.280  36.313  1.00  0.00    -0.237 OA
ATOM     93  O   UNL A   1      47.501  22.365  34.804  1.00  0.00    -0.237 OA
ATOM     94  O   UNL A   1      49.781  23.092  35.338  1.00  0.00    -0.744 OA
ENDBRANCH  88  91
ENDBRANCH  61  84
ENDBRANCH  35  36
ENDBRANCH  27  30
ENDBRANCH  25  26
ENDBRANCH  24  25
ENDBRANCH   1  24
TORSDOF 18
ENDMDL
MODEL 2
REMARK VINA RESULT:     -10.5      3.415      8.612
REMARK SMILES CC[N@@H+](Cc1cccc(C)n1)Cc1csc(C(=O)NCCCNC(=O)c2ccc(-c3c4nc(c(-c5cccc(S(=O)(=O)[O-])c5F)c5ccc([nH]5)c(-c5cccc(S(=O)(=O)[O-])c5F)c5nc(c(-c6cccc(S(=O)(=O)[O-])c6F)c6ccc3[nH]6)C=C5)C=C4)cc2)n1
REMARK SMILES IDX 20 1 19 2 17 3 18 4 16 6 13 7 14 8 89 9 15 10 12 11 3 12
REMARK SMILES IDX 2 14 1 15 4 16 5 17 6 18 11 19 7 20 9 21 8 22 10 23 21 24
REMARK SMILES IDX 22 25 23 26 24 27 25 29 26 30 27 31 88 32 28 33 87 34 29 35
REMARK SMILES IDX 30 36 31 37 81 38 32 39 86 40 80 41 82 42 33 43 85 44 79 45
REMARK SMILES IDX 78 46 34 48 66 49 46 50 65 51 47 52 50 53 64 54 83 55 48 56
REMARK SMILES IDX 49 57 63 59 84 60 51 61 35 62 36 63 44 64 37 65 39 66 45 67
REMARK SMILES IDX 38 68 40 69 41 70 42 71 43 72 67 73 68 74 76 75 69 76 71 77
REMARK SMILES IDX 77 78 70 79 72 80 73 81 74 82 75 83 52 84 53 85 61 86 54 87
REMARK SMILES IDX 56 88 62 89 55 90 57 91 58 92 59 93 60 94
REMARK H PARENT 19 5 3 13 23 28 82 47 50 58
REMARK Flexibility Score: inf
ROOT
ATOM      1  C   UNL A   1      31.554  30.604  25.824  1.00  0.00     0.118 C 
ENDROOT
BRANCH   1   2
ATOM      2  N   UNL A   1      30.781  30.386  24.612  1.00  0.00    -0.350 N 
ATOM      3  C   UNL A   1      30.635  29.216  23.882  1.00  0.00     0.280 C 
ATOM      4  O   UNL A   1      29.741  29.196  23.039  1.00  0.00    -0.267 OA
ATOM      5  H   UNL A   1      30.298  31.171  24.265  1.00  0.00     0.163 HD
BRANCH   3   6
ATOM      6  C   UNL A   1      31.500  28.080  24.188  1.00  0.00     0.181 A 
ATOM      7  C   UNL A   1      32.169  26.132  25.023  1.00  0.00     0.106 A 
ATOM      8  C   UNL A   1      33.230  26.397  24.175  1.00  0.00     0.097 A 
ATOM      9  N   UNL A   1      31.177  27.102  25.007  1.00  0.00    -0.230 NA
ATOM     10  S   UNL A   1      33.029  27.928  23.427  1.00  0.00    -0.117 S 
BRANCH   7  11
ATOM     11  C   UNL A   1      31.947  24.923  25.880  1.00  0.00     0.320 C 
BRANCH  11  12
ATOM     12  N   UNL A   1      31.266  23.831  25.204  1.00  0.00    -0.325 N 
ATOM     13  H   UNL A   1      30.367  24.256  25.433  1.00  0.00     0.348 HD
BRANCH  12  14
ATOM     14  C   UNL A   1      30.906  23.875  23.802  1.00  0.00     0.259 C 
ATOM     15  C   UNL A   1      31.927  23.308  22.820  1.00  0.00     0.071 C 
ENDBRANCH  12  14
BRANCH  12  16
ATOM     16  C   UNL A   1      31.301  22.514  25.853  1.00  0.00     0.319 C 
BRANCH  16  17
ATOM     17  C   UNL A   1      32.413  21.526  25.526  1.00  0.00     0.095 A 
ATOM     18  C   UNL A   1      33.767  21.829  25.628  1.00  0.00     0.030 A 
ATOM     19  N   UNL A   1      32.004  20.330  25.025  1.00  0.00    -0.252 NA
ATOM     20  C   UNL A   1      34.716  20.875  25.275  1.00  0.00     0.004 A 
ATOM     21  C   UNL A   1      32.934  19.407  24.680  1.00  0.00     0.038 A 
ATOM     22  C   UNL A   1      34.297  19.645  24.789  1.00  0.00     0.023 A 
ATOM     23  C   UNL A   1      32.430  18.121  24.098  1.00  0.00     0.067 C 
ENDBRANCH  16  17
ENDBRANCH  12  16
ENDBRANCH  11  12
ENDBRANCH   7  11
ENDBRANCH   3   6
ENDBRANCH   1   2
BRANCH   1  24
ATOM     24  C   UNL A   1      31.364  31.999  26.404  1.00  0.00     0.042 C 
BRANCH  24  25
ATOM     25  C   UNL A   1      32.488  32.441  27.338  1.00  0.00     0.118 C 
BRANCH  25  26
ATOM     26  N   UNL A   1      32.432  33.863  27.651  1.00  0.00    -0.352 N 
ATOM     27  C   UNL A   1      33.151  34.603  28.555  1.00  0.00     0.251 C 
ATOM     28  H   UNL A   1      31.772  34.376  27.129  1.00  0.00     0.163 HD
ATOM     29  O   UNL A   1      32.818  35.766  28.774  1.00  0.00    -0.269 OA
BRANCH  27  30
ATOM     30  C   UNL A   1      34.309  34.018  29.266  1.00  0.00     0.039 A 
ATOM     31  C   UNL A   1      34.067  33.119  30.310  1.00  0.00     0.014 A 
ATOM     32  C   UNL A   1      35.619  34.386  28.951  1.00  0.00     0.014 A 
ATOM     33  C   UNL A   1      35.140  32.557  31.006  1.00  0.00     0.010 A 
ATOM     34  C   UNL A   1      36.688  33.777  29.601  1.00  0.00     0.010 A 
ATOM     35  C   UNL A   1      36.459  32.866  30.644  1.00  0.00    -0.014 A 
BRANCH  35  36
ATOM     36  C   UNL A   1      37.612  32.255  31.350  1.00  0.00     0.031 A 
ATOM     37  C   UNL A   1      38.372  31.121  30.719  1.00  0.00     0.074 A 
ATOM     38  C   UNL A   1      37.926  32.673  32.592  1.00  0.00     0.049 A 
ATOM     39  N   UNL A   1      39.384  30.442  31.195  1.00  0.00    -0.248 NA
ATOM     40  C   UNL A   1      37.920  30.670  29.392  1.00  0.00     0.031 C 
ATOM     41  C   UNL A   1      37.210  33.708  33.341  1.00  0.00     0.029 A 
ATOM     42  N   UNL A   1      38.914  32.264  33.451  1.00  0.00    -0.354 N 
ATOM     43  C   UNL A   1      39.667  29.466  30.247  1.00  0.00     0.074 A 
ATOM     44  C   UNL A   1      38.700  29.619  29.182  1.00  0.00     0.031 C 
ATOM     45  C   UNL A   1      37.789  33.858  34.544  1.00  0.00     0.029 A 
ATOM     46  C   UNL A   1      38.905  32.924  34.656  1.00  0.00     0.049 A 
ATOM     47  H   UNL A   1      39.569  31.564  33.224  1.00  0.00     0.167 HD
ATOM     48  C   UNL A   1      40.664  28.549  30.244  1.00  0.00     0.034 A 
ATOM     49  C   UNL A   1      39.712  32.798  35.727  1.00  0.00     0.034 A 
ATOM     50  C   UNL A   1      41.660  28.443  31.275  1.00  0.00     0.049 A 
ATOM     51  C   UNL A   1      40.859  31.825  35.666  1.00  0.00     0.074 A 
ATOM     52  C   UNL A   1      42.760  27.604  31.327  1.00  0.00     0.029 A 
ATOM     53  N   UNL A   1      41.683  29.204  32.432  1.00  0.00    -0.354 N 
ATOM     54  N   UNL A   1      41.206  31.022  34.690  1.00  0.00    -0.248 NA
ATOM     55  C   UNL A   1      41.748  31.771  36.835  1.00  0.00     0.031 C 
ATOM     56  C   UNL A   1      43.451  27.863  32.517  1.00  0.00     0.029 A 
ATOM     57  C   UNL A   1      42.781  28.863  33.203  1.00  0.00     0.049 A 
ATOM     58  H   UNL A   1      41.017  29.888  32.672  1.00  0.00     0.167 HD
ATOM     59  C   UNL A   1      42.373  30.394  35.111  1.00  0.00     0.074 A 
ATOM     60  C   UNL A   1      42.683  30.924  36.423  1.00  0.00     0.031 C 
ATOM     61  C   UNL A   1      43.110  29.450  34.476  1.00  0.00     0.034 A 
BRANCH  48  62
ATOM     62  C   UNL A   1      40.771  27.642  29.048  1.00  0.00     0.023 A 
ATOM     63  C   UNL A   1      39.922  26.519  28.962  1.00  0.00     0.012 A 
ATOM     64  C   UNL A   1      41.663  27.916  27.995  1.00  0.00     0.148 A 
ATOM     65  C   UNL A   1      39.981  25.664  27.863  1.00  0.00     0.002 A 
ATOM     66  C   UNL A   1      41.692  27.078  26.883  1.00  0.00     0.091 A 
ATOM     67  F   UNL A   1      42.483  28.971  28.105  1.00  0.00    -0.205 F 
ATOM     68  C   UNL A   1      40.859  25.949  26.820  1.00  0.00     0.022 A 
BRANCH  66  69
ATOM     69  S   UNL A   1      42.740  27.406  25.462  1.00  0.00     0.127 S 
ATOM     70  O   UNL A   1      42.045  28.530  24.835  1.00  0.00    -0.237 OA
ATOM     71  O   UNL A   1      44.017  27.753  26.087  1.00  0.00    -0.237 OA
ATOM     72  O   UNL A   1      42.762  26.169  24.694  1.00  0.00    -0.744 OA
ENDBRANCH  66  69
ENDBRANCH  48  62
BRANCH  49  73
ATOM     73  C   UNL A   1      39.531  33.698  36.900  1.00  0.00     0.023 A 
ATOM     74  C   UNL A   1      39.926  35.046  36.792  1.00  0.00     0.012 A 
ATOM     75  C   UNL A   1      38.930  33.252  38.092  1.00  0.00     0.148 A 
ATOM     76  C   UNL A   1      39.750  35.928  37.858  1.00  0.00     0.002 A 
ATOM     77  C   UNL A   1      38.713  34.147  39.134  1.00  0.00     0.091 A 
ATOM     78  F   UNL A   1      38.575  31.962  38.183  1.00  0.00    -0.205 F 
ATOM     79  C   UNL A   1      39.134  35.482  39.024  1.00  0.00     0.022 A 
BRANCH  77  80
ATOM     80  S   UNL A   1      37.811  33.683  40.618  1.00  0.00     0.127 S 
ATOM     81  O   UNL A   1      36.544  33.214  40.065  1.00  0.00    -0.237 OA
ATOM     82  O   UNL A   1      38.663  32.635  41.181  1.00  0.00    -0.237 OA
ATOM     83  O   UNL A   1      37.750  34.895  41.424  1.00  0.00    -0.744 OA
ENDBRANCH  77  80
ENDBRANCH  49  73
BRANCH  61  84
ATOM     84  C   UNL A   1      44.344  28.944  35.174  1.00  0.00     0.023 A 
ATOM     85  C   UNL A   1      45.594  29.517  34.872  1.00  0.00     0.012 A 
ATOM     86  C   UNL A   1      44.255  27.963  36.181  1.00  0.00     0.148 A 
ATOM     87  C   UNL A   1      46.743  29.104  35.545  1.00  0.00     0.002 A 
ATOM     88  C   UNL A   1      45.399  27.585  36.874  1.00  0.00     0.091 A 
ATOM     89  F   UNL A   1      43.060  27.412  36.438  1.00  0.00    -0.205 F 
ATOM     90  C   UNL A   1      46.644  28.148  36.553  1.00  0.00     0.022 A 
BRANCH  88  91
ATOM     91  S   UNL A   1      45.336  26.424  38.245  1.00  0.00     0.127 S 
ATOM     92  O   UNL A   1      46.752  26.120  38.445  1.00  0.00    -0.237 OA
ATOM     93  O   UNL A   1      44.727  27.222  39.310  1.00  0.00    -0.237 OA
ATOM     94  O   UNL A   1      44.510  25.317  37.782  1.00  0.00    -0.744 OA
ENDBRANCH  88  91
ENDBRANCH  61  84
ENDBRANCH  35  36
ENDBRANCH  27  30
ENDBRANCH  25  26
ENDBRANCH  24  25
ENDBRANCH   1  24
TORSDOF 18
ENDMDL
MODEL 3
REMARK VINA RESULT:     -10.2      2.010      2.594
REMARK SMILES CC[N@@H+](Cc1cccc(C)n1)Cc1csc(C(=O)NCCCNC(=O)c2ccc(-c3c4nc(c(-c5cccc(S(=O)(=O)[O-])c5F)c5ccc([nH]5)c(-c5cccc(S(=O)(=O)[O-])c5F)c5nc(c(-c6cccc(S(=O)(=O)[O-])c6F)c6ccc3[nH]6)C=C5)C=C4)cc2)n1
REMARK SMILES IDX 20 1 19 2 17 3 18 4 16 6 13 7 14 8 89 9 15 10 12 11 3 12
REMARK SMILES IDX 2 14 1 15 4 16 5 17 6 18 11 19 7 20 9 21 8 22 10 23 21 24
REMARK SMILES IDX 22 25 23 26 24 27 25 29 26 30 27 31 88 32 28 33 87 34 29 35
REMARK SMILES IDX 30 36 31 37 81 38 32 39 86 40 80 41 82 42 33 43 85 44 79 45
REMARK SMILES IDX 78 46 34 48 66 49 46 50 65 51 47 52 50 53 64 54 83 55 48 56
REMARK SMILES IDX 49 57 63 59 84 60 51 61 35 62 36 63 44 64 37 65 39 66 45 67
REMARK SMILES IDX 38 68 40 69 41 70 42 71 43 72 67 73 68 74 76 75 69 76 71 77
REMARK SMILES IDX 77 78 70 79 72 80 73 81 74 82 75 83 52 84 53 85 61 86 54 87
REMARK SMILES IDX 56 88 62 89 55 90 57 91 58 92 59 93 60 94
REMARK H PARENT 19 5 3 13 23 28 82 47 50 58
REMARK Flexibility Score: inf
ROOT
ATOM      1  C   UNL A   1      31.401  29.580  24.732  1.00  0.00     0.118 C 
ENDROOT
BRANCH   1   2
ATOM      2  N   UNL A   1      30.844  29.745  23.400  1.00  0.00    -0.350 N 
ATOM      3  C   UNL A   1      30.208  28.800  22.609  1.00  0.00     0.280 C 
ATOM      4  O   UNL A   1      29.598  29.217  21.628  1.00  0.00    -0.267 OA
ATOM      5  H   UNL A   1      30.928  30.645  23.009  1.00  0.00     0.163 HD
BRANCH   3   6
ATOM      6  C   UNL A   1      30.256  27.396  23.010  1.00  0.00     0.181 A 
ATOM      7  C   UNL A   1      31.056  25.352  23.361  1.00  0.00     0.106 A 
ATOM      8  C   UNL A   1      29.856  25.251  24.041  1.00  0.00     0.097 A 
ATOM      9  N   UNL A   1      31.277  26.596  22.787  1.00  0.00    -0.230 NA
ATOM     10  S   UNL A   1      28.949  26.698  23.872  1.00  0.00    -0.117 S 
BRANCH   7  11
ATOM     11  C   UNL A   1      32.139  24.324  23.234  1.00  0.00     0.320 C 
BRANCH  11  12
ATOM     12  N   UNL A   1      33.004  24.223  24.397  1.00  0.00    -0.325 N 
ATOM     13  H   UNL A   1      32.447  24.937  24.868  1.00  0.00     0.348 HD
BRANCH  12  14
ATOM     14  C   UNL A   1      32.740  23.321  25.499  1.00  0.00     0.259 C 
ATOM     15  C   UNL A   1      32.027  23.917  26.709  1.00  0.00     0.071 C 
ENDBRANCH  12  14
BRANCH  12  16
ATOM     16  C   UNL A   1      34.368  24.753  24.268  1.00  0.00     0.319 C 
BRANCH  16  17
ATOM     17  C   UNL A   1      35.569  23.851  24.519  1.00  0.00     0.095 A 
ATOM     18  C   UNL A   1      35.729  22.600  23.932  1.00  0.00     0.030 A 
ATOM     19  N   UNL A   1      36.456  24.303  25.445  1.00  0.00    -0.252 NA
ATOM     20  C   UNL A   1      36.843  21.828  24.246  1.00  0.00     0.004 A 
ATOM     21  C   UNL A   1      37.536  23.543  25.749  1.00  0.00     0.038 A 
ATOM     22  C   UNL A   1      37.761  22.302  25.171  1.00  0.00     0.023 A 
ATOM     23  C   UNL A   1      38.462  24.072  26.804  1.00  0.00     0.067 C 
ENDBRANCH  16  17
ENDBRANCH  12  16
ENDBRANCH  11  12
ENDBRANCH   7  11
ENDBRANCH   3   6
ENDBRANCH   1   2
BRANCH   1  24
ATOM     24  C   UNL A   1      32.862  29.148  24.713  1.00  0.00     0.042 C 
BRANCH  24  25
ATOM     25  C   UNL A   1      33.614  29.445  26.008  1.00  0.00     0.118 C 
BRANCH  25  26
ATOM     26  N   UNL A   1      33.383  30.801  26.493  1.00  0.00    -0.352 N 
ATOM     27  C   UNL A   1      34.011  31.508  27.486  1.00  0.00     0.251 C 
ATOM     28  H   UNL A   1      32.661  31.287  26.033  1.00  0.00     0.163 HD
ATOM     29  O   UNL A   1      33.538  32.584  27.844  1.00  0.00    -0.269 OA
BRANCH  27  30
ATOM     30  C   UNL A   1      35.238  30.989  28.129  1.00  0.00     0.039 A 
ATOM     31  C   UNL A   1      36.419  31.730  28.013  1.00  0.00     0.014 A 
ATOM     32  C   UNL A   1      35.248  29.761  28.795  1.00  0.00     0.014 A 
ATOM     33  C   UNL A   1      37.595  31.261  28.602  1.00  0.00     0.010 A 
ATOM     34  C   UNL A   1      36.404  29.326  29.436  1.00  0.00     0.010 A 
ATOM     35  C   UNL A   1      37.592  30.065  29.335  1.00  0.00    -0.014 A 
BRANCH  35  36
ATOM     36  C   UNL A   1      38.824  29.567  29.995  1.00  0.00     0.031 A 
ATOM     37  C   UNL A   1      39.226  30.092  31.346  1.00  0.00     0.074 A 
ATOM     38  C   UNL A   1      39.620  28.697  29.343  1.00  0.00     0.049 A 
ATOM     39  N   UNL A   1      40.279  29.798  32.064  1.00  0.00    -0.248 NA
ATOM     40  C   UNL A   1      38.343  31.097  31.962  1.00  0.00     0.031 C 
ATOM     41  C   UNL A   1      39.379  28.180  27.994  1.00  0.00     0.029 A 
ATOM     42  N   UNL A   1      40.802  28.111  29.718  1.00  0.00    -0.354 N 
ATOM     43  C   UNL A   1      40.207  30.605  33.193  1.00  0.00     0.074 A 
ATOM     44  C   UNL A   1      39.022  31.423  33.052  1.00  0.00     0.031 C 
ATOM     45  C   UNL A   1      40.378  27.347  27.658  1.00  0.00     0.029 A 
ATOM     46  C   UNL A   1      41.335  27.281  28.759  1.00  0.00     0.049 A 
ATOM     47  H   UNL A   1      41.229  28.269  30.591  1.00  0.00     0.167 HD
ATOM     48  C   UNL A   1      41.030  30.637  34.268  1.00  0.00     0.034 A 
ATOM     49  C   UNL A   1      42.461  26.542  28.772  1.00  0.00     0.034 A 
ATOM     50  C   UNL A   1      42.171  29.777  34.432  1.00  0.00     0.049 A 
ATOM     51  C   UNL A   1      43.316  26.537  30.010  1.00  0.00     0.074 A 
ATOM     52  C   UNL A   1      43.021  29.672  35.519  1.00  0.00     0.029 A 
ATOM     53  N   UNL A   1      42.617  28.870  33.485  1.00  0.00    -0.354 N 
ATOM     54  N   UNL A   1      43.142  27.188  31.135  1.00  0.00    -0.248 NA
ATOM     55  C   UNL A   1      44.500  25.666  29.997  1.00  0.00     0.031 C 
ATOM     56  C   UNL A   1      43.980  28.694  35.229  1.00  0.00     0.029 A 
ATOM     57  C   UNL A   1      43.726  28.193  33.963  1.00  0.00     0.049 A 
ATOM     58  H   UNL A   1      42.206  28.726  32.602  1.00  0.00     0.167 HD
ATOM     59  C   UNL A   1      44.170  26.778  31.975  1.00  0.00     0.074 A 
ATOM     60  C   UNL A   1      44.953  25.809  31.236  1.00  0.00     0.031 C 
ATOM     61  C   UNL A   1      44.452  27.182  33.238  1.00  0.00     0.034 A 
BRANCH  48  62
ATOM     62  C   UNL A   1      40.677  31.580  35.387  1.00  0.00     0.023 A 
ATOM     63  C   UNL A   1      41.494  32.705  35.617  1.00  0.00     0.012 A 
ATOM     64  C   UNL A   1      39.526  31.388  36.175  1.00  0.00     0.148 A 
ATOM     65  C   UNL A   1      41.191  33.609  36.634  1.00  0.00     0.002 A 
ATOM     66  C   UNL A   1      39.210  32.314  37.165  1.00  0.00     0.091 A 
ATOM     67  F   UNL A   1      38.776  30.298  35.961  1.00  0.00    -0.205 F 
ATOM     68  C   UNL A   1      40.044  33.418  37.401  1.00  0.00     0.022 A 
BRANCH  66  69
ATOM     69  S   UNL A   1      37.716  32.186  38.154  1.00  0.00     0.127 S 
ATOM     70  O   UNL A   1      37.411  30.760  38.048  1.00  0.00    -0.237 OA
ATOM     71  O   UNL A   1      38.176  32.613  39.476  1.00  0.00    -0.237 OA
ATOM     72  O   UNL A   1      36.754  33.086  37.533  1.00  0.00    -0.744 OA
ENDBRANCH  66  69
ENDBRANCH  48  62
BRANCH  49  73
ATOM     73  C   UNL A   1      42.778  25.659  27.615  1.00  0.00     0.023 A 
ATOM     74  C   UNL A   1      43.597  26.156  26.584  1.00  0.00     0.012 A 
ATOM     75  C   UNL A   1      42.324  24.328  27.551  1.00  0.00     0.148 A 
ATOM     76  C   UNL A   1      43.939  25.353  25.495  1.00  0.00     0.002 A 
ATOM     77  C   UNL A   1      42.708  23.517  26.488  1.00  0.00     0.091 A 
ATOM     78  F   UNL A   1      41.532  23.877  28.535  1.00  0.00    -0.205 F 
ATOM     79  C   UNL A   1      43.504  24.032  25.453  1.00  0.00     0.022 A 
BRANCH  77  80
ATOM     80  S   UNL A   1      42.297  21.769  26.425  1.00  0.00     0.127 S 
ATOM     81  O   UNL A   1      43.398  21.230  25.632  1.00  0.00    -0.237 OA
ATOM     82  O   UNL A   1      42.318  21.396  27.840  1.00  0.00    -0.237 OA
ATOM     83  O   UNL A   1      40.976  21.707  25.814  1.00  0.00    -0.744 OA
ENDBRANCH  77  80
ENDBRANCH  49  73
BRANCH  61  84
ATOM     84  C   UNL A   1      45.641  26.560  33.920  1.00  0.00     0.023 A 
ATOM     85  C   UNL A   1      45.456  25.423  34.731  1.00  0.00     0.012 A 
ATOM     86  C   UNL A   1      46.942  27.048  33.694  1.00  0.00     0.148 A 
ATOM     87  C   UNL A   1      46.549  24.796  35.328  1.00  0.00     0.002 A 
ATOM     88  C   UNL A   1      48.029  26.394  34.261  1.00  0.00     0.091 A 
ATOM     89  F   UNL A   1      47.095  28.146  32.938  1.00  0.00    -0.205 F 
ATOM     90  C   UNL A   1      47.835  25.273  35.084  1.00  0.00     0.022 A 
BRANCH  88  91
ATOM     91  S   UNL A   1      49.721  26.896  33.922  1.00  0.00     0.127 S 
ATOM     92  O   UNL A   1      49.784  26.775  32.467  1.00  0.00    -0.237 OA
ATOM     93  O   UNL A   1      49.751  28.272  34.422  1.00  0.00    -0.237 OA
ATOM     94  O   UNL A   1      50.562  25.971  34.672  1.00  0.00    -0.744 OA
ENDBRANCH  88  91
ENDBRANCH  61  84
ENDBRANCH  35  36
ENDBRANCH  27  30
ENDBRANCH  25  26
ENDBRANCH  24  25
ENDBRANCH   1  24
TORSDOF 18
ENDMDL
