MODEL 1
REMARK VINA RESULT:     -13.1      0.000      0.000
REMARK SMILES COc1ccc([C@H](NC(=O)[C@H]2CC(C)=C(C)C[C@@H]2C(=O)NCCCNC(=O)c2ccc(-c3c4nc(c(-c5cccc(S(=O)(=O)[O-])c5F)c5ccc([nH]5)c(-c5cccc(S(=O)(=O)[O-])c5F)c5nc(c(-c6cccc(S(=O)(=O)[O-])c6F)c6ccc3[nH]6)C=C5)C=C4)cc2)c2ccccc2)cc1
REMARK SMILES IDX 22 1 21 2 19 3 20 4 18 6 11 7 12 8 13 9 17 10 14 11 15 12
REMARK SMILES IDX 16 13 9 14 8 15 10 17 7 18 6 19 3 20 4 21 98 22 5 23 97 24
REMARK SMILES IDX 2 25 1 26 91 27 92 28 96 29 93 30 95 31 94 32 23 33 24 34
REMARK SMILES IDX 25 35 26 36 27 38 28 39 29 40 90 41 30 42 89 43 31 44 32 45
REMARK SMILES IDX 33 46 83 47 34 48 88 49 82 50 84 51 35 52 87 53 81 54 80 55
REMARK SMILES IDX 36 57 68 58 48 59 67 60 49 61 52 62 66 63 85 64 50 65 51 66
REMARK SMILES IDX 65 68 86 69 53 70 37 71 38 72 46 73 39 74 41 75 47 76 40 77
REMARK SMILES IDX 42 78 43 79 44 80 45 81 69 82 70 83 78 84 71 85 73 86 79 87
REMARK SMILES IDX 72 88 74 89 75 90 76 91 77 92 54 93 55 94 63 95 56 96 58 97
REMARK SMILES IDX 64 98 57 99 59 100 60 101 61 102 62 103
REMARK H PARENT 21 5 8 16 25 37 84 56 52 67
REMARK Flexibility Score: inf
ROOT
ATOM      1  C   UNL A   1      35.311  22.056  23.901  1.00  0.00     0.117 C 
ENDROOT
BRANCH   1   2
ATOM      2  N   UNL A   1      34.821  23.132  23.065  1.00  0.00    -0.356 N 
ATOM      3  C   UNL A   1      33.792  24.005  23.177  1.00  0.00     0.224 C 
ATOM      4  O   UNL A   1      33.947  25.053  22.532  1.00  0.00    -0.275 OA
ATOM      5  H   UNL A   1      35.346  23.256  22.242  1.00  0.00     0.163 HD
BRANCH   3   6
ATOM      6  C   UNL A   1      32.441  23.705  23.848  1.00  0.00     0.095 C 
ATOM      7  C   UNL A   1      32.399  24.399  25.234  1.00  0.00     0.095 C 
ATOM      8  C   UNL A   1      33.022  23.500  26.333  1.00  0.00     0.045 C 
ATOM      9  C   UNL A   1      33.053  21.996  26.097  1.00  0.00    -0.074 C 
ATOM     10  C   UNL A   1      31.897  22.284  23.931  1.00  0.00     0.045 C 
ATOM     11  C   UNL A   1      33.653  21.205  27.232  1.00  0.00     0.039 C 
ATOM     12  C   UNL A   1      32.555  21.432  24.978  1.00  0.00    -0.074 C 
ATOM     13  C   UNL A   1      32.551  19.949  24.716  1.00  0.00     0.039 C 
BRANCH   7  14
ATOM     14  C   UNL A   1      30.986  24.864  25.594  1.00  0.00     0.224 C 
ATOM     15  N   UNL A   1      30.523  26.090  25.209  1.00  0.00    -0.345 N 
ATOM     16  H   UNL A   1      29.583  26.255  25.454  1.00  0.00     0.164 HD
ATOM     17  O   UNL A   1      30.212  24.149  26.235  1.00  0.00    -0.275 OA
BRANCH  15  18
ATOM     18  C   UNL A   1      31.155  27.212  24.498  1.00  0.00     0.143 C 
BRANCH  18  19
ATOM     19  C   UNL A   1      30.124  28.175  23.925  1.00  0.00    -0.021 A 
ATOM     20  C   UNL A   1      28.231  29.971  22.857  1.00  0.00     0.118 A 
ATOM     21  C   UNL A   1      29.452  30.437  23.350  1.00  0.00     0.047 A 
ATOM     22  C   UNL A   1      27.932  28.614  22.948  1.00  0.00     0.047 A 
ATOM     23  C   UNL A   1      30.394  29.551  23.875  1.00  0.00     0.010 A 
ATOM     24  C   UNL A   1      28.861  27.727  23.501  1.00  0.00     0.010 A 
BRANCH  20  25
ATOM     25  O   UNL A   1      27.423  30.930  22.310  1.00  0.00    -0.497 OA
ATOM     26  C   UNL A   1      28.030  32.188  22.033  1.00  0.00     0.278 C 
ENDBRANCH  20  25
ENDBRANCH  18  19
BRANCH  18  27
ATOM     27  C   UNL A   1      32.168  27.908  25.427  1.00  0.00    -0.021 A 
ATOM     28  C   UNL A   1      33.491  28.194  25.032  1.00  0.00     0.006 A 
ATOM     29  C   UNL A   1      31.777  28.302  26.719  1.00  0.00     0.006 A 
ATOM     30  C   UNL A   1      34.383  28.847  25.885  1.00  0.00     0.000 A 
ATOM     31  C   UNL A   1      32.672  28.961  27.572  1.00  0.00     0.000 A 
ATOM     32  C   UNL A   1      33.972  29.234  27.155  1.00  0.00     0.000 A 
ENDBRANCH  18  27
ENDBRANCH  15  18
ENDBRANCH   7  14
ENDBRANCH   3   6
ENDBRANCH   1   2
BRANCH   1  33
ATOM     33  C   UNL A   1      36.793  22.169  24.239  1.00  0.00     0.042 C 
BRANCH  33  34
ATOM     34  C   UNL A   1      37.089  22.207  25.740  1.00  0.00     0.118 C 
BRANCH  34  35
ATOM     35  N   UNL A   1      38.136  21.266  26.126  1.00  0.00    -0.352 N 
ATOM     36  C   UNL A   1      39.449  21.473  26.466  1.00  0.00     0.251 C 
ATOM     37  H   UNL A   1      37.852  20.324  26.146  1.00  0.00     0.163 HD
ATOM     38  O   UNL A   1      40.220  20.516  26.495  1.00  0.00    -0.269 OA
BRANCH  36  39
ATOM     39  C   UNL A   1      39.946  22.825  26.804  1.00  0.00     0.039 A 
ATOM     40  C   UNL A   1      40.844  22.976  27.868  1.00  0.00     0.014 A 
ATOM     41  C   UNL A   1      39.477  23.952  26.128  1.00  0.00     0.014 A 
ATOM     42  C   UNL A   1      41.307  24.249  28.216  1.00  0.00     0.010 A 
ATOM     43  C   UNL A   1      39.996  25.210  26.426  1.00  0.00     0.010 A 
ATOM     44  C   UNL A   1      40.906  25.376  27.481  1.00  0.00    -0.014 A 
BRANCH  44  45
ATOM     45  C   UNL A   1      41.413  26.737  27.797  1.00  0.00     0.031 A 
ATOM     46  C   UNL A   1      42.835  27.110  27.465  1.00  0.00     0.074 A 
ATOM     47  C   UNL A   1      40.630  27.598  28.477  1.00  0.00     0.049 A 
ATOM     48  N   UNL A   1      43.489  28.205  27.754  1.00  0.00    -0.248 NA
ATOM     49  C   UNL A   1      43.640  26.107  26.746  1.00  0.00     0.031 C 
ATOM     50  C   UNL A   1      39.261  27.328  28.925  1.00  0.00     0.029 A 
ATOM     51  N   UNL A   1      40.884  28.865  28.942  1.00  0.00    -0.354 N 
ATOM     52  C   UNL A   1      44.790  28.002  27.306  1.00  0.00     0.074 A 
ATOM     53  C   UNL A   1      44.839  26.671  26.744  1.00  0.00     0.031 C 
ATOM     54  C   UNL A   1      38.797  28.395  29.596  1.00  0.00     0.029 A 
ATOM     55  C   UNL A   1      39.841  29.414  29.653  1.00  0.00     0.049 A 
ATOM     56  H   UNL A   1      41.733  29.337  28.781  1.00  0.00     0.167 HD
ATOM     57  C   UNL A   1      45.841  28.855  27.337  1.00  0.00     0.034 A 
ATOM     58  C   UNL A   1      39.740  30.601  30.284  1.00  0.00     0.034 A 
ATOM     59  C   UNL A   1      45.765  30.206  27.822  1.00  0.00     0.049 A 
ATOM     60  C   UNL A   1      40.903  31.555  30.235  1.00  0.00     0.074 A 
ATOM     61  C   UNL A   1      46.737  31.190  27.780  1.00  0.00     0.029 A 
ATOM     62  N   UNL A   1      44.656  30.764  28.436  1.00  0.00    -0.354 N 
ATOM     63  N   UNL A   1      42.067  31.408  29.651  1.00  0.00    -0.248 NA
ATOM     64  C   UNL A   1      40.726  32.855  30.900  1.00  0.00     0.031 C 
ATOM     65  C   UNL A   1      46.220  32.340  28.383  1.00  0.00     0.029 A 
ATOM     66  C   UNL A   1      44.919  32.076  28.785  1.00  0.00     0.049 A 
ATOM     67  H   UNL A   1      43.805  30.296  28.599  1.00  0.00     0.167 HD
ATOM     68  C   UNL A   1      42.743  32.608  29.841  1.00  0.00     0.074 A 
ATOM     69  C   UNL A   1      41.851  33.479  30.578  1.00  0.00     0.031 C 
ATOM     70  C   UNL A   1      43.996  32.953  29.456  1.00  0.00     0.034 A 
BRANCH  57  71
ATOM     71  C   UNL A   1      47.157  28.382  26.776  1.00  0.00     0.023 A 
ATOM     72  C   UNL A   1      48.202  28.032  27.653  1.00  0.00     0.012 A 
ATOM     73  C   UNL A   1      47.328  28.203  25.388  1.00  0.00     0.148 A 
ATOM     74  C   UNL A   1      49.408  27.536  27.158  1.00  0.00     0.002 A 
ATOM     75  C   UNL A   1      48.517  27.668  24.906  1.00  0.00     0.091 A 
ATOM     76  F   UNL A   1      46.328  28.560  24.569  1.00  0.00    -0.205 F 
ATOM     77  C   UNL A   1      49.561  27.343  25.788  1.00  0.00     0.022 A 
BRANCH  75  78
ATOM     78  S   UNL A   1      48.782  27.307  23.166  1.00  0.00     0.127 S 
ATOM     79  O   UNL A   1      50.238  27.427  23.059  1.00  0.00    -0.237 OA
ATOM     80  O   UNL A   1      48.278  25.935  23.057  1.00  0.00    -0.237 OA
ATOM     81  O   UNL A   1      48.019  28.295  22.427  1.00  0.00    -0.744 OA
ENDBRANCH  75  78
ENDBRANCH  57  71
BRANCH  58  82
ATOM     82  C   UNL A   1      38.464  30.991  30.951  1.00  0.00     0.023 A 
ATOM     83  C   UNL A   1      38.299  30.724  32.325  1.00  0.00     0.012 A 
ATOM     84  C   UNL A   1      37.425  31.627  30.247  1.00  0.00     0.148 A 
ATOM     85  C   UNL A   1      37.109  31.047  32.976  1.00  0.00     0.002 A 
ATOM     86  C   UNL A   1      36.262  31.996  30.915  1.00  0.00     0.091 A 
ATOM     87  F   UNL A   1      37.590  31.859  28.937  1.00  0.00    -0.205 F 
ATOM     88  C   UNL A   1      36.095  31.692  32.274  1.00  0.00     0.022 A 
BRANCH  86  89
ATOM     89  S   UNL A   1      34.965  32.948  30.114  1.00  0.00     0.127 S 
ATOM     90  O   UNL A   1      34.052  33.205  31.224  1.00  0.00    -0.237 OA
ATOM     91  O   UNL A   1      35.696  34.121  29.631  1.00  0.00    -0.237 OA
ATOM     92  O   UNL A   1      34.457  32.086  29.054  1.00  0.00    -0.744 OA
ENDBRANCH  86  89
ENDBRANCH  58  82
BRANCH  70  93
ATOM     93  C   UNL A   1      44.471  34.344  29.781  1.00  0.00     0.023 A 
ATOM     94  C   UNL A   1      45.088  34.601  31.020  1.00  0.00     0.012 A 
ATOM     95  C   UNL A   1      44.378  35.374  28.824  1.00  0.00     0.148 A 
ATOM     96  C   UNL A   1      45.581  35.871  31.314  1.00  0.00     0.002 A 
ATOM     97  C   UNL A   1      44.915  36.625  29.107  1.00  0.00     0.091 A 
ATOM     98  F   UNL A   1      43.768  35.115  27.659  1.00  0.00    -0.205 F 
ATOM     99  C   UNL A   1      45.507  36.878  30.355  1.00  0.00     0.022 A 
BRANCH  97 100
ATOM    100  S   UNL A   1      44.951  37.948  27.893  1.00  0.00     0.127 S 
ATOM    101  O   UNL A   1      45.709  37.333  26.805  1.00  0.00    -0.237 OA
ATOM    102  O   UNL A   1      43.530  38.150  27.608  1.00  0.00    -0.237 OA
ATOM    103  O   UNL A   1      45.598  39.076  28.550  1.00  0.00    -0.744 OA
ENDBRANCH  97 100
ENDBRANCH  70  93
ENDBRANCH  44  45
ENDBRANCH  36  39
ENDBRANCH  34  35
ENDBRANCH  33  34
ENDBRANCH   1  33
TORSDOF 18
ENDMDL
MODEL 2
REMARK VINA RESULT:     -13.1      2.265      2.591
REMARK SMILES COc1ccc([C@H](NC(=O)[C@H]2CC(C)=C(C)C[C@@H]2C(=O)NCCCNC(=O)c2ccc(-c3c4nc(c(-c5cccc(S(=O)(=O)[O-])c5F)c5ccc([nH]5)c(-c5cccc(S(=O)(=O)[O-])c5F)c5nc(c(-c6cccc(S(=O)(=O)[O-])c6F)c6ccc3[nH]6)C=C5)C=C4)cc2)c2ccccc2)cc1
REMARK SMILES IDX 22 1 21 2 19 3 20 4 18 6 11 7 12 8 13 9 17 10 14 11 15 12
REMARK SMILES IDX 16 13 9 14 8 15 10 17 7 18 6 19 3 20 4 21 98 22 5 23 97 24
REMARK SMILES IDX 2 25 1 26 91 27 92 28 96 29 93 30 95 31 94 32 23 33 24 34
REMARK SMILES IDX 25 35 26 36 27 38 28 39 29 40 90 41 30 42 89 43 31 44 32 45
REMARK SMILES IDX 33 46 83 47 34 48 88 49 82 50 84 51 35 52 87 53 81 54 80 55
REMARK SMILES IDX 36 57 68 58 48 59 67 60 49 61 52 62 66 63 85 64 50 65 51 66
REMARK SMILES IDX 65 68 86 69 53 70 37 71 38 72 46 73 39 74 41 75 47 76 40 77
REMARK SMILES IDX 42 78 43 79 44 80 45 81 69 82 70 83 78 84 71 85 73 86 79 87
REMARK SMILES IDX 72 88 74 89 75 90 76 91 77 92 54 93 55 94 63 95 56 96 58 97
REMARK SMILES IDX 64 98 57 99 59 100 60 101 61 102 62 103
REMARK H PARENT 21 5 8 16 25 37 84 56 52 67
REMARK Flexibility Score: inf
ROOT
ATOM      1  C   UNL A   1      35.418  22.548  24.047  1.00  0.00     0.117 C 
ENDROOT
BRANCH   1   2
ATOM      2  N   UNL A   1      34.713  23.058  22.889  1.00  0.00    -0.356 N 
ATOM      3  C   UNL A   1      33.550  23.732  22.727  1.00  0.00     0.224 C 
ATOM      4  O   UNL A   1      33.492  24.393  21.679  1.00  0.00    -0.275 OA
ATOM      5  H   UNL A   1      35.177  22.875  22.040  1.00  0.00     0.163 HD
BRANCH   3   6
ATOM      6  C   UNL A   1      32.301  23.572  23.609  1.00  0.00     0.095 C 
ATOM      7  C   UNL A   1      32.450  24.468  24.866  1.00  0.00     0.095 C 
ATOM      8  C   UNL A   1      33.211  23.729  25.997  1.00  0.00     0.045 C 
ATOM      9  C   UNL A   1      33.200  22.206  25.992  1.00  0.00    -0.074 C 
ATOM     10  C   UNL A   1      31.764  22.195  23.980  1.00  0.00     0.045 C 
ATOM     11  C   UNL A   1      33.944  21.580  27.144  1.00  0.00     0.039 C 
ATOM     12  C   UNL A   1      32.552  21.493  25.048  1.00  0.00    -0.074 C 
ATOM     13  C   UNL A   1      32.503  19.988  25.019  1.00  0.00     0.039 C 
BRANCH   7  14
ATOM     14  C   UNL A   1      31.102  25.020  25.334  1.00  0.00     0.224 C 
ATOM     15  N   UNL A   1      30.703  26.286  25.012  1.00  0.00    -0.345 N 
ATOM     16  H   UNL A   1      29.796  26.508  25.326  1.00  0.00     0.164 HD
ATOM     17  O   UNL A   1      30.325  24.342  26.011  1.00  0.00    -0.275 OA
BRANCH  15  18
ATOM     18  C   UNL A   1      31.364  27.381  24.286  1.00  0.00     0.143 C 
BRANCH  18  19
ATOM     19  C   UNL A   1      30.372  28.207  23.477  1.00  0.00    -0.021 A 
ATOM     20  C   UNL A   1      28.551  29.736  21.963  1.00  0.00     0.118 A 
ATOM     21  C   UNL A   1      29.925  29.965  21.862  1.00  0.00     0.047 A 
ATOM     22  C   UNL A   1      28.083  28.782  22.862  1.00  0.00     0.047 A 
ATOM     23  C   UNL A   1      30.831  29.206  22.606  1.00  0.00     0.010 A 
ATOM     24  C   UNL A   1      28.985  28.040  23.631  1.00  0.00     0.010 A 
BRANCH  20  25
ATOM     25  O   UNL A   1      27.775  30.501  21.135  1.00  0.00    -0.497 OA
ATOM     26  C   UNL A   1      28.230  31.826  20.883  1.00  0.00     0.278 C 
ENDBRANCH  20  25
ENDBRANCH  18  19
BRANCH  18  27
ATOM     27  C   UNL A   1      32.184  28.235  25.272  1.00  0.00    -0.021 A 
ATOM     28  C   UNL A   1      33.501  27.905  25.651  1.00  0.00     0.006 A 
ATOM     29  C   UNL A   1      31.626  29.405  25.816  1.00  0.00     0.006 A 
ATOM     30  C   UNL A   1      34.232  28.708  26.529  1.00  0.00     0.000 A 
ATOM     31  C   UNL A   1      32.362  30.213  26.693  1.00  0.00     0.000 A 
ATOM     32  C   UNL A   1      33.663  29.865  27.047  1.00  0.00     0.000 A 
ENDBRANCH  18  27
ENDBRANCH  15  18
ENDBRANCH   7  14
ENDBRANCH   3   6
ENDBRANCH   1   2
BRANCH   1  33
ATOM     33  C   UNL A   1      36.499  23.490  24.568  1.00  0.00     0.042 C 
BRANCH  33  34
ATOM     34  C   UNL A   1      36.889  23.243  26.027  1.00  0.00     0.118 C 
BRANCH  34  35
ATOM     35  N   UNL A   1      38.068  22.391  26.153  1.00  0.00    -0.352 N 
ATOM     36  C   UNL A   1      39.382  22.706  26.393  1.00  0.00     0.251 C 
ATOM     37  H   UNL A   1      37.890  21.429  26.048  1.00  0.00     0.163 HD
ATOM     38  O   UNL A   1      40.249  21.858  26.191  1.00  0.00    -0.269 OA
BRANCH  36  39
ATOM     39  C   UNL A   1      39.768  24.043  26.895  1.00  0.00     0.039 A 
ATOM     40  C   UNL A   1      39.642  24.321  28.261  1.00  0.00     0.014 A 
ATOM     41  C   UNL A   1      40.181  25.047  26.018  1.00  0.00     0.014 A 
ATOM     42  C   UNL A   1      39.981  25.586  28.751  1.00  0.00     0.010 A 
ATOM     43  C   UNL A   1      40.589  26.282  26.516  1.00  0.00     0.010 A 
ATOM     44  C   UNL A   1      40.481  26.572  27.885  1.00  0.00    -0.014 A 
BRANCH  44  45
ATOM     45  C   UNL A   1      40.891  27.913  28.378  1.00  0.00     0.031 A 
ATOM     46  C   UNL A   1      42.352  28.245  28.539  1.00  0.00     0.074 A 
ATOM     47  C   UNL A   1      39.951  28.790  28.784  1.00  0.00     0.049 A 
ATOM     48  N   UNL A   1      42.904  29.315  29.049  1.00  0.00    -0.248 NA
ATOM     49  C   UNL A   1      43.323  27.226  28.101  1.00  0.00     0.031 C 
ATOM     50  C   UNL A   1      38.505  28.557  28.752  1.00  0.00     0.029 A 
ATOM     51  N   UNL A   1      40.072  30.042  29.333  1.00  0.00    -0.354 N 
ATOM     52  C   UNL A   1      44.274  29.077  29.048  1.00  0.00     0.074 A 
ATOM     53  C   UNL A   1      44.471  27.752  28.503  1.00  0.00     0.031 C 
ATOM     54  C   UNL A   1      37.874  29.630  29.258  1.00  0.00     0.029 A 
ATOM     55  C   UNL A   1      38.867  30.614  29.675  1.00  0.00     0.049 A 
ATOM     56  H   UNL A   1      40.938  30.490  29.469  1.00  0.00     0.167 HD
ATOM     57  C   UNL A   1      45.279  29.896  29.439  1.00  0.00     0.034 A 
ATOM     58  C   UNL A   1      38.595  31.796  30.265  1.00  0.00     0.034 A 
ATOM     59  C   UNL A   1      45.082  31.243  29.902  1.00  0.00     0.049 A 
ATOM     60  C   UNL A   1      39.734  32.714  30.619  1.00  0.00     0.074 A 
ATOM     61  C   UNL A   1      46.039  32.196  30.201  1.00  0.00     0.029 A 
ATOM     62  N   UNL A   1      43.848  31.828  30.131  1.00  0.00    -0.354 N 
ATOM     63  N   UNL A   1      41.021  32.537  30.446  1.00  0.00    -0.248 NA
ATOM     64  C   UNL A   1      39.382  34.011  31.218  1.00  0.00     0.031 C 
ATOM     65  C   UNL A   1      45.382  33.355  30.627  1.00  0.00     0.029 A 
ATOM     66  C   UNL A   1      44.016  33.127  30.575  1.00  0.00     0.049 A 
ATOM     67  H   UNL A   1      42.979  31.385  29.996  1.00  0.00     0.167 HD
ATOM     68  C   UNL A   1      41.628  33.714  30.873  1.00  0.00     0.074 A 
ATOM     69  C   UNL A   1      40.566  34.603  31.296  1.00  0.00     0.031 C 
ATOM     70  C   UNL A   1      42.946  34.024  30.926  1.00  0.00     0.034 A 
BRANCH  57  71
ATOM     71  C   UNL A   1      46.693  29.390  29.329  1.00  0.00     0.023 A 
ATOM     72  C   UNL A   1      47.253  28.653  30.392  1.00  0.00     0.012 A 
ATOM     73  C   UNL A   1      47.434  29.567  28.144  1.00  0.00     0.148 A 
ATOM     74  C   UNL A   1      48.539  28.124  30.289  1.00  0.00     0.002 A 
ATOM     75  C   UNL A   1      48.699  29.000  28.032  1.00  0.00     0.091 A 
ATOM     76  F   UNL A   1      46.891  30.287  27.152  1.00  0.00    -0.205 F 
ATOM     77  C   UNL A   1      49.256  28.286  29.107  1.00  0.00     0.022 A 
BRANCH  75  78
ATOM     78  S   UNL A   1      49.669  29.085  26.523  1.00  0.00     0.127 S 
ATOM     79  O   UNL A   1      50.855  28.307  26.892  1.00  0.00    -0.237 OA
ATOM     80  O   UNL A   1      48.789  28.424  25.554  1.00  0.00    -0.237 OA
ATOM     81  O   UNL A   1      49.902  30.495  26.270  1.00  0.00    -0.744 OA
ENDBRANCH  75  78
ENDBRANCH  57  71
BRANCH  58  82
ATOM     82  C   UNL A   1      37.182  32.218  30.485  1.00  0.00     0.023 A 
ATOM     83  C   UNL A   1      36.584  31.982  31.740  1.00  0.00     0.012 A 
ATOM     84  C   UNL A   1      36.432  32.854  29.478  1.00  0.00     0.148 A 
ATOM     85  C   UNL A   1      35.256  32.336  31.974  1.00  0.00     0.002 A 
ATOM     86  C   UNL A   1      35.126  33.253  29.736  1.00  0.00     0.091 A 
ATOM     87  F   UNL A   1      37.009  33.056  28.285  1.00  0.00    -0.205 F 
ATOM     88  C   UNL A   1      34.529  32.980  30.976  1.00  0.00     0.022 A 
BRANCH  86  89
ATOM     89  S   UNL A   1      34.169  34.206  28.550  1.00  0.00     0.127 S 
ATOM     90  O   UNL A   1      32.923  34.427  29.277  1.00  0.00    -0.237 OA
ATOM     91  O   UNL A   1      34.998  35.398  28.370  1.00  0.00    -0.237 OA
ATOM     92  O   UNL A   1      34.077  33.361  27.365  1.00  0.00    -0.744 OA
ENDBRANCH  86  89
ENDBRANCH  58  82
BRANCH  70  93
ATOM     93  C   UNL A   1      43.324  35.395  31.419  1.00  0.00     0.023 A 
ATOM     94  C   UNL A   1      43.601  36.420  30.493  1.00  0.00     0.012 A 
ATOM     95  C   UNL A   1      43.323  35.687  32.797  1.00  0.00     0.148 A 
ATOM     96  C   UNL A   1      43.900  37.708  30.933  1.00  0.00     0.002 A 
ATOM     97  C   UNL A   1      43.575  36.985  33.226  1.00  0.00     0.091 A 
ATOM     98  F   UNL A   1      43.077  34.693  33.663  1.00  0.00    -0.205 F 
ATOM     99  C   UNL A   1      43.874  37.993  32.296  1.00  0.00     0.022 A 
BRANCH  97 100
ATOM    100  S   UNL A   1      43.464  37.461  34.954  1.00  0.00     0.127 S 
ATOM    101  O   UNL A   1      43.778  38.888  34.890  1.00  0.00    -0.237 OA
ATOM    102  O   UNL A   1      42.068  37.158  35.272  1.00  0.00    -0.237 OA
ATOM    103  O   UNL A   1      44.435  36.635  35.659  1.00  0.00    -0.744 OA
ENDBRANCH  97 100
ENDBRANCH  70  93
ENDBRANCH  44  45
ENDBRANCH  36  39
ENDBRANCH  34  35
ENDBRANCH  33  34
ENDBRANCH   1  33
TORSDOF 18
ENDMDL
MODEL 3
REMARK VINA RESULT:     -12.7      2.066      2.389
REMARK SMILES COc1ccc([C@H](NC(=O)[C@H]2CC(C)=C(C)C[C@@H]2C(=O)NCCCNC(=O)c2ccc(-c3c4nc(c(-c5cccc(S(=O)(=O)[O-])c5F)c5ccc([nH]5)c(-c5cccc(S(=O)(=O)[O-])c5F)c5nc(c(-c6cccc(S(=O)(=O)[O-])c6F)c6ccc3[nH]6)C=C5)C=C4)cc2)c2ccccc2)cc1
REMARK SMILES IDX 22 1 21 2 19 3 20 4 18 6 11 7 12 8 13 9 17 10 14 11 15 12
REMARK SMILES IDX 16 13 9 14 8 15 10 17 7 18 6 19 3 20 4 21 98 22 5 23 97 24
REMARK SMILES IDX 2 25 1 26 91 27 92 28 96 29 93 30 95 31 94 32 23 33 24 34
REMARK SMILES IDX 25 35 26 36 27 38 28 39 29 40 90 41 30 42 89 43 31 44 32 45
REMARK SMILES IDX 33 46 83 47 34 48 88 49 82 50 84 51 35 52 87 53 81 54 80 55
REMARK SMILES IDX 36 57 68 58 48 59 67 60 49 61 52 62 66 63 85 64 50 65 51 66
REMARK SMILES IDX 65 68 86 69 53 70 37 71 38 72 46 73 39 74 41 75 47 76 40 77
REMARK SMILES IDX 42 78 43 79 44 80 45 81 69 82 70 83 78 84 71 85 73 86 79 87
REMARK SMILES IDX 72 88 74 89 75 90 76 91 77 92 54 93 55 94 63 95 56 96 58 97
REMARK SMILES IDX 64 98 57 99 59 100 60 101 61 102 62 103
REMARK H PARENT 21 5 8 16 25 37 84 56 52 67
REMARK Flexibility Score: inf
ROOT
ATOM      1  C   UNL A   1      35.540  21.959  24.575  1.00  0.00     0.117 C 
ENDROOT
BRANCH   1   2
ATOM      2  N   UNL A   1      35.128  22.807  23.475  1.00  0.00    -0.356 N 
ATOM      3  C   UNL A   1      34.056  23.609  23.268  1.00  0.00     0.224 C 
ATOM      4  O   UNL A   1      34.256  24.514  22.444  1.00  0.00    -0.275 OA
ATOM      5  H   UNL A   1      35.758  22.800  22.720  1.00  0.00     0.163 HD
BRANCH   3   6
ATOM      6  C   UNL A   1      32.639  23.355  23.807  1.00  0.00     0.095 C 
ATOM      7  C   UNL A   1      32.340  24.366  24.944  1.00  0.00     0.095 C 
ATOM      8  C   UNL A   1      32.839  23.837  26.313  1.00  0.00     0.045 C 
ATOM      9  C   UNL A   1      32.996  22.333  26.486  1.00  0.00    -0.074 C 
ATOM     10  C   UNL A   1      32.176  21.953  24.186  1.00  0.00     0.045 C 
ATOM     11  C   UNL A   1      33.460  21.915  27.858  1.00  0.00     0.039 C 
ATOM     12  C   UNL A   1      32.714  21.460  25.498  1.00  0.00    -0.074 C 
ATOM     13  C   UNL A   1      32.840  19.965  25.636  1.00  0.00     0.039 C 
BRANCH   7  14
ATOM     14  C   UNL A   1      30.863  24.765  24.976  1.00  0.00     0.224 C 
ATOM     15  N   UNL A   1      30.446  25.982  24.516  1.00  0.00    -0.345 N 
ATOM     16  H   UNL A   1      29.469  26.103  24.540  1.00  0.00     0.164 HD
ATOM     17  O   UNL A   1      29.995  24.002  25.408  1.00  0.00    -0.275 OA
BRANCH  15  18
ATOM     18  C   UNL A   1      31.174  27.147  23.991  1.00  0.00     0.143 C 
BRANCH  18  19
ATOM     19  C   UNL A   1      30.248  28.120  23.272  1.00  0.00    -0.021 A 
ATOM     20  C   UNL A   1      28.547  29.920  21.926  1.00  0.00     0.118 A 
ATOM     21  C   UNL A   1      29.934  30.025  21.799  1.00  0.00     0.047 A 
ATOM     22  C   UNL A   1      28.011  28.951  22.769  1.00  0.00     0.047 A 
ATOM     23  C   UNL A   1      30.780  29.132  22.460  1.00  0.00     0.010 A 
ATOM     24  C   UNL A   1      28.855  28.074  23.456  1.00  0.00     0.010 A 
BRANCH  20  25
ATOM     25  O   UNL A   1      27.829  30.812  21.177  1.00  0.00    -0.497 OA
ATOM     26  C   UNL A   1      28.001  32.190  21.493  1.00  0.00     0.278 C 
ENDBRANCH  20  25
ENDBRANCH  18  19
BRANCH  18  27
ATOM     27  C   UNL A   1      31.971  27.815  25.127  1.00  0.00    -0.021 A 
ATOM     28  C   UNL A   1      33.341  28.128  25.014  1.00  0.00     0.006 A 
ATOM     29  C   UNL A   1      31.326  28.155  26.329  1.00  0.00     0.006 A 
ATOM     30  C   UNL A   1      34.036  28.754  26.050  1.00  0.00     0.000 A 
ATOM     31  C   UNL A   1      32.023  28.788  27.367  1.00  0.00     0.000 A 
ATOM     32  C   UNL A   1      33.375  29.088  27.227  1.00  0.00     0.000 A 
ENDBRANCH  18  27
ENDBRANCH  15  18
ENDBRANCH   7  14
ENDBRANCH   3   6
ENDBRANCH   1   2
BRANCH   1  33
ATOM     33  C   UNL A   1      36.350  22.689  25.641  1.00  0.00     0.042 C 
BRANCH  33  34
ATOM     34  C   UNL A   1      37.791  22.995  25.228  1.00  0.00     0.118 C 
BRANCH  34  35
ATOM     35  N   UNL A   1      38.756  22.116  25.881  1.00  0.00    -0.352 N 
ATOM     36  C   UNL A   1      39.936  22.397  26.523  1.00  0.00     0.251 C 
ATOM     37  H   UNL A   1      38.521  21.161  25.856  1.00  0.00     0.163 HD
ATOM     38  O   UNL A   1      40.722  21.483  26.763  1.00  0.00    -0.269 OA
BRANCH  36  39
ATOM     39  C   UNL A   1      40.271  23.778  26.936  1.00  0.00     0.039 A 
ATOM     40  C   UNL A   1      40.687  24.016  28.251  1.00  0.00     0.014 A 
ATOM     41  C   UNL A   1      40.106  24.850  26.056  1.00  0.00     0.014 A 
ATOM     42  C   UNL A   1      40.986  25.317  28.665  1.00  0.00     0.010 A 
ATOM     43  C   UNL A   1      40.476  26.135  26.447  1.00  0.00     0.010 A 
ATOM     44  C   UNL A   1      40.907  26.386  27.759  1.00  0.00    -0.014 A 
BRANCH  44  45
ATOM     45  C   UNL A   1      41.259  27.775  28.154  1.00  0.00     0.031 A 
ATOM     46  C   UNL A   1      42.699  28.220  28.148  1.00  0.00     0.074 A 
ATOM     47  C   UNL A   1      40.299  28.600  28.619  1.00  0.00     0.049 A 
ATOM     48  N   UNL A   1      43.214  29.352  28.556  1.00  0.00    -0.248 NA
ATOM     49  C   UNL A   1      43.696  27.256  27.653  1.00  0.00     0.031 C 
ATOM     50  C   UNL A   1      38.879  28.261  28.747  1.00  0.00     0.029 A 
ATOM     51  N   UNL A   1      40.376  29.882  29.103  1.00  0.00    -0.354 N 
ATOM     52  C   UNL A   1      44.591  29.214  28.422  1.00  0.00     0.074 A 
ATOM     53  C   UNL A   1      44.834  27.883  27.913  1.00  0.00     0.031 C 
ATOM     54  C   UNL A   1      38.221  29.307  29.272  1.00  0.00     0.029 A 
ATOM     55  C   UNL A   1      39.172  30.380  29.545  1.00  0.00     0.049 A 
ATOM     56  H   UNL A   1      41.215  30.398  29.131  1.00  0.00     0.167 HD
ATOM     57  C   UNL A   1      45.564  30.122  28.675  1.00  0.00     0.034 A 
ATOM     58  C   UNL A   1      38.869  31.565  30.113  1.00  0.00     0.034 A 
ATOM     59  C   UNL A   1      45.311  31.472  29.101  1.00  0.00     0.049 A 
ATOM     60  C   UNL A   1      39.964  32.580  30.311  1.00  0.00     0.074 A 
ATOM     61  C   UNL A   1      46.216  32.505  29.262  1.00  0.00     0.029 A 
ATOM     62  N   UNL A   1      44.064  31.975  29.434  1.00  0.00    -0.354 N 
ATOM     63  N   UNL A   1      41.237  32.490  30.012  1.00  0.00    -0.248 NA
ATOM     64  C   UNL A   1      39.574  33.874  30.891  1.00  0.00     0.031 C 
ATOM     65  C   UNL A   1      45.517  33.632  29.707  1.00  0.00     0.029 A 
ATOM     66  C   UNL A   1      44.174  33.302  29.807  1.00  0.00     0.049 A 
ATOM     67  H   UNL A   1      43.222  31.464  29.407  1.00  0.00     0.167 HD
ATOM     68  C   UNL A   1      41.790  33.726  30.327  1.00  0.00     0.074 A 
ATOM     69  C   UNL A   1      40.710  34.555  30.822  1.00  0.00     0.031 C 
ATOM     70  C   UNL A   1      43.079  34.134  30.230  1.00  0.00     0.034 A 
BRANCH  57  71
ATOM     71  C   UNL A   1      46.995  29.716  28.439  1.00  0.00     0.023 A 
ATOM     72  C   UNL A   1      47.602  29.997  27.199  1.00  0.00     0.012 A 
ATOM     73  C   UNL A   1      47.761  29.137  29.469  1.00  0.00     0.148 A 
ATOM     74  C   UNL A   1      48.943  29.683  26.977  1.00  0.00     0.002 A 
ATOM     75  C   UNL A   1      49.108  28.867  29.256  1.00  0.00     0.091 A 
ATOM     76  F   UNL A   1      47.160  28.860  30.635  1.00  0.00    -0.205 F 
ATOM     77  C   UNL A   1      49.698  29.131  28.008  1.00  0.00     0.022 A 
BRANCH  75  78
ATOM     78  S   UNL A   1      50.185  28.229  30.545  1.00  0.00     0.127 S 
ATOM     79  O   UNL A   1      49.582  26.921  30.811  1.00  0.00    -0.237 OA
ATOM     80  O   UNL A   1      51.481  28.170  29.861  1.00  0.00    -0.237 OA
ATOM     81  O   UNL A   1      50.117  29.181  31.637  1.00  0.00    -0.744 OA
ENDBRANCH  75  78
ENDBRANCH  57  71
BRANCH  58  82
ATOM     82  C   UNL A   1      37.457  31.893  30.462  1.00  0.00     0.023 A 
ATOM     83  C   UNL A   1      36.964  31.534  31.733  1.00  0.00     0.012 A 
ATOM     84  C   UNL A   1      36.606  32.558  29.560  1.00  0.00     0.148 A 
ATOM     85  C   UNL A   1      35.641  31.797  32.084  1.00  0.00     0.002 A 
ATOM     86  C   UNL A   1      35.303  32.866  29.938  1.00  0.00     0.091 A 
ATOM     87  F   UNL A   1      37.084  32.878  28.349  1.00  0.00    -0.205 F 
ATOM     88  C   UNL A   1      34.813  32.472  31.191  1.00  0.00     0.022 A 
BRANCH  86  89
ATOM     89  S   UNL A   1      34.217  33.849  28.896  1.00  0.00     0.127 S 
ATOM     90  O   UNL A   1      33.723  32.852  27.952  1.00  0.00    -0.237 OA
ATOM     91  O   UNL A   1      33.225  34.335  29.857  1.00  0.00    -0.237 OA
ATOM     92  O   UNL A   1      35.065  34.895  28.338  1.00  0.00    -0.744 OA
ENDBRANCH  86  89
ENDBRANCH  58  82
BRANCH  70  93
ATOM     93  C   UNL A   1      43.396  35.551  30.627  1.00  0.00     0.023 A 
ATOM     94  C   UNL A   1      43.800  35.836  31.946  1.00  0.00     0.012 A 
ATOM     95  C   UNL A   1      43.373  36.585  29.670  1.00  0.00     0.148 A 
ATOM     96  C   UNL A   1      44.149  37.134  32.314  1.00  0.00     0.002 A 
ATOM     97  C   UNL A   1      43.769  37.867  30.033  1.00  0.00     0.091 A 
ATOM     98  F   UNL A   1      42.966  36.298  28.425  1.00  0.00    -0.205 F 
ATOM     99  C   UNL A   1      44.146  38.145  31.357  1.00  0.00     0.022 A 
BRANCH  97 100
ATOM    100  S   UNL A   1      43.890  39.206  28.842  1.00  0.00     0.127 S 
ATOM    101  O   UNL A   1      42.489  39.402  28.471  1.00  0.00    -0.237 OA
ATOM    102  O   UNL A   1      44.465  40.287  29.643  1.00  0.00    -0.237 OA
ATOM    103  O   UNL A   1      44.758  38.717  27.779  1.00  0.00    -0.744 OA
ENDBRANCH  97 100
ENDBRANCH  70  93
ENDBRANCH  44  45
ENDBRANCH  36  39
ENDBRANCH  34  35
ENDBRANCH  33  34
ENDBRANCH   1  33
TORSDOF 18
ENDMDL
