MODEL 1
REMARK VINA RESULT:     -11.7      0.000      0.000
REMARK SMILES C[NH2+][C@]1(C(=O)NCCCNC(=O)c2ccc(-c3c4nc(c(-c5cccc(S(=O)(=O)[O-])c5F)c5ccc([nH]5)c(-c5cccc(S(=O)(=O)[O-])c5F)c5nc(c(-c6cccc(S(=O)(=O)[O-])c6F)c6ccc3[nH]6)C=C5)C=C4)cc2)CC[C@H](SC2CCCCC2)C1
REMARK SMILES IDX 8 1 7 2 6 3 4 4 5 5 3 7 76 8 86 9 77 10 78 11 2 12 1 13
REMARK SMILES IDX 79 16 80 17 81 18 85 19 82 20 84 21 83 22 9 23 10 24 11 25
REMARK SMILES IDX 12 27 13 28 14 29 75 30 15 31 74 32 16 33 17 34 18 35 68 36
REMARK SMILES IDX 19 37 73 38 67 39 69 40 20 41 72 42 66 43 65 44 21 46 53 47
REMARK SMILES IDX 33 48 52 49 34 50 37 51 51 52 70 53 35 54 36 55 50 57 71 58
REMARK SMILES IDX 38 59 22 60 23 61 31 62 24 63 26 64 32 65 25 66 27 67 28 68
REMARK SMILES IDX 29 69 30 70 54 71 55 72 63 73 56 74 58 75 64 76 57 77 59 78
REMARK SMILES IDX 60 79 61 80 62 81 39 82 40 83 48 84 41 85 43 86 49 87 42 88
REMARK SMILES IDX 44 89 45 90 46 91 47 92
REMARK H PARENT 6 6 2 14 2 15 10 26 69 45 37 56
REMARK Flexibility Score: inf
ROOT
ATOM      1  C   UNL A   1      31.499  32.047  26.504  1.00  0.00     0.042 C 
ENDROOT
BRANCH   1   2
ATOM      2  C   UNL A   1      31.689  30.596  26.076  1.00  0.00     0.118 C 
BRANCH   2   3
ATOM      3  N   UNL A   1      31.024  30.307  24.818  1.00  0.00    -0.351 N 
ATOM      4  C   UNL A   1      31.085  29.260  23.952  1.00  0.00     0.281 C 
ATOM      5  O   UNL A   1      30.445  29.421  22.904  1.00  0.00    -0.268 OA
ATOM      6  H   UNL A   1      30.401  31.015  24.533  1.00  0.00     0.163 HD
BRANCH   4   7
ATOM      7  C   UNL A   1      31.919  27.954  24.227  1.00  0.00     0.176 C 
ATOM      8  C   UNL A   1      33.322  28.322  24.720  1.00  0.00     0.080 C 
ATOM      9  C   UNL A   1      31.318  27.106  25.371  1.00  0.00     0.093 C 
ATOM     10  C   UNL A   1      33.759  27.174  25.610  1.00  0.00     0.022 C 
ATOM     11  C   UNL A   1      32.499  26.535  26.194  1.00  0.00     0.054 C 
BRANCH   7  12
ATOM     12  N   UNL A   1      32.000  27.239  22.928  1.00  0.00    -0.336 N 
ATOM     13  C   UNL A   1      31.279  26.008  22.716  1.00  0.00     0.331 C 
ATOM     14  H   UNL A   1      31.675  27.892  22.216  1.00  0.00     0.346 HD
ATOM     15  H   UNL A   1      32.974  26.940  22.895  1.00  0.00     0.346 HD
ENDBRANCH   7  12
BRANCH  11  16
ATOM     16  S   UNL A   1      32.449  24.692  26.138  1.00  0.00    -0.155 SA
BRANCH  16  17
ATOM     17  C   UNL A   1      34.076  24.156  25.470  1.00  0.00     0.047 C 
ATOM     18  C   UNL A   1      34.851  23.164  26.338  1.00  0.00     0.014 C 
ATOM     19  C   UNL A   1      33.988  23.693  24.014  1.00  0.00     0.014 C 
ATOM     20  C   UNL A   1      36.243  22.893  25.778  1.00  0.00     0.001 C 
ATOM     21  C   UNL A   1      35.388  23.401  23.460  1.00  0.00     0.001 C 
ATOM     22  C   UNL A   1      36.154  22.410  24.333  1.00  0.00     0.000 C 
ENDBRANCH  16  17
ENDBRANCH  11  16
ENDBRANCH   4   7
ENDBRANCH   2   3
ENDBRANCH   1   2
BRANCH   1  23
ATOM     23  C   UNL A   1      32.652  32.608  27.326  1.00  0.00     0.118 C 
BRANCH  23  24
ATOM     24  N   UNL A   1      32.484  34.023  27.629  1.00  0.00    -0.352 N 
ATOM     25  C   UNL A   1      33.089  34.793  28.589  1.00  0.00     0.251 C 
ATOM     26  H   UNL A   1      31.837  34.499  27.058  1.00  0.00     0.163 HD
ATOM     27  O   UNL A   1      32.650  35.920  28.826  1.00  0.00    -0.269 OA
BRANCH  25  28
ATOM     28  C   UNL A   1      34.250  34.276  29.343  1.00  0.00     0.039 A 
ATOM     29  C   UNL A   1      34.044  33.714  30.606  1.00  0.00     0.014 A 
ATOM     30  C   UNL A   1      35.541  34.358  28.816  1.00  0.00     0.014 A 
ATOM     31  C   UNL A   1      35.126  33.183  31.311  1.00  0.00     0.010 A 
ATOM     32  C   UNL A   1      36.598  33.742  29.475  1.00  0.00     0.010 A 
ATOM     33  C   UNL A   1      36.408  33.162  30.737  1.00  0.00    -0.014 A 
BRANCH  33  34
ATOM     34  C   UNL A   1      37.562  32.547  31.440  1.00  0.00     0.031 A 
ATOM     35  C   UNL A   1      38.312  31.405  30.807  1.00  0.00     0.074 A 
ATOM     36  C   UNL A   1      37.881  32.957  32.684  1.00  0.00     0.049 A 
ATOM     37  N   UNL A   1      39.304  30.702  31.289  1.00  0.00    -0.248 NA
ATOM     38  C   UNL A   1      37.871  30.975  29.469  1.00  0.00     0.031 C 
ATOM     39  C   UNL A   1      37.182  34.000  33.437  1.00  0.00     0.029 A 
ATOM     40  N   UNL A   1      38.859  32.526  33.545  1.00  0.00    -0.354 N 
ATOM     41  C   UNL A   1      39.577  29.726  30.337  1.00  0.00     0.074 A 
ATOM     42  C   UNL A   1      38.622  29.904  29.265  1.00  0.00     0.031 C 
ATOM     43  C   UNL A   1      37.758  34.136  34.642  1.00  0.00     0.029 A 
ATOM     44  C   UNL A   1      38.843  33.166  34.763  1.00  0.00     0.049 A 
ATOM     45  H   UNL A   1      39.512  31.826  33.314  1.00  0.00     0.167 HD
ATOM     46  C   UNL A   1      40.551  28.786  30.339  1.00  0.00     0.034 A 
ATOM     47  C   UNL A   1      39.607  32.986  35.858  1.00  0.00     0.034 A 
ATOM     48  C   UNL A   1      41.524  28.640  31.388  1.00  0.00     0.049 A 
ATOM     49  C   UNL A   1      40.704  31.956  35.822  1.00  0.00     0.074 A 
ATOM     50  C   UNL A   1      42.607  27.781  31.442  1.00  0.00     0.029 A 
ATOM     51  N   UNL A   1      41.524  29.360  32.572  1.00  0.00    -0.354 N 
ATOM     52  N   UNL A   1      41.047  31.151  34.846  1.00  0.00    -0.248 NA
ATOM     53  C   UNL A   1      41.542  31.835  37.023  1.00  0.00     0.031 C 
ATOM     54  C   UNL A   1      43.242  27.957  32.675  1.00  0.00     0.029 A 
ATOM     55  C   UNL A   1      42.578  28.955  33.372  1.00  0.00     0.049 A 
ATOM     56  H   UNL A   1      40.869  30.057  32.810  1.00  0.00     0.167 HD
ATOM     57  C   UNL A   1      42.163  30.457  35.299  1.00  0.00     0.074 A 
ATOM     58  C   UNL A   1      42.449  30.951  36.630  1.00  0.00     0.031 C 
ATOM     59  C   UNL A   1      42.881  29.491  34.674  1.00  0.00     0.034 A 
BRANCH  46  60
ATOM     60  C   UNL A   1      40.638  27.863  29.149  1.00  0.00     0.023 A 
ATOM     61  C   UNL A   1      39.799  26.732  29.076  1.00  0.00     0.012 A 
ATOM     62  C   UNL A   1      41.510  28.145  28.079  1.00  0.00     0.148 A 
ATOM     63  C   UNL A   1      39.856  25.874  27.980  1.00  0.00     0.002 A 
ATOM     64  C   UNL A   1      41.525  27.312  26.967  1.00  0.00     0.091 A 
ATOM     65  F   UNL A   1      42.315  29.213  28.173  1.00  0.00    -0.205 F 
ATOM     66  C   UNL A   1      40.710  26.169  26.922  1.00  0.00     0.022 A 
BRANCH  64  67
ATOM     67  S   UNL A   1      42.526  27.653  25.515  1.00  0.00     0.127 S 
ATOM     68  O   UNL A   1      41.946  28.911  25.045  1.00  0.00    -0.237 OA
ATOM     69  O   UNL A   1      43.866  27.776  26.089  1.00  0.00    -0.237 OA
ATOM     70  O   UNL A   1      42.347  26.513  24.626  1.00  0.00    -0.744 OA
ENDBRANCH  64  67
ENDBRANCH  46  60
BRANCH  47  71
ATOM     71  C   UNL A   1      39.401  33.842  37.061  1.00  0.00     0.023 A 
ATOM     72  C   UNL A   1      39.828  35.183  37.038  1.00  0.00     0.012 A 
ATOM     73  C   UNL A   1      38.766  33.343  38.216  1.00  0.00     0.148 A 
ATOM     74  C   UNL A   1      39.661  36.003  38.154  1.00  0.00     0.002 A 
ATOM     75  C   UNL A   1      38.550  34.181  39.304  1.00  0.00     0.091 A 
ATOM     76  F   UNL A   1      38.373  32.062  38.220  1.00  0.00    -0.205 F 
ATOM     77  C   UNL A   1      39.014  35.506  39.283  1.00  0.00     0.022 A 
BRANCH  75  78
ATOM     78  S   UNL A   1      37.610  33.667  40.745  1.00  0.00     0.127 S 
ATOM     79  O   UNL A   1      36.421  33.080  40.134  1.00  0.00    -0.237 OA
ATOM     80  O   UNL A   1      38.520  32.708  41.371  1.00  0.00    -0.237 OA
ATOM     81  O   UNL A   1      37.388  34.879  41.523  1.00  0.00    -0.744 OA
ENDBRANCH  75  78
ENDBRANCH  47  71
BRANCH  59  82
ATOM     82  C   UNL A   1      44.078  28.931  35.396  1.00  0.00     0.023 A 
ATOM     83  C   UNL A   1      45.350  29.509  35.211  1.00  0.00     0.012 A 
ATOM     84  C   UNL A   1      43.926  27.876  36.319  1.00  0.00     0.148 A 
ATOM     85  C   UNL A   1      46.457  29.022  35.905  1.00  0.00     0.002 A 
ATOM     86  C   UNL A   1      45.023  27.432  37.046  1.00  0.00     0.091 A 
ATOM     87  F   UNL A   1      42.711  27.328  36.469  1.00  0.00    -0.205 F 
ATOM     88  C   UNL A   1      46.291  27.993  36.831  1.00  0.00     0.022 A 
BRANCH  86  89
ATOM     89  S   UNL A   1      44.886  26.184  38.331  1.00  0.00     0.127 S 
ATOM     90  O   UNL A   1      46.262  26.106  38.819  1.00  0.00    -0.237 OA
ATOM     91  O   UNL A   1      43.942  26.801  39.263  1.00  0.00    -0.237 OA
ATOM     92  O   UNL A   1      44.389  24.983  37.674  1.00  0.00    -0.744 OA
ENDBRANCH  86  89
ENDBRANCH  59  82
ENDBRANCH  33  34
ENDBRANCH  25  28
ENDBRANCH  23  24
ENDBRANCH   1  23
TORSDOF 16
ENDMDL
MODEL 2
REMARK VINA RESULT:     -11.7      3.474      8.832
REMARK SMILES C[NH2+][C@]1(C(=O)NCCCNC(=O)c2ccc(-c3c4nc(c(-c5cccc(S(=O)(=O)[O-])c5F)c5ccc([nH]5)c(-c5cccc(S(=O)(=O)[O-])c5F)c5nc(c(-c6cccc(S(=O)(=O)[O-])c6F)c6ccc3[nH]6)C=C5)C=C4)cc2)CC[C@H](SC2CCCCC2)C1
REMARK SMILES IDX 8 1 7 2 6 3 4 4 5 5 3 7 76 8 86 9 77 10 78 11 2 12 1 13
REMARK SMILES IDX 79 16 80 17 81 18 85 19 82 20 84 21 83 22 9 23 10 24 11 25
REMARK SMILES IDX 12 27 13 28 14 29 75 30 15 31 74 32 16 33 17 34 18 35 68 36
REMARK SMILES IDX 19 37 73 38 67 39 69 40 20 41 72 42 66 43 65 44 21 46 53 47
REMARK SMILES IDX 33 48 52 49 34 50 37 51 51 52 70 53 35 54 36 55 50 57 71 58
REMARK SMILES IDX 38 59 22 60 23 61 31 62 24 63 26 64 32 65 25 66 27 67 28 68
REMARK SMILES IDX 29 69 30 70 54 71 55 72 63 73 56 74 58 75 64 76 57 77 59 78
REMARK SMILES IDX 60 79 61 80 62 81 39 82 40 83 48 84 41 85 43 86 49 87 42 88
REMARK SMILES IDX 44 89 45 90 46 91 47 92
REMARK H PARENT 6 6 2 14 2 15 10 26 69 45 37 56
REMARK Flexibility Score: inf
ROOT
ATOM      1  C   UNL A   1      33.165  28.046  26.886  1.00  0.00     0.042 C 
ENDROOT
BRANCH   1   2
ATOM      2  C   UNL A   1      31.707  27.974  26.446  1.00  0.00     0.118 C 
BRANCH   2   3
ATOM      3  N   UNL A   1      31.491  28.622  25.165  1.00  0.00    -0.351 N 
ATOM      4  C   UNL A   1      31.492  28.170  23.882  1.00  0.00     0.281 C 
ATOM      5  O   UNL A   1      31.379  29.057  23.024  1.00  0.00    -0.268 OA
ATOM      6  H   UNL A   1      31.306  29.586  25.240  1.00  0.00     0.163 HD
BRANCH   4   7
ATOM      7  C   UNL A   1      31.653  26.654  23.495  1.00  0.00     0.176 C 
ATOM      8  C   UNL A   1      31.657  26.498  21.971  1.00  0.00     0.080 C 
ATOM      9  C   UNL A   1      33.013  26.076  23.946  1.00  0.00     0.093 C 
ATOM     10  C   UNL A   1      32.502  25.271  21.685  1.00  0.00     0.022 C 
ATOM     11  C   UNL A   1      33.506  25.123  22.829  1.00  0.00     0.054 C 
BRANCH   7  12
ATOM     12  N   UNL A   1      30.480  25.955  24.081  1.00  0.00    -0.336 N 
ATOM     13  C   UNL A   1      29.138  26.402  23.799  1.00  0.00     0.331 C 
ATOM     14  H   UNL A   1      30.535  24.986  23.770  1.00  0.00     0.346 HD
ATOM     15  H   UNL A   1      30.578  26.145  25.077  1.00  0.00     0.346 HD
ENDBRANCH   7  12
BRANCH  11  16
ATOM     16  S   UNL A   1      33.679  23.418  23.511  1.00  0.00    -0.155 SA
BRANCH  16  17
ATOM     17  C   UNL A   1      35.405  23.288  24.131  1.00  0.00     0.047 C 
ATOM     18  C   UNL A   1      35.705  24.059  25.417  1.00  0.00     0.014 C 
ATOM     19  C   UNL A   1      35.893  21.840  24.207  1.00  0.00     0.014 C 
ATOM     20  C   UNL A   1      37.187  24.012  25.771  1.00  0.00     0.001 C 
ATOM     21  C   UNL A   1      37.379  21.795  24.583  1.00  0.00     0.001 C 
ATOM     22  C   UNL A   1      37.668  22.567  25.869  1.00  0.00     0.000 C 
ENDBRANCH  16  17
ENDBRANCH  11  16
ENDBRANCH   4   7
ENDBRANCH   2   3
ENDBRANCH   1   2
BRANCH   1  23
ATOM     23  C   UNL A   1      33.984  29.099  26.152  1.00  0.00     0.118 C 
BRANCH  23  24
ATOM     24  N   UNL A   1      33.876  30.416  26.765  1.00  0.00    -0.352 N 
ATOM     25  C   UNL A   1      34.628  30.984  27.761  1.00  0.00     0.251 C 
ATOM     26  H   UNL A   1      33.154  30.985  26.411  1.00  0.00     0.163 HD
ATOM     27  O   UNL A   1      34.241  32.026  28.293  1.00  0.00    -0.269 OA
BRANCH  25  28
ATOM     28  C   UNL A   1      35.887  30.349  28.206  1.00  0.00     0.039 A 
ATOM     29  C   UNL A   1      37.021  30.447  27.395  1.00  0.00     0.014 A 
ATOM     30  C   UNL A   1      35.947  29.646  29.411  1.00  0.00     0.014 A 
ATOM     31  C   UNL A   1      38.227  29.888  27.824  1.00  0.00     0.010 A 
ATOM     32  C   UNL A   1      37.169  29.176  29.879  1.00  0.00     0.010 A 
ATOM     33  C   UNL A   1      38.320  29.277  29.085  1.00  0.00    -0.014 A 
BRANCH  33  34
ATOM     34  C   UNL A   1      39.606  28.732  29.589  1.00  0.00     0.031 A 
ATOM     35  C   UNL A   1      40.333  29.424  30.711  1.00  0.00     0.074 A 
ATOM     36  C   UNL A   1      40.163  27.666  28.981  1.00  0.00     0.049 A 
ATOM     37  N   UNL A   1      41.491  29.135  31.246  1.00  0.00    -0.248 NA
ATOM     38  C   UNL A   1      39.689  30.617  31.290  1.00  0.00     0.031 C 
ATOM     39  C   UNL A   1      39.596  26.954  27.833  1.00  0.00     0.029 A 
ATOM     40  N   UNL A   1      41.343  27.010  29.227  1.00  0.00    -0.354 N 
ATOM     41  C   UNL A   1      41.733  30.127  32.189  1.00  0.00     0.074 A 
ATOM     42  C   UNL A   1      40.619  31.047  32.129  1.00  0.00     0.031 C 
ATOM     43  C   UNL A   1      40.422  25.957  27.481  1.00  0.00     0.029 A 
ATOM     44  C   UNL A   1      41.594  25.978  28.351  1.00  0.00     0.049 A 
ATOM     45  H   UNL A   1      41.953  27.254  29.960  1.00  0.00     0.167 HD
ATOM     46  C   UNL A   1      42.772  30.247  33.049  1.00  0.00     0.034 A 
ATOM     47  C   UNL A   1      42.652  25.151  28.252  1.00  0.00     0.034 A 
ATOM     48  C   UNL A   1      43.857  29.308  33.133  1.00  0.00     0.049 A 
ATOM     49  C   UNL A   1      43.779  25.286  29.240  1.00  0.00     0.074 A 
ATOM     50  C   UNL A   1      44.909  29.287  34.031  1.00  0.00     0.029 A 
ATOM     51  N   UNL A   1      44.037  28.229  32.281  1.00  0.00    -0.354 N 
ATOM     52  N   UNL A   1      43.911  26.135  30.230  1.00  0.00    -0.248 NA
ATOM     53  C   UNL A   1      44.886  24.325  29.122  1.00  0.00     0.031 C 
ATOM     54  C   UNL A   1      45.746  28.217  33.698  1.00  0.00     0.029 A 
ATOM     55  C   UNL A   1      45.191  27.545  32.620  1.00  0.00     0.049 A 
ATOM     56  H   UNL A   1      43.432  27.986  31.542  1.00  0.00     0.167 HD
ATOM     57  C   UNL A   1      45.093  25.788  30.876  1.00  0.00     0.074 A 
ATOM     58  C   UNL A   1      45.627  24.638  30.176  1.00  0.00     0.031 C 
ATOM     59  C   UNL A   1      45.686  26.373  31.945  1.00  0.00     0.034 A 
BRANCH  46  60
ATOM     60  C   UNL A   1      42.767  31.420  33.996  1.00  0.00     0.023 A 
ATOM     61  C   UNL A   1      43.359  32.639  33.607  1.00  0.00     0.012 A 
ATOM     62  C   UNL A   1      42.129  31.333  35.249  1.00  0.00     0.148 A 
ATOM     63  C   UNL A   1      43.354  33.739  34.464  1.00  0.00     0.002 A 
ATOM     64  C   UNL A   1      42.085  32.448  36.078  1.00  0.00     0.091 A 
ATOM     65  F   UNL A   1      41.588  30.161  35.613  1.00  0.00    -0.205 F 
ATOM     66  C   UNL A   1      42.709  33.647  35.693  1.00  0.00     0.022 A 
BRANCH  64  67
ATOM     67  S   UNL A   1      41.204  32.458  37.643  1.00  0.00     0.127 S 
ATOM     68  O   UNL A   1      42.045  31.581  38.459  1.00  0.00    -0.237 OA
ATOM     69  O   UNL A   1      41.257  33.872  38.016  1.00  0.00    -0.237 OA
ATOM     70  O   UNL A   1      39.868  31.953  37.358  1.00  0.00    -0.744 OA
ENDBRANCH  64  67
ENDBRANCH  46  60
BRANCH  47  71
ATOM     71  C   UNL A   1      42.669  24.081  27.214  1.00  0.00     0.023 A 
ATOM     72  C   UNL A   1      43.315  24.318  25.986  1.00  0.00     0.012 A 
ATOM     73  C   UNL A   1      42.072  22.826  27.445  1.00  0.00     0.148 A 
ATOM     74  C   UNL A   1      43.335  23.341  24.991  1.00  0.00     0.002 A 
ATOM     75  C   UNL A   1      42.144  21.836  26.472  1.00  0.00     0.091 A 
ATOM     76  F   UNL A   1      41.455  22.622  28.617  1.00  0.00    -0.205 F 
ATOM     77  C   UNL A   1      42.759  22.097  25.237  1.00  0.00     0.022 A 
BRANCH  75  78
ATOM     78  S   UNL A   1      41.548  20.165  26.750  1.00  0.00     0.127 S 
ATOM     79  O   UNL A   1      40.127  20.390  26.995  1.00  0.00    -0.237 OA
ATOM     80  O   UNL A   1      41.861  19.519  25.475  1.00  0.00    -0.237 OA
ATOM     81  O   UNL A   1      42.312  19.657  27.882  1.00  0.00    -0.744 OA
ENDBRANCH  75  78
ENDBRANCH  47  71
BRANCH  59  82
ATOM     82  C   UNL A   1      46.960  25.757  32.463  1.00  0.00     0.023 A 
ATOM     83  C   UNL A   1      48.206  26.187  31.966  1.00  0.00     0.012 A 
ATOM     84  C   UNL A   1      46.920  24.802  33.499  1.00  0.00     0.148 A 
ATOM     85  C   UNL A   1      49.392  25.650  32.468  1.00  0.00     0.002 A 
ATOM     86  C   UNL A   1      48.106  24.312  34.031  1.00  0.00     0.091 A 
ATOM     87  F   UNL A   1      45.724  24.393  33.947  1.00  0.00    -0.205 F 
ATOM     88  C   UNL A   1      49.342  24.723  33.507  1.00  0.00     0.022 A 
BRANCH  86  89
ATOM     89  S   UNL A   1      48.143  23.193  35.436  1.00  0.00     0.127 S 
ATOM     90  O   UNL A   1      47.508  21.999  34.883  1.00  0.00    -0.237 OA
ATOM     91  O   UNL A   1      49.578  23.061  35.689  1.00  0.00    -0.237 OA
ATOM     92  O   UNL A   1      47.401  23.859  36.499  1.00  0.00    -0.744 OA
ENDBRANCH  86  89
ENDBRANCH  59  82
ENDBRANCH  33  34
ENDBRANCH  25  28
ENDBRANCH  23  24
ENDBRANCH   1  23
TORSDOF 16
ENDMDL
MODEL 3
REMARK VINA RESULT:     -11.5      1.816      2.322
REMARK SMILES C[NH2+][C@]1(C(=O)NCCCNC(=O)c2ccc(-c3c4nc(c(-c5cccc(S(=O)(=O)[O-])c5F)c5ccc([nH]5)c(-c5cccc(S(=O)(=O)[O-])c5F)c5nc(c(-c6cccc(S(=O)(=O)[O-])c6F)c6ccc3[nH]6)C=C5)C=C4)cc2)CC[C@H](SC2CCCCC2)C1
REMARK SMILES IDX 8 1 7 2 6 3 4 4 5 5 3 7 76 8 86 9 77 10 78 11 2 12 1 13
REMARK SMILES IDX 79 16 80 17 81 18 85 19 82 20 84 21 83 22 9 23 10 24 11 25
REMARK SMILES IDX 12 27 13 28 14 29 75 30 15 31 74 32 16 33 17 34 18 35 68 36
REMARK SMILES IDX 19 37 73 38 67 39 69 40 20 41 72 42 66 43 65 44 21 46 53 47
REMARK SMILES IDX 33 48 52 49 34 50 37 51 51 52 70 53 35 54 36 55 50 57 71 58
REMARK SMILES IDX 38 59 22 60 23 61 31 62 24 63 26 64 32 65 25 66 27 67 28 68
REMARK SMILES IDX 29 69 30 70 54 71 55 72 63 73 56 74 58 75 64 76 57 77 59 78
REMARK SMILES IDX 60 79 61 80 62 81 39 82 40 83 48 84 41 85 43 86 49 87 42 88
REMARK SMILES IDX 44 89 45 90 46 91 47 92
REMARK H PARENT 6 6 2 14 2 15 10 26 69 45 37 56
REMARK Flexibility Score: inf
ROOT
ATOM      1  C   UNL A   1      31.125  31.622  25.921  1.00  0.00     0.042 C 
ENDROOT
BRANCH   1   2
ATOM      2  C   UNL A   1      31.396  30.236  25.344  1.00  0.00     0.118 C 
BRANCH   2   3
ATOM      3  N   UNL A   1      32.596  29.639  25.900  1.00  0.00    -0.351 N 
ATOM      4  C   UNL A   1      33.226  28.451  25.693  1.00  0.00     0.281 C 
ATOM      5  O   UNL A   1      34.183  28.238  26.450  1.00  0.00    -0.268 OA
ATOM      6  H   UNL A   1      33.047  30.211  26.563  1.00  0.00     0.163 HD
BRANCH   4   7
ATOM      7  C   UNL A   1      32.773  27.406  24.608  1.00  0.00     0.176 C 
ATOM      8  C   UNL A   1      33.022  27.967  23.204  1.00  0.00     0.080 C 
ATOM      9  C   UNL A   1      33.611  26.109  24.660  1.00  0.00     0.093 C 
ATOM     10  C   UNL A   1      33.273  26.762  22.318  1.00  0.00     0.022 C 
ATOM     11  C   UNL A   1      33.848  25.651  23.199  1.00  0.00     0.054 C 
BRANCH   7  12
ATOM     12  N   UNL A   1      31.320  27.191  24.827  1.00  0.00    -0.336 N 
ATOM     13  C   UNL A   1      30.851  26.358  25.907  1.00  0.00     0.331 C 
ATOM     14  H   UNL A   1      30.909  28.113  24.971  1.00  0.00     0.346 HD
ATOM     15  H   UNL A   1      31.042  26.667  23.998  1.00  0.00     0.346 HD
ENDBRANCH   7  12
BRANCH  11  16
ATOM     16  S   UNL A   1      33.104  23.982  22.952  1.00  0.00    -0.155 SA
BRANCH  16  17
ATOM     17  C   UNL A   1      34.381  22.769  23.477  1.00  0.00     0.047 C 
ATOM     18  C   UNL A   1      35.806  23.314  23.581  1.00  0.00     0.014 C 
ATOM     19  C   UNL A   1      33.973  21.994  24.731  1.00  0.00     0.014 C 
ATOM     20  C   UNL A   1      36.813  22.208  23.877  1.00  0.00     0.001 C 
ATOM     21  C   UNL A   1      34.999  20.896  25.039  1.00  0.00     0.001 C 
ATOM     22  C   UNL A   1      36.418  21.450  25.142  1.00  0.00     0.000 C 
ENDBRANCH  16  17
ENDBRANCH  11  16
ENDBRANCH   4   7
ENDBRANCH   2   3
ENDBRANCH   1   2
BRANCH   1  23
ATOM     23  C   UNL A   1      32.034  31.999  27.083  1.00  0.00     0.118 C 
BRANCH  23  24
ATOM     24  N   UNL A   1      32.153  33.442  27.251  1.00  0.00    -0.352 N 
ATOM     25  C   UNL A   1      33.038  34.167  28.007  1.00  0.00     0.251 C 
ATOM     26  H   UNL A   1      31.498  33.977  26.746  1.00  0.00     0.163 HD
ATOM     27  O   UNL A   1      32.836  35.369  28.188  1.00  0.00    -0.269 OA
BRANCH  25  28
ATOM     28  C   UNL A   1      34.219  33.515  28.611  1.00  0.00     0.039 A 
ATOM     29  C   UNL A   1      35.455  34.165  28.561  1.00  0.00     0.014 A 
ATOM     30  C   UNL A   1      34.113  32.258  29.213  1.00  0.00     0.014 A 
ATOM     31  C   UNL A   1      36.569  33.579  29.166  1.00  0.00     0.010 A 
ATOM     32  C   UNL A   1      35.199  31.725  29.897  1.00  0.00     0.010 A 
ATOM     33  C   UNL A   1      36.444  32.369  29.869  1.00  0.00    -0.014 A 
BRANCH  33  34
ATOM     34  C   UNL A   1      37.599  31.759  30.573  1.00  0.00     0.031 A 
ATOM     35  C   UNL A   1      38.433  30.708  29.889  1.00  0.00     0.074 A 
ATOM     36  C   UNL A   1      37.847  32.087  31.856  1.00  0.00     0.049 A 
ATOM     37  N   UNL A   1      39.441  30.020  30.359  1.00  0.00    -0.248 NA
ATOM     38  C   UNL A   1      38.068  30.361  28.504  1.00  0.00     0.031 C 
ATOM     39  C   UNL A   1      37.065  33.034  32.655  1.00  0.00     0.029 A 
ATOM     40  N   UNL A   1      38.812  31.640  32.725  1.00  0.00    -0.354 N 
ATOM     41  C   UNL A   1      39.802  29.135  29.350  1.00  0.00     0.074 A 
ATOM     42  C   UNL A   1      38.882  29.348  28.254  1.00  0.00     0.031 C 
ATOM     43  C   UNL A   1      37.585  33.104  33.890  1.00  0.00     0.029 A 
ATOM     44  C   UNL A   1      38.714  32.183  33.985  1.00  0.00     0.049 A 
ATOM     45  H   UNL A   1      39.509  30.993  32.470  1.00  0.00     0.167 HD
ATOM     46  C   UNL A   1      40.823  28.247  29.323  1.00  0.00     0.034 A 
ATOM     47  C   UNL A   1      39.442  31.957  35.095  1.00  0.00     0.034 A 
ATOM     48  C   UNL A   1      41.760  28.068  30.399  1.00  0.00     0.049 A 
ATOM     49  C   UNL A   1      40.592  30.988  35.030  1.00  0.00     0.074 A 
ATOM     50  C   UNL A   1      42.884  27.263  30.436  1.00  0.00     0.029 A 
ATOM     51  N   UNL A   1      41.676  28.694  31.633  1.00  0.00    -0.354 N 
ATOM     52  N   UNL A   1      41.016  30.279  34.012  1.00  0.00    -0.248 NA
ATOM     53  C   UNL A   1      41.387  30.817  36.254  1.00  0.00     0.031 C 
ATOM     54  C   UNL A   1      43.459  27.374  31.706  1.00  0.00     0.029 A 
ATOM     55  C   UNL A   1      42.718  28.282  32.445  1.00  0.00     0.049 A 
ATOM     56  H   UNL A   1      40.977  29.338  31.894  1.00  0.00     0.167 HD
ATOM     57  C   UNL A   1      42.148  29.608  34.460  1.00  0.00     0.074 A 
ATOM     58  C   UNL A   1      42.355  30.012  35.836  1.00  0.00     0.031 C 
ATOM     59  C   UNL A   1      42.940  28.729  33.796  1.00  0.00     0.034 A 
BRANCH  46  60
ATOM     60  C   UNL A   1      41.006  27.424  28.073  1.00  0.00     0.023 A 
ATOM     61  C   UNL A   1      41.605  28.002  26.934  1.00  0.00     0.012 A 
ATOM     62  C   UNL A   1      40.634  26.066  28.042  1.00  0.00     0.148 A 
ATOM     63  C   UNL A   1      41.792  27.255  25.772  1.00  0.00     0.002 A 
ATOM     64  C   UNL A   1      40.871  25.314  26.896  1.00  0.00     0.091 A 
ATOM     65  F   UNL A   1      40.048  25.537  29.125  1.00  0.00    -0.205 F 
ATOM     66  C   UNL A   1      41.436  25.911  25.757  1.00  0.00     0.022 A 
BRANCH  64  67
ATOM     67  S   UNL A   1      40.526  23.554  26.805  1.00  0.00     0.127 S 
ATOM     68  O   UNL A   1      40.866  23.116  28.159  1.00  0.00    -0.237 OA
ATOM     69  O   UNL A   1      39.096  23.537  26.500  1.00  0.00    -0.237 OA
ATOM     70  O   UNL A   1      41.381  23.031  25.748  1.00  0.00    -0.744 OA
ENDBRANCH  64  67
ENDBRANCH  46  60
BRANCH  47  71
ATOM     71  C   UNL A   1      39.144  32.706  36.350  1.00  0.00     0.023 A 
ATOM     72  C   UNL A   1      39.695  33.988  36.538  1.00  0.00     0.012 A 
ATOM     73  C   UNL A   1      38.303  32.167  37.343  1.00  0.00     0.148 A 
ATOM     74  C   UNL A   1      39.444  34.706  37.707  1.00  0.00     0.002 A 
ATOM     75  C   UNL A   1      38.010  32.911  38.480  1.00  0.00     0.091 A 
ATOM     76  F   UNL A   1      37.794  30.943  37.148  1.00  0.00    -0.205 F 
ATOM     77  C   UNL A   1      38.595  34.173  38.674  1.00  0.00     0.022 A 
BRANCH  75  78
ATOM     78  S   UNL A   1      36.825  32.363  39.713  1.00  0.00     0.127 S 
ATOM     79  O   UNL A   1      36.907  33.432  40.704  1.00  0.00    -0.237 OA
ATOM     80  O   UNL A   1      35.583  32.329  38.941  1.00  0.00    -0.237 OA
ATOM     81  O   UNL A   1      37.292  31.056  40.155  1.00  0.00    -0.744 OA
ENDBRANCH  75  78
ENDBRANCH  47  71
BRANCH  59  82
ATOM     82  C   UNL A   1      44.135  28.176  34.526  1.00  0.00     0.023 A 
ATOM     83  C   UNL A   1      45.349  28.891  34.540  1.00  0.00     0.012 A 
ATOM     84  C   UNL A   1      44.030  26.977  35.261  1.00  0.00     0.148 A 
ATOM     85  C   UNL A   1      46.450  28.405  35.246  1.00  0.00     0.002 A 
ATOM     86  C   UNL A   1      45.114  26.527  36.005  1.00  0.00     0.091 A 
ATOM     87  F   UNL A   1      42.873  26.302  35.221  1.00  0.00    -0.205 F 
ATOM     88  C   UNL A   1      46.328  27.231  35.987  1.00  0.00     0.022 A 
BRANCH  86  89
ATOM     89  S   UNL A   1      45.019  25.083  37.069  1.00  0.00     0.127 S 
ATOM     90  O   UNL A   1      44.859  24.005  36.094  1.00  0.00    -0.237 OA
ATOM     91  O   UNL A   1      46.318  25.109  37.743  1.00  0.00    -0.237 OA
ATOM     92  O   UNL A   1      43.878  25.305  37.947  1.00  0.00    -0.744 OA
ENDBRANCH  86  89
ENDBRANCH  59  82
ENDBRANCH  33  34
ENDBRANCH  25  28
ENDBRANCH  23  24
ENDBRANCH   1  23
TORSDOF 16
ENDMDL
