MODEL 1
REMARK VINA RESULT:      -9.9      0.000      0.000
REMARK SMILES C[C@@](O)(c1cccc(O)c1)[C@@H](F)C(=O)NCCCNC(=O)c1ccc(-c2c3nc(c(-c4cccc(S(=O)(=O)[O-])c4F)c4ccc([nH]4)c(-c4cccc(S(=O)(=O)[O-])c4F)c4nc(c(-c5cccc(S(=O)(=O)[O-])c5F)c5ccc2[nH]5)C=C4)C=C3)cc1
REMARK SMILES IDX 17 1 16 2 15 3 13 4 14 5 11 7 12 8 2 9 1 10 3 11 4 13 5 14
REMARK SMILES IDX 10 15 6 16 8 17 7 18 9 19 18 21 19 22 20 23 21 25 22 26
REMARK SMILES IDX 23 27 84 28 24 29 83 30 25 31 26 32 27 33 77 34 28 35 82 36
REMARK SMILES IDX 76 37 78 38 29 39 81 40 75 41 74 42 30 44 62 45 42 46 61 47
REMARK SMILES IDX 43 48 46 49 60 50 79 51 44 52 45 53 59 55 80 56 47 57 31 58
REMARK SMILES IDX 32 59 40 60 33 61 35 62 41 63 34 64 36 65 37 66 38 67 39 68
REMARK SMILES IDX 63 69 64 70 72 71 65 72 67 73 73 74 66 75 68 76 69 77 70 78
REMARK SMILES IDX 71 79 48 80 49 81 57 82 50 83 52 84 58 85 51 86 53 87 54 88
REMARK SMILES IDX 55 89 56 90
REMARK H PARENT 15 6 3 12 9 20 19 24 78 43 46 54
REMARK Flexibility Score: inf
ROOT
ATOM      1  C   UNL A   1      42.027  21.328  26.134  1.00  0.00     0.042 C 
ENDROOT
BRANCH   1   2
ATOM      2  C   UNL A   1      42.340  22.621  25.383  1.00  0.00     0.117 C 
BRANCH   2   3
ATOM      3  N   UNL A   1      43.511  22.503  24.525  1.00  0.00    -0.353 N 
ATOM      4  C   UNL A   1      44.650  23.250  24.450  1.00  0.00     0.257 C 
ATOM      5  O   UNL A   1      45.440  22.972  23.540  1.00  0.00    -0.272 OA
ATOM      6  H   UNL A   1      43.474  21.753  23.888  1.00  0.00     0.163 HD
BRANCH   4   7
ATOM      7  C   UNL A   1      44.937  24.420  25.392  1.00  0.00     0.291 C 
ATOM      8  F   UNL A   1      45.336  25.549  24.738  1.00  0.00    -0.233 F 
BRANCH   7   9
ATOM      9  C   UNL A   1      45.947  24.051  26.523  1.00  0.00     0.127 C 
ATOM     10  C   UNL A   1      47.252  24.845  26.369  1.00  0.00     0.051 C 
BRANCH   9  11
ATOM     11  O   UNL A   1      46.281  22.652  26.444  1.00  0.00    -0.382 OA
ATOM     12  H   UNL A   1      45.914  22.278  25.627  1.00  0.00     0.212 HD
ENDBRANCH   9  11
BRANCH   9  13
ATOM     13  C   UNL A   1      45.323  24.216  27.923  1.00  0.00    -0.010 A 
ATOM     14  C   UNL A   1      44.060  23.668  28.221  1.00  0.00     0.007 A 
ATOM     15  C   UNL A   1      45.996  24.871  28.972  1.00  0.00     0.053 A 
ATOM     16  C   UNL A   1      43.484  23.802  29.489  1.00  0.00     0.004 A 
ATOM     17  C   UNL A   1      45.422  24.991  30.235  1.00  0.00     0.115 A 
ATOM     18  C   UNL A   1      44.167  24.468  30.503  1.00  0.00     0.046 A 
BRANCH  17  19
ATOM     19  O   UNL A   1      46.146  25.637  31.193  1.00  0.00    -0.508 OA
ATOM     20  H   UNL A   1      46.911  26.123  30.953  1.00  0.00     0.293 HD
ENDBRANCH  17  19
ENDBRANCH   9  13
ENDBRANCH   7   9
ENDBRANCH   4   7
ENDBRANCH   2   3
ENDBRANCH   1   2
BRANCH   1  21
ATOM     21  C   UNL A   1      40.891  21.439  27.142  1.00  0.00     0.118 C 
BRANCH  21  22
ATOM     22  N   UNL A   1      39.608  21.635  26.491  1.00  0.00    -0.352 N 
ATOM     23  C   UNL A   1      38.800  22.746  26.471  1.00  0.00     0.251 C 
ATOM     24  H   UNL A   1      39.268  20.858  25.989  1.00  0.00     0.163 HD
ATOM     25  O   UNL A   1      37.642  22.630  26.078  1.00  0.00    -0.269 OA
BRANCH  23  26
ATOM     26  C   UNL A   1      39.299  24.070  26.918  1.00  0.00     0.039 A 
ATOM     27  C   UNL A   1      39.166  24.415  28.267  1.00  0.00     0.014 A 
ATOM     28  C   UNL A   1      39.837  24.999  26.022  1.00  0.00     0.014 A 
ATOM     29  C   UNL A   1      39.593  25.669  28.715  1.00  0.00     0.010 A 
ATOM     30  C   UNL A   1      40.342  26.216  26.485  1.00  0.00     0.010 A 
ATOM     31  C   UNL A   1      40.201  26.577  27.832  1.00  0.00    -0.014 A 
BRANCH  31  32
ATOM     32  C   UNL A   1      40.670  27.905  28.316  1.00  0.00     0.031 A 
ATOM     33  C   UNL A   1      42.135  28.261  28.300  1.00  0.00     0.074 A 
ATOM     34  C   UNL A   1      39.776  28.787  28.808  1.00  0.00     0.049 A 
ATOM     35  N   UNL A   1      42.713  29.389  28.630  1.00  0.00    -0.248 NA
ATOM     36  C   UNL A   1      43.079  27.210  27.887  1.00  0.00     0.031 C 
ATOM     37  C   UNL A   1      38.344  28.533  28.974  1.00  0.00     0.029 A 
ATOM     38  N   UNL A   1      39.940  30.070  29.267  1.00  0.00    -0.354 N 
ATOM     39  C   UNL A   1      44.080  29.175  28.493  1.00  0.00     0.074 A 
ATOM     40  C   UNL A   1      44.250  27.796  28.092  1.00  0.00     0.031 C 
ATOM     41  C   UNL A   1      37.757  29.631  29.475  1.00  0.00     0.029 A 
ATOM     42  C   UNL A   1      38.770  30.663  29.680  1.00  0.00     0.049 A 
ATOM     43  H   UNL A   1      40.814  30.524  29.297  1.00  0.00     0.167 HD
ATOM     44  C   UNL A   1      45.101  30.052  28.651  1.00  0.00     0.034 A 
ATOM     45  C   UNL A   1      38.534  31.903  30.155  1.00  0.00     0.034 A 
ATOM     46  C   UNL A   1      44.929  31.437  29.002  1.00  0.00     0.049 A 
ATOM     47  C   UNL A   1      39.672  32.883  30.237  1.00  0.00     0.074 A 
ATOM     48  C   UNL A   1      45.890  32.428  29.098  1.00  0.00     0.029 A 
ATOM     49  N   UNL A   1      43.715  32.027  29.316  1.00  0.00    -0.354 N 
ATOM     50  N   UNL A   1      40.936  32.710  29.932  1.00  0.00    -0.248 NA
ATOM     51  C   UNL A   1      39.344  34.244  30.682  1.00  0.00     0.031 C 
ATOM     52  C   UNL A   1      45.258  33.616  29.485  1.00  0.00     0.029 A 
ATOM     53  C   UNL A   1      43.900  33.369  29.608  1.00  0.00     0.049 A 
ATOM     54  H   UNL A   1      42.847  31.562  29.330  1.00  0.00     0.167 HD
ATOM     55  C   UNL A   1      41.546  33.945  30.115  1.00  0.00     0.074 A 
ATOM     56  C   UNL A   1      40.505  34.865  30.529  1.00  0.00     0.031 C 
ATOM     57  C   UNL A   1      42.850  34.286  29.970  1.00  0.00     0.034 A 
BRANCH  44  58
ATOM     58  C   UNL A   1      46.499  29.556  28.377  1.00  0.00     0.023 A 
ATOM     59  C   UNL A   1      47.088  29.803  27.119  1.00  0.00     0.012 A 
ATOM     60  C   UNL A   1      47.252  28.902  29.372  1.00  0.00     0.148 A 
ATOM     61  C   UNL A   1      48.386  29.378  26.842  1.00  0.00     0.002 A 
ATOM     62  C   UNL A   1      48.562  28.520  29.103  1.00  0.00     0.091 A 
ATOM     63  F   UNL A   1      46.673  28.655  30.555  1.00  0.00    -0.205 F 
ATOM     64  C   UNL A   1      49.126  28.746  27.838  1.00  0.00     0.022 A 
BRANCH  62  65
ATOM     65  S   UNL A   1      49.626  27.770  30.343  1.00  0.00     0.127 S 
ATOM     66  O   UNL A   1      48.902  26.537  30.646  1.00  0.00    -0.237 OA
ATOM     67  O   UNL A   1      50.874  27.577  29.602  1.00  0.00    -0.237 OA
ATOM     68  O   UNL A   1      49.711  28.732  31.433  1.00  0.00    -0.744 OA
ENDBRANCH  62  65
ENDBRANCH  44  58
BRANCH  45  69
ATOM     69  C   UNL A   1      37.142  32.315  30.493  1.00  0.00     0.023 A 
ATOM     70  C   UNL A   1      36.677  32.162  31.814  1.00  0.00     0.012 A 
ATOM     71  C   UNL A   1      36.292  32.888  29.528  1.00  0.00     0.148 A 
ATOM     72  C   UNL A   1      35.380  32.541  32.160  1.00  0.00     0.002 A 
ATOM     73  C   UNL A   1      35.021  33.315  29.892  1.00  0.00     0.091 A 
ATOM     74  F   UNL A   1      36.748  33.013  28.274  1.00  0.00    -0.205 F 
ATOM     75  C   UNL A   1      34.557  33.127  31.203  1.00  0.00     0.022 A 
BRANCH  73  76
ATOM     76  S   UNL A   1      33.948  34.206  28.760  1.00  0.00     0.127 S 
ATOM     77  O   UNL A   1      33.620  33.170  27.784  1.00  0.00    -0.237 OA
ATOM     78  O   UNL A   1      32.842  34.600  29.636  1.00  0.00    -0.237 OA
ATOM     79  O   UNL A   1      34.743  35.319  28.264  1.00  0.00    -0.744 OA
ENDBRANCH  73  76
ENDBRANCH  45  69
BRANCH  57  80
ATOM     80  C   UNL A   1      43.227  35.721  30.235  1.00  0.00     0.023 A 
ATOM     81  C   UNL A   1      43.704  36.096  31.507  1.00  0.00     0.012 A 
ATOM     82  C   UNL A   1      43.149  36.688  29.215  1.00  0.00     0.148 A 
ATOM     83  C   UNL A   1      44.055  37.419  31.771  1.00  0.00     0.002 A 
ATOM     84  C   UNL A   1      43.548  37.995  29.471  1.00  0.00     0.091 A 
ATOM     85  F   UNL A   1      42.673  36.320  28.015  1.00  0.00    -0.205 F 
ATOM     86  C   UNL A   1      43.987  38.365  30.752  1.00  0.00     0.022 A 
BRANCH  84  87
ATOM     87  S   UNL A   1      43.578  39.250  28.185  1.00  0.00     0.127 S 
ATOM     88  O   UNL A   1      42.154  39.498  27.976  1.00  0.00    -0.237 OA
ATOM     89  O   UNL A   1      44.300  40.347  28.833  1.00  0.00    -0.237 OA
ATOM     90  O   UNL A   1      44.287  38.647  27.065  1.00  0.00    -0.744 OA
ENDBRANCH  84  87
ENDBRANCH  57  80
ENDBRANCH  31  32
ENDBRANCH  23  26
ENDBRANCH  21  22
ENDBRANCH   1  21
TORSDOF 17
ENDMDL
MODEL 2
REMARK VINA RESULT:      -9.8      5.155     10.881
REMARK SMILES C[C@@](O)(c1cccc(O)c1)[C@@H](F)C(=O)NCCCNC(=O)c1ccc(-c2c3nc(c(-c4cccc(S(=O)(=O)[O-])c4F)c4ccc([nH]4)c(-c4cccc(S(=O)(=O)[O-])c4F)c4nc(c(-c5cccc(S(=O)(=O)[O-])c5F)c5ccc2[nH]5)C=C4)C=C3)cc1
REMARK SMILES IDX 17 1 16 2 15 3 13 4 14 5 11 7 12 8 2 9 1 10 3 11 4 13 5 14
REMARK SMILES IDX 10 15 6 16 8 17 7 18 9 19 18 21 19 22 20 23 21 25 22 26
REMARK SMILES IDX 23 27 84 28 24 29 83 30 25 31 26 32 27 33 77 34 28 35 82 36
REMARK SMILES IDX 76 37 78 38 29 39 81 40 75 41 74 42 30 44 62 45 42 46 61 47
REMARK SMILES IDX 43 48 46 49 60 50 79 51 44 52 45 53 59 55 80 56 47 57 31 58
REMARK SMILES IDX 32 59 40 60 33 61 35 62 41 63 34 64 36 65 37 66 38 67 39 68
REMARK SMILES IDX 63 69 64 70 72 71 65 72 67 73 73 74 66 75 68 76 69 77 70 78
REMARK SMILES IDX 71 79 48 80 49 81 57 82 50 83 52 84 58 85 51 86 53 87 54 88
REMARK SMILES IDX 55 89 56 90
REMARK H PARENT 15 6 3 12 9 20 19 24 78 43 46 54
REMARK Flexibility Score: inf
ROOT
ATOM      1  C   UNL A   1      31.687  28.495  26.006  1.00  0.00     0.042 C 
ENDROOT
BRANCH   1   2
ATOM      2  C   UNL A   1      31.335  27.518  24.885  1.00  0.00     0.117 C 
BRANCH   2   3
ATOM      3  N   UNL A   1      32.262  27.594  23.763  1.00  0.00    -0.353 N 
ATOM      4  C   UNL A   1      33.057  26.646  23.188  1.00  0.00     0.257 C 
ATOM      5  O   UNL A   1      33.828  27.030  22.301  1.00  0.00    -0.272 OA
ATOM      6  H   UNL A   1      32.326  28.485  23.348  1.00  0.00     0.163 HD
BRANCH   4   7
ATOM      7  C   UNL A   1      33.061  25.184  23.638  1.00  0.00     0.291 C 
ATOM      8  F   UNL A   1      31.811  24.644  23.716  1.00  0.00    -0.233 F 
BRANCH   7   9
ATOM      9  C   UNL A   1      33.841  24.965  24.971  1.00  0.00     0.127 C 
ATOM     10  C   UNL A   1      32.905  24.445  26.071  1.00  0.00     0.051 C 
BRANCH   9  11
ATOM     11  O   UNL A   1      34.390  26.216  25.428  1.00  0.00    -0.382 OA
ATOM     12  H   UNL A   1      34.736  26.714  24.670  1.00  0.00     0.212 HD
ENDBRANCH   9  11
BRANCH   9  13
ATOM     13  C   UNL A   1      35.071  24.058  24.771  1.00  0.00    -0.010 A 
ATOM     14  C   UNL A   1      35.322  23.443  23.530  1.00  0.00     0.007 A 
ATOM     15  C   UNL A   1      36.017  23.842  25.792  1.00  0.00     0.053 A 
ATOM     16  C   UNL A   1      36.439  22.623  23.330  1.00  0.00     0.004 A 
ATOM     17  C   UNL A   1      37.133  23.034  25.583  1.00  0.00     0.115 A 
ATOM     18  C   UNL A   1      37.350  22.416  24.362  1.00  0.00     0.046 A 
BRANCH  17  19
ATOM     19  O   UNL A   1      38.000  22.883  26.624  1.00  0.00    -0.508 OA
ATOM     20  H   UNL A   1      38.868  22.565  26.469  1.00  0.00     0.293 HD
ENDBRANCH  17  19
ENDBRANCH   9  13
ENDBRANCH   7   9
ENDBRANCH   4   7
ENDBRANCH   2   3
ENDBRANCH   1   2
BRANCH   1  21
ATOM     21  C   UNL A   1      32.834  29.443  25.684  1.00  0.00     0.118 C 
BRANCH  21  22
ATOM     22  N   UNL A   1      32.510  30.818  26.022  1.00  0.00    -0.352 N 
ATOM     23  C   UNL A   1      33.058  31.632  26.983  1.00  0.00     0.251 C 
ATOM     24  H   UNL A   1      31.793  31.226  25.483  1.00  0.00     0.163 HD
ATOM     25  O   UNL A   1      32.476  32.673  27.281  1.00  0.00    -0.269 OA
BRANCH  23  26
ATOM     26  C   UNL A   1      34.327  31.274  27.665  1.00  0.00     0.039 A 
ATOM     27  C   UNL A   1      34.467  29.983  28.183  1.00  0.00     0.014 A 
ATOM     28  C   UNL A   1      35.352  32.206  27.857  1.00  0.00     0.014 A 
ATOM     29  C   UNL A   1      35.634  29.623  28.863  1.00  0.00     0.010 A 
ATOM     30  C   UNL A   1      36.551  31.821  28.459  1.00  0.00     0.010 A 
ATOM     31  C   UNL A   1      36.697  30.534  28.994  1.00  0.00    -0.014 A 
BRANCH  31  32
ATOM     32  C   UNL A   1      37.946  30.143  29.704  1.00  0.00     0.031 A 
ATOM     33  C   UNL A   1      38.229  30.636  31.101  1.00  0.00     0.074 A 
ATOM     34  C   UNL A   1      38.853  29.367  29.076  1.00  0.00     0.049 A 
ATOM     35  N   UNL A   1      39.236  30.350  31.888  1.00  0.00    -0.248 NA
ATOM     36  C   UNL A   1      37.274  31.593  31.684  1.00  0.00     0.031 C 
ATOM     37  C   UNL A   1      38.753  28.905  27.690  1.00  0.00     0.029 A 
ATOM     38  N   UNL A   1      40.042  28.840  29.516  1.00  0.00    -0.354 N 
ATOM     39  C   UNL A   1      39.053  31.109  33.039  1.00  0.00     0.074 A 
ATOM     40  C   UNL A   1      37.860  31.902  32.831  1.00  0.00     0.031 C 
ATOM     41  C   UNL A   1      39.821  28.145  27.401  1.00  0.00     0.029 A 
ATOM     42  C   UNL A   1      40.689  28.075  28.574  1.00  0.00     0.049 A 
ATOM     43  H   UNL A   1      40.396  28.993  30.422  1.00  0.00     0.167 HD
ATOM     44  C   UNL A   1      39.785  31.122  34.178  1.00  0.00     0.034 A 
ATOM     45  C   UNL A   1      41.844  27.383  28.647  1.00  0.00     0.034 A 
ATOM     46  C   UNL A   1      40.942  30.297  34.403  1.00  0.00     0.049 A 
ATOM     47  C   UNL A   1      42.591  27.345  29.952  1.00  0.00     0.074 A 
ATOM     48  C   UNL A   1      41.701  30.170  35.555  1.00  0.00     0.029 A 
ATOM     49  N   UNL A   1      41.512  29.459  33.457  1.00  0.00    -0.354 N 
ATOM     50  N   UNL A   1      42.302  27.933  31.088  1.00  0.00    -0.248 NA
ATOM     51  C   UNL A   1      43.798  26.508  30.000  1.00  0.00     0.031 C 
ATOM     52  C   UNL A   1      42.737  29.265  35.300  1.00  0.00     0.029 A 
ATOM     53  C   UNL A   1      42.612  28.811  33.996  1.00  0.00     0.049 A 
ATOM     54  H   UNL A   1      41.183  29.341  32.537  1.00  0.00     0.167 HD
ATOM     55  C   UNL A   1      43.269  27.512  31.993  1.00  0.00     0.074 A 
ATOM     56  C   UNL A   1      44.135  26.595  31.280  1.00  0.00     0.031 C 
ATOM     57  C   UNL A   1      43.436  27.864  33.292  1.00  0.00     0.034 A 
BRANCH  44  58
ATOM     58  C   UNL A   1      39.316  32.012  35.302  1.00  0.00     0.023 A 
ATOM     59  C   UNL A   1      38.417  31.500  36.261  1.00  0.00     0.012 A 
ATOM     60  C   UNL A   1      39.803  33.326  35.449  1.00  0.00     0.148 A 
ATOM     61  C   UNL A   1      37.982  32.289  37.324  1.00  0.00     0.002 A 
ATOM     62  C   UNL A   1      39.399  34.092  36.537  1.00  0.00     0.091 A 
ATOM     63  F   UNL A   1      40.641  33.805  34.519  1.00  0.00    -0.205 F 
ATOM     64  C   UNL A   1      38.481  33.581  37.468  1.00  0.00     0.022 A 
BRANCH  62  65
ATOM     65  S   UNL A   1      40.045  35.739  36.855  1.00  0.00     0.127 S 
ATOM     66  O   UNL A   1      39.379  36.079  38.112  1.00  0.00    -0.237 OA
ATOM     67  O   UNL A   1      41.482  35.489  36.975  1.00  0.00    -0.237 OA
ATOM     68  O   UNL A   1      39.665  36.547  35.705  1.00  0.00    -0.744 OA
ENDBRANCH  62  65
ENDBRANCH  44  58
BRANCH  45  69
ATOM     69  C   UNL A   1      42.308  26.587  27.475  1.00  0.00     0.023 A 
ATOM     70  C   UNL A   1      43.084  27.212  26.479  1.00  0.00     0.012 A 
ATOM     71  C   UNL A   1      42.016  25.216  27.358  1.00  0.00     0.148 A 
ATOM     72  C   UNL A   1      43.534  26.492  25.372  1.00  0.00     0.002 A 
ATOM     73  C   UNL A   1      42.515  24.491  26.282  1.00  0.00     0.091 A 
ATOM     74  F   UNL A   1      41.264  24.642  28.309  1.00  0.00    -0.205 F 
ATOM     75  C   UNL A   1      43.259  25.131  25.279  1.00  0.00     0.022 A 
BRANCH  73  76
ATOM     76  S   UNL A   1      42.327  22.709  26.156  1.00  0.00     0.127 S 
ATOM     77  O   UNL A   1      40.873  22.563  26.144  1.00  0.00    -0.237 OA
ATOM     78  O   UNL A   1      42.985  22.424  24.879  1.00  0.00    -0.237 OA
ATOM     79  O   UNL A   1      43.012  22.162  27.317  1.00  0.00    -0.744 OA
ENDBRANCH  73  76
ENDBRANCH  45  69
BRANCH  57  80
ATOM     80  C   UNL A   1      44.584  27.235  34.039  1.00  0.00     0.023 A 
ATOM     81  C   UNL A   1      45.855  27.844  34.011  1.00  0.00     0.012 A 
ATOM     82  C   UNL A   1      44.396  26.068  34.802  1.00  0.00     0.148 A 
ATOM     83  C   UNL A   1      46.930  27.276  34.694  1.00  0.00     0.002 A 
ATOM     84  C   UNL A   1      45.460  25.534  35.521  1.00  0.00     0.091 A 
ATOM     85  F   UNL A   1      43.186  25.487  34.803  1.00  0.00    -0.205 F 
ATOM     86  C   UNL A   1      46.730  26.128  35.456  1.00  0.00     0.022 A 
BRANCH  84  87
ATOM     87  S   UNL A   1      45.261  24.112  36.601  1.00  0.00     0.127 S 
ATOM     88  O   UNL A   1      44.274  24.601  37.561  1.00  0.00    -0.237 OA
ATOM     89  O   UNL A   1      44.764  23.086  35.684  1.00  0.00    -0.237 OA
ATOM     90  O   UNL A   1      46.587  23.840  37.141  1.00  0.00    -0.744 OA
ENDBRANCH  84  87
ENDBRANCH  57  80
ENDBRANCH  31  32
ENDBRANCH  23  26
ENDBRANCH  21  22
ENDBRANCH   1  21
TORSDOF 17
ENDMDL
MODEL 3
REMARK VINA RESULT:      -9.8      4.338     11.245
REMARK SMILES C[C@@](O)(c1cccc(O)c1)[C@@H](F)C(=O)NCCCNC(=O)c1ccc(-c2c3nc(c(-c4cccc(S(=O)(=O)[O-])c4F)c4ccc([nH]4)c(-c4cccc(S(=O)(=O)[O-])c4F)c4nc(c(-c5cccc(S(=O)(=O)[O-])c5F)c5ccc2[nH]5)C=C4)C=C3)cc1
REMARK SMILES IDX 17 1 16 2 15 3 13 4 14 5 11 7 12 8 2 9 1 10 3 11 4 13 5 14
REMARK SMILES IDX 10 15 6 16 8 17 7 18 9 19 18 21 19 22 20 23 21 25 22 26
REMARK SMILES IDX 23 27 84 28 24 29 83 30 25 31 26 32 27 33 77 34 28 35 82 36
REMARK SMILES IDX 76 37 78 38 29 39 81 40 75 41 74 42 30 44 62 45 42 46 61 47
REMARK SMILES IDX 43 48 46 49 60 50 79 51 44 52 45 53 59 55 80 56 47 57 31 58
REMARK SMILES IDX 32 59 40 60 33 61 35 62 41 63 34 64 36 65 37 66 38 67 39 68
REMARK SMILES IDX 63 69 64 70 72 71 65 72 67 73 73 74 66 75 68 76 69 77 70 78
REMARK SMILES IDX 71 79 48 80 49 81 57 82 50 83 52 84 58 85 51 86 53 87 54 88
REMARK SMILES IDX 55 89 56 90
REMARK H PARENT 15 6 3 12 9 20 19 24 78 43 46 54
REMARK Flexibility Score: inf
ROOT
ATOM      1  C   UNL A   1      34.319  33.405  29.753  1.00  0.00     0.042 C 
ENDROOT
BRANCH   1   2
ATOM      2  C   UNL A   1      34.771  32.435  30.844  1.00  0.00     0.117 C 
BRANCH   2   3
ATOM      3  N   UNL A   1      34.506  32.935  32.186  1.00  0.00    -0.353 N 
ATOM      4  C   UNL A   1      35.311  33.038  33.283  1.00  0.00     0.257 C 
ATOM      5  O   UNL A   1      34.776  33.411  34.333  1.00  0.00    -0.272 OA
ATOM      6  H   UNL A   1      33.585  33.255  32.326  1.00  0.00     0.163 HD
BRANCH   4   7
ATOM      7  C   UNL A   1      36.792  32.657  33.262  1.00  0.00     0.291 C 
ATOM      8  F   UNL A   1      37.118  31.723  34.201  1.00  0.00    -0.233 F 
BRANCH   7   9
ATOM      9  C   UNL A   1      37.735  33.896  33.365  1.00  0.00     0.127 C 
ATOM     10  C   UNL A   1      38.633  33.795  34.606  1.00  0.00     0.051 C 
BRANCH   9  11
ATOM     11  O   UNL A   1      36.952  35.097  33.496  1.00  0.00    -0.382 OA
ATOM     12  H   UNL A   1      36.275  34.970  34.180  1.00  0.00     0.212 HD
ENDBRANCH   9  11
BRANCH   9  13
ATOM     13  C   UNL A   1      38.545  34.107  32.071  1.00  0.00    -0.010 A 
ATOM     14  C   UNL A   1      37.915  34.083  30.812  1.00  0.00     0.007 A 
ATOM     15  C   UNL A   1      39.927  34.378  32.087  1.00  0.00     0.053 A 
ATOM     16  C   UNL A   1      38.636  34.281  29.628  1.00  0.00     0.004 A 
ATOM     17  C   UNL A   1      40.636  34.586  30.906  1.00  0.00     0.115 A 
ATOM     18  C   UNL A   1      40.004  34.534  29.674  1.00  0.00     0.046 A 
BRANCH  17  19
ATOM     19  O   UNL A   1      41.970  34.847  31.015  1.00  0.00    -0.508 OA
ATOM     20  H   UNL A   1      42.592  34.292  30.587  1.00  0.00     0.293 HD
ENDBRANCH  17  19
ENDBRANCH   9  13
ENDBRANCH   7   9
ENDBRANCH   4   7
ENDBRANCH   2   3
ENDBRANCH   1   2
BRANCH   1  21
ATOM     21  C   UNL A   1      34.763  33.030  28.347  1.00  0.00     0.118 C 
BRANCH  21  22
ATOM     22  N   UNL A   1      34.024  31.890  27.833  1.00  0.00    -0.352 N 
ATOM     23  C   UNL A   1      34.469  30.626  27.530  1.00  0.00     0.251 C 
ATOM     24  H   UNL A   1      33.063  32.045  27.682  1.00  0.00     0.163 HD
ATOM     25  O   UNL A   1      33.744  29.884  26.872  1.00  0.00    -0.269 OA
BRANCH  23  26
ATOM     26  C   UNL A   1      35.803  30.151  27.976  1.00  0.00     0.039 A 
ATOM     27  C   UNL A   1      35.913  29.548  29.233  1.00  0.00     0.014 A 
ATOM     28  C   UNL A   1      36.953  30.346  27.204  1.00  0.00     0.014 A 
ATOM     29  C   UNL A   1      37.161  29.122  29.699  1.00  0.00     0.010 A 
ATOM     30  C   UNL A   1      38.183  29.842  27.633  1.00  0.00     0.010 A 
ATOM     31  C   UNL A   1      38.308  29.249  28.896  1.00  0.00    -0.014 A 
BRANCH  31  32
ATOM     32  C   UNL A   1      39.632  28.779  29.388  1.00  0.00     0.031 A 
ATOM     33  C   UNL A   1      40.328  29.480  30.527  1.00  0.00     0.074 A 
ATOM     34  C   UNL A   1      40.233  27.734  28.783  1.00  0.00     0.049 A 
ATOM     35  N   UNL A   1      41.455  29.173  31.119  1.00  0.00    -0.248 NA
ATOM     36  C   UNL A   1      39.695  30.699  31.055  1.00  0.00     0.031 C 
ATOM     37  C   UNL A   1      39.719  27.030  27.607  1.00  0.00     0.029 A 
ATOM     38  N   UNL A   1      41.412  27.089  29.066  1.00  0.00    -0.354 N 
ATOM     39  C   UNL A   1      41.678  30.169  32.063  1.00  0.00     0.074 A 
ATOM     40  C   UNL A   1      40.592  31.116  31.936  1.00  0.00     0.031 C 
ATOM     41  C   UNL A   1      40.563  26.037  27.284  1.00  0.00     0.029 A 
ATOM     42  C   UNL A   1      41.686  26.042  28.218  1.00  0.00     0.049 A 
ATOM     43  H   UNL A   1      42.004  27.352  29.807  1.00  0.00     0.167 HD
ATOM     44  C   UNL A   1      42.674  30.272  32.976  1.00  0.00     0.034 A 
ATOM     45  C   UNL A   1      42.715  25.171  28.202  1.00  0.00     0.034 A 
ATOM     46  C   UNL A   1      43.727  29.305  33.135  1.00  0.00     0.049 A 
ATOM     47  C   UNL A   1      43.760  25.256  29.281  1.00  0.00     0.074 A 
ATOM     48  C   UNL A   1      44.730  29.270  34.088  1.00  0.00     0.029 A 
ATOM     49  N   UNL A   1      43.915  28.200  32.319  1.00  0.00    -0.354 N 
ATOM     50  N   UNL A   1      43.855  26.105  30.275  1.00  0.00    -0.248 NA
ATOM     51  C   UNL A   1      44.814  24.232  29.265  1.00  0.00     0.031 C 
ATOM     52  C   UNL A   1      45.534  28.151  33.839  1.00  0.00     0.029 A 
ATOM     53  C   UNL A   1      45.017  27.477  32.744  1.00  0.00     0.049 A 
ATOM     54  H   UNL A   1      43.348  27.963  31.550  1.00  0.00     0.167 HD
ATOM     55  C   UNL A   1      44.955  25.699  31.021  1.00  0.00     0.074 A 
ATOM     56  C   UNL A   1      45.476  24.509  30.379  1.00  0.00     0.031 C 
ATOM     57  C   UNL A   1      45.497  26.267  32.127  1.00  0.00     0.034 A 
BRANCH  44  58
ATOM     58  C   UNL A   1      42.634  31.443  33.926  1.00  0.00     0.023 A 
ATOM     59  C   UNL A   1      43.161  32.686  33.516  1.00  0.00     0.012 A 
ATOM     60  C   UNL A   1      42.028  31.338  35.194  1.00  0.00     0.148 A 
ATOM     61  C   UNL A   1      43.120  33.793  34.362  1.00  0.00     0.002 A 
ATOM     62  C   UNL A   1      41.950  32.458  36.014  1.00  0.00     0.091 A 
ATOM     63  F   UNL A   1      41.550  30.146  35.577  1.00  0.00    -0.205 F 
ATOM     64  C   UNL A   1      42.505  33.681  35.606  1.00  0.00     0.022 A 
BRANCH  62  65
ATOM     65  S   UNL A   1      41.109  32.439  37.603  1.00  0.00     0.127 S 
ATOM     66  O   UNL A   1      41.076  33.862  37.936  1.00  0.00    -0.237 OA
ATOM     67  O   UNL A   1      39.808  31.865  37.256  1.00  0.00    -0.237 OA
ATOM     68  O   UNL A   1      41.924  31.608  38.478  1.00  0.00    -0.744 OA
ENDBRANCH  62  65
ENDBRANCH  44  58
BRANCH  45  69
ATOM     69  C   UNL A   1      42.750  24.082  27.185  1.00  0.00     0.023 A 
ATOM     70  C   UNL A   1      43.532  24.244  26.025  1.00  0.00     0.012 A 
ATOM     71  C   UNL A   1      42.045  22.879  27.375  1.00  0.00     0.148 A 
ATOM     72  C   UNL A   1      43.586  23.241  25.057  1.00  0.00     0.002 A 
ATOM     73  C   UNL A   1      42.148  21.861  26.434  1.00  0.00     0.091 A 
ATOM     74  F   UNL A   1      41.296  22.748  28.479  1.00  0.00    -0.205 F 
ATOM     75  C   UNL A   1      42.904  22.046  25.267  1.00  0.00     0.022 A 
BRANCH  73  76
ATOM     76  S   UNL A   1      41.416  20.240  26.691  1.00  0.00     0.127 S 
ATOM     77  O   UNL A   1      41.770  19.553  25.452  1.00  0.00    -0.237 OA
ATOM     78  O   UNL A   1      42.129  19.771  27.881  1.00  0.00    -0.237 OA
ATOM     79  O   UNL A   1      39.997  20.483  26.902  1.00  0.00    -0.744 OA
ENDBRANCH  73  76
ENDBRANCH  45  69
BRANCH  57  80
ATOM     80  C   UNL A   1      46.702  25.595  32.733  1.00  0.00     0.023 A 
ATOM     81  C   UNL A   1      46.535  24.684  33.796  1.00  0.00     0.012 A 
ATOM     82  C   UNL A   1      47.993  25.832  32.225  1.00  0.00     0.148 A 
ATOM     83  C   UNL A   1      47.638  24.055  34.371  1.00  0.00     0.002 A 
ATOM     84  C   UNL A   1      49.083  25.163  32.770  1.00  0.00     0.091 A 
ATOM     85  F   UNL A   1      48.138  26.717  31.227  1.00  0.00    -0.205 F 
ATOM     86  C   UNL A   1      48.909  24.286  33.852  1.00  0.00     0.022 A 
BRANCH  84  87
ATOM     87  S   UNL A   1      50.740  25.335  32.097  1.00  0.00     0.127 S 
ATOM     88  O   UNL A   1      51.019  26.747  32.346  1.00  0.00    -0.237 OA
ATOM     89  O   UNL A   1      51.514  24.406  32.921  1.00  0.00    -0.237 OA
ATOM     90  O   UNL A   1      50.637  24.948  30.696  1.00  0.00    -0.744 OA
ENDBRANCH  84  87
ENDBRANCH  57  80
ENDBRANCH  31  32
ENDBRANCH  23  26
ENDBRANCH  21  22
ENDBRANCH   1  21
TORSDOF 17
ENDMDL
