MODEL 1
REMARK VINA RESULT:     -13.1      0.000      0.000
REMARK SMILES Cn1c(C(=O)NCCCNC(=O)c2ccc(-c3c4nc(c(-c5cccc(S(=O)(=O)[O-])c5F)c5ccc([nH]5)c(-c5cccc(S(=O)(=O)[O-])c5F)c5nc(c(-c6cccc(S(=O)(=O)[O-])c6F)c6ccc3[nH]6)C=C5)C=C4)cc2)cc2cc(OCc3ccccc3)ccc21
REMARK SMILES IDX 8 1 7 2 6 3 4 4 5 5 3 7 1 8 2 9 90 10 76 11 77 12 89 13
REMARK SMILES IDX 78 14 88 15 79 16 80 17 81 18 82 19 83 20 87 21 84 22 86 23
REMARK SMILES IDX 85 24 9 25 10 26 11 27 12 29 13 30 14 31 75 32 15 33 74 34
REMARK SMILES IDX 16 35 17 36 18 37 68 38 19 39 73 40 67 41 69 42 20 43 72 44
REMARK SMILES IDX 66 45 65 46 21 48 53 49 33 50 52 51 34 52 37 53 51 54 70 55
REMARK SMILES IDX 35 56 36 57 50 59 71 60 38 61 22 62 23 63 31 64 24 65 26 66
REMARK SMILES IDX 32 67 25 68 27 69 28 70 29 71 30 72 54 73 55 74 63 75 56 76
REMARK SMILES IDX 58 77 64 78 57 79 59 80 60 81 61 82 62 83 39 84 40 85 48 86
REMARK SMILES IDX 41 87 43 88 49 89 42 90 44 91 45 92 46 93 47 94
REMARK H PARENT 6 6 10 28 69 47 37 58
REMARK Flexibility Score: inf
ROOT
ATOM      1  C   UNL A   1      32.497  29.730  25.221  1.00  0.00     0.042 C 
ENDROOT
BRANCH   1   2
ATOM      2  C   UNL A   1      31.036  29.411  25.004  1.00  0.00     0.118 C 
BRANCH   2   3
ATOM      3  N   UNL A   1      30.539  29.558  23.655  1.00  0.00    -0.351 N 
ATOM      4  C   UNL A   1      30.477  28.637  22.635  1.00  0.00     0.267 C 
ATOM      5  O   UNL A   1      29.993  29.032  21.576  1.00  0.00    -0.268 OA
ATOM      6  H   UNL A   1      30.192  30.452  23.434  1.00  0.00     0.163 HD
BRANCH   4   7
ATOM      7  C   UNL A   1      31.026  27.297  22.776  1.00  0.00     0.107 A 
ATOM      8  C   UNL A   1      33.513  27.523  22.256  1.00  0.00     0.150 C 
ATOM      9  N   UNL A   1      32.282  26.797  22.490  1.00  0.00    -0.340 N 
ATOM     10  C   UNL A   1      32.290  25.421  22.598  1.00  0.00     0.049 A 
ATOM     11  C   UNL A   1      30.337  26.226  23.350  1.00  0.00     0.042 A 
ATOM     12  C   UNL A   1      31.114  25.045  23.232  1.00  0.00     0.004 A 
ATOM     13  C   UNL A   1      33.276  24.503  22.238  1.00  0.00     0.031 A 
ATOM     14  C   UNL A   1      30.937  23.689  23.583  1.00  0.00     0.056 A 
ATOM     15  C   UNL A   1      33.086  23.175  22.607  1.00  0.00     0.048 A 
ATOM     16  C   UNL A   1      31.939  22.755  23.275  1.00  0.00     0.120 A 
BRANCH  16  17
ATOM     17  O   UNL A   1      31.677  21.462  23.653  1.00  0.00    -0.489 OA
BRANCH  17  18
ATOM     18  C   UNL A   1      32.583  20.830  24.573  1.00  0.00     0.265 C 
BRANCH  18  19
ATOM     19  C   UNL A   1      33.115  19.506  24.066  1.00  0.00    -0.011 A 
ATOM     20  C   UNL A   1      34.251  18.930  24.647  1.00  0.00     0.007 A 
ATOM     21  C   UNL A   1      32.444  18.806  23.048  1.00  0.00     0.007 A 
ATOM     22  C   UNL A   1      34.679  17.662  24.254  1.00  0.00     0.000 A 
ATOM     23  C   UNL A   1      32.858  17.526  22.677  1.00  0.00     0.000 A 
ATOM     24  C   UNL A   1      33.973  16.954  23.283  1.00  0.00     0.000 A 
ENDBRANCH  18  19
ENDBRANCH  17  18
ENDBRANCH  16  17
ENDBRANCH   4   7
ENDBRANCH   2   3
ENDBRANCH   1   2
BRANCH   1  25
ATOM     25  C   UNL A   1      32.886  30.044  26.651  1.00  0.00     0.118 C 
BRANCH  25  26
ATOM     26  N   UNL A   1      32.921  31.469  26.970  1.00  0.00    -0.352 N 
ATOM     27  C   UNL A   1      33.837  32.227  27.667  1.00  0.00     0.251 C 
ATOM     28  H   UNL A   1      32.152  31.979  26.626  1.00  0.00     0.163 HD
ATOM     29  O   UNL A   1      33.585  33.409  27.892  1.00  0.00    -0.269 OA
BRANCH  27  30
ATOM     30  C   UNL A   1      35.095  31.631  28.175  1.00  0.00     0.039 A 
ATOM     31  C   UNL A   1      36.250  32.418  28.249  1.00  0.00     0.014 A 
ATOM     32  C   UNL A   1      35.149  30.302  28.586  1.00  0.00     0.014 A 
ATOM     33  C   UNL A   1      37.415  31.890  28.815  1.00  0.00     0.010 A 
ATOM     34  C   UNL A   1      36.248  29.836  29.293  1.00  0.00     0.010 A 
ATOM     35  C   UNL A   1      37.411  30.608  29.387  1.00  0.00    -0.014 A 
BRANCH  35  36
ATOM     36  C   UNL A   1      38.613  30.032  30.045  1.00  0.00     0.031 A 
ATOM     37  C   UNL A   1      39.001  30.484  31.433  1.00  0.00     0.074 A 
ATOM     38  C   UNL A   1      39.404  29.173  29.371  1.00  0.00     0.049 A 
ATOM     39  N   UNL A   1      40.041  30.144  32.151  1.00  0.00    -0.248 NA
ATOM     40  C   UNL A   1      38.132  31.480  32.087  1.00  0.00     0.031 C 
ATOM     41  C   UNL A   1      39.196  28.732  27.990  1.00  0.00     0.029 A 
ATOM     42  N   UNL A   1      40.555  28.529  29.752  1.00  0.00    -0.354 N 
ATOM     43  C   UNL A   1      39.972  30.914  33.308  1.00  0.00     0.074 A 
ATOM     44  C   UNL A   1      38.825  31.781  33.173  1.00  0.00     0.031 C 
ATOM     45  C   UNL A   1      40.170  27.874  27.648  1.00  0.00     0.029 A 
ATOM     46  C   UNL A   1      41.091  27.728  28.770  1.00  0.00     0.049 A 
ATOM     47  H   UNL A   1      40.958  28.631  30.644  1.00  0.00     0.167 HD
ATOM     48  C   UNL A   1      40.763  30.876  34.406  1.00  0.00     0.034 A 
ATOM     49  C   UNL A   1      42.201  26.963  28.774  1.00  0.00     0.034 A 
ATOM     50  C   UNL A   1      41.868  29.972  34.562  1.00  0.00     0.049 A 
ATOM     51  C   UNL A   1      43.029  26.891  30.029  1.00  0.00     0.074 A 
ATOM     52  C   UNL A   1      42.677  29.785  35.668  1.00  0.00     0.029 A 
ATOM     53  N   UNL A   1      42.322  29.106  33.580  1.00  0.00    -0.354 N 
ATOM     54  N   UNL A   1      42.854  27.512  31.170  1.00  0.00    -0.248 NA
ATOM     55  C   UNL A   1      44.181  25.981  30.010  1.00  0.00     0.031 C 
ATOM     56  C   UNL A   1      43.641  28.825  35.343  1.00  0.00     0.029 A 
ATOM     57  C   UNL A   1      43.404  28.384  34.051  1.00  0.00     0.049 A 
ATOM     58  H   UNL A   1      41.932  29.017  32.681  1.00  0.00     0.167 HD
ATOM     59  C   UNL A   1      43.847  27.035  32.018  1.00  0.00     0.074 A 
ATOM     60  C   UNL A   1      44.605  26.059  31.263  1.00  0.00     0.031 C 
ATOM     61  C   UNL A   1      44.115  27.380  33.303  1.00  0.00     0.034 A 
BRANCH  48  62
ATOM     62  C   UNL A   1      40.425  31.804  35.546  1.00  0.00     0.023 A 
ATOM     63  C   UNL A   1      41.215  32.950  35.774  1.00  0.00     0.012 A 
ATOM     64  C   UNL A   1      39.302  31.568  36.363  1.00  0.00     0.148 A 
ATOM     65  C   UNL A   1      40.921  33.821  36.823  1.00  0.00     0.002 A 
ATOM     66  C   UNL A   1      38.984  32.469  37.373  1.00  0.00     0.091 A 
ATOM     67  F   UNL A   1      38.575  30.462  36.147  1.00  0.00    -0.205 F 
ATOM     68  C   UNL A   1      39.800  33.587  37.614  1.00  0.00     0.022 A 
BRANCH  66  69
ATOM     69  S   UNL A   1      37.514  32.305  38.391  1.00  0.00     0.127 S 
ATOM     70  O   UNL A   1      37.934  32.971  39.623  1.00  0.00    -0.237 OA
ATOM     71  O   UNL A   1      36.518  33.038  37.609  1.00  0.00    -0.237 OA
ATOM     72  O   UNL A   1      37.263  30.876  38.509  1.00  0.00    -0.744 OA
ENDBRANCH  66  69
ENDBRANCH  48  62
BRANCH  49  73
ATOM     73  C   UNL A   1      42.550  26.144  27.578  1.00  0.00     0.023 A 
ATOM     74  C   UNL A   1      43.318  26.718  26.545  1.00  0.00     0.012 A 
ATOM     75  C   UNL A   1      42.144  24.801  27.465  1.00  0.00     0.148 A 
ATOM     76  C   UNL A   1      43.640  25.983  25.404  1.00  0.00     0.002 A 
ATOM     77  C   UNL A   1      42.518  24.056  26.352  1.00  0.00     0.091 A 
ATOM     78  F   UNL A   1      41.409  24.275  28.454  1.00  0.00    -0.205 F 
ATOM     79  C   UNL A   1      43.249  24.650  25.311  1.00  0.00     0.022 A 
BRANCH  77  80
ATOM     80  S   UNL A   1      42.174  22.299  26.208  1.00  0.00     0.127 S 
ATOM     81  O   UNL A   1      42.724  21.784  27.459  1.00  0.00    -0.237 OA
ATOM     82  O   UNL A   1      40.713  22.286  26.125  1.00  0.00    -0.237 OA
ATOM     83  O   UNL A   1      42.847  21.865  24.993  1.00  0.00    -0.744 OA
ENDBRANCH  77  80
ENDBRANCH  49  73
BRANCH  61  84
ATOM     84  C   UNL A   1      45.240  26.659  33.997  1.00  0.00     0.023 A 
ATOM     85  C   UNL A   1      46.546  27.186  33.967  1.00  0.00     0.012 A 
ATOM     86  C   UNL A   1      44.985  25.484  34.732  1.00  0.00     0.148 A 
ATOM     87  C   UNL A   1      47.589  26.528  34.618  1.00  0.00     0.002 A 
ATOM     88  C   UNL A   1      46.017  24.866  35.424  1.00  0.00     0.091 A 
ATOM     89  F   UNL A   1      43.738  24.988  34.735  1.00  0.00    -0.205 F 
ATOM     90  C   UNL A   1      47.324  25.377  35.355  1.00  0.00     0.022 A 
BRANCH  88  91
ATOM     91  S   UNL A   1      45.745  23.440  36.482  1.00  0.00     0.127 S 
ATOM     92  O   UNL A   1      47.114  23.059  36.826  1.00  0.00    -0.237 OA
ATOM     93  O   UNL A   1      44.975  24.014  37.586  1.00  0.00    -0.237 OA
ATOM     94  O   UNL A   1      45.012  22.476  35.673  1.00  0.00    -0.744 OA
ENDBRANCH  88  91
ENDBRANCH  61  84
ENDBRANCH  35  36
ENDBRANCH  27  30
ENDBRANCH  25  26
ENDBRANCH   1  25
TORSDOF 16
ENDMDL
MODEL 2
REMARK VINA RESULT:     -12.6      5.139     10.480
REMARK SMILES Cn1c(C(=O)NCCCNC(=O)c2ccc(-c3c4nc(c(-c5cccc(S(=O)(=O)[O-])c5F)c5ccc([nH]5)c(-c5cccc(S(=O)(=O)[O-])c5F)c5nc(c(-c6cccc(S(=O)(=O)[O-])c6F)c6ccc3[nH]6)C=C5)C=C4)cc2)cc2cc(OCc3ccccc3)ccc21
REMARK SMILES IDX 8 1 7 2 6 3 4 4 5 5 3 7 1 8 2 9 90 10 76 11 77 12 89 13
REMARK SMILES IDX 78 14 88 15 79 16 80 17 81 18 82 19 83 20 87 21 84 22 86 23
REMARK SMILES IDX 85 24 9 25 10 26 11 27 12 29 13 30 14 31 75 32 15 33 74 34
REMARK SMILES IDX 16 35 17 36 18 37 68 38 19 39 73 40 67 41 69 42 20 43 72 44
REMARK SMILES IDX 66 45 65 46 21 48 53 49 33 50 52 51 34 52 37 53 51 54 70 55
REMARK SMILES IDX 35 56 36 57 50 59 71 60 38 61 22 62 23 63 31 64 24 65 26 66
REMARK SMILES IDX 32 67 25 68 27 69 28 70 29 71 30 72 54 73 55 74 63 75 56 76
REMARK SMILES IDX 58 77 64 78 57 79 59 80 60 81 61 82 62 83 39 84 40 85 48 86
REMARK SMILES IDX 41 87 43 88 49 89 42 90 44 91 45 92 46 93 47 94
REMARK H PARENT 6 6 10 28 69 47 37 58
REMARK Flexibility Score: inf
ROOT
ATOM      1  C   UNL A   1      35.341  21.299  25.416  1.00  0.00     0.042 C 
ENDROOT
BRANCH   1   2
ATOM      2  C   UNL A   1      35.259  19.954  24.731  1.00  0.00     0.118 C 
BRANCH   2   3
ATOM      3  N   UNL A   1      34.152  19.107  25.109  1.00  0.00    -0.351 N 
ATOM      4  C   UNL A   1      32.803  19.379  25.132  1.00  0.00     0.267 C 
ATOM      5  O   UNL A   1      32.070  18.460  25.494  1.00  0.00    -0.268 OA
ATOM      6  H   UNL A   1      34.400  18.197  25.393  1.00  0.00     0.163 HD
BRANCH   4   7
ATOM      7  C   UNL A   1      32.282  20.702  24.822  1.00  0.00     0.107 A 
ATOM      8  C   UNL A   1      32.041  20.759  22.283  1.00  0.00     0.150 C 
ATOM      9  N   UNL A   1      32.081  21.336  23.611  1.00  0.00    -0.340 N 
ATOM     10  C   UNL A   1      31.752  22.662  23.809  1.00  0.00     0.049 A 
ATOM     11  C   UNL A   1      31.780  21.588  25.778  1.00  0.00     0.042 A 
ATOM     12  C   UNL A   1      31.458  22.822  25.156  1.00  0.00     0.004 A 
ATOM     13  C   UNL A   1      31.634  23.700  22.885  1.00  0.00     0.031 A 
ATOM     14  C   UNL A   1      30.960  24.067  25.597  1.00  0.00     0.056 A 
ATOM     15  C   UNL A   1      31.129  24.914  23.341  1.00  0.00     0.048 A 
ATOM     16  C   UNL A   1      30.787  25.113  24.676  1.00  0.00     0.120 A 
BRANCH  16  17
ATOM     17  O   UNL A   1      30.301  26.285  25.197  1.00  0.00    -0.489 OA
BRANCH  17  18
ATOM     18  C   UNL A   1      30.705  27.518  24.580  1.00  0.00     0.265 C 
BRANCH  18  19
ATOM     19  C   UNL A   1      31.823  28.216  25.327  1.00  0.00    -0.011 A 
ATOM     20  C   UNL A   1      31.672  29.543  25.748  1.00  0.00     0.007 A 
ATOM     21  C   UNL A   1      33.001  27.528  25.664  1.00  0.00     0.007 A 
ATOM     22  C   UNL A   1      32.654  30.153  26.529  1.00  0.00     0.000 A 
ATOM     23  C   UNL A   1      33.969  28.130  26.467  1.00  0.00     0.000 A 
ATOM     24  C   UNL A   1      33.794  29.441  26.901  1.00  0.00     0.000 A 
ENDBRANCH  18  19
ENDBRANCH  17  18
ENDBRANCH  16  17
ENDBRANCH   4   7
ENDBRANCH   2   3
ENDBRANCH   1   2
BRANCH   1  25
ATOM     25  C   UNL A   1      36.728  21.903  25.495  1.00  0.00     0.118 C 
BRANCH  25  26
ATOM     26  N   UNL A   1      37.805  20.927  25.648  1.00  0.00    -0.352 N 
ATOM     27  C   UNL A   1      39.107  21.063  26.078  1.00  0.00     0.251 C 
ATOM     28  H   UNL A   1      37.556  20.008  25.397  1.00  0.00     0.163 HD
ATOM     29  O   UNL A   1      39.860  20.094  26.016  1.00  0.00    -0.269 OA
BRANCH  27  30
ATOM     30  C   UNL A   1      39.616  22.363  26.576  1.00  0.00     0.039 A 
ATOM     31  C   UNL A   1      40.635  22.382  27.535  1.00  0.00     0.014 A 
ATOM     32  C   UNL A   1      39.104  23.567  26.102  1.00  0.00     0.014 A 
ATOM     33  C   UNL A   1      41.186  23.602  27.940  1.00  0.00     0.010 A 
ATOM     34  C   UNL A   1      39.759  24.759  26.379  1.00  0.00     0.010 A 
ATOM     35  C   UNL A   1      40.785  24.801  27.329  1.00  0.00    -0.014 A 
BRANCH  35  36
ATOM     36  C   UNL A   1      41.384  26.112  27.693  1.00  0.00     0.031 A 
ATOM     37  C   UNL A   1      42.804  26.430  27.290  1.00  0.00     0.074 A 
ATOM     38  C   UNL A   1      40.690  26.981  28.455  1.00  0.00     0.049 A 
ATOM     39  N   UNL A   1      43.521  27.490  27.561  1.00  0.00    -0.248 NA
ATOM     40  C   UNL A   1      43.532  25.405  26.518  1.00  0.00     0.031 C 
ATOM     41  C   UNL A   1      39.346  26.755  28.993  1.00  0.00     0.029 A 
ATOM     42  N   UNL A   1      41.027  28.226  28.925  1.00  0.00    -0.354 N 
ATOM     43  C   UNL A   1      44.785  27.238  27.036  1.00  0.00     0.074 A 
ATOM     44  C   UNL A   1      44.758  25.904  26.484  1.00  0.00     0.031 C 
ATOM     45  C   UNL A   1      38.965  27.832  29.698  1.00  0.00     0.029 A 
ATOM     46  C   UNL A   1      40.046  28.811  29.693  1.00  0.00     0.049 A 
ATOM     47  H   UNL A   1      41.889  28.659  28.732  1.00  0.00     0.167 HD
ATOM     48  C   UNL A   1      45.862  28.056  26.976  1.00  0.00     0.034 A 
ATOM     49  C   UNL A   1      40.022  30.004  30.321  1.00  0.00     0.034 A 
ATOM     50  C   UNL A   1      45.869  29.403  27.473  1.00  0.00     0.049 A 
ATOM     51  C   UNL A   1      41.208  30.919  30.187  1.00  0.00     0.074 A 
ATOM     52  C   UNL A   1      46.874  30.350  27.381  1.00  0.00     0.029 A 
ATOM     53  N   UNL A   1      44.821  29.995  28.160  1.00  0.00    -0.354 N 
ATOM     54  N   UNL A   1      42.337  30.721  29.550  1.00  0.00    -0.248 NA
ATOM     55  C   UNL A   1      41.100  32.240  30.822  1.00  0.00     0.031 C 
ATOM     56  C   UNL A   1      46.443  31.505  28.040  1.00  0.00     0.029 A 
ATOM     57  C   UNL A   1      45.154  31.293  28.503  1.00  0.00     0.049 A 
ATOM     58  H   UNL A   1      43.965  29.557  28.371  1.00  0.00     0.167 HD
ATOM     59  C   UNL A   1      43.055  31.906  29.671  1.00  0.00     0.074 A 
ATOM     60  C   UNL A   1      42.222  32.822  30.424  1.00  0.00     0.031 C 
ATOM     61  C   UNL A   1      44.294  32.207  29.208  1.00  0.00     0.034 A 
BRANCH  48  62
ATOM     62  C   UNL A   1      47.104  27.531  26.301  1.00  0.00     0.023 A 
ATOM     63  C   UNL A   1      47.351  27.842  24.947  1.00  0.00     0.012 A 
ATOM     64  C   UNL A   1      48.049  26.767  27.015  1.00  0.00     0.148 A 
ATOM     65  C   UNL A   1      48.492  27.366  24.303  1.00  0.00     0.002 A 
ATOM     66  C   UNL A   1      49.210  26.342  26.381  1.00  0.00     0.091 A 
ATOM     67  F   UNL A   1      47.788  26.462  28.294  1.00  0.00    -0.205 F 
ATOM     68  C   UNL A   1      49.427  26.627  25.023  1.00  0.00     0.022 A 
BRANCH  66  69
ATOM     69  S   UNL A   1      50.517  25.458  27.241  1.00  0.00     0.127 S 
ATOM     70  O   UNL A   1      51.494  25.264  26.171  1.00  0.00    -0.237 OA
ATOM     71  O   UNL A   1      50.915  26.424  28.265  1.00  0.00    -0.237 OA
ATOM     72  O   UNL A   1      49.907  24.241  27.756  1.00  0.00    -0.744 OA
ENDBRANCH  66  69
ENDBRANCH  48  62
BRANCH  49  73
ATOM     73  C   UNL A   1      38.804  30.431  31.069  1.00  0.00     0.023 A 
ATOM     74  C   UNL A   1      38.701  30.151  32.446  1.00  0.00     0.012 A 
ATOM     75  C   UNL A   1      37.759  31.128  30.431  1.00  0.00     0.148 A 
ATOM     76  C   UNL A   1      37.564  30.518  33.164  1.00  0.00     0.002 A 
ATOM     77  C   UNL A   1      36.655  31.543  31.166  1.00  0.00     0.091 A 
ATOM     78  F   UNL A   1      37.873  31.380  29.120  1.00  0.00    -0.205 F 
ATOM     79  C   UNL A   1      36.545  31.222  32.528  1.00  0.00     0.022 A 
BRANCH  77  80
ATOM     80  S   UNL A   1      35.359  32.568  30.462  1.00  0.00     0.127 S 
ATOM     81  O   UNL A   1      34.910  31.751  29.338  1.00  0.00    -0.237 OA
ATOM     82  O   UNL A   1      34.413  32.660  31.574  1.00  0.00    -0.237 OA
ATOM     83  O   UNL A   1      36.000  33.828  30.113  1.00  0.00    -0.744 OA
ENDBRANCH  77  80
ENDBRANCH  49  73
BRANCH  61  84
ATOM     84  C   UNL A   1      44.809  33.601  29.453  1.00  0.00     0.023 A 
ATOM     85  C   UNL A   1      45.463  33.915  30.660  1.00  0.00     0.012 A 
ATOM     86  C   UNL A   1      44.692  34.587  28.453  1.00  0.00     0.148 A 
ATOM     87  C   UNL A   1      45.951  35.201  30.887  1.00  0.00     0.002 A 
ATOM     88  C   UNL A   1      45.231  35.849  28.663  1.00  0.00     0.091 A 
ATOM     89  F   UNL A   1      44.051  34.274  27.317  1.00  0.00    -0.205 F 
ATOM     90  C   UNL A   1      45.846  36.163  29.886  1.00  0.00     0.022 A 
BRANCH  88  91
ATOM     91  S   UNL A   1      45.233  37.116  27.390  1.00  0.00     0.127 S 
ATOM     92  O   UNL A   1      45.911  38.219  28.069  1.00  0.00    -0.237 OA
ATOM     93  O   UNL A   1      46.013  36.484  26.324  1.00  0.00    -0.237 OA
ATOM     94  O   UNL A   1      43.835  37.350  27.056  1.00  0.00    -0.744 OA
ENDBRANCH  88  91
ENDBRANCH  61  84
ENDBRANCH  35  36
ENDBRANCH  27  30
ENDBRANCH  25  26
ENDBRANCH   1  25
TORSDOF 16
ENDMDL
MODEL 3
REMARK VINA RESULT:     -12.5      2.508      8.182
REMARK SMILES Cn1c(C(=O)NCCCNC(=O)c2ccc(-c3c4nc(c(-c5cccc(S(=O)(=O)[O-])c5F)c5ccc([nH]5)c(-c5cccc(S(=O)(=O)[O-])c5F)c5nc(c(-c6cccc(S(=O)(=O)[O-])c6F)c6ccc3[nH]6)C=C5)C=C4)cc2)cc2cc(OCc3ccccc3)ccc21
REMARK SMILES IDX 8 1 7 2 6 3 4 4 5 5 3 7 1 8 2 9 90 10 76 11 77 12 89 13
REMARK SMILES IDX 78 14 88 15 79 16 80 17 81 18 82 19 83 20 87 21 84 22 86 23
REMARK SMILES IDX 85 24 9 25 10 26 11 27 12 29 13 30 14 31 75 32 15 33 74 34
REMARK SMILES IDX 16 35 17 36 18 37 68 38 19 39 73 40 67 41 69 42 20 43 72 44
REMARK SMILES IDX 66 45 65 46 21 48 53 49 33 50 52 51 34 52 37 53 51 54 70 55
REMARK SMILES IDX 35 56 36 57 50 59 71 60 38 61 22 62 23 63 31 64 24 65 26 66
REMARK SMILES IDX 32 67 25 68 27 69 28 70 29 71 30 72 54 73 55 74 63 75 56 76
REMARK SMILES IDX 58 77 64 78 57 79 59 80 60 81 61 82 62 83 39 84 40 85 48 86
REMARK SMILES IDX 41 87 43 88 49 89 42 90 44 91 45 92 46 93 47 94
REMARK H PARENT 6 6 10 28 69 47 37 58
REMARK Flexibility Score: inf
ROOT
ATOM      1  C   UNL A   1      31.659  31.504  26.827  1.00  0.00     0.042 C 
ENDROOT
BRANCH   1   2
ATOM      2  C   UNL A   1      31.835  30.469  25.741  1.00  0.00     0.118 C 
BRANCH   2   3
ATOM      3  N   UNL A   1      30.810  30.422  24.724  1.00  0.00    -0.351 N 
ATOM      4  C   UNL A   1      30.483  29.409  23.851  1.00  0.00     0.267 C 
ATOM      5  O   UNL A   1      29.549  29.635  23.084  1.00  0.00    -0.268 OA
ATOM      6  H   UNL A   1      30.264  31.236  24.644  1.00  0.00     0.163 HD
BRANCH   4   7
ATOM      7  C   UNL A   1      31.250  28.174  23.787  1.00  0.00     0.107 A 
ATOM      8  C   UNL A   1      33.456  28.802  22.670  1.00  0.00     0.150 C 
ATOM      9  N   UNL A   1      32.453  27.885  23.171  1.00  0.00    -0.340 N 
ATOM     10  C   UNL A   1      32.700  26.528  23.208  1.00  0.00     0.049 A 
ATOM     11  C   UNL A   1      30.904  27.003  24.463  1.00  0.00     0.042 A 
ATOM     12  C   UNL A   1      31.798  25.963  24.098  1.00  0.00     0.004 A 
ATOM     13  C   UNL A   1      33.692  25.784  22.569  1.00  0.00     0.031 A 
ATOM     14  C   UNL A   1      31.928  24.594  24.417  1.00  0.00     0.056 A 
ATOM     15  C   UNL A   1      33.809  24.440  22.910  1.00  0.00     0.048 A 
ATOM     16  C   UNL A   1      32.949  23.835  23.823  1.00  0.00     0.120 A 
BRANCH  16  17
ATOM     17  O   UNL A   1      32.996  22.515  24.193  1.00  0.00    -0.489 OA
BRANCH  17  18
ATOM     18  C   UNL A   1      33.591  22.188  25.460  1.00  0.00     0.265 C 
BRANCH  18  19
ATOM     19  C   UNL A   1      35.095  22.363  25.470  1.00  0.00    -0.011 A 
ATOM     20  C   UNL A   1      35.667  23.533  25.984  1.00  0.00     0.007 A 
ATOM     21  C   UNL A   1      35.941  21.334  25.023  1.00  0.00     0.007 A 
ATOM     22  C   UNL A   1      37.053  23.653  26.094  1.00  0.00     0.000 A 
ATOM     23  C   UNL A   1      37.325  21.445  25.158  1.00  0.00     0.000 A 
ATOM     24  C   UNL A   1      37.880  22.602  25.697  1.00  0.00     0.000 A 
ENDBRANCH  18  19
ENDBRANCH  17  18
ENDBRANCH  16  17
ENDBRANCH   4   7
ENDBRANCH   2   3
ENDBRANCH   1   2
BRANCH   1  25
ATOM     25  C   UNL A   1      32.889  32.331  27.141  1.00  0.00     0.118 C 
BRANCH  25  26
ATOM     26  N   UNL A   1      32.607  33.709  27.538  1.00  0.00    -0.352 N 
ATOM     27  C   UNL A   1      33.143  34.502  28.529  1.00  0.00     0.251 C 
ATOM     28  H   UNL A   1      31.908  34.148  27.002  1.00  0.00     0.163 HD
ATOM     29  O   UNL A   1      32.656  35.611  28.734  1.00  0.00    -0.269 OA
BRANCH  27  30
ATOM     30  C   UNL A   1      34.266  34.023  29.369  1.00  0.00     0.039 A 
ATOM     31  C   UNL A   1      34.023  33.080  30.373  1.00  0.00     0.014 A 
ATOM     32  C   UNL A   1      35.563  34.490  29.173  1.00  0.00     0.014 A 
ATOM     33  C   UNL A   1      35.091  32.553  31.106  1.00  0.00     0.010 A 
ATOM     34  C   UNL A   1      36.633  33.849  29.782  1.00  0.00     0.010 A 
ATOM     35  C   UNL A   1      36.414  32.898  30.784  1.00  0.00    -0.014 A 
BRANCH  35  36
ATOM     36  C   UNL A   1      37.579  32.320  31.503  1.00  0.00     0.031 A 
ATOM     37  C   UNL A   1      38.368  31.195  30.877  1.00  0.00     0.074 A 
ATOM     38  C   UNL A   1      37.878  32.740  32.749  1.00  0.00     0.049 A 
ATOM     39  N   UNL A   1      39.378  30.522  31.367  1.00  0.00    -0.248 NA
ATOM     40  C   UNL A   1      37.944  30.734  29.541  1.00  0.00     0.031 C 
ATOM     41  C   UNL A   1      37.135  33.749  33.506  1.00  0.00     0.029 A 
ATOM     42  N   UNL A   1      38.879  32.356  33.607  1.00  0.00    -0.354 N 
ATOM     43  C   UNL A   1      39.672  29.540  30.427  1.00  0.00     0.074 A 
ATOM     44  C   UNL A   1      38.701  29.663  29.365  1.00  0.00     0.031 C 
ATOM     45  C   UNL A   1      37.718  33.922  34.703  1.00  0.00     0.029 A 
ATOM     46  C   UNL A   1      38.853  33.013  34.815  1.00  0.00     0.049 A 
ATOM     47  H   UNL A   1      39.550  31.674  33.379  1.00  0.00     0.167 HD
ATOM     48  C   UNL A   1      40.685  28.642  30.420  1.00  0.00     0.034 A 
ATOM     49  C   UNL A   1      39.656  32.896  35.892  1.00  0.00     0.034 A 
ATOM     50  C   UNL A   1      41.684  28.560  31.448  1.00  0.00     0.049 A 
ATOM     51  C   UNL A   1      40.812  31.934  35.835  1.00  0.00     0.074 A 
ATOM     52  C   UNL A   1      42.806  27.751  31.496  1.00  0.00     0.029 A 
ATOM     53  N   UNL A   1      41.680  29.311  32.613  1.00  0.00    -0.354 N 
ATOM     54  N   UNL A   1      41.165  31.123  34.867  1.00  0.00    -0.248 NA
ATOM     55  C   UNL A   1      41.705  31.902  37.001  1.00  0.00     0.031 C 
ATOM     56  C   UNL A   1      43.464  27.994  32.705  1.00  0.00     0.029 A 
ATOM     57  C   UNL A   1      42.777  28.983  33.390  1.00  0.00     0.049 A 
ATOM     58  H   UNL A   1      40.998  29.979  32.852  1.00  0.00     0.167 HD
ATOM     59  C   UNL A   1      42.343  30.518  35.288  1.00  0.00     0.074 A 
ATOM     60  C   UNL A   1      42.653  31.073  36.590  1.00  0.00     0.031 C 
ATOM     61  C   UNL A   1      43.097  29.581  34.660  1.00  0.00     0.034 A 
BRANCH  48  62
ATOM     62  C   UNL A   1      40.792  27.714  29.236  1.00  0.00     0.023 A 
ATOM     63  C   UNL A   1      40.022  26.532  29.200  1.00  0.00     0.012 A 
ATOM     64  C   UNL A   1      41.619  28.030  28.140  1.00  0.00     0.148 A 
ATOM     65  C   UNL A   1      40.105  25.660  28.116  1.00  0.00     0.002 A 
ATOM     66  C   UNL A   1      41.657  27.182  27.040  1.00  0.00     0.091 A 
ATOM     67  F   UNL A   1      42.361  29.145  28.201  1.00  0.00    -0.205 F 
ATOM     68  C   UNL A   1      40.913  25.990  27.032  1.00  0.00     0.022 A 
BRANCH  66  69
ATOM     69  S   UNL A   1      42.597  27.559  25.557  1.00  0.00     0.127 S 
ATOM     70  O   UNL A   1      43.964  27.580  26.073  1.00  0.00    -0.237 OA
ATOM     71  O   UNL A   1      42.285  26.416  24.698  1.00  0.00    -0.237 OA
ATOM     72  O   UNL A   1      42.093  28.838  25.075  1.00  0.00    -0.744 OA
ENDBRANCH  66  69
ENDBRANCH  48  62
BRANCH  49  73
ATOM     73  C   UNL A   1      39.441  33.765  37.084  1.00  0.00     0.023 A 
ATOM     74  C   UNL A   1      39.882  35.103  37.057  1.00  0.00     0.012 A 
ATOM     75  C   UNL A   1      38.787  33.283  38.234  1.00  0.00     0.148 A 
ATOM     76  C   UNL A   1      39.714  35.932  38.166  1.00  0.00     0.002 A 
ATOM     77  C   UNL A   1      38.570  34.130  39.314  1.00  0.00     0.091 A 
ATOM     78  F   UNL A   1      38.380  32.006  38.243  1.00  0.00    -0.205 F 
ATOM     79  C   UNL A   1      39.050  35.449  39.291  1.00  0.00     0.022 A 
BRANCH  77  80
ATOM     80  S   UNL A   1      37.609  33.637  40.749  1.00  0.00     0.127 S 
ATOM     81  O   UNL A   1      36.378  33.151  40.131  1.00  0.00    -0.237 OA
ATOM     82  O   UNL A   1      38.457  32.598  41.335  1.00  0.00    -0.237 OA
ATOM     83  O   UNL A   1      37.478  34.836  41.565  1.00  0.00    -0.744 OA
ENDBRANCH  77  80
ENDBRANCH  49  73
BRANCH  61  84
ATOM     84  C   UNL A   1      44.362  29.133  35.343  1.00  0.00     0.023 A 
ATOM     85  C   UNL A   1      45.586  29.771  35.061  1.00  0.00     0.012 A 
ATOM     86  C   UNL A   1      44.322  28.111  36.313  1.00  0.00     0.148 A 
ATOM     87  C   UNL A   1      46.758  29.367  35.700  1.00  0.00     0.002 A 
ATOM     88  C   UNL A   1      45.482  27.753  36.986  1.00  0.00     0.091 A 
ATOM     89  F   UNL A   1      43.150  27.504  36.555  1.00  0.00    -0.205 F 
ATOM     90  C   UNL A   1      46.705  28.368  36.669  1.00  0.00     0.022 A 
BRANCH  88  91
ATOM     91  S   UNL A   1      45.486  26.552  38.320  1.00  0.00     0.127 S 
ATOM     92  O   UNL A   1      45.100  25.327  37.620  1.00  0.00    -0.237 OA
ATOM     93  O   UNL A   1      46.879  26.586  38.766  1.00  0.00    -0.237 OA
ATOM     94  O   UNL A   1      44.526  27.041  39.301  1.00  0.00    -0.744 OA
ENDBRANCH  88  91
ENDBRANCH  61  84
ENDBRANCH  35  36
ENDBRANCH  27  30
ENDBRANCH  25  26
ENDBRANCH   1  25
TORSDOF 16
ENDMDL
