MODEL 1
REMARK VINA RESULT:     -12.4      0.000      0.000
REMARK SMILES O=C(NCCCNC(=O)[C@H]1C[C@@H](O)CN1C(=O)c1cc(F)c(F)cc1Cl)c1ccc(-c2c3nc(c(-c4cccc(S(=O)(=O)[O-])c4F)c4ccc([nH]4)c(-c4cccc(S(=O)(=O)[O-])c4F)c4nc(c(-c5cccc(S(=O)(=O)[O-])c5F)c5ccc2[nH]5)C=C4)C=C3)cc1
REMARK SMILES IDX 4 1 3 2 1 3 2 4 27 6 28 7 89 8 29 9 88 10 30 11 31 12 32 13
REMARK SMILES IDX 82 14 33 15 87 16 81 17 83 18 34 19 86 20 80 21 79 22 35 24
REMARK SMILES IDX 67 25 47 26 66 27 48 28 51 29 65 30 84 31 49 32 50 33 64 35
REMARK SMILES IDX 85 36 52 37 36 38 37 39 45 40 38 41 40 42 46 43 39 44 41 45
REMARK SMILES IDX 42 46 43 47 44 48 68 49 69 50 77 51 70 52 72 53 78 54 71 55
REMARK SMILES IDX 73 56 74 57 75 58 76 59 53 60 54 61 62 62 55 63 57 64 63 65
REMARK SMILES IDX 56 66 58 67 59 68 60 69 61 70 5 71 6 72 7 73 8 74 9 76 10 77
REMARK SMILES IDX 11 78 15 79 12 80 14 81 16 82 17 83 18 84 19 85 25 86 20 87
REMARK SMILES IDX 24 88 26 89 21 90 22 91 23 92 13 93
REMARK H PARENT 3 5 83 23 51 34 7 75 13 94
REMARK Flexibility Score: inf
ROOT
ATOM      1  C   UNL A   1      35.812  22.246  25.943  1.00  0.00     0.118 C 
ENDROOT
BRANCH   1   2
ATOM      2  N   UNL A   1      36.835  21.230  25.761  1.00  0.00    -0.352 N 
ATOM      3  O   UNL A   1      38.879  20.400  25.376  1.00  0.00    -0.269 OA
ATOM      4  C   UNL A   1      38.202  21.335  25.801  1.00  0.00     0.251 C 
ATOM      5  H   UNL A   1      36.493  20.324  25.583  1.00  0.00     0.163 HD
BRANCH   4   6
ATOM      6  C   UNL A   1      38.871  22.538  26.350  1.00  0.00     0.039 A 
ATOM      7  C   UNL A   1      38.381  23.799  25.992  1.00  0.00     0.014 A 
ATOM      8  C   UNL A   1      40.033  22.442  27.122  1.00  0.00     0.014 A 
ATOM      9  C   UNL A   1      39.050  24.955  26.404  1.00  0.00     0.010 A 
ATOM     10  C   UNL A   1      40.660  23.595  27.592  1.00  0.00     0.010 A 
ATOM     11  C   UNL A   1      40.198  24.861  27.204  1.00  0.00    -0.014 A 
BRANCH  11  12
ATOM     12  C   UNL A   1      41.002  26.058  27.552  1.00  0.00     0.031 A 
ATOM     13  C   UNL A   1      40.371  27.157  28.366  1.00  0.00     0.074 A 
ATOM     14  C   UNL A   1      42.266  26.190  27.115  1.00  0.00     0.049 A 
ATOM     15  N   UNL A   1      40.841  28.340  28.666  1.00  0.00    -0.248 NA
ATOM     16  C   UNL A   1      39.021  26.895  28.896  1.00  0.00     0.031 C 
ATOM     17  C   UNL A   1      42.991  25.207  26.309  1.00  0.00     0.029 A 
ATOM     18  N   UNL A   1      43.161  27.219  27.276  1.00  0.00    -0.354 N 
ATOM     19  C   UNL A   1      39.835  28.975  29.382  1.00  0.00     0.074 A 
ATOM     20  C   UNL A   1      38.717  28.059  29.451  1.00  0.00     0.031 C 
ATOM     21  C   UNL A   1      44.224  25.676  26.055  1.00  0.00     0.029 A 
ATOM     22  C   UNL A   1      44.364  27.004  26.650  1.00  0.00     0.049 A 
ATOM     23  H   UNL A   1      42.959  28.032  27.792  1.00  0.00     0.167 HD
ATOM     24  C   UNL A   1      39.846  30.197  29.963  1.00  0.00     0.034 A 
ATOM     25  C   UNL A   1      45.455  27.790  26.558  1.00  0.00     0.034 A 
ATOM     26  C   UNL A   1      40.973  31.087  29.952  1.00  0.00     0.049 A 
ATOM     27  C   UNL A   1      45.454  29.140  27.217  1.00  0.00     0.074 A 
ATOM     28  C   UNL A   1      41.091  32.335  30.536  1.00  0.00     0.029 A 
ATOM     29  N   UNL A   1      42.187  30.814  29.340  1.00  0.00    -0.354 N 
ATOM     30  N   UNL A   1      44.508  29.709  27.925  1.00  0.00    -0.248 NA
ATOM     31  C   UNL A   1      46.673  29.950  27.080  1.00  0.00     0.031 C 
ATOM     32  C   UNL A   1      42.381  32.813  30.286  1.00  0.00     0.029 A 
ATOM     33  C   UNL A   1      43.065  31.863  29.544  1.00  0.00     0.049 A 
ATOM     34  H   UNL A   1      42.393  29.994  28.834  1.00  0.00     0.167 HD
ATOM     35  C   UNL A   1      45.018  30.938  28.325  1.00  0.00     0.074 A 
ATOM     36  C   UNL A   1      46.366  31.022  27.800  1.00  0.00     0.031 C 
ATOM     37  C   UNL A   1      44.415  31.917  29.045  1.00  0.00     0.034 A 
BRANCH  24  38
ATOM     38  C   UNL A   1      38.617  30.606  30.725  1.00  0.00     0.023 A 
ATOM     39  C   UNL A   1      38.518  30.271  32.090  1.00  0.00     0.012 A 
ATOM     40  C   UNL A   1      37.579  31.333  30.112  1.00  0.00     0.148 A 
ATOM     41  C   UNL A   1      37.392  30.630  32.830  1.00  0.00     0.002 A 
ATOM     42  C   UNL A   1      36.473  31.714  30.864  1.00  0.00     0.091 A 
ATOM     43  F   UNL A   1      37.682  31.618  28.806  1.00  0.00    -0.205 F 
ATOM     44  C   UNL A   1      36.375  31.357  32.219  1.00  0.00     0.022 A 
BRANCH  42  45
ATOM     45  S   UNL A   1      35.129  32.693  30.184  1.00  0.00     0.127 S 
ATOM     46  O   UNL A   1      34.252  32.837  31.346  1.00  0.00    -0.237 OA
ATOM     47  O   UNL A   1      35.814  33.921  29.780  1.00  0.00    -0.237 OA
ATOM     48  O   UNL A   1      34.582  31.913  29.082  1.00  0.00    -0.744 OA
ENDBRANCH  42  45
ENDBRANCH  24  38
BRANCH  25  49
ATOM     49  C   UNL A   1      46.663  27.267  25.865  1.00  0.00     0.023 A 
ATOM     50  C   UNL A   1      47.419  26.258  26.488  1.00  0.00     0.012 A 
ATOM     51  C   UNL A   1      47.005  27.688  24.566  1.00  0.00     0.148 A 
ATOM     52  C   UNL A   1      48.501  25.673  25.830  1.00  0.00     0.002 A 
ATOM     53  C   UNL A   1      48.061  27.076  23.900  1.00  0.00     0.091 A 
ATOM     54  F   UNL A   1      46.261  28.646  23.994  1.00  0.00    -0.205 F 
ATOM     55  C   UNL A   1      48.815  26.074  24.533  1.00  0.00     0.022 A 
BRANCH  53  56
ATOM     56  S   UNL A   1      48.484  27.450  22.195  1.00  0.00     0.127 S 
ATOM     57  O   UNL A   1      49.720  28.213  22.351  1.00  0.00    -0.237 OA
ATOM     58  O   UNL A   1      48.653  26.110  21.634  1.00  0.00    -0.237 OA
ATOM     59  O   UNL A   1      47.358  28.202  21.660  1.00  0.00    -0.744 OA
ENDBRANCH  53  56
ENDBRANCH  25  49
BRANCH  37  60
ATOM     60  C   UNL A   1      45.195  33.176  29.306  1.00  0.00     0.023 A 
ATOM     61  C   UNL A   1      46.032  33.239  30.438  1.00  0.00     0.012 A 
ATOM     62  C   UNL A   1      45.181  34.244  28.390  1.00  0.00     0.148 A 
ATOM     63  C   UNL A   1      46.837  34.355  30.660  1.00  0.00     0.002 A 
ATOM     64  C   UNL A   1      46.010  35.341  28.602  1.00  0.00     0.091 A 
ATOM     65  F   UNL A   1      44.365  34.167  27.329  1.00  0.00    -0.205 F 
ATOM     66  C   UNL A   1      46.835  35.400  29.737  1.00  0.00     0.022 A 
BRANCH  64  67
ATOM     67  S   UNL A   1      46.127  36.701  27.433  1.00  0.00     0.127 S 
ATOM     68  O   UNL A   1      46.659  36.031  26.248  1.00  0.00    -0.237 OA
ATOM     69  O   UNL A   1      44.734  37.134  27.316  1.00  0.00    -0.237 OA
ATOM     70  O   UNL A   1      47.013  37.681  28.047  1.00  0.00    -0.744 OA
ENDBRANCH  64  67
ENDBRANCH  37  60
ENDBRANCH  11  12
ENDBRANCH   4   6
ENDBRANCH   1   2
BRANCH   1  71
ATOM     71  C   UNL A   1      34.750  21.819  26.947  1.00  0.00     0.042 C 
BRANCH  71  72
ATOM     72  C   UNL A   1      33.485  21.232  26.323  1.00  0.00     0.117 C 
BRANCH  72  73
ATOM     73  N   UNL A   1      32.335  22.116  26.455  1.00  0.00    -0.354 N 
ATOM     74  C   UNL A   1      32.000  23.232  25.749  1.00  0.00     0.242 C 
ATOM     75  H   UNL A   1      31.701  21.868  27.165  1.00  0.00     0.163 HD
ATOM     76  O   UNL A   1      31.042  23.905  26.150  1.00  0.00    -0.273 OA
BRANCH  74  77
ATOM     77  C   UNL A   1      32.786  23.654  24.494  1.00  0.00     0.177 C 
ATOM     78  C   UNL A   1      32.129  23.064  23.237  1.00  0.00     0.069 C 
ATOM     79  N   UNL A   1      32.705  25.104  24.307  1.00  0.00    -0.324 N 
ATOM     80  C   UNL A   1      31.184  24.160  22.751  1.00  0.00     0.136 C 
ATOM     81  C   UNL A   1      31.887  25.456  23.151  1.00  0.00     0.152 C 
BRANCH  79  82
ATOM     82  C   UNL A   1      33.512  25.930  25.063  1.00  0.00     0.256 C 
ATOM     83  O   UNL A   1      34.657  25.615  25.377  1.00  0.00    -0.269 OA
BRANCH  82  84
ATOM     84  C   UNL A   1      33.002  27.236  25.522  1.00  0.00     0.061 A 
ATOM     85  C   UNL A   1      32.248  27.296  26.702  1.00  0.00     0.057 A 
ATOM     86  C   UNL A   1      33.344  28.419  24.846  1.00  0.00     0.056 A 
ATOM     87  C   UNL A   1      31.794  28.527  27.158  1.00  0.00     0.159 A 
ATOM     88  C   UNL A   1      32.905  29.653  25.334  1.00  0.00     0.063 A 
ATOM     89  Cl  UNL A   1      34.248  28.426  23.373  1.00  0.00    -0.083 Cl
ATOM     90  F   UNL A   1      31.028  28.578  28.256  1.00  0.00    -0.204 F 
ATOM     91  C   UNL A   1      32.122  29.697  26.481  1.00  0.00     0.160 A 
ATOM     92  F   UNL A   1      31.671  30.879  26.923  1.00  0.00    -0.204 F 
ENDBRANCH  82  84
ENDBRANCH  79  82
BRANCH  80  93
ATOM     93  O   UNL A   1      29.902  24.053  23.363  1.00  0.00    -0.391 OA
ATOM     94  H   UNL A   1      30.010  23.902  24.315  1.00  0.00     0.211 HD
ENDBRANCH  80  93
ENDBRANCH  74  77
ENDBRANCH  72  73
ENDBRANCH  71  72
ENDBRANCH   1  71
TORSDOF 16
ENDMDL
MODEL 2
REMARK VINA RESULT:     -12.4      5.445     10.218
REMARK SMILES O=C(NCCCNC(=O)[C@H]1C[C@@H](O)CN1C(=O)c1cc(F)c(F)cc1Cl)c1ccc(-c2c3nc(c(-c4cccc(S(=O)(=O)[O-])c4F)c4ccc([nH]4)c(-c4cccc(S(=O)(=O)[O-])c4F)c4nc(c(-c5cccc(S(=O)(=O)[O-])c5F)c5ccc2[nH]5)C=C4)C=C3)cc1
REMARK SMILES IDX 4 1 3 2 1 3 2 4 27 6 28 7 89 8 29 9 88 10 30 11 31 12 32 13
REMARK SMILES IDX 82 14 33 15 87 16 81 17 83 18 34 19 86 20 80 21 79 22 35 24
REMARK SMILES IDX 67 25 47 26 66 27 48 28 51 29 65 30 84 31 49 32 50 33 64 35
REMARK SMILES IDX 85 36 52 37 36 38 37 39 45 40 38 41 40 42 46 43 39 44 41 45
REMARK SMILES IDX 42 46 43 47 44 48 68 49 69 50 77 51 70 52 72 53 78 54 71 55
REMARK SMILES IDX 73 56 74 57 75 58 76 59 53 60 54 61 62 62 55 63 57 64 63 65
REMARK SMILES IDX 56 66 58 67 59 68 60 69 61 70 5 71 6 72 7 73 8 74 9 76 10 77
REMARK SMILES IDX 11 78 15 79 12 80 14 81 16 82 17 83 18 84 19 85 25 86 20 87
REMARK SMILES IDX 24 88 26 89 21 90 22 91 23 92 13 93
REMARK H PARENT 3 5 83 23 51 34 7 75 13 94
REMARK Flexibility Score: inf
ROOT
ATOM      1  C   UNL A   1      33.048  29.282  25.344  1.00  0.00     0.118 C 
ENDROOT
BRANCH   1   2
ATOM      2  N   UNL A   1      32.645  30.578  25.864  1.00  0.00    -0.352 N 
ATOM      3  O   UNL A   1      32.503  32.264  27.332  1.00  0.00    -0.269 OA
ATOM      4  C   UNL A   1      33.151  31.307  26.910  1.00  0.00     0.251 C 
ATOM      5  H   UNL A   1      31.893  31.000  25.389  1.00  0.00     0.163 HD
BRANCH   4   6
ATOM      6  C   UNL A   1      34.456  30.972  27.529  1.00  0.00     0.039 A 
ATOM      7  C   UNL A   1      34.689  29.651  27.927  1.00  0.00     0.014 A 
ATOM      8  C   UNL A   1      35.404  31.958  27.818  1.00  0.00     0.014 A 
ATOM      9  C   UNL A   1      35.863  29.319  28.609  1.00  0.00     0.010 A 
ATOM     10  C   UNL A   1      36.606  31.615  28.435  1.00  0.00     0.010 A 
ATOM     11  C   UNL A   1      36.828  30.301  28.872  1.00  0.00    -0.014 A 
BRANCH  11  12
ATOM     12  C   UNL A   1      38.024  30.012  29.701  1.00  0.00     0.031 A 
ATOM     13  C   UNL A   1      39.088  29.093  29.163  1.00  0.00     0.074 A 
ATOM     14  C   UNL A   1      38.144  30.525  30.939  1.00  0.00     0.049 A 
ATOM     15  N   UNL A   1      40.139  28.600  29.765  1.00  0.00    -0.248 NA
ATOM     16  C   UNL A   1      38.938  28.655  27.764  1.00  0.00     0.031 C 
ATOM     17  C   UNL A   1      37.181  31.417  31.584  1.00  0.00     0.029 A 
ATOM     18  N   UNL A   1      39.128  30.353  31.882  1.00  0.00    -0.354 N 
ATOM     19  C   UNL A   1      40.749  27.767  28.837  1.00  0.00     0.074 A 
ATOM     20  C   UNL A   1      39.940  27.799  27.638  1.00  0.00     0.031 C 
ATOM     21  C   UNL A   1      37.626  31.723  32.814  1.00  0.00     0.029 A 
ATOM     22  C   UNL A   1      38.886  31.022  33.055  1.00  0.00     0.049 A 
ATOM     23  H   UNL A   1      39.929  29.802  31.729  1.00  0.00     0.167 HD
ATOM     24  C   UNL A   1      41.900  27.064  28.953  1.00  0.00     0.034 A 
ATOM     25  C   UNL A   1      39.595  31.063  34.201  1.00  0.00     0.034 A 
ATOM     26  C   UNL A   1      42.741  27.075  30.117  1.00  0.00     0.049 A 
ATOM     27  C   UNL A   1      40.875  30.283  34.309  1.00  0.00     0.074 A 
ATOM     28  C   UNL A   1      43.940  26.417  30.320  1.00  0.00     0.029 A 
ATOM     29  N   UNL A   1      42.480  27.799  31.270  1.00  0.00    -0.354 N 
ATOM     30  N   UNL A   1      41.459  29.532  33.407  1.00  0.00    -0.248 NA
ATOM     31  C   UNL A   1      41.602  30.367  35.584  1.00  0.00     0.031 C 
ATOM     32  C   UNL A   1      44.411  26.751  31.594  1.00  0.00     0.029 A 
ATOM     33  C   UNL A   1      43.503  27.616  32.184  1.00  0.00     0.049 A 
ATOM     34  H   UNL A   1      41.685  28.360  31.418  1.00  0.00     0.167 HD
ATOM     35  C   UNL A   1      42.625  29.061  33.999  1.00  0.00     0.074 A 
ATOM     36  C   UNL A   1      42.676  29.630  35.331  1.00  0.00     0.031 C 
ATOM     37  C   UNL A   1      43.557  28.217  33.492  1.00  0.00     0.034 A 
BRANCH  24  38
ATOM     38  C   UNL A   1      42.349  26.280  27.751  1.00  0.00     0.023 A 
ATOM     39  C   UNL A   1      43.122  26.926  26.766  1.00  0.00     0.012 A 
ATOM     40  C   UNL A   1      42.034  24.915  27.603  1.00  0.00     0.148 A 
ATOM     41  C   UNL A   1      43.554  26.232  25.636  1.00  0.00     0.002 A 
ATOM     42  C   UNL A   1      42.495  24.223  26.489  1.00  0.00     0.091 A 
ATOM     43  F   UNL A   1      41.276  24.329  28.540  1.00  0.00    -0.205 F 
ATOM     44  C   UNL A   1      43.247  24.882  25.502  1.00  0.00     0.022 A 
BRANCH  42  45
ATOM     45  S   UNL A   1      42.194  22.470  26.244  1.00  0.00     0.127 S 
ATOM     46  O   UNL A   1      40.735  22.430  26.154  1.00  0.00    -0.237 OA
ATOM     47  O   UNL A   1      42.890  22.210  24.984  1.00  0.00    -0.237 OA
ATOM     48  O   UNL A   1      42.767  21.799  27.403  1.00  0.00    -0.744 OA
ENDBRANCH  42  45
ENDBRANCH  24  38
BRANCH  25  49
ATOM     49  C   UNL A   1      39.127  31.940  35.307  1.00  0.00     0.023 A 
ATOM     50  C   UNL A   1      39.233  33.335  35.158  1.00  0.00     0.012 A 
ATOM     51  C   UNL A   1      38.495  31.411  36.448  1.00  0.00     0.148 A 
ATOM     52  C   UNL A   1      38.717  34.193  36.128  1.00  0.00     0.002 A 
ATOM     53  C   UNL A   1      37.949  32.271  37.394  1.00  0.00     0.091 A 
ATOM     54  F   UNL A   1      38.401  30.078  36.559  1.00  0.00    -0.205 F 
ATOM     55  C   UNL A   1      38.066  33.662  37.240  1.00  0.00     0.022 A 
BRANCH  53  56
ATOM     56  S   UNL A   1      37.007  31.691  38.809  1.00  0.00     0.127 S 
ATOM     57  O   UNL A   1      37.954  31.890  39.904  1.00  0.00    -0.237 OA
ATOM     58  O   UNL A   1      35.871  32.612  38.802  1.00  0.00    -0.237 OA
ATOM     59  O   UNL A   1      36.674  30.303  38.525  1.00  0.00    -0.744 OA
ENDBRANCH  53  56
ENDBRANCH  25  49
BRANCH  37  60
ATOM     60  C   UNL A   1      44.715  27.839  34.375  1.00  0.00     0.023 A 
ATOM     61  C   UNL A   1      45.856  28.664  34.395  1.00  0.00     0.012 A 
ATOM     62  C   UNL A   1      44.635  26.740  35.250  1.00  0.00     0.148 A 
ATOM     63  C   UNL A   1      46.908  28.394  35.269  1.00  0.00     0.002 A 
ATOM     64  C   UNL A   1      45.675  26.494  36.140  1.00  0.00     0.091 A 
ATOM     65  F   UNL A   1      43.545  25.960  35.201  1.00  0.00    -0.205 F 
ATOM     66  C   UNL A   1      46.813  27.317  36.148  1.00  0.00     0.022 A 
BRANCH  64  67
ATOM     67  S   UNL A   1      45.610  25.173  37.357  1.00  0.00     0.127 S 
ATOM     68  O   UNL A   1      45.800  23.989  36.522  1.00  0.00    -0.237 OA
ATOM     69  O   UNL A   1      46.743  25.494  38.226  1.00  0.00    -0.237 OA
ATOM     70  O   UNL A   1      44.307  25.284  37.999  1.00  0.00    -0.744 OA
ENDBRANCH  64  67
ENDBRANCH  37  60
ENDBRANCH  11  12
ENDBRANCH   4   6
ENDBRANCH   1   2
BRANCH   1  71
ATOM     71  C   UNL A   1      33.274  29.312  23.838  1.00  0.00     0.042 C 
BRANCH  71  72
ATOM     72  C   UNL A   1      32.077  28.855  23.008  1.00  0.00     0.117 C 
BRANCH  72  73
ATOM     73  N   UNL A   1      32.323  27.596  22.318  1.00  0.00    -0.354 N 
ATOM     74  C   UNL A   1      32.320  26.319  22.792  1.00  0.00     0.242 C 
ATOM     75  H   UNL A   1      32.524  27.682  21.358  1.00  0.00     0.163 HD
ATOM     76  O   UNL A   1      32.710  25.419  22.038  1.00  0.00    -0.273 OA
BRANCH  74  77
ATOM     77  C   UNL A   1      31.852  25.996  24.224  1.00  0.00     0.177 C 
ATOM     78  C   UNL A   1      30.361  25.628  24.221  1.00  0.00     0.069 C 
ATOM     79  N   UNL A   1      32.529  24.797  24.722  1.00  0.00    -0.324 N 
ATOM     80  C   UNL A   1      30.346  24.106  24.104  1.00  0.00     0.136 C 
ATOM     81  C   UNL A   1      31.613  23.667  24.836  1.00  0.00     0.152 C 
BRANCH  79  82
ATOM     82  C   UNL A   1      33.823  24.895  25.190  1.00  0.00     0.256 C 
ATOM     83  O   UNL A   1      34.228  25.890  25.785  1.00  0.00    -0.269 OA
BRANCH  82  84
ATOM     84  C   UNL A   1      34.768  23.782  24.978  1.00  0.00     0.061 A 
ATOM     85  C   UNL A   1      35.453  23.694  23.759  1.00  0.00     0.057 A 
ATOM     86  C   UNL A   1      35.055  22.876  26.013  1.00  0.00     0.056 A 
ATOM     87  C   UNL A   1      36.370  22.668  23.566  1.00  0.00     0.159 A 
ATOM     88  C   UNL A   1      36.002  21.867  25.814  1.00  0.00     0.063 A 
ATOM     89  Cl  UNL A   1      34.235  22.903  27.534  1.00  0.00    -0.083 Cl
ATOM     90  F   UNL A   1      36.984  22.552  22.381  1.00  0.00    -0.204 F 
ATOM     91  C   UNL A   1      36.644  21.763  24.586  1.00  0.00     0.160 A 
ATOM     92  F   UNL A   1      37.522  20.771  24.387  1.00  0.00    -0.204 F 
ENDBRANCH  82  84
ENDBRANCH  79  82
BRANCH  80  93
ATOM     93  O   UNL A   1      30.361  23.687  22.742  1.00  0.00    -0.391 OA
ATOM     94  H   UNL A   1      30.720  22.788  22.684  1.00  0.00     0.211 HD
ENDBRANCH  80  93
ENDBRANCH  74  77
ENDBRANCH  72  73
ENDBRANCH  71  72
ENDBRANCH   1  71
TORSDOF 16
ENDMDL
MODEL 3
REMARK VINA RESULT:     -12.3      5.972      8.715
REMARK SMILES O=C(NCCCNC(=O)[C@H]1C[C@@H](O)CN1C(=O)c1cc(F)c(F)cc1Cl)c1ccc(-c2c3nc(c(-c4cccc(S(=O)(=O)[O-])c4F)c4ccc([nH]4)c(-c4cccc(S(=O)(=O)[O-])c4F)c4nc(c(-c5cccc(S(=O)(=O)[O-])c5F)c5ccc2[nH]5)C=C4)C=C3)cc1
REMARK SMILES IDX 4 1 3 2 1 3 2 4 27 6 28 7 89 8 29 9 88 10 30 11 31 12 32 13
REMARK SMILES IDX 82 14 33 15 87 16 81 17 83 18 34 19 86 20 80 21 79 22 35 24
REMARK SMILES IDX 67 25 47 26 66 27 48 28 51 29 65 30 84 31 49 32 50 33 64 35
REMARK SMILES IDX 85 36 52 37 36 38 37 39 45 40 38 41 40 42 46 43 39 44 41 45
REMARK SMILES IDX 42 46 43 47 44 48 68 49 69 50 77 51 70 52 72 53 78 54 71 55
REMARK SMILES IDX 73 56 74 57 75 58 76 59 53 60 54 61 62 62 55 63 57 64 63 65
REMARK SMILES IDX 56 66 58 67 59 68 60 69 61 70 5 71 6 72 7 73 8 74 9 76 10 77
REMARK SMILES IDX 11 78 15 79 12 80 14 81 16 82 17 83 18 84 19 85 25 86 20 87
REMARK SMILES IDX 24 88 26 89 21 90 22 91 23 92 13 93
REMARK H PARENT 3 5 83 23 51 34 7 75 13 94
REMARK Flexibility Score: inf
ROOT
ATOM      1  C   UNL A   1      32.859  32.761  27.217  1.00  0.00     0.118 C 
ENDROOT
BRANCH   1   2
ATOM      2  N   UNL A   1      32.633  34.125  27.664  1.00  0.00    -0.352 N 
ATOM      3  O   UNL A   1      32.610  35.859  29.082  1.00  0.00    -0.269 OA
ATOM      4  C   UNL A   1      33.124  34.789  28.759  1.00  0.00     0.251 C 
ATOM      5  H   UNL A   1      32.035  34.657  27.090  1.00  0.00     0.163 HD
BRANCH   4   6
ATOM      6  C   UNL A   1      34.258  34.251  29.547  1.00  0.00     0.039 A 
ATOM      7  C   UNL A   1      35.560  34.470  29.082  1.00  0.00     0.014 A 
ATOM      8  C   UNL A   1      34.052  33.446  30.672  1.00  0.00     0.014 A 
ATOM      9  C   UNL A   1      36.648  33.888  29.740  1.00  0.00     0.010 A 
ATOM     10  C   UNL A   1      35.141  32.924  31.369  1.00  0.00     0.010 A 
ATOM     11  C   UNL A   1      36.445  33.106  30.887  1.00  0.00    -0.014 A 
BRANCH  11  12
ATOM     12  C   UNL A   1      37.561  32.373  31.533  1.00  0.00     0.031 A 
ATOM     13  C   UNL A   1      38.013  32.785  32.909  1.00  0.00     0.074 A 
ATOM     14  C   UNL A   1      38.196  31.378  30.889  1.00  0.00     0.049 A 
ATOM     15  N   UNL A   1      39.047  32.376  33.598  1.00  0.00    -0.248 NA
ATOM     16  C   UNL A   1      37.204  33.811  33.591  1.00  0.00     0.031 C 
ATOM     17  C   UNL A   1      37.866  30.889  29.550  1.00  0.00     0.029 A 
ATOM     18  N   UNL A   1      39.266  30.609  31.274  1.00  0.00    -0.354 N 
ATOM     19  C   UNL A   1      39.035  33.119  34.771  1.00  0.00     0.074 A 
ATOM     20  C   UNL A   1      37.908  34.023  34.693  1.00  0.00     0.031 C 
ATOM     21  C   UNL A   1      38.710  29.895  29.229  1.00  0.00     0.029 A 
ATOM     22  C   UNL A   1      39.660  29.700  30.323  1.00  0.00     0.049 A 
ATOM     23  H   UNL A   1      39.708  30.701  32.149  1.00  0.00     0.167 HD
ATOM     24  C   UNL A   1      39.864  33.036  35.838  1.00  0.00     0.034 A 
ATOM     25  C   UNL A   1      40.676  28.815  30.327  1.00  0.00     0.034 A 
ATOM     26  C   UNL A   1      40.946  32.099  35.950  1.00  0.00     0.049 A 
ATOM     27  C   UNL A   1      41.581  28.730  31.524  1.00  0.00     0.074 A 
ATOM     28  C   UNL A   1      41.825  31.920  37.003  1.00  0.00     0.029 A 
ATOM     29  N   UNL A   1      41.286  31.169  34.981  1.00  0.00    -0.354 N 
ATOM     30  N   UNL A   1      41.531  29.412  32.643  1.00  0.00    -0.248 NA
ATOM     31  C   UNL A   1      42.671  27.745  31.468  1.00  0.00     0.031 C 
ATOM     32  C   UNL A   1      42.692  30.873  36.674  1.00  0.00     0.029 A 
ATOM     33  C   UNL A   1      42.353  30.402  35.415  1.00  0.00     0.049 A 
ATOM     34  H   UNL A   1      40.836  31.068  34.111  1.00  0.00     0.167 HD
ATOM     35  C   UNL A   1      42.574  28.935  33.427  1.00  0.00     0.074 A 
ATOM     36  C   UNL A   1      43.226  27.889  32.665  1.00  0.00     0.031 C 
ATOM     37  C   UNL A   1      42.968  29.342  34.659  1.00  0.00     0.034 A 
BRANCH  24  38
ATOM     38  C   UNL A   1      39.575  33.941  37.003  1.00  0.00     0.023 A 
ATOM     39  C   UNL A   1      39.934  35.301  36.915  1.00  0.00     0.012 A 
ATOM     40  C   UNL A   1      38.937  33.466  38.164  1.00  0.00     0.148 A 
ATOM     41  C   UNL A   1      39.686  36.171  37.976  1.00  0.00     0.002 A 
ATOM     42  C   UNL A   1      38.665  34.345  39.206  1.00  0.00     0.091 A 
ATOM     43  F   UNL A   1      38.628  32.163  38.236  1.00  0.00    -0.205 F 
ATOM     44  C   UNL A   1      39.045  35.695  39.116  1.00  0.00     0.022 A 
BRANCH  42  45
ATOM     45  S   UNL A   1      37.803  33.844  40.699  1.00  0.00     0.127 S 
ATOM     46  O   UNL A   1      36.619  33.184  40.149  1.00  0.00    -0.237 OA
ATOM     47  O   UNL A   1      38.769  32.940  41.325  1.00  0.00    -0.237 OA
ATOM     48  O   UNL A   1      37.546  35.068  41.445  1.00  0.00    -0.744 OA
ENDBRANCH  42  45
ENDBRANCH  24  38
BRANCH  25  49
ATOM     49  C   UNL A   1      40.831  27.891  29.172  1.00  0.00     0.023 A 
ATOM     50  C   UNL A   1      40.051  26.721  29.130  1.00  0.00     0.012 A 
ATOM     51  C   UNL A   1      41.663  28.210  28.082  1.00  0.00     0.148 A 
ATOM     52  C   UNL A   1      40.095  25.879  28.019  1.00  0.00     0.002 A 
ATOM     53  C   UNL A   1      41.674  27.387  26.962  1.00  0.00     0.091 A 
ATOM     54  F   UNL A   1      42.388  29.334  28.147  1.00  0.00    -0.205 F 
ATOM     55  C   UNL A   1      40.897  26.216  26.931  1.00  0.00     0.022 A 
BRANCH  53  56
ATOM     56  S   UNL A   1      42.596  27.782  25.472  1.00  0.00     0.127 S 
ATOM     57  O   UNL A   1      42.350  26.604  24.643  1.00  0.00    -0.237 OA
ATOM     58  O   UNL A   1      41.923  29.001  25.025  1.00  0.00    -0.237 OA
ATOM     59  O   UNL A   1      43.978  27.962  25.894  1.00  0.00    -0.744 OA
ENDBRANCH  53  56
ENDBRANCH  25  49
BRANCH  37  60
ATOM     60  C   UNL A   1      44.168  28.669  35.269  1.00  0.00     0.023 A 
ATOM     61  C   UNL A   1      45.455  29.119  34.919  1.00  0.00     0.012 A 
ATOM     62  C   UNL A   1      44.022  27.674  36.254  1.00  0.00     0.148 A 
ATOM     63  C   UNL A   1      46.584  28.579  35.533  1.00  0.00     0.002 A 
ATOM     64  C   UNL A   1      45.150  27.162  36.885  1.00  0.00     0.091 A 
ATOM     65  F   UNL A   1      42.786  27.252  36.560  1.00  0.00    -0.205 F 
ATOM     66  C   UNL A   1      46.432  27.610  36.523  1.00  0.00     0.022 A 
BRANCH  64  67
ATOM     67  S   UNL A   1      45.049  25.964  38.220  1.00  0.00     0.127 S 
ATOM     68  O   UNL A   1      46.460  25.740  38.527  1.00  0.00    -0.237 OA
ATOM     69  O   UNL A   1      44.310  26.701  39.246  1.00  0.00    -0.237 OA
ATOM     70  O   UNL A   1      44.338  24.815  37.673  1.00  0.00    -0.744 OA
ENDBRANCH  64  67
ENDBRANCH  37  60
ENDBRANCH  11  12
ENDBRANCH   4   6
ENDBRANCH   1   2
BRANCH   1  71
ATOM     71  C   UNL A   1      31.573  32.086  26.758  1.00  0.00     0.042 C 
BRANCH  71  72
ATOM     72  C   UNL A   1      31.677  30.572  26.589  1.00  0.00     0.117 C 
BRANCH  72  73
ATOM     73  N   UNL A   1      32.322  30.192  25.339  1.00  0.00    -0.354 N 
ATOM     74  C   UNL A   1      32.050  29.166  24.486  1.00  0.00     0.242 C 
ATOM     75  H   UNL A   1      33.073  30.768  25.070  1.00  0.00     0.163 HD
ATOM     76  O   UNL A   1      32.842  28.958  23.558  1.00  0.00    -0.273 OA
BRANCH  74  77
ATOM     77  C   UNL A   1      30.801  28.283  24.666  1.00  0.00     0.177 C 
ATOM     78  C   UNL A   1      29.915  28.361  23.414  1.00  0.00     0.069 C 
ATOM     79  N   UNL A   1      31.184  26.873  24.760  1.00  0.00    -0.324 N 
ATOM     80  C   UNL A   1      30.362  27.180  22.557  1.00  0.00     0.136 C 
ATOM     81  C   UNL A   1      30.779  26.122  23.577  1.00  0.00     0.152 C 
BRANCH  79  82
ATOM     82  C   UNL A   1      31.676  26.383  25.953  1.00  0.00     0.256 C 
ATOM     83  O   UNL A   1      31.394  26.895  27.034  1.00  0.00    -0.269 OA
BRANCH  82  84
ATOM     84  C   UNL A   1      32.571  25.211  25.954  1.00  0.00     0.061 A 
ATOM     85  C   UNL A   1      33.926  25.389  25.638  1.00  0.00     0.057 A 
ATOM     86  C   UNL A   1      32.104  23.949  26.356  1.00  0.00     0.056 A 
ATOM     87  C   UNL A   1      34.782  24.295  25.670  1.00  0.00     0.159 A 
ATOM     88  C   UNL A   1      32.983  22.864  26.412  1.00  0.00     0.063 A 
ATOM     89  Cl  UNL A   1      30.446  23.644  26.735  1.00  0.00    -0.083 Cl
ATOM     90  F   UNL A   1      36.064  24.455  25.317  1.00  0.00    -0.204 F 
ATOM     91  C   UNL A   1      34.315  23.043  26.056  1.00  0.00     0.160 A 
ATOM     92  F   UNL A   1      35.145  21.992  26.074  1.00  0.00    -0.204 F 
ENDBRANCH  82  84
ENDBRANCH  79  82
BRANCH  80  93
ATOM     93  O   UNL A   1      31.446  27.536  21.703  1.00  0.00    -0.391 OA
ATOM     94  H   UNL A   1      31.718  26.761  21.186  1.00  0.00     0.211 HD
ENDBRANCH  80  93
ENDBRANCH  74  77
ENDBRANCH  72  73
ENDBRANCH  71  72
ENDBRANCH   1  71
TORSDOF 16
ENDMDL
