MODEL 1
REMARK VINA RESULT:     -12.4      0.000      0.000
REMARK SMILES O=C(NCCCNC(=O)[C@H]1CCCC[C@H]1C(=O)Nc1ccc(F)c(Cl)c1)c1ccc(-c2c3nc(c(-c4cccc(S(=O)(=O)[O-])c4F)c4ccc([nH]4)c(-c4cccc(S(=O)(=O)[O-])c4F)c4nc(c(-c5cccc(S(=O)(=O)[O-])c5F)c5ccc2[nH]5)C=C4)C=C3)cc1
REMARK SMILES IDX 4 1 3 2 1 3 2 4 27 6 28 7 89 8 29 9 88 10 30 11 31 12 32 13
REMARK SMILES IDX 82 14 33 15 87 16 81 17 83 18 34 19 86 20 80 21 79 22 35 24
REMARK SMILES IDX 67 25 47 26 66 27 48 28 51 29 65 30 84 31 49 32 50 33 64 35
REMARK SMILES IDX 85 36 52 37 36 38 37 39 45 40 38 41 40 42 46 43 39 44 41 45
REMARK SMILES IDX 42 46 43 47 44 48 68 49 69 50 77 51 70 52 72 53 78 54 71 55
REMARK SMILES IDX 73 56 74 57 75 58 76 59 53 60 54 61 62 62 55 63 57 64 63 65
REMARK SMILES IDX 56 66 58 67 59 68 60 69 61 70 5 71 6 72 7 73 8 74 9 76 10 77
REMARK SMILES IDX 11 78 15 79 12 80 14 81 13 82 16 83 17 84 18 85 19 87 20 88
REMARK SMILES IDX 26 89 21 90 24 91 22 92 25 93 23 94
REMARK H PARENT 3 5 83 23 51 34 7 75 18 86
REMARK Flexibility Score: inf
ROOT
ATOM      1  C   UNL A   1      32.669  29.385  25.965  1.00  0.00     0.118 C 
ENDROOT
BRANCH   1   2
ATOM      2  N   UNL A   1      32.425  30.802  26.191  1.00  0.00    -0.352 N 
ATOM      3  O   UNL A   1      32.563  32.786  27.237  1.00  0.00    -0.269 OA
ATOM      4  C   UNL A   1      33.068  31.690  27.027  1.00  0.00     0.251 C 
ATOM      5  H   UNL A   1      31.688  31.186  25.664  1.00  0.00     0.163 HD
BRANCH   4   6
ATOM      6  C   UNL A   1      34.333  31.304  27.695  1.00  0.00     0.039 A 
ATOM      7  C   UNL A   1      34.547  29.993  28.117  1.00  0.00     0.014 A 
ATOM      8  C   UNL A   1      35.333  32.263  27.884  1.00  0.00     0.014 A 
ATOM      9  C   UNL A   1      35.658  29.684  28.891  1.00  0.00     0.010 A 
ATOM     10  C   UNL A   1      36.509  31.920  28.563  1.00  0.00     0.010 A 
ATOM     11  C   UNL A   1      36.665  30.637  29.109  1.00  0.00    -0.014 A 
BRANCH  11  12
ATOM     12  C   UNL A   1      37.896  30.235  29.840  1.00  0.00     0.031 A 
ATOM     13  C   UNL A   1      38.164  30.695  31.247  1.00  0.00     0.074 A 
ATOM     14  C   UNL A   1      38.774  29.421  29.218  1.00  0.00     0.049 A 
ATOM     15  N   UNL A   1      39.174  30.405  32.026  1.00  0.00    -0.248 NA
ATOM     16  C   UNL A   1      37.181  31.603  31.861  1.00  0.00     0.031 C 
ATOM     17  C   UNL A   1      38.646  28.946  27.838  1.00  0.00     0.029 A 
ATOM     18  N   UNL A   1      39.937  28.842  29.660  1.00  0.00    -0.354 N 
ATOM     19  C   UNL A   1      38.978  31.127  33.198  1.00  0.00     0.074 A 
ATOM     20  C   UNL A   1      37.749  31.872  33.029  1.00  0.00     0.031 C 
ATOM     21  C   UNL A   1      39.661  28.117  27.559  1.00  0.00     0.029 A 
ATOM     22  C   UNL A   1      40.546  28.049  28.715  1.00  0.00     0.049 A 
ATOM     23  H   UNL A   1      40.300  28.981  30.564  1.00  0.00     0.167 HD
ATOM     24  C   UNL A   1      39.744  31.153  34.315  1.00  0.00     0.034 A 
ATOM     25  C   UNL A   1      41.698  27.353  28.762  1.00  0.00     0.034 A 
ATOM     26  C   UNL A   1      40.939  30.371  34.495  1.00  0.00     0.049 A 
ATOM     27  C   UNL A   1      42.501  27.368  30.029  1.00  0.00     0.074 A 
ATOM     28  C   UNL A   1      41.749  30.283  35.615  1.00  0.00     0.029 A 
ATOM     29  N   UNL A   1      41.499  29.544  33.533  1.00  0.00    -0.354 N 
ATOM     30  N   UNL A   1      42.234  27.965  31.165  1.00  0.00    -0.248 NA
ATOM     31  C   UNL A   1      43.752  26.598  30.030  1.00  0.00     0.031 C 
ATOM     32  C   UNL A   1      42.804  29.411  35.325  1.00  0.00     0.029 A 
ATOM     33  C   UNL A   1      42.646  28.946  34.030  1.00  0.00     0.049 A 
ATOM     34  H   UNL A   1      41.135  29.403  32.630  1.00  0.00     0.167 HD
ATOM     35  C   UNL A   1      43.273  27.632  32.022  1.00  0.00     0.074 A 
ATOM     36  C   UNL A   1      44.158  26.754  31.284  1.00  0.00     0.031 C 
ATOM     37  C   UNL A   1      43.489  28.037  33.297  1.00  0.00     0.034 A 
BRANCH  24  38
ATOM     38  C   UNL A   1      39.293  32.024  35.460  1.00  0.00     0.023 A 
ATOM     39  C   UNL A   1      38.433  31.491  36.442  1.00  0.00     0.012 A 
ATOM     40  C   UNL A   1      39.780  33.339  35.609  1.00  0.00     0.148 A 
ATOM     41  C   UNL A   1      38.047  32.258  37.540  1.00  0.00     0.002 A 
ATOM     42  C   UNL A   1      39.419  34.085  36.725  1.00  0.00     0.091 A 
ATOM     43  F   UNL A   1      40.579  33.837  34.655  1.00  0.00    -0.205 F 
ATOM     44  C   UNL A   1      38.547  33.550  37.687  1.00  0.00     0.022 A 
BRANCH  42  45
ATOM     45  S   UNL A   1      40.068  35.731  37.038  1.00  0.00     0.127 S 
ATOM     46  O   UNL A   1      41.504  35.470  37.124  1.00  0.00    -0.237 OA
ATOM     47  O   UNL A   1      39.653  36.463  35.841  1.00  0.00    -0.237 OA
ATOM     48  O   UNL A   1      39.437  36.180  38.272  1.00  0.00    -0.744 OA
ENDBRANCH  42  45
ENDBRANCH  24  38
BRANCH  25  49
ATOM     49  C   UNL A   1      42.120  26.550  27.580  1.00  0.00     0.023 A 
ATOM     50  C   UNL A   1      42.951  27.134  26.606  1.00  0.00     0.012 A 
ATOM     51  C   UNL A   1      41.761  25.193  27.455  1.00  0.00     0.148 A 
ATOM     52  C   UNL A   1      43.405  26.385  25.520  1.00  0.00     0.002 A 
ATOM     53  C   UNL A   1      42.269  24.437  26.406  1.00  0.00     0.091 A 
ATOM     54  F   UNL A   1      40.952  24.660  28.381  1.00  0.00    -0.205 F 
ATOM     55  C   UNL A   1      43.079  25.034  25.428  1.00  0.00     0.022 A 
BRANCH  53  56
ATOM     56  S   UNL A   1      42.022  22.660  26.312  1.00  0.00     0.127 S 
ATOM     57  O   UNL A   1      42.674  22.202  27.536  1.00  0.00    -0.237 OA
ATOM     58  O   UNL A   1      40.562  22.550  26.311  1.00  0.00    -0.237 OA
ATOM     59  O   UNL A   1      42.649  22.252  25.061  1.00  0.00    -0.744 OA
ENDBRANCH  53  56
ENDBRANCH  25  49
BRANCH  37  60
ATOM     60  C   UNL A   1      44.725  27.522  33.983  1.00  0.00     0.023 A 
ATOM     61  C   UNL A   1      45.907  28.289  33.949  1.00  0.00     0.012 A 
ATOM     62  C   UNL A   1      44.701  26.318  34.711  1.00  0.00     0.148 A 
ATOM     63  C   UNL A   1      47.055  27.849  34.603  1.00  0.00     0.002 A 
ATOM     64  C   UNL A   1      45.838  25.907  35.397  1.00  0.00     0.091 A 
ATOM     65  F   UNL A   1      43.573  25.592  34.712  1.00  0.00    -0.205 F 
ATOM     66  C   UNL A   1      47.018  26.665  35.336  1.00  0.00     0.022 A 
BRANCH  64  67
ATOM     67  S   UNL A   1      45.850  24.440  36.434  1.00  0.00     0.127 S 
ATOM     68  O   UNL A   1      44.646  24.633  37.239  1.00  0.00    -0.237 OA
ATOM     69  O   UNL A   1      45.759  23.360  35.450  1.00  0.00    -0.237 OA
ATOM     70  O   UNL A   1      47.109  24.481  37.165  1.00  0.00    -0.744 OA
ENDBRANCH  64  67
ENDBRANCH  37  60
ENDBRANCH  11  12
ENDBRANCH   4   6
ENDBRANCH   1   2
BRANCH   1  71
ATOM     71  C   UNL A   1      31.702  28.501  26.745  1.00  0.00     0.042 C 
BRANCH  71  72
ATOM     72  C   UNL A   1      31.115  27.388  25.886  1.00  0.00     0.117 C 
BRANCH  72  73
ATOM     73  N   UNL A   1      31.163  26.103  26.571  1.00  0.00    -0.356 N 
ATOM     74  C   UNL A   1      31.496  24.841  26.227  1.00  0.00     0.223 C 
ATOM     75  H   UNL A   1      30.886  26.172  27.514  1.00  0.00     0.163 HD
ATOM     76  O   UNL A   1      31.463  24.027  27.159  1.00  0.00    -0.275 OA
BRANCH  74  77
ATOM     77  C   UNL A   1      31.886  24.356  24.826  1.00  0.00     0.091 C 
ATOM     78  C   UNL A   1      30.834  24.246  23.724  1.00  0.00     0.014 C 
ATOM     79  C   UNL A   1      33.247  24.866  24.277  1.00  0.00     0.091 C 
ATOM     80  C   UNL A   1      30.764  25.487  22.845  1.00  0.00     0.001 C 
ATOM     81  C   UNL A   1      33.247  25.868  23.110  1.00  0.00     0.014 C 
ATOM     82  C   UNL A   1      32.090  25.700  22.133  1.00  0.00     0.001 C 
BRANCH  79  83
ATOM     83  C   UNL A   1      34.333  25.167  25.309  1.00  0.00     0.228 C 
ATOM     84  O   UNL A   1      34.333  26.291  25.838  1.00  0.00    -0.274 OA
ATOM     85  N   UNL A   1      35.273  24.307  25.778  1.00  0.00    -0.326 N 
ATOM     86  H   UNL A   1      35.779  24.709  26.521  1.00  0.00     0.169 HD
BRANCH  85  87
ATOM     87  C   UNL A   1      35.729  23.008  25.505  1.00  0.00     0.042 A 
ATOM     88  C   UNL A   1      37.060  22.625  25.354  1.00  0.00     0.029 A 
ATOM     89  C   UNL A   1      34.742  22.014  25.403  1.00  0.00     0.049 A 
ATOM     90  C   UNL A   1      37.408  21.293  25.103  1.00  0.00     0.043 A 
ATOM     91  C   UNL A   1      35.082  20.683  25.141  1.00  0.00     0.078 A 
ATOM     92  C   UNL A   1      36.416  20.328  24.996  1.00  0.00     0.141 A 
ATOM     93  Cl  UNL A   1      33.837  19.504  24.991  1.00  0.00    -0.081 Cl
ATOM     94  F   UNL A   1      36.772  19.061  24.747  1.00  0.00    -0.205 F 
ENDBRANCH  85  87
ENDBRANCH  79  83
ENDBRANCH  74  77
ENDBRANCH  72  73
ENDBRANCH  71  72
ENDBRANCH   1  71
TORSDOF 15
ENDMDL
MODEL 2
REMARK VINA RESULT:     -12.3      1.126      1.539
REMARK SMILES O=C(NCCCNC(=O)[C@H]1CCCC[C@H]1C(=O)Nc1ccc(F)c(Cl)c1)c1ccc(-c2c3nc(c(-c4cccc(S(=O)(=O)[O-])c4F)c4ccc([nH]4)c(-c4cccc(S(=O)(=O)[O-])c4F)c4nc(c(-c5cccc(S(=O)(=O)[O-])c5F)c5ccc2[nH]5)C=C4)C=C3)cc1
REMARK SMILES IDX 4 1 3 2 1 3 2 4 27 6 28 7 89 8 29 9 88 10 30 11 31 12 32 13
REMARK SMILES IDX 82 14 33 15 87 16 81 17 83 18 34 19 86 20 80 21 79 22 35 24
REMARK SMILES IDX 67 25 47 26 66 27 48 28 51 29 65 30 84 31 49 32 50 33 64 35
REMARK SMILES IDX 85 36 52 37 36 38 37 39 45 40 38 41 40 42 46 43 39 44 41 45
REMARK SMILES IDX 42 46 43 47 44 48 68 49 69 50 77 51 70 52 72 53 78 54 71 55
REMARK SMILES IDX 73 56 74 57 75 58 76 59 53 60 54 61 62 62 55 63 57 64 63 65
REMARK SMILES IDX 56 66 58 67 59 68 60 69 61 70 5 71 6 72 7 73 8 74 9 76 10 77
REMARK SMILES IDX 11 78 15 79 12 80 14 81 13 82 16 83 17 84 18 85 19 87 20 88
REMARK SMILES IDX 26 89 21 90 24 91 22 92 25 93 23 94
REMARK H PARENT 3 5 83 23 51 34 7 75 18 86
REMARK Flexibility Score: inf
ROOT
ATOM      1  C   UNL A   1      32.958  29.218  25.351  1.00  0.00     0.118 C 
ENDROOT
BRANCH   1   2
ATOM      2  N   UNL A   1      32.498  30.514  25.828  1.00  0.00    -0.352 N 
ATOM      3  O   UNL A   1      32.291  32.244  27.247  1.00  0.00    -0.269 OA
ATOM      4  C   UNL A   1      32.961  31.291  26.869  1.00  0.00     0.251 C 
ATOM      5  H   UNL A   1      31.740  30.896  25.330  1.00  0.00     0.163 HD
BRANCH   4   6
ATOM      6  C   UNL A   1      34.233  30.949  27.548  1.00  0.00     0.039 A 
ATOM      7  C   UNL A   1      34.470  29.656  28.011  1.00  0.00     0.014 A 
ATOM      8  C   UNL A   1      35.217  31.931  27.703  1.00  0.00     0.014 A 
ATOM      9  C   UNL A   1      35.588  29.392  28.794  1.00  0.00     0.010 A 
ATOM     10  C   UNL A   1      36.399  31.631  28.391  1.00  0.00     0.010 A 
ATOM     11  C   UNL A   1      36.578  30.369  28.979  1.00  0.00    -0.014 A 
BRANCH  11  12
ATOM     12  C   UNL A   1      37.816  30.012  29.720  1.00  0.00     0.031 A 
ATOM     13  C   UNL A   1      38.075  30.518  31.114  1.00  0.00     0.074 A 
ATOM     14  C   UNL A   1      38.710  29.198  29.122  1.00  0.00     0.049 A 
ATOM     15  N   UNL A   1      39.091  30.271  31.900  1.00  0.00    -0.248 NA
ATOM     16  C   UNL A   1      37.074  31.424  31.701  1.00  0.00     0.031 C 
ATOM     17  C   UNL A   1      38.592  28.681  27.756  1.00  0.00     0.029 A 
ATOM     18  N   UNL A   1      39.884  28.655  29.579  1.00  0.00    -0.354 N 
ATOM     19  C   UNL A   1      38.880  31.022  33.051  1.00  0.00     0.074 A 
ATOM     20  C   UNL A   1      37.637  31.737  32.861  1.00  0.00     0.031 C 
ATOM     21  C   UNL A   1      39.622  27.864  27.501  1.00  0.00     0.029 A 
ATOM     22  C   UNL A   1      40.509  27.847  28.658  1.00  0.00     0.049 A 
ATOM     23  H   UNL A   1      40.244  28.827  30.479  1.00  0.00     0.167 HD
ATOM     24  C   UNL A   1      39.645  31.095  34.166  1.00  0.00     0.034 A 
ATOM     25  C   UNL A   1      41.674  27.175  28.725  1.00  0.00     0.034 A 
ATOM     26  C   UNL A   1      40.855  30.342  34.368  1.00  0.00     0.049 A 
ATOM     27  C   UNL A   1      42.476  27.243  29.990  1.00  0.00     0.074 A 
ATOM     28  C   UNL A   1      41.666  30.302  35.490  1.00  0.00     0.029 A 
ATOM     29  N   UNL A   1      41.431  29.499  33.430  1.00  0.00    -0.354 N 
ATOM     30  N   UNL A   1      42.197  27.867  31.108  1.00  0.00    -0.248 NA
ATOM     31  C   UNL A   1      43.743  26.498  30.013  1.00  0.00     0.031 C 
ATOM     32  C   UNL A   1      42.738  29.443  35.225  1.00  0.00     0.029 A 
ATOM     33  C   UNL A   1      42.589  28.938  33.944  1.00  0.00     0.049 A 
ATOM     34  H   UNL A   1      41.071  29.325  32.532  1.00  0.00     0.167 HD
ATOM     35  C   UNL A   1      43.243  27.579  31.974  1.00  0.00     0.074 A 
ATOM     36  C   UNL A   1      44.145  26.698  31.261  1.00  0.00     0.031 C 
ATOM     37  C   UNL A   1      43.451  28.025  33.237  1.00  0.00     0.034 A 
BRANCH  24  38
ATOM     38  C   UNL A   1      39.177  31.990  35.286  1.00  0.00     0.023 A 
ATOM     39  C   UNL A   1      38.230  31.507  36.212  1.00  0.00     0.012 A 
ATOM     40  C   UNL A   1      39.729  33.274  35.470  1.00  0.00     0.148 A 
ATOM     41  C   UNL A   1      37.823  32.294  37.288  1.00  0.00     0.002 A 
ATOM     42  C   UNL A   1      39.345  34.039  36.565  1.00  0.00     0.091 A 
ATOM     43  F   UNL A   1      40.612  33.726  34.568  1.00  0.00    -0.205 F 
ATOM     44  C   UNL A   1      38.387  33.554  37.471  1.00  0.00     0.022 A 
BRANCH  42  45
ATOM     45  S   UNL A   1      40.069  35.644  36.925  1.00  0.00     0.127 S 
ATOM     46  O   UNL A   1      39.651  36.422  35.760  1.00  0.00    -0.237 OA
ATOM     47  O   UNL A   1      39.403  36.013  38.175  1.00  0.00    -0.237 OA
ATOM     48  O   UNL A   1      41.502  35.416  37.047  1.00  0.00    -0.744 OA
ENDBRANCH  42  45
ENDBRANCH  24  38
BRANCH  25  49
ATOM     49  C   UNL A   1      42.112  26.347  27.566  1.00  0.00     0.023 A 
ATOM     50  C   UNL A   1      42.981  26.900  26.608  1.00  0.00     0.012 A 
ATOM     51  C   UNL A   1      41.730  24.996  27.450  1.00  0.00     0.148 A 
ATOM     52  C   UNL A   1      43.450  26.126  25.545  1.00  0.00     0.002 A 
ATOM     53  C   UNL A   1      42.250  24.215  26.426  1.00  0.00     0.091 A 
ATOM     54  F   UNL A   1      40.885  24.492  28.360  1.00  0.00    -0.205 F 
ATOM     55  C   UNL A   1      43.098  24.781  25.463  1.00  0.00     0.022 A 
BRANCH  53  56
ATOM     56  S   UNL A   1      41.970  22.442  26.350  1.00  0.00     0.127 S 
ATOM     57  O   UNL A   1      40.518  22.373  26.225  1.00  0.00    -0.237 OA
ATOM     58  O   UNL A   1      42.713  22.063  25.147  1.00  0.00    -0.237 OA
ATOM     59  O   UNL A   1      42.533  21.912  27.586  1.00  0.00    -0.744 OA
ENDBRANCH  53  56
ENDBRANCH  25  49
BRANCH  37  60
ATOM     60  C   UNL A   1      44.697  27.555  33.938  1.00  0.00     0.023 A 
ATOM     61  C   UNL A   1      45.860  28.349  33.891  1.00  0.00     0.012 A 
ATOM     62  C   UNL A   1      44.699  26.365  34.689  1.00  0.00     0.148 A 
ATOM     63  C   UNL A   1      47.016  27.950  34.557  1.00  0.00     0.002 A 
ATOM     64  C   UNL A   1      45.843  25.995  35.387  1.00  0.00     0.091 A 
ATOM     65  F   UNL A   1      43.589  25.612  34.701  1.00  0.00    -0.205 F 
ATOM     66  C   UNL A   1      47.005  26.781  35.314  1.00  0.00     0.022 A 
BRANCH  64  67
ATOM     67  S   UNL A   1      45.887  24.550  36.454  1.00  0.00     0.127 S 
ATOM     68  O   UNL A   1      44.656  24.711  37.225  1.00  0.00    -0.237 OA
ATOM     69  O   UNL A   1      45.864  23.449  35.490  1.00  0.00    -0.237 OA
ATOM     70  O   UNL A   1      47.125  24.657  37.215  1.00  0.00    -0.744 OA
ENDBRANCH  64  67
ENDBRANCH  37  60
ENDBRANCH  11  12
ENDBRANCH   4   6
ENDBRANCH   1   2
BRANCH   1  71
ATOM     71  C   UNL A   1      31.998  28.093  25.722  1.00  0.00     0.042 C 
BRANCH  71  72
ATOM     72  C   UNL A   1      32.727  26.840  26.191  1.00  0.00     0.117 C 
BRANCH  72  73
ATOM     73  N   UNL A   1      31.794  25.810  26.626  1.00  0.00    -0.356 N 
ATOM     74  C   UNL A   1      31.196  24.746  26.047  1.00  0.00     0.223 C 
ATOM     75  H   UNL A   1      31.536  25.914  27.570  1.00  0.00     0.163 HD
ATOM     76  O   UNL A   1      30.503  24.066  26.813  1.00  0.00    -0.275 OA
BRANCH  74  77
ATOM     77  C   UNL A   1      31.299  24.340  24.573  1.00  0.00     0.091 C 
ATOM     78  C   UNL A   1      30.558  25.133  23.498  1.00  0.00     0.014 C 
ATOM     79  C   UNL A   1      32.698  23.872  24.085  1.00  0.00     0.091 C 
ATOM     80  C   UNL A   1      31.422  26.209  22.852  1.00  0.00     0.001 C 
ATOM     81  C   UNL A   1      33.482  24.771  23.112  1.00  0.00     0.014 C 
ATOM     82  C   UNL A   1      32.613  25.574  22.153  1.00  0.00     0.001 C 
BRANCH  79  83
ATOM     83  C   UNL A   1      33.599  23.206  25.123  1.00  0.00     0.228 C 
ATOM     84  O   UNL A   1      34.166  23.936  25.952  1.00  0.00    -0.274 OA
ATOM     85  N   UNL A   1      33.798  21.874  25.295  1.00  0.00    -0.326 N 
ATOM     86  H   UNL A   1      34.330  21.698  26.104  1.00  0.00     0.169 HD
BRANCH  85  87
ATOM     87  C   UNL A   1      33.462  20.675  24.645  1.00  0.00     0.042 A 
ATOM     88  C   UNL A   1      32.387  20.489  23.780  1.00  0.00     0.029 A 
ATOM     89  C   UNL A   1      34.313  19.583  24.883  1.00  0.00     0.049 A 
ATOM     90  C   UNL A   1      32.154  19.252  23.167  1.00  0.00     0.043 A 
ATOM     91  C   UNL A   1      34.080  18.342  24.282  1.00  0.00     0.078 A 
ATOM     92  C   UNL A   1      33.001  18.184  23.422  1.00  0.00     0.141 A 
ATOM     93  Cl  UNL A   1      35.130  17.023  24.627  1.00  0.00    -0.081 Cl
ATOM     94  F   UNL A   1      32.754  17.007  22.831  1.00  0.00    -0.205 F 
ENDBRANCH  85  87
ENDBRANCH  79  83
ENDBRANCH  74  77
ENDBRANCH  72  73
ENDBRANCH  71  72
ENDBRANCH   1  71
TORSDOF 15
ENDMDL
MODEL 3
REMARK VINA RESULT:     -12.2      5.462      8.411
REMARK SMILES O=C(NCCCNC(=O)[C@H]1CCCC[C@H]1C(=O)Nc1ccc(F)c(Cl)c1)c1ccc(-c2c3nc(c(-c4cccc(S(=O)(=O)[O-])c4F)c4ccc([nH]4)c(-c4cccc(S(=O)(=O)[O-])c4F)c4nc(c(-c5cccc(S(=O)(=O)[O-])c5F)c5ccc2[nH]5)C=C4)C=C3)cc1
REMARK SMILES IDX 4 1 3 2 1 3 2 4 27 6 28 7 89 8 29 9 88 10 30 11 31 12 32 13
REMARK SMILES IDX 82 14 33 15 87 16 81 17 83 18 34 19 86 20 80 21 79 22 35 24
REMARK SMILES IDX 67 25 47 26 66 27 48 28 51 29 65 30 84 31 49 32 50 33 64 35
REMARK SMILES IDX 85 36 52 37 36 38 37 39 45 40 38 41 40 42 46 43 39 44 41 45
REMARK SMILES IDX 42 46 43 47 44 48 68 49 69 50 77 51 70 52 72 53 78 54 71 55
REMARK SMILES IDX 73 56 74 57 75 58 76 59 53 60 54 61 62 62 55 63 57 64 63 65
REMARK SMILES IDX 56 66 58 67 59 68 60 69 61 70 5 71 6 72 7 73 8 74 9 76 10 77
REMARK SMILES IDX 11 78 15 79 12 80 14 81 13 82 16 83 17 84 18 85 19 87 20 88
REMARK SMILES IDX 26 89 21 90 24 91 22 92 25 93 23 94
REMARK H PARENT 3 5 83 23 51 34 7 75 18 86
REMARK Flexibility Score: inf
ROOT
ATOM      1  C   UNL A   1      38.685  20.235  25.754  1.00  0.00     0.118 C 
ENDROOT
BRANCH   1   2
ATOM      2  N   UNL A   1      39.820  19.377  26.060  1.00  0.00    -0.352 N 
ATOM      3  O   UNL A   1      41.977  18.829  26.373  1.00  0.00    -0.269 OA
ATOM      4  C   UNL A   1      41.123  19.707  26.370  1.00  0.00     0.251 C 
ATOM      5  H   UNL A   1      39.628  18.412  26.046  1.00  0.00     0.163 HD
BRANCH   4   6
ATOM      6  C   UNL A   1      41.489  21.114  26.655  1.00  0.00     0.039 A 
ATOM      7  C   UNL A   1      41.179  22.129  25.752  1.00  0.00     0.014 A 
ATOM      8  C   UNL A   1      42.132  21.430  27.856  1.00  0.00     0.014 A 
ATOM      9  C   UNL A   1      41.677  23.411  25.949  1.00  0.00     0.010 A 
ATOM     10  C   UNL A   1      42.531  22.748  28.109  1.00  0.00     0.010 A 
ATOM     11  C   UNL A   1      42.343  23.744  27.139  1.00  0.00    -0.014 A 
BRANCH  11  12
ATOM     12  C   UNL A   1      42.754  25.155  27.366  1.00  0.00     0.031 A 
ATOM     13  C   UNL A   1      41.854  26.135  28.068  1.00  0.00     0.074 A 
ATOM     14  C   UNL A   1      43.974  25.544  26.943  1.00  0.00     0.049 A 
ATOM     15  N   UNL A   1      42.082  27.388  28.368  1.00  0.00    -0.248 NA
ATOM     16  C   UNL A   1      40.525  25.657  28.482  1.00  0.00     0.031 C 
ATOM     17  C   UNL A   1      44.918  24.697  26.209  1.00  0.00     0.029 A 
ATOM     18  N   UNL A   1      44.637  26.739  27.073  1.00  0.00    -0.354 N 
ATOM     19  C   UNL A   1      40.916  27.863  28.958  1.00  0.00     0.074 A 
ATOM     20  C   UNL A   1      39.978  26.761  28.975  1.00  0.00     0.031 C 
ATOM     21  C   UNL A   1      46.050  25.379  25.992  1.00  0.00     0.029 A 
ATOM     22  C   UNL A   1      45.893  26.732  26.513  1.00  0.00     0.049 A 
ATOM     23  H   UNL A   1      44.250  27.524  27.524  1.00  0.00     0.167 HD
ATOM     24  C   UNL A   1      40.659  29.097  29.453  1.00  0.00     0.034 A 
ATOM     25  C   UNL A   1      46.817  27.707  26.414  1.00  0.00     0.034 A 
ATOM     26  C   UNL A   1      41.614  30.174  29.478  1.00  0.00     0.049 A 
ATOM     27  C   UNL A   1      46.518  29.050  27.010  1.00  0.00     0.074 A 
ATOM     28  C   UNL A   1      41.467  31.442  30.016  1.00  0.00     0.029 A 
ATOM     29  N   UNL A   1      42.892  30.114  28.944  1.00  0.00    -0.354 N 
ATOM     30  N   UNL A   1      45.453  29.439  27.668  1.00  0.00    -0.248 NA
ATOM     31  C   UNL A   1      47.554  30.083  26.871  1.00  0.00     0.031 C 
ATOM     32  C   UNL A   1      42.652  32.151  29.795  1.00  0.00     0.029 A 
ATOM     33  C   UNL A   1      43.543  31.323  29.133  1.00  0.00     0.049 A 
ATOM     34  H   UNL A   1      43.280  29.329  28.496  1.00  0.00     0.167 HD
ATOM     35  C   UNL A   1      45.694  30.755  28.036  1.00  0.00     0.074 A 
ATOM     36  C   UNL A   1      47.021  31.087  27.556  1.00  0.00     0.031 C 
ATOM     37  C   UNL A   1      44.881  31.620  28.690  1.00  0.00     0.034 A 
BRANCH  24  38
ATOM     38  C   UNL A   1      39.299  29.347  30.056  1.00  0.00     0.023 A 
ATOM     39  C   UNL A   1      39.035  28.922  31.374  1.00  0.00     0.012 A 
ATOM     40  C   UNL A   1      38.314  30.069  29.353  1.00  0.00     0.148 A 
ATOM     41  C   UNL A   1      37.806  29.191  31.974  1.00  0.00     0.002 A 
ATOM     42  C   UNL A   1      37.104  30.364  29.970  1.00  0.00     0.091 A 
ATOM     43  F   UNL A   1      38.574  30.445  28.093  1.00  0.00    -0.205 F 
ATOM     44  C   UNL A   1      36.845  29.920  31.277  1.00  0.00     0.022 A 
BRANCH  42  45
ATOM     45  S   UNL A   1      35.833  31.358  29.180  1.00  0.00     0.127 S 
ATOM     46  O   UNL A   1      35.024  31.768  30.326  1.00  0.00    -0.237 OA
ATOM     47  O   UNL A   1      36.614  32.436  28.570  1.00  0.00    -0.237 OA
ATOM     48  O   UNL A   1      35.172  30.476  28.227  1.00  0.00    -0.744 OA
ENDBRANCH  42  45
ENDBRANCH  24  38
BRANCH  25  49
ATOM     49  C   UNL A   1      48.124  27.416  25.761  1.00  0.00     0.023 A 
ATOM     50  C   UNL A   1      49.178  26.885  26.526  1.00  0.00     0.012 A 
ATOM     51  C   UNL A   1      48.302  27.593  24.374  1.00  0.00     0.148 A 
ATOM     52  C   UNL A   1      50.393  26.551  25.926  1.00  0.00     0.002 A 
ATOM     53  C   UNL A   1      49.491  27.199  23.773  1.00  0.00     0.091 A 
ATOM     54  F   UNL A   1      47.294  28.119  23.665  1.00  0.00    -0.205 F 
ATOM     55  C   UNL A   1      50.544  26.692  24.548  1.00  0.00     0.022 A 
BRANCH  53  56
ATOM     56  S   UNL A   1      49.696  27.202  21.988  1.00  0.00     0.127 S 
ATOM     57  O   UNL A   1      48.658  26.267  21.565  1.00  0.00    -0.237 OA
ATOM     58  O   UNL A   1      49.440  28.603  21.650  1.00  0.00    -0.237 OA
ATOM     59  O   UNL A   1      51.072  26.779  21.760  1.00  0.00    -0.744 OA
ENDBRANCH  53  56
ENDBRANCH  25  49
BRANCH  37  60
ATOM     60  C   UNL A   1      45.408  33.007  28.939  1.00  0.00     0.023 A 
ATOM     61  C   UNL A   1      46.125  33.274  30.123  1.00  0.00     0.012 A 
ATOM     62  C   UNL A   1      45.249  34.024  27.979  1.00  0.00     0.148 A 
ATOM     63  C   UNL A   1      46.649  34.543  30.361  1.00  0.00     0.002 A 
ATOM     64  C   UNL A   1      45.813  35.275  28.204  1.00  0.00     0.091 A 
ATOM     65  F   UNL A   1      44.544  33.755  26.871  1.00  0.00    -0.205 F 
ATOM     66  C   UNL A   1      46.504  35.539  29.399  1.00  0.00     0.022 A 
BRANCH  64  67
ATOM     67  S   UNL A   1      45.745  36.588  26.980  1.00  0.00     0.127 S 
ATOM     68  O   UNL A   1      44.307  36.824  26.875  1.00  0.00    -0.237 OA
ATOM     69  O   UNL A   1      46.495  37.663  27.631  1.00  0.00    -0.237 OA
ATOM     70  O   UNL A   1      46.383  36.049  25.786  1.00  0.00    -0.744 OA
ENDBRANCH  64  67
ENDBRANCH  37  60
ENDBRANCH  11  12
ENDBRANCH   4   6
ENDBRANCH   1   2
BRANCH   1  71
ATOM     71  C   UNL A   1      37.599  19.500  24.976  1.00  0.00     0.042 C 
BRANCH  71  72
ATOM     72  C   UNL A   1      36.389  20.382  24.696  1.00  0.00     0.117 C 
BRANCH  72  73
ATOM     73  N   UNL A   1      35.691  20.736  25.925  1.00  0.00    -0.356 N 
ATOM     74  C   UNL A   1      34.809  21.690  26.290  1.00  0.00     0.223 C 
ATOM     75  H   UNL A   1      35.917  20.133  26.670  1.00  0.00     0.163 HD
ATOM     76  O   UNL A   1      34.396  21.592  27.453  1.00  0.00    -0.275 OA
BRANCH  74  77
ATOM     77  C   UNL A   1      34.306  22.843  25.415  1.00  0.00     0.091 C 
ATOM     78  C   UNL A   1      35.283  23.648  24.559  1.00  0.00     0.014 C 
ATOM     79  C   UNL A   1      32.954  22.615  24.686  1.00  0.00     0.091 C 
ATOM     80  C   UNL A   1      35.386  23.130  23.130  1.00  0.00     0.001 C 
ATOM     81  C   UNL A   1      32.954  22.450  23.156  1.00  0.00     0.014 C 
ATOM     82  C   UNL A   1      34.039  23.240  22.436  1.00  0.00     0.001 C 
BRANCH  79  83
ATOM     83  C   UNL A   1      31.951  21.690  25.375  1.00  0.00     0.228 C 
ATOM     84  O   UNL A   1      31.163  22.195  26.190  1.00  0.00    -0.274 OA
ATOM     85  N   UNL A   1      31.770  20.365  25.140  1.00  0.00    -0.326 N 
ATOM     86  H   UNL A   1      30.985  20.025  25.627  1.00  0.00     0.169 HD
BRANCH  85  87
ATOM     87  C   UNL A   1      32.384  19.341  24.401  1.00  0.00     0.042 A 
ATOM     88  C   UNL A   1      32.209  19.099  23.040  1.00  0.00     0.029 A 
ATOM     89  C   UNL A   1      33.270  18.513  25.109  1.00  0.00     0.049 A 
ATOM     90  C   UNL A   1      32.889  18.060  22.395  1.00  0.00     0.043 A 
ATOM     91  C   UNL A   1      33.944  17.466  24.472  1.00  0.00     0.078 A 
ATOM     92  C   UNL A   1      33.753  17.247  23.115  1.00  0.00     0.141 A 
ATOM     93  Cl  UNL A   1      34.995  16.454  25.386  1.00  0.00    -0.081 Cl
ATOM     94  F   UNL A   1      34.386  16.253  22.478  1.00  0.00    -0.205 F 
ENDBRANCH  85  87
ENDBRANCH  79  83
ENDBRANCH  74  77
ENDBRANCH  72  73
ENDBRANCH  71  72
ENDBRANCH   1  71
TORSDOF 15
ENDMDL
