MODEL 1
REMARK VINA RESULT:     -12.8      0.000      0.000
REMARK SMILES O=C(NCCCNC(=O)[C@H]1CC[C@@H]2CCCC[C@H]2N1C(=O)N1CCSCC1)c1ccc(-c2c3nc(c(-c4cccc(S(=O)(=O)[O-])c4F)c4ccc([nH]4)c(-c4cccc(S(=O)(=O)[O-])c4F)c4nc(c(-c5cccc(S(=O)(=O)[O-])c5F)c5ccc2[nH]5)C=C4)C=C3)cc1
REMARK SMILES IDX 4 1 3 2 1 3 2 4 28 6 29 7 90 8 30 9 89 10 31 11 32 12 33 13
REMARK SMILES IDX 83 14 34 15 88 16 82 17 84 18 35 19 87 20 81 21 80 22 36 24
REMARK SMILES IDX 68 25 48 26 67 27 49 28 52 29 66 30 85 31 50 32 51 33 65 35
REMARK SMILES IDX 86 36 53 37 37 38 38 39 46 40 39 41 41 42 47 43 40 44 42 45
REMARK SMILES IDX 43 46 44 47 45 48 69 49 70 50 78 51 71 52 73 53 79 54 72 55
REMARK SMILES IDX 74 56 75 57 76 58 77 59 54 60 55 61 63 62 56 63 58 64 64 65
REMARK SMILES IDX 57 66 59 67 60 68 61 69 62 70 5 71 6 72 7 73 8 74 9 76 10 77
REMARK SMILES IDX 11 78 19 79 12 80 18 81 13 82 17 83 14 84 16 85 15 86 20 87
REMARK SMILES IDX 21 88 22 89 23 90 27 91 24 92 26 93 25 94
REMARK H PARENT 3 5 84 23 52 34 7 75
REMARK Flexibility Score: inf
ROOT
ATOM      1  C   UNL A   1      32.583  29.624  26.240  1.00  0.00     0.118 C 
ENDROOT
BRANCH   1   2
ATOM      2  N   UNL A   1      32.288  31.001  26.616  1.00  0.00    -0.352 N 
ATOM      3  O   UNL A   1      32.681  32.996  27.604  1.00  0.00    -0.269 OA
ATOM      4  C   UNL A   1      33.095  31.889  27.294  1.00  0.00     0.251 C 
ATOM      5  H   UNL A   1      31.401  31.339  26.353  1.00  0.00     0.163 HD
BRANCH   4   6
ATOM      6  C   UNL A   1      34.445  31.436  27.685  1.00  0.00     0.039 A 
ATOM      7  C   UNL A   1      34.664  30.091  27.988  1.00  0.00     0.014 A 
ATOM      8  C   UNL A   1      35.447  32.387  27.884  1.00  0.00     0.014 A 
ATOM      9  C   UNL A   1      35.818  29.731  28.673  1.00  0.00     0.010 A 
ATOM     10  C   UNL A   1      36.645  32.002  28.488  1.00  0.00     0.010 A 
ATOM     11  C   UNL A   1      36.814  30.685  28.944  1.00  0.00    -0.014 A 
BRANCH  11  12
ATOM     12  C   UNL A   1      38.025  30.274  29.698  1.00  0.00     0.031 A 
ATOM     13  C   UNL A   1      38.244  30.711  31.123  1.00  0.00     0.074 A 
ATOM     14  C   UNL A   1      38.917  29.468  29.091  1.00  0.00     0.049 A 
ATOM     15  N   UNL A   1      39.222  30.402  31.935  1.00  0.00    -0.248 NA
ATOM     16  C   UNL A   1      37.248  31.621  31.713  1.00  0.00     0.031 C 
ATOM     17  C   UNL A   1      38.824  29.013  27.702  1.00  0.00     0.029 A 
ATOM     18  N   UNL A   1      40.061  28.878  29.559  1.00  0.00    -0.354 N 
ATOM     19  C   UNL A   1      38.994  31.117  33.105  1.00  0.00     0.074 A 
ATOM     20  C   UNL A   1      37.779  31.876  32.902  1.00  0.00     0.031 C 
ATOM     21  C   UNL A   1      39.842  28.180  27.443  1.00  0.00     0.029 A 
ATOM     22  C   UNL A   1      40.685  28.081  28.629  1.00  0.00     0.049 A 
ATOM     23  H   UNL A   1      40.404  29.012  30.472  1.00  0.00     0.167 HD
ATOM     24  C   UNL A   1      39.723  31.129  34.247  1.00  0.00     0.034 A 
ATOM     25  C   UNL A   1      41.811  27.349  28.718  1.00  0.00     0.034 A 
ATOM     26  C   UNL A   1      40.895  30.321  34.463  1.00  0.00     0.049 A 
ATOM     27  C   UNL A   1      42.557  27.326  30.021  1.00  0.00     0.074 A 
ATOM     28  C   UNL A   1      41.664  30.209  35.609  1.00  0.00     0.029 A 
ATOM     29  N   UNL A   1      41.462  29.482  33.517  1.00  0.00    -0.354 N 
ATOM     30  N   UNL A   1      42.257  27.918  31.151  1.00  0.00    -0.248 NA
ATOM     31  C   UNL A   1      43.780  26.514  30.069  1.00  0.00     0.031 C 
ATOM     32  C   UNL A   1      42.702  29.306  35.351  1.00  0.00     0.029 A 
ATOM     33  C   UNL A   1      42.573  28.849  34.049  1.00  0.00     0.049 A 
ATOM     34  H   UNL A   1      41.127  29.355  32.600  1.00  0.00     0.167 HD
ATOM     35  C   UNL A   1      43.242  27.537  32.053  1.00  0.00     0.074 A 
ATOM     36  C   UNL A   1      44.130  26.637  31.343  1.00  0.00     0.031 C 
ATOM     37  C   UNL A   1      43.412  27.916  33.343  1.00  0.00     0.034 A 
BRANCH  24  38
ATOM     38  C   UNL A   1      39.253  32.009  35.376  1.00  0.00     0.023 A 
ATOM     39  C   UNL A   1      38.358  31.494  36.334  1.00  0.00     0.012 A 
ATOM     40  C   UNL A   1      39.750  33.320  35.530  1.00  0.00     0.148 A 
ATOM     41  C   UNL A   1      37.946  32.275  37.415  1.00  0.00     0.002 A 
ATOM     42  C   UNL A   1      39.362  34.079  36.629  1.00  0.00     0.091 A 
ATOM     43  F   UNL A   1      40.581  33.803  34.596  1.00  0.00    -0.205 F 
ATOM     44  C   UNL A   1      38.455  33.561  37.569  1.00  0.00     0.022 A 
BRANCH  42  45
ATOM     45  S   UNL A   1      40.023  35.720  36.945  1.00  0.00     0.127 S 
ATOM     46  O   UNL A   1      39.364  36.068  38.202  1.00  0.00    -0.237 OA
ATOM     47  O   UNL A   1      41.459  35.464  37.060  1.00  0.00    -0.237 OA
ATOM     48  O   UNL A   1      39.646  36.526  35.790  1.00  0.00    -0.744 OA
ENDBRANCH  42  45
ENDBRANCH  24  38
BRANCH  25  49
ATOM     49  C   UNL A   1      42.243  26.523  27.557  1.00  0.00     0.023 A 
ATOM     50  C   UNL A   1      43.122  27.076  26.606  1.00  0.00     0.012 A 
ATOM     51  C   UNL A   1      41.855  25.175  27.432  1.00  0.00     0.148 A 
ATOM     52  C   UNL A   1      43.596  26.306  25.545  1.00  0.00     0.002 A 
ATOM     53  C   UNL A   1      42.379  24.397  26.406  1.00  0.00     0.091 A 
ATOM     54  F   UNL A   1      41.001  24.670  28.334  1.00  0.00    -0.205 F 
ATOM     55  C   UNL A   1      43.238  24.963  25.453  1.00  0.00     0.022 A 
BRANCH  53  56
ATOM     56  S   UNL A   1      42.088  22.626  26.323  1.00  0.00     0.127 S 
ATOM     57  O   UNL A   1      40.630  22.562  26.295  1.00  0.00    -0.237 OA
ATOM     58  O   UNL A   1      42.745  22.261  25.067  1.00  0.00    -0.237 OA
ATOM     59  O   UNL A   1      42.732  22.078  27.509  1.00  0.00    -0.744 OA
ENDBRANCH  53  56
ENDBRANCH  25  49
BRANCH  37  60
ATOM     60  C   UNL A   1      44.594  27.345  34.076  1.00  0.00     0.023 A 
ATOM     61  C   UNL A   1      45.842  27.993  33.987  1.00  0.00     0.012 A 
ATOM     62  C   UNL A   1      44.458  26.207  34.893  1.00  0.00     0.148 A 
ATOM     63  C   UNL A   1      46.946  27.497  34.680  1.00  0.00     0.002 A 
ATOM     64  C   UNL A   1      45.554  25.743  35.612  1.00  0.00     0.091 A 
ATOM     65  F   UNL A   1      43.269  25.590  34.944  1.00  0.00    -0.205 F 
ATOM     66  C   UNL A   1      46.800  26.380  35.499  1.00  0.00     0.022 A 
BRANCH  64  67
ATOM     67  S   UNL A   1      45.418  24.362  36.752  1.00  0.00     0.127 S 
ATOM     68  O   UNL A   1      46.766  24.301  37.313  1.00  0.00    -0.237 OA
ATOM     69  O   UNL A   1      44.389  24.821  37.688  1.00  0.00    -0.237 OA
ATOM     70  O   UNL A   1      45.016  23.223  35.937  1.00  0.00    -0.744 OA
ENDBRANCH  64  67
ENDBRANCH  37  60
ENDBRANCH  11  12
ENDBRANCH   4   6
ENDBRANCH   1   2
BRANCH   1  71
ATOM     71  C   UNL A   1      31.449  28.646  26.522  1.00  0.00     0.042 C 
BRANCH  71  72
ATOM     72  C   UNL A   1      31.895  27.360  27.198  1.00  0.00     0.117 C 
BRANCH  72  73
ATOM     73  N   UNL A   1      31.071  26.236  26.802  1.00  0.00    -0.354 N 
ATOM     74  C   UNL A   1      31.436  25.009  26.348  1.00  0.00     0.242 C 
ATOM     75  H   UNL A   1      30.100  26.383  26.873  1.00  0.00     0.163 HD
ATOM     76  O   UNL A   1      30.530  24.226  26.035  1.00  0.00    -0.273 OA
BRANCH  74  77
ATOM     77  C   UNL A   1      32.903  24.629  26.068  1.00  0.00     0.176 C 
ATOM     78  C   UNL A   1      33.209  23.578  27.167  1.00  0.00     0.036 C 
ATOM     79  N   UNL A   1      33.361  24.219  24.706  1.00  0.00    -0.309 N 
ATOM     80  C   UNL A   1      34.592  22.974  27.094  1.00  0.00     0.008 C 
ATOM     81  C   UNL A   1      34.762  23.655  24.684  1.00  0.00     0.091 C 
ATOM     82  C   UNL A   1      34.884  22.474  25.681  1.00  0.00     0.012 C 
ATOM     83  C   UNL A   1      35.360  23.258  23.315  1.00  0.00     0.025 C 
ATOM     84  C   UNL A   1      36.261  21.790  25.689  1.00  0.00     0.006 C 
ATOM     85  C   UNL A   1      36.750  22.637  23.407  1.00  0.00     0.002 C 
ATOM     86  C   UNL A   1      36.736  21.411  24.298  1.00  0.00     0.000 C 
BRANCH  79  87
ATOM     87  C   UNL A   1      32.817  24.725  23.515  1.00  0.00     0.321 C 
ATOM     88  O   UNL A   1      32.412  24.022  22.591  1.00  0.00    -0.248 OA
ATOM     89  N   UNL A   1      32.588  26.093  23.419  1.00  0.00    -0.323 N 
ATOM     90  C   UNL A   1      31.287  26.423  22.811  1.00  0.00     0.132 C 
ATOM     91  C   UNL A   1      33.698  26.928  22.942  1.00  0.00     0.132 C 
ATOM     92  C   UNL A   1      30.825  27.862  23.021  1.00  0.00     0.091 C 
ATOM     93  C   UNL A   1      33.486  28.436  23.127  1.00  0.00     0.091 C 
ATOM     94  S   UNL A   1      31.991  29.036  22.274  1.00  0.00    -0.158 SA
ENDBRANCH  79  87
ENDBRANCH  74  77
ENDBRANCH  72  73
ENDBRANCH  71  72
ENDBRANCH   1  71
TORSDOF 14
ENDMDL
MODEL 2
REMARK VINA RESULT:     -12.7      1.307      1.549
REMARK SMILES O=C(NCCCNC(=O)[C@H]1CC[C@@H]2CCCC[C@H]2N1C(=O)N1CCSCC1)c1ccc(-c2c3nc(c(-c4cccc(S(=O)(=O)[O-])c4F)c4ccc([nH]4)c(-c4cccc(S(=O)(=O)[O-])c4F)c4nc(c(-c5cccc(S(=O)(=O)[O-])c5F)c5ccc2[nH]5)C=C4)C=C3)cc1
REMARK SMILES IDX 4 1 3 2 1 3 2 4 28 6 29 7 90 8 30 9 89 10 31 11 32 12 33 13
REMARK SMILES IDX 83 14 34 15 88 16 82 17 84 18 35 19 87 20 81 21 80 22 36 24
REMARK SMILES IDX 68 25 48 26 67 27 49 28 52 29 66 30 85 31 50 32 51 33 65 35
REMARK SMILES IDX 86 36 53 37 37 38 38 39 46 40 39 41 41 42 47 43 40 44 42 45
REMARK SMILES IDX 43 46 44 47 45 48 69 49 70 50 78 51 71 52 73 53 79 54 72 55
REMARK SMILES IDX 74 56 75 57 76 58 77 59 54 60 55 61 63 62 56 63 58 64 64 65
REMARK SMILES IDX 57 66 59 67 60 68 61 69 62 70 5 71 6 72 7 73 8 74 9 76 10 77
REMARK SMILES IDX 11 78 19 79 12 80 18 81 13 82 17 83 14 84 16 85 15 86 20 87
REMARK SMILES IDX 21 88 22 89 23 90 27 91 24 92 26 93 25 94
REMARK H PARENT 3 5 84 23 52 34 7 75
REMARK Flexibility Score: inf
ROOT
ATOM      1  C   UNL A   1      32.611  29.774  26.244  1.00  0.00     0.118 C 
ENDROOT
BRANCH   1   2
ATOM      2  N   UNL A   1      32.325  31.147  26.644  1.00  0.00    -0.352 N 
ATOM      3  O   UNL A   1      32.729  33.120  27.671  1.00  0.00    -0.269 OA
ATOM      4  C   UNL A   1      33.135  32.015  27.344  1.00  0.00     0.251 C 
ATOM      5  H   UNL A   1      31.443  31.497  26.380  1.00  0.00     0.163 HD
BRANCH   4   6
ATOM      6  C   UNL A   1      34.479  31.544  27.735  1.00  0.00     0.039 A 
ATOM      7  C   UNL A   1      34.688  30.189  28.001  1.00  0.00     0.014 A 
ATOM      8  C   UNL A   1      35.484  32.483  27.973  1.00  0.00     0.014 A 
ATOM      9  C   UNL A   1      35.832  29.803  28.687  1.00  0.00     0.010 A 
ATOM     10  C   UNL A   1      36.673  32.073  28.578  1.00  0.00     0.010 A 
ATOM     11  C   UNL A   1      36.830  30.743  28.996  1.00  0.00    -0.014 A 
BRANCH  11  12
ATOM     12  C   UNL A   1      38.030  30.302  29.751  1.00  0.00     0.031 A 
ATOM     13  C   UNL A   1      38.250  30.717  31.182  1.00  0.00     0.074 A 
ATOM     14  C   UNL A   1      38.913  29.491  29.137  1.00  0.00     0.049 A 
ATOM     15  N   UNL A   1      39.219  30.383  31.995  1.00  0.00    -0.248 NA
ATOM     16  C   UNL A   1      37.264  31.635  31.780  1.00  0.00     0.031 C 
ATOM     17  C   UNL A   1      38.820  29.056  27.742  1.00  0.00     0.029 A 
ATOM     18  N   UNL A   1      40.045  28.877  29.603  1.00  0.00    -0.354 N 
ATOM     19  C   UNL A   1      38.996  31.086  33.173  1.00  0.00     0.074 A 
ATOM     20  C   UNL A   1      37.794  31.866  32.974  1.00  0.00     0.031 C 
ATOM     21  C   UNL A   1      39.826  28.210  27.477  1.00  0.00     0.029 A 
ATOM     22  C   UNL A   1      40.662  28.082  28.666  1.00  0.00     0.049 A 
ATOM     23  H   UNL A   1      40.386  28.993  30.520  1.00  0.00     0.167 HD
ATOM     24  C   UNL A   1      39.719  31.071  34.319  1.00  0.00     0.034 A 
ATOM     25  C   UNL A   1      41.775  27.331  28.750  1.00  0.00     0.034 A 
ATOM     26  C   UNL A   1      40.877  30.243  34.530  1.00  0.00     0.049 A 
ATOM     27  C   UNL A   1      42.514  27.280  30.056  1.00  0.00     0.074 A 
ATOM     28  C   UNL A   1      41.639  30.104  35.677  1.00  0.00     0.029 A 
ATOM     29  N   UNL A   1      41.436  29.407  33.575  1.00  0.00    -0.354 N 
ATOM     30  N   UNL A   1      42.218  27.862  31.193  1.00  0.00    -0.248 NA
ATOM     31  C   UNL A   1      43.724  26.448  30.100  1.00  0.00     0.031 C 
ATOM     32  C   UNL A   1      42.663  29.187  35.413  1.00  0.00     0.029 A 
ATOM     33  C   UNL A   1      42.534  28.749  34.105  1.00  0.00     0.049 A 
ATOM     34  H   UNL A   1      41.103  29.297  32.655  1.00  0.00     0.167 HD
ATOM     35  C   UNL A   1      43.192  27.454  32.094  1.00  0.00     0.074 A 
ATOM     36  C   UNL A   1      44.070  26.549  31.377  1.00  0.00     0.031 C 
ATOM     37  C   UNL A   1      43.362  27.813  33.390  1.00  0.00     0.034 A 
BRANCH  24  38
ATOM     38  C   UNL A   1      39.257  31.944  35.457  1.00  0.00     0.023 A 
ATOM     39  C   UNL A   1      39.493  33.332  35.411  1.00  0.00     0.012 A 
ATOM     40  C   UNL A   1      38.528  31.403  36.536  1.00  0.00     0.148 A 
ATOM     41  C   UNL A   1      39.033  34.166  36.430  1.00  0.00     0.002 A 
ATOM     42  C   UNL A   1      38.042  32.246  37.530  1.00  0.00     0.091 A 
ATOM     43  F   UNL A   1      38.334  30.078  36.578  1.00  0.00    -0.205 F 
ATOM     44  C   UNL A   1      38.299  33.626  37.483  1.00  0.00     0.022 A 
BRANCH  42  45
ATOM     45  S   UNL A   1      37.028  31.647  38.888  1.00  0.00     0.127 S 
ATOM     46  O   UNL A   1      35.894  32.567  38.838  1.00  0.00    -0.237 OA
ATOM     47  O   UNL A   1      36.720  30.279  38.469  1.00  0.00    -0.237 OA
ATOM     48  O   UNL A   1      37.865  31.738  40.076  1.00  0.00    -0.744 OA
ENDBRANCH  42  45
ENDBRANCH  24  38
BRANCH  25  49
ATOM     49  C   UNL A   1      42.200  26.514  27.580  1.00  0.00     0.023 A 
ATOM     50  C   UNL A   1      43.074  27.074  26.630  1.00  0.00     0.012 A 
ATOM     51  C   UNL A   1      41.811  25.167  27.448  1.00  0.00     0.148 A 
ATOM     52  C   UNL A   1      43.541  26.311  25.559  1.00  0.00     0.002 A 
ATOM     53  C   UNL A   1      42.328  24.397  26.413  1.00  0.00     0.091 A 
ATOM     54  F   UNL A   1      40.961  24.656  28.351  1.00  0.00    -0.205 F 
ATOM     55  C   UNL A   1      43.182  24.970  25.460  1.00  0.00     0.022 A 
BRANCH  53  56
ATOM     56  S   UNL A   1      42.035  22.627  26.318  1.00  0.00     0.127 S 
ATOM     57  O   UNL A   1      42.670  22.151  27.543  1.00  0.00    -0.237 OA
ATOM     58  O   UNL A   1      40.573  22.554  26.313  1.00  0.00    -0.237 OA
ATOM     59  O   UNL A   1      42.653  22.204  25.068  1.00  0.00    -0.744 OA
ENDBRANCH  53  56
ENDBRANCH  25  49
BRANCH  37  60
ATOM     60  C   UNL A   1      44.532  27.214  34.121  1.00  0.00     0.023 A 
ATOM     61  C   UNL A   1      45.778  27.868  34.085  1.00  0.00     0.012 A 
ATOM     62  C   UNL A   1      44.383  26.041  34.885  1.00  0.00     0.148 A 
ATOM     63  C   UNL A   1      46.870  27.346  34.778  1.00  0.00     0.002 A 
ATOM     64  C   UNL A   1      45.466  25.550  35.605  1.00  0.00     0.091 A 
ATOM     65  F   UNL A   1      43.195  25.419  34.886  1.00  0.00    -0.205 F 
ATOM     66  C   UNL A   1      46.712  26.194  35.545  1.00  0.00     0.022 A 
BRANCH  64  67
ATOM     67  S   UNL A   1      45.312  24.121  36.682  1.00  0.00     0.127 S 
ATOM     68  O   UNL A   1      46.703  23.875  37.057  1.00  0.00    -0.237 OA
ATOM     69  O   UNL A   1      44.469  24.627  37.766  1.00  0.00    -0.237 OA
ATOM     70  O   UNL A   1      44.681  23.088  35.869  1.00  0.00    -0.744 OA
ENDBRANCH  64  67
ENDBRANCH  37  60
ENDBRANCH  11  12
ENDBRANCH   4   6
ENDBRANCH   1   2
BRANCH   1  71
ATOM     71  C   UNL A   1      31.465  28.802  26.497  1.00  0.00     0.042 C 
BRANCH  71  72
ATOM     72  C   UNL A   1      31.895  27.493  27.137  1.00  0.00     0.117 C 
BRANCH  72  73
ATOM     73  N   UNL A   1      31.037  26.396  26.737  1.00  0.00    -0.354 N 
ATOM     74  C   UNL A   1      31.365  25.150  26.305  1.00  0.00     0.242 C 
ATOM     75  H   UNL A   1      30.071  26.581  26.786  1.00  0.00     0.163 HD
ATOM     76  O   UNL A   1      30.436  24.399  25.982  1.00  0.00    -0.273 OA
BRANCH  74  77
ATOM     77  C   UNL A   1      32.821  24.712  26.061  1.00  0.00     0.176 C 
ATOM     78  C   UNL A   1      33.055  23.643  27.161  1.00  0.00     0.036 C 
ATOM     79  N   UNL A   1      33.299  24.291  24.709  1.00  0.00    -0.309 N 
ATOM     80  C   UNL A   1      34.413  22.982  27.120  1.00  0.00     0.008 C 
ATOM     81  C   UNL A   1      34.675  23.669  24.720  1.00  0.00     0.091 C 
ATOM     82  C   UNL A   1      34.721  22.479  25.712  1.00  0.00     0.012 C 
ATOM     83  C   UNL A   1      35.292  23.256  23.364  1.00  0.00     0.025 C 
ATOM     84  C   UNL A   1      36.069  21.739  25.752  1.00  0.00     0.006 C 
ATOM     85  C   UNL A   1      36.653  22.578  23.489  1.00  0.00     0.002 C 
ATOM     86  C   UNL A   1      36.565  21.348  24.371  1.00  0.00     0.000 C 
BRANCH  79  87
ATOM     87  C   UNL A   1      32.808  24.826  23.508  1.00  0.00     0.321 C 
ATOM     88  O   UNL A   1      32.477  24.147  22.537  1.00  0.00    -0.248 OA
ATOM     89  N   UNL A   1      32.544  26.190  23.447  1.00  0.00    -0.323 N 
ATOM     90  C   UNL A   1      31.269  26.506  22.778  1.00  0.00     0.132 C 
ATOM     91  C   UNL A   1      33.653  27.073  23.066  1.00  0.00     0.132 C 
ATOM     92  C   UNL A   1      30.753  27.922  23.012  1.00  0.00     0.091 C 
ATOM     93  C   UNL A   1      33.385  28.566  23.292  1.00  0.00     0.091 C 
ATOM     94  S   UNL A   1      31.924  29.156  22.377  1.00  0.00    -0.158 SA
ENDBRANCH  79  87
ENDBRANCH  74  77
ENDBRANCH  72  73
ENDBRANCH  71  72
ENDBRANCH   1  71
TORSDOF 14
ENDMDL
MODEL 3
REMARK VINA RESULT:     -12.4      5.043     10.150
REMARK SMILES O=C(NCCCNC(=O)[C@H]1CC[C@@H]2CCCC[C@H]2N1C(=O)N1CCSCC1)c1ccc(-c2c3nc(c(-c4cccc(S(=O)(=O)[O-])c4F)c4ccc([nH]4)c(-c4cccc(S(=O)(=O)[O-])c4F)c4nc(c(-c5cccc(S(=O)(=O)[O-])c5F)c5ccc2[nH]5)C=C4)C=C3)cc1
REMARK SMILES IDX 4 1 3 2 1 3 2 4 28 6 29 7 90 8 30 9 89 10 31 11 32 12 33 13
REMARK SMILES IDX 83 14 34 15 88 16 82 17 84 18 35 19 87 20 81 21 80 22 36 24
REMARK SMILES IDX 68 25 48 26 67 27 49 28 52 29 66 30 85 31 50 32 51 33 65 35
REMARK SMILES IDX 86 36 53 37 37 38 38 39 46 40 39 41 41 42 47 43 40 44 42 45
REMARK SMILES IDX 43 46 44 47 45 48 69 49 70 50 78 51 71 52 73 53 79 54 72 55
REMARK SMILES IDX 74 56 75 57 76 58 77 59 54 60 55 61 63 62 56 63 58 64 64 65
REMARK SMILES IDX 57 66 59 67 60 68 61 69 62 70 5 71 6 72 7 73 8 74 9 76 10 77
REMARK SMILES IDX 11 78 19 79 12 80 18 81 13 82 17 83 14 84 16 85 15 86 20 87
REMARK SMILES IDX 21 88 22 89 23 90 27 91 24 92 26 93 25 94
REMARK H PARENT 3 5 84 23 52 34 7 75
REMARK Flexibility Score: inf
ROOT
ATOM      1  C   UNL A   1      36.765  21.824  25.342  1.00  0.00     0.118 C 
ENDROOT
BRANCH   1   2
ATOM      2  N   UNL A   1      37.790  20.788  25.349  1.00  0.00    -0.352 N 
ATOM      3  O   UNL A   1      39.845  19.926  25.731  1.00  0.00    -0.269 OA
ATOM      4  C   UNL A   1      39.067  20.859  25.863  1.00  0.00     0.251 C 
ATOM      5  H   UNL A   1      37.539  19.930  24.935  1.00  0.00     0.163 HD
BRANCH   4   6
ATOM      6  C   UNL A   1      39.480  22.116  26.519  1.00  0.00     0.039 A 
ATOM      7  C   UNL A   1      38.934  23.330  26.097  1.00  0.00     0.014 A 
ATOM      8  C   UNL A   1      40.516  22.084  27.454  1.00  0.00     0.014 A 
ATOM      9  C   UNL A   1      39.557  24.516  26.463  1.00  0.00     0.010 A 
ATOM     10  C   UNL A   1      41.078  23.284  27.892  1.00  0.00     0.010 A 
ATOM     11  C   UNL A   1      40.645  24.505  27.352  1.00  0.00    -0.014 A 
BRANCH  11  12
ATOM     12  C   UNL A   1      41.305  25.788  27.705  1.00  0.00     0.031 A 
ATOM     13  C   UNL A   1      42.682  26.124  27.197  1.00  0.00     0.074 A 
ATOM     14  C   UNL A   1      40.630  26.668  28.470  1.00  0.00     0.049 A 
ATOM     15  N   UNL A   1      43.377  27.218  27.374  1.00  0.00    -0.248 NA
ATOM     16  C   UNL A   1      43.377  25.102  26.397  1.00  0.00     0.031 C 
ATOM     17  C   UNL A   1      39.305  26.431  29.048  1.00  0.00     0.029 A 
ATOM     18  N   UNL A   1      40.950  27.935  28.879  1.00  0.00    -0.354 N 
ATOM     19  C   UNL A   1      44.606  26.999  26.762  1.00  0.00     0.074 A 
ATOM     20  C   UNL A   1      44.563  25.666  26.201  1.00  0.00     0.031 C 
ATOM     21  C   UNL A   1      38.906  27.532  29.699  1.00  0.00     0.029 A 
ATOM     22  C   UNL A   1      39.964  28.534  29.627  1.00  0.00     0.049 A 
ATOM     23  H   UNL A   1      41.803  28.375  28.660  1.00  0.00     0.167 HD
ATOM     24  C   UNL A   1      45.666  27.836  26.664  1.00  0.00     0.034 A 
ATOM     25  C   UNL A   1      39.914  29.753  30.194  1.00  0.00     0.034 A 
ATOM     26  C   UNL A   1      45.677  29.185  27.169  1.00  0.00     0.049 A 
ATOM     27  C   UNL A   1      41.076  30.685  30.007  1.00  0.00     0.074 A 
ATOM     28  C   UNL A   1      46.676  30.137  27.061  1.00  0.00     0.029 A 
ATOM     29  N   UNL A   1      44.637  29.775  27.871  1.00  0.00    -0.354 N 
ATOM     30  N   UNL A   1      42.179  30.498  29.324  1.00  0.00    -0.248 NA
ATOM     31  C   UNL A   1      40.976  32.005  30.645  1.00  0.00     0.031 C 
ATOM     32  C   UNL A   1      46.241  31.302  27.704  1.00  0.00     0.029 A 
ATOM     33  C   UNL A   1      44.968  31.077  28.204  1.00  0.00     0.049 A 
ATOM     34  H   UNL A   1      43.787  29.333  28.100  1.00  0.00     0.167 HD
ATOM     35  C   UNL A   1      42.898  31.681  29.432  1.00  0.00     0.074 A 
ATOM     36  C   UNL A   1      42.089  32.589  30.221  1.00  0.00     0.031 C 
ATOM     37  C   UNL A   1      44.127  31.982  28.944  1.00  0.00     0.034 A 
BRANCH  24  38
ATOM     38  C   UNL A   1      46.894  27.342  25.945  1.00  0.00     0.023 A 
ATOM     39  C   UNL A   1      47.775  26.456  26.598  1.00  0.00     0.012 A 
ATOM     40  C   UNL A   1      47.141  27.694  24.602  1.00  0.00     0.148 A 
ATOM     41  C   UNL A   1      48.892  25.947  25.936  1.00  0.00     0.002 A 
ATOM     42  C   UNL A   1      48.237  27.155  23.938  1.00  0.00     0.091 A 
ATOM     43  F   UNL A   1      46.308  28.557  24.004  1.00  0.00    -0.205 F 
ATOM     44  C   UNL A   1      49.118  26.287  24.605  1.00  0.00     0.022 A 
BRANCH  42  45
ATOM     45  S   UNL A   1      48.566  27.482  22.202  1.00  0.00     0.127 S 
ATOM     46  O   UNL A   1      49.803  28.257  22.276  1.00  0.00    -0.237 OA
ATOM     47  O   UNL A   1      48.724  26.135  21.653  1.00  0.00    -0.237 OA
ATOM     48  O   UNL A   1      47.399  28.200  21.708  1.00  0.00    -0.744 OA
ENDBRANCH  42  45
ENDBRANCH  24  38
BRANCH  25  49
ATOM     49  C   UNL A   1      38.684  30.175  30.920  1.00  0.00     0.023 A 
ATOM     50  C   UNL A   1      38.579  29.923  32.301  1.00  0.00     0.012 A 
ATOM     51  C   UNL A   1      37.660  30.891  30.271  1.00  0.00     0.148 A 
ATOM     52  C   UNL A   1      37.469  30.365  33.020  1.00  0.00     0.002 A 
ATOM     53  C   UNL A   1      36.587  31.381  31.006  1.00  0.00     0.091 A 
ATOM     54  F   UNL A   1      37.767  31.104  28.952  1.00  0.00    -0.205 F 
ATOM     55  C   UNL A   1      36.481  31.107  32.378  1.00  0.00     0.022 A 
BRANCH  53  56
ATOM     56  S   UNL A   1      35.365  32.477  30.275  1.00  0.00     0.127 S 
ATOM     57  O   UNL A   1      36.181  33.628  29.900  1.00  0.00    -0.237 OA
ATOM     58  O   UNL A   1      34.867  31.682  29.152  1.00  0.00    -0.237 OA
ATOM     59  O   UNL A   1      34.379  32.703  31.324  1.00  0.00    -0.744 OA
ENDBRANCH  53  56
ENDBRANCH  25  49
BRANCH  37  60
ATOM     60  C   UNL A   1      44.664  33.355  29.237  1.00  0.00     0.023 A 
ATOM     61  C   UNL A   1      45.335  33.591  30.453  1.00  0.00     0.012 A 
ATOM     62  C   UNL A   1      44.556  34.391  28.290  1.00  0.00     0.148 A 
ATOM     63  C   UNL A   1      45.865  34.849  30.735  1.00  0.00     0.002 A 
ATOM     64  C   UNL A   1      45.123  35.631  28.562  1.00  0.00     0.091 A 
ATOM     65  F   UNL A   1      43.892  34.155  27.150  1.00  0.00    -0.205 F 
ATOM     66  C   UNL A   1      45.768  35.865  29.787  1.00  0.00     0.022 A 
BRANCH  64  67
ATOM     67  S   UNL A   1      45.112  36.959  27.353  1.00  0.00     0.127 S 
ATOM     68  O   UNL A   1      45.725  38.054  28.102  1.00  0.00    -0.237 OA
ATOM     69  O   UNL A   1      45.943  36.417  26.276  1.00  0.00    -0.237 OA
ATOM     70  O   UNL A   1      43.712  37.143  26.990  1.00  0.00    -0.744 OA
ENDBRANCH  64  67
ENDBRANCH  37  60
ENDBRANCH  11  12
ENDBRANCH   4   6
ENDBRANCH   1   2
BRANCH   1  71
ATOM     71  C   UNL A   1      36.000  21.932  24.028  1.00  0.00     0.042 C 
BRANCH  71  72
ATOM     72  C   UNL A   1      35.811  23.358  23.538  1.00  0.00     0.117 C 
BRANCH  72  73
ATOM     73  N   UNL A   1      34.594  23.499  22.764  1.00  0.00    -0.354 N 
ATOM     74  C   UNL A   1      33.647  24.473  22.806  1.00  0.00     0.242 C 
ATOM     75  H   UNL A   1      34.428  22.783  22.110  1.00  0.00     0.163 HD
ATOM     76  O   UNL A   1      32.667  24.344  22.061  1.00  0.00    -0.273 OA
BRANCH  74  77
ATOM     77  C   UNL A   1      33.677  25.617  23.837  1.00  0.00     0.176 C 
ATOM     78  C   UNL A   1      33.929  26.872  22.962  1.00  0.00     0.036 C 
ATOM     79  N   UNL A   1      32.583  25.799  24.840  1.00  0.00    -0.309 N 
ATOM     80  C   UNL A   1      33.946  28.179  23.721  1.00  0.00     0.008 C 
ATOM     81  C   UNL A   1      32.667  27.105  25.594  1.00  0.00     0.091 C 
ATOM     82  C   UNL A   1      32.708  28.298  24.606  1.00  0.00     0.012 C 
ATOM     83  C   UNL A   1      31.620  27.367  26.702  1.00  0.00     0.025 C 
ATOM     84  C   UNL A   1      32.732  29.680  25.281  1.00  0.00     0.006 C 
ATOM     85  C   UNL A   1      31.748  28.739  27.357  1.00  0.00     0.002 C 
ATOM     86  C   UNL A   1      31.641  29.843  26.324  1.00  0.00     0.000 C 
BRANCH  79  87
ATOM     87  C   UNL A   1      31.856  24.738  25.401  1.00  0.00     0.321 C 
ATOM     88  O   UNL A   1      30.632  24.733  25.524  1.00  0.00    -0.248 OA
ATOM     89  N   UNL A   1      32.530  23.563  25.713  1.00  0.00    -0.323 N 
ATOM     90  C   UNL A   1      31.795  22.349  25.314  1.00  0.00     0.132 C 
ATOM     91  C   UNL A   1      33.151  23.476  27.040  1.00  0.00     0.132 C 
ATOM     92  C   UNL A   1      32.630  21.072  25.283  1.00  0.00     0.091 C 
ATOM     93  C   UNL A   1      34.110  22.292  27.218  1.00  0.00     0.091 C 
ATOM     94  S   UNL A   1      33.294  20.688  26.929  1.00  0.00    -0.158 SA
ENDBRANCH  79  87
ENDBRANCH  74  77
ENDBRANCH  72  73
ENDBRANCH  71  72
ENDBRANCH   1  71
TORSDOF 14
ENDMDL
