MODEL 1
REMARK VINA RESULT:     -11.5      0.000      0.000
REMARK SMILES CC#CC[C@H](C(=O)NCCCNC(=O)c1ccc(-c2c3nc(c(-c4cccc(S(=O)(=O)[O-])c4F)c4ccc([nH]4)c(-c4cccc(S(=O)(=O)[O-])c4F)c4nc(c(-c5cccc(S(=O)(=O)[O-])c5F)c5ccc2[nH]5)C=C4)C=C3)cc1)c1cccc(Br)c1
REMARK SMILES IDX 10 1 9 2 8 3 6 4 7 5 5 7 4 8 3 9 1 10 2 11 78 12 79 13 84 14
REMARK SMILES IDX 80 15 82 16 81 17 83 18 11 19 12 20 13 21 14 23 15 24 16 25
REMARK SMILES IDX 77 26 17 27 76 28 18 29 19 30 20 31 70 32 21 33 75 34 69 35
REMARK SMILES IDX 71 36 22 37 74 38 68 39 67 40 23 42 55 43 35 44 54 45 36 46
REMARK SMILES IDX 39 47 53 48 72 49 37 50 38 51 52 53 73 54 40 55 24 56 25 57
REMARK SMILES IDX 33 58 26 59 28 60 34 61 27 62 29 63 30 64 31 65 32 66 56 67
REMARK SMILES IDX 57 68 65 69 58 70 60 71 66 72 59 73 61 74 62 75 63 76 64 77
REMARK SMILES IDX 41 78 42 79 50 80 43 81 45 82 51 83 44 84 46 85 47 86 48 87
REMARK SMILES IDX 49 88
REMARK H PARENT 8 6 12 22 71 41 39 52
REMARK Flexibility Score: inf
ROOT
ATOM      1  C   UNL A   1      32.061  28.997  26.723  1.00  0.00     0.042 C 
ENDROOT
BRANCH   1   2
ATOM      2  C   UNL A   1      31.767  27.858  25.782  1.00  0.00     0.117 C 
BRANCH   2   3
ATOM      3  N   UNL A   1      32.616  27.753  24.638  1.00  0.00    -0.355 N 
ATOM      4  C   UNL A   1      32.320  27.258  23.410  1.00  0.00     0.228 C 
ATOM      5  O   UNL A   1      33.269  27.357  22.622  1.00  0.00    -0.274 OA
ATOM      6  H   UNL A   1      33.537  28.083  24.757  1.00  0.00     0.163 HD
BRANCH   4   7
ATOM      7  C   UNL A   1      31.010  26.460  23.087  1.00  0.00     0.120 C 
BRANCH   7   8
ATOM      8  C   UNL A   1      30.595  25.102  23.740  1.00  0.00     0.107 C 
BRANCH   8   9
ATOM      9  C   UNL A   1      31.188  23.802  23.394  1.00  0.00    -0.102 C 
ATOM     10  C   UNL A   1      32.098  21.390  22.718  1.00  0.00     0.107 C 
ATOM     11  C   UNL A   1      31.639  22.714  23.167  1.00  0.00    -0.107 C 
ENDBRANCH   8   9
ENDBRANCH   7   8
BRANCH   7  12
ATOM     12  C   UNL A   1      29.714  27.331  23.201  1.00  0.00    -0.034 A 
ATOM     13  C   UNL A   1      28.505  26.855  23.738  1.00  0.00     0.004 A 
ATOM     14  C   UNL A   1      29.693  28.602  22.591  1.00  0.00     0.020 A 
ATOM     15  C   UNL A   1      27.334  27.617  23.699  1.00  0.00     0.001 A 
ATOM     16  C   UNL A   1      28.502  29.329  22.489  1.00  0.00     0.018 A 
ATOM     17  C   UNL A   1      27.326  28.847  23.053  1.00  0.00     0.016 A 
ATOM     18  Br  UNL A   1      28.474  30.947  21.514  1.00  0.00    -0.051 Br
ENDBRANCH   7  12
ENDBRANCH   4   7
ENDBRANCH   2   3
ENDBRANCH   1   2
BRANCH   1  19
ATOM     19  C   UNL A   1      33.124  29.950  26.199  1.00  0.00     0.118 C 
BRANCH  19  20
ATOM     20  N   UNL A   1      33.017  31.315  26.719  1.00  0.00    -0.352 N 
ATOM     21  C   UNL A   1      33.775  32.020  27.623  1.00  0.00     0.251 C 
ATOM     22  H   UNL A   1      32.259  31.824  26.350  1.00  0.00     0.163 HD
ATOM     23  O   UNL A   1      33.369  33.108  28.027  1.00  0.00    -0.269 OA
BRANCH  21  24
ATOM     24  C   UNL A   1      35.052  31.475  28.133  1.00  0.00     0.039 A 
ATOM     25  C   UNL A   1      36.188  32.287  28.170  1.00  0.00     0.014 A 
ATOM     26  C   UNL A   1      35.136  30.158  28.574  1.00  0.00     0.014 A 
ATOM     27  C   UNL A   1      37.371  31.792  28.725  1.00  0.00     0.010 A 
ATOM     28  C   UNL A   1      36.245  29.735  29.288  1.00  0.00     0.010 A 
ATOM     29  C   UNL A   1      37.395  30.526  29.334  1.00  0.00    -0.014 A 
BRANCH  29  30
ATOM     30  C   UNL A   1      38.615  29.994  29.992  1.00  0.00     0.031 A 
ATOM     31  C   UNL A   1      39.021  30.490  31.359  1.00  0.00     0.074 A 
ATOM     32  C   UNL A   1      39.398  29.121  29.327  1.00  0.00     0.049 A 
ATOM     33  N   UNL A   1      40.059  30.155  32.081  1.00  0.00    -0.248 NA
ATOM     34  C   UNL A   1      38.178  31.526  31.984  1.00  0.00     0.031 C 
ATOM     35  C   UNL A   1      39.172  28.650  27.958  1.00  0.00     0.029 A 
ATOM     36  N   UNL A   1      40.549  28.482  29.710  1.00  0.00    -0.354 N 
ATOM     37  C   UNL A   1      40.015  30.963  33.211  1.00  0.00     0.074 A 
ATOM     38  C   UNL A   1      38.885  31.848  33.055  1.00  0.00     0.031 C 
ATOM     39  C   UNL A   1      40.131  27.771  27.629  1.00  0.00     0.029 A 
ATOM     40  C   UNL A   1      41.062  27.647  28.745  1.00  0.00     0.049 A 
ATOM     41  H   UNL A   1      40.969  28.610  30.591  1.00  0.00     0.167 HD
ATOM     42  C   UNL A   1      40.816  30.949  34.301  1.00  0.00     0.034 A 
ATOM     43  C   UNL A   1      42.161  26.869  28.757  1.00  0.00     0.034 A 
ATOM     44  C   UNL A   1      41.915  30.039  34.468  1.00  0.00     0.049 A 
ATOM     45  C   UNL A   1      43.001  26.826  30.002  1.00  0.00     0.074 A 
ATOM     46  C   UNL A   1      42.736  29.872  35.569  1.00  0.00     0.029 A 
ATOM     47  N   UNL A   1      42.356  29.149  33.501  1.00  0.00    -0.354 N 
ATOM     48  N   UNL A   1      42.849  27.487  31.125  1.00  0.00    -0.248 NA
ATOM     49  C   UNL A   1      44.139  25.898  29.997  1.00  0.00     0.031 C 
ATOM     50  C   UNL A   1      43.703  28.913  35.249  1.00  0.00     0.029 A 
ATOM     51  C   UNL A   1      43.447  28.440  33.972  1.00  0.00     0.049 A 
ATOM     52  H   UNL A   1      41.953  29.038  32.610  1.00  0.00     0.167 HD
ATOM     53  C   UNL A   1      43.847  27.026  31.974  1.00  0.00     0.074 A 
ATOM     54  C   UNL A   1      44.578  26.011  31.242  1.00  0.00     0.031 C 
ATOM     55  C   UNL A   1      44.142  27.413  33.241  1.00  0.00     0.034 A 
BRANCH  42  56
ATOM     56  C   UNL A   1      40.510  31.922  35.413  1.00  0.00     0.023 A 
ATOM     57  C   UNL A   1      41.295  33.082  35.575  1.00  0.00     0.012 A 
ATOM     58  C   UNL A   1      39.412  31.710  36.271  1.00  0.00     0.148 A 
ATOM     59  C   UNL A   1      41.022  33.993  36.595  1.00  0.00     0.002 A 
ATOM     60  C   UNL A   1      39.111  32.650  37.249  1.00  0.00     0.091 A 
ATOM     61  F   UNL A   1      38.689  30.591  36.119  1.00  0.00    -0.205 F 
ATOM     62  C   UNL A   1      39.923  33.783  37.423  1.00  0.00     0.022 A 
BRANCH  60  63
ATOM     63  S   UNL A   1      37.669  32.517  38.309  1.00  0.00     0.127 S 
ATOM     64  O   UNL A   1      37.997  33.465  39.374  1.00  0.00    -0.237 OA
ATOM     65  O   UNL A   1      36.593  32.951  37.417  1.00  0.00    -0.237 OA
ATOM     66  O   UNL A   1      37.595  31.122  38.720  1.00  0.00    -0.744 OA
ENDBRANCH  60  63
ENDBRANCH  42  56
BRANCH  43  67
ATOM     67  C   UNL A   1      42.491  26.024  27.575  1.00  0.00     0.023 A 
ATOM     68  C   UNL A   1      43.260  26.560  26.523  1.00  0.00     0.012 A 
ATOM     69  C   UNL A   1      42.064  24.685  27.499  1.00  0.00     0.148 A 
ATOM     70  C   UNL A   1      43.562  25.790  25.400  1.00  0.00     0.002 A 
ATOM     71  C   UNL A   1      42.421  23.905  26.407  1.00  0.00     0.091 A 
ATOM     72  F   UNL A   1      41.330  24.196  28.509  1.00  0.00    -0.205 F 
ATOM     73  C   UNL A   1      43.152  24.461  25.346  1.00  0.00     0.022 A 
BRANCH  71  74
ATOM     74  S   UNL A   1      42.053  22.150  26.318  1.00  0.00     0.127 S 
ATOM     75  O   UNL A   1      40.603  22.158  26.150  1.00  0.00    -0.237 OA
ATOM     76  O   UNL A   1      42.810  21.746  25.131  1.00  0.00    -0.237 OA
ATOM     77  O   UNL A   1      42.542  21.579  27.565  1.00  0.00    -0.744 OA
ENDBRANCH  71  74
ENDBRANCH  43  67
BRANCH  55  78
ATOM     78  C   UNL A   1      45.272  26.696  33.934  1.00  0.00     0.023 A 
ATOM     79  C   UNL A   1      46.601  27.134  33.772  1.00  0.00     0.012 A 
ATOM     80  C   UNL A   1      45.005  25.592  34.769  1.00  0.00     0.148 A 
ATOM     81  C   UNL A   1      47.652  26.446  34.378  1.00  0.00     0.002 A 
ATOM     82  C   UNL A   1      46.051  24.950  35.418  1.00  0.00     0.091 A 
ATOM     83  F   UNL A   1      43.736  25.179  34.901  1.00  0.00    -0.205 F 
ATOM     84  C   UNL A   1      47.376  25.362  35.206  1.00  0.00     0.022 A 
BRANCH  82  85
ATOM     85  S   UNL A   1      45.779  23.614  36.585  1.00  0.00     0.127 S 
ATOM     86  O   UNL A   1      47.146  23.290  36.990  1.00  0.00    -0.237 OA
ATOM     87  O   UNL A   1      44.974  24.265  37.619  1.00  0.00    -0.237 OA
ATOM     88  O   UNL A   1      45.081  22.570  35.846  1.00  0.00    -0.744 OA
ENDBRANCH  82  85
ENDBRANCH  55  78
ENDBRANCH  29  30
ENDBRANCH  21  24
ENDBRANCH  19  20
ENDBRANCH   1  19
TORSDOF 16
ENDMDL
MODEL 2
REMARK VINA RESULT:     -11.5      1.900      2.536
REMARK SMILES CC#CC[C@H](C(=O)NCCCNC(=O)c1ccc(-c2c3nc(c(-c4cccc(S(=O)(=O)[O-])c4F)c4ccc([nH]4)c(-c4cccc(S(=O)(=O)[O-])c4F)c4nc(c(-c5cccc(S(=O)(=O)[O-])c5F)c5ccc2[nH]5)C=C4)C=C3)cc1)c1cccc(Br)c1
REMARK SMILES IDX 10 1 9 2 8 3 6 4 7 5 5 7 4 8 3 9 1 10 2 11 78 12 79 13 84 14
REMARK SMILES IDX 80 15 82 16 81 17 83 18 11 19 12 20 13 21 14 23 15 24 16 25
REMARK SMILES IDX 77 26 17 27 76 28 18 29 19 30 20 31 70 32 21 33 75 34 69 35
REMARK SMILES IDX 71 36 22 37 74 38 68 39 67 40 23 42 55 43 35 44 54 45 36 46
REMARK SMILES IDX 39 47 53 48 72 49 37 50 38 51 52 53 73 54 40 55 24 56 25 57
REMARK SMILES IDX 33 58 26 59 28 60 34 61 27 62 29 63 30 64 31 65 32 66 56 67
REMARK SMILES IDX 57 68 65 69 58 70 60 71 66 72 59 73 61 74 62 75 63 76 64 77
REMARK SMILES IDX 41 78 42 79 50 80 43 81 45 82 51 83 44 84 46 85 47 86 48 87
REMARK SMILES IDX 49 88
REMARK H PARENT 8 6 12 22 71 41 39 52
REMARK Flexibility Score: inf
ROOT
ATOM      1  C   UNL A   1      31.592  28.813  26.657  1.00  0.00     0.042 C 
ENDROOT
BRANCH   1   2
ATOM      2  C   UNL A   1      32.233  27.596  27.270  1.00  0.00     0.117 C 
BRANCH   2   3
ATOM      3  N   UNL A   1      31.484  26.382  27.189  1.00  0.00    -0.355 N 
ATOM      4  C   UNL A   1      31.780  25.253  26.498  1.00  0.00     0.228 C 
ATOM      5  O   UNL A   1      30.944  24.359  26.678  1.00  0.00    -0.274 OA
ATOM      6  H   UNL A   1      30.642  26.363  27.700  1.00  0.00     0.163 HD
BRANCH   4   7
ATOM      7  C   UNL A   1      32.925  25.162  25.430  1.00  0.00     0.120 C 
BRANCH   7   8
ATOM      8  C   UNL A   1      33.882  23.943  25.233  1.00  0.00     0.107 C 
BRANCH   8   9
ATOM      9  C   UNL A   1      35.314  23.953  25.563  1.00  0.00    -0.102 C 
ATOM     10  C   UNL A   1      37.938  23.858  26.025  1.00  0.00     0.107 C 
ATOM     11  C   UNL A   1      36.477  23.896  25.856  1.00  0.00    -0.107 C 
ENDBRANCH   8   9
ENDBRANCH   7   8
BRANCH   7  12
ATOM     12  C   UNL A   1      32.438  25.483  23.977  1.00  0.00    -0.034 A 
ATOM     13  C   UNL A   1      32.982  24.883  22.827  1.00  0.00     0.004 A 
ATOM     14  C   UNL A   1      31.528  26.542  23.782  1.00  0.00     0.020 A 
ATOM     15  C   UNL A   1      32.617  25.294  21.542  1.00  0.00     0.001 A 
ATOM     16  C   UNL A   1      31.222  26.997  22.496  1.00  0.00     0.018 A 
ATOM     17  C   UNL A   1      31.753  26.369  21.375  1.00  0.00     0.016 A 
ATOM     18  Br  UNL A   1      30.135  28.528  22.279  1.00  0.00    -0.051 Br
ENDBRANCH   7  12
ENDBRANCH   4   7
ENDBRANCH   2   3
ENDBRANCH   1   2
BRANCH   1  19
ATOM     19  C   UNL A   1      32.589  29.742  25.984  1.00  0.00     0.118 C 
BRANCH  19  20
ATOM     20  N   UNL A   1      32.449  31.150  26.362  1.00  0.00    -0.352 N 
ATOM     21  C   UNL A   1      33.184  31.958  27.198  1.00  0.00     0.251 C 
ATOM     22  H   UNL A   1      31.686  31.604  25.937  1.00  0.00     0.163 HD
ATOM     23  O   UNL A   1      32.751  33.072  27.486  1.00  0.00    -0.269 OA
BRANCH  21  24
ATOM     24  C   UNL A   1      34.465  31.493  27.771  1.00  0.00     0.039 A 
ATOM     25  C   UNL A   1      35.509  32.402  27.965  1.00  0.00     0.014 A 
ATOM     26  C   UNL A   1      34.645  30.158  28.118  1.00  0.00     0.014 A 
ATOM     27  C   UNL A   1      36.689  31.974  28.578  1.00  0.00     0.010 A 
ATOM     28  C   UNL A   1      35.732  29.782  28.889  1.00  0.00     0.010 A 
ATOM     29  C   UNL A   1      36.791  30.670  29.092  1.00  0.00    -0.014 A 
BRANCH  29  30
ATOM     30  C   UNL A   1      38.004  30.201  29.808  1.00  0.00     0.031 A 
ATOM     31  C   UNL A   1      38.278  30.657  31.221  1.00  0.00     0.074 A 
ATOM     32  C   UNL A   1      38.896  29.425  29.162  1.00  0.00     0.049 A 
ATOM     33  N   UNL A   1      39.290  30.367  31.998  1.00  0.00    -0.248 NA
ATOM     34  C   UNL A   1      37.315  31.593  31.832  1.00  0.00     0.031 C 
ATOM     35  C   UNL A   1      38.800  29.008  27.760  1.00  0.00     0.029 A 
ATOM     36  N   UNL A   1      40.067  28.858  29.594  1.00  0.00    -0.354 N 
ATOM     37  C   UNL A   1      39.106  31.112  33.157  1.00  0.00     0.074 A 
ATOM     38  C   UNL A   1      37.921  31.914  32.963  1.00  0.00     0.031 C 
ATOM     39  C   UNL A   1      39.845  28.222  27.460  1.00  0.00     0.029 A 
ATOM     40  C   UNL A   1      40.708  28.114  28.631  1.00  0.00     0.049 A 
ATOM     41  H   UNL A   1      40.417  28.973  30.507  1.00  0.00     0.167 HD
ATOM     42  C   UNL A   1      39.832  31.105  34.299  1.00  0.00     0.034 A 
ATOM     43  C   UNL A   1      41.862  27.423  28.685  1.00  0.00     0.034 A 
ATOM     44  C   UNL A   1      40.986  30.274  34.502  1.00  0.00     0.049 A 
ATOM     45  C   UNL A   1      42.619  27.383  29.982  1.00  0.00     0.074 A 
ATOM     46  C   UNL A   1      41.743  30.116  35.648  1.00  0.00     0.029 A 
ATOM     47  N   UNL A   1      41.560  29.470  33.529  1.00  0.00    -0.354 N 
ATOM     48  N   UNL A   1      42.341  27.973  31.120  1.00  0.00    -0.248 NA
ATOM     49  C   UNL A   1      43.826  26.546  30.016  1.00  0.00     0.031 C 
ATOM     50  C   UNL A   1      42.803  29.252  35.354  1.00  0.00     0.029 A 
ATOM     51  C   UNL A   1      42.671  28.824  34.042  1.00  0.00     0.049 A 
ATOM     52  H   UNL A   1      41.227  29.374  32.607  1.00  0.00     0.167 HD
ATOM     53  C   UNL A   1      43.314  27.548  32.016  1.00  0.00     0.074 A 
ATOM     54  C   UNL A   1      44.171  26.629  31.292  1.00  0.00     0.031 C 
ATOM     55  C   UNL A   1      43.493  27.892  33.316  1.00  0.00     0.034 A 
BRANCH  42  56
ATOM     56  C   UNL A   1      39.376  31.994  35.429  1.00  0.00     0.023 A 
ATOM     57  C   UNL A   1      38.507  31.489  36.420  1.00  0.00     0.012 A 
ATOM     58  C   UNL A   1      39.846  33.318  35.538  1.00  0.00     0.148 A 
ATOM     59  C   UNL A   1      38.080  32.297  37.474  1.00  0.00     0.002 A 
ATOM     60  C   UNL A   1      39.461  34.099  36.620  1.00  0.00     0.091 A 
ATOM     61  F   UNL A   1      40.652  33.789  34.576  1.00  0.00    -0.205 F 
ATOM     62  C   UNL A   1      38.566  33.596  37.580  1.00  0.00     0.022 A 
BRANCH  60  63
ATOM     63  S   UNL A   1      40.098  35.754  36.896  1.00  0.00     0.127 S 
ATOM     64  O   UNL A   1      39.450  36.114  38.157  1.00  0.00    -0.237 OA
ATOM     65  O   UNL A   1      41.538  35.513  36.998  1.00  0.00    -0.237 OA
ATOM     66  O   UNL A   1      39.693  36.542  35.741  1.00  0.00    -0.744 OA
ENDBRANCH  60  63
ENDBRANCH  42  56
BRANCH  43  67
ATOM     67  C   UNL A   1      42.336  26.666  27.492  1.00  0.00     0.023 A 
ATOM     68  C   UNL A   1      43.053  27.333  26.479  1.00  0.00     0.012 A 
ATOM     69  C   UNL A   1      42.098  25.285  27.369  1.00  0.00     0.148 A 
ATOM     70  C   UNL A   1      43.488  26.646  25.346  1.00  0.00     0.002 A 
ATOM     71  C   UNL A   1      42.588  24.594  26.268  1.00  0.00     0.091 A 
ATOM     72  F   UNL A   1      41.411  24.671  28.342  1.00  0.00    -0.205 F 
ATOM     73  C   UNL A   1      43.264  25.275  25.245  1.00  0.00     0.022 A 
BRANCH  71  74
ATOM     74  S   UNL A   1      42.466  22.808  26.122  1.00  0.00     0.127 S 
ATOM     75  O   UNL A   1      43.138  22.567  24.848  1.00  0.00    -0.237 OA
ATOM     76  O   UNL A   1      43.204  22.361  27.305  1.00  0.00    -0.237 OA
ATOM     77  O   UNL A   1      41.041  22.505  26.152  1.00  0.00    -0.744 OA
ENDBRANCH  71  74
ENDBRANCH  43  67
BRANCH  55  78
ATOM     78  C   UNL A   1      44.628  27.230  34.053  1.00  0.00     0.023 A 
ATOM     79  C   UNL A   1      45.935  27.747  33.963  1.00  0.00     0.012 A 
ATOM     80  C   UNL A   1      44.387  26.098  34.859  1.00  0.00     0.148 A 
ATOM     81  C   UNL A   1      46.994  27.111  34.610  1.00  0.00     0.002 A 
ATOM     82  C   UNL A   1      45.436  25.507  35.549  1.00  0.00     0.091 A 
ATOM     83  F   UNL A   1      43.139  25.611  34.922  1.00  0.00    -0.205 F 
ATOM     84  C   UNL A   1      46.744  25.999  35.408  1.00  0.00     0.022 A 
BRANCH  82  85
ATOM     85  S   UNL A   1      45.187  24.138  36.683  1.00  0.00     0.127 S 
ATOM     86  O   UNL A   1      44.666  23.104  35.789  1.00  0.00    -0.237 OA
ATOM     87  O   UNL A   1      46.542  23.893  37.175  1.00  0.00    -0.237 OA
ATOM     88  O   UNL A   1      44.255  24.619  37.695  1.00  0.00    -0.744 OA
ENDBRANCH  82  85
ENDBRANCH  55  78
ENDBRANCH  29  30
ENDBRANCH  21  24
ENDBRANCH  19  20
ENDBRANCH   1  19
TORSDOF 16
ENDMDL
MODEL 3
REMARK VINA RESULT:     -11.4      2.121      3.189
REMARK SMILES CC#CC[C@H](C(=O)NCCCNC(=O)c1ccc(-c2c3nc(c(-c4cccc(S(=O)(=O)[O-])c4F)c4ccc([nH]4)c(-c4cccc(S(=O)(=O)[O-])c4F)c4nc(c(-c5cccc(S(=O)(=O)[O-])c5F)c5ccc2[nH]5)C=C4)C=C3)cc1)c1cccc(Br)c1
REMARK SMILES IDX 10 1 9 2 8 3 6 4 7 5 5 7 4 8 3 9 1 10 2 11 78 12 79 13 84 14
REMARK SMILES IDX 80 15 82 16 81 17 83 18 11 19 12 20 13 21 14 23 15 24 16 25
REMARK SMILES IDX 77 26 17 27 76 28 18 29 19 30 20 31 70 32 21 33 75 34 69 35
REMARK SMILES IDX 71 36 22 37 74 38 68 39 67 40 23 42 55 43 35 44 54 45 36 46
REMARK SMILES IDX 39 47 53 48 72 49 37 50 38 51 52 53 73 54 40 55 24 56 25 57
REMARK SMILES IDX 33 58 26 59 28 60 34 61 27 62 29 63 30 64 31 65 32 66 56 67
REMARK SMILES IDX 57 68 65 69 58 70 60 71 66 72 59 73 61 74 62 75 63 76 64 77
REMARK SMILES IDX 41 78 42 79 50 80 43 81 45 82 51 83 44 84 46 85 47 86 48 87
REMARK SMILES IDX 49 88
REMARK H PARENT 8 6 12 22 71 41 39 52
REMARK Flexibility Score: inf
ROOT
ATOM      1  C   UNL A   1      31.858  28.674  26.765  1.00  0.00     0.042 C 
ENDROOT
BRANCH   1   2
ATOM      2  C   UNL A   1      31.789  27.303  26.146  1.00  0.00     0.117 C 
BRANCH   2   3
ATOM      3  N   UNL A   1      30.733  26.459  26.605  1.00  0.00    -0.355 N 
ATOM      4  C   UNL A   1      30.271  25.309  26.052  1.00  0.00     0.228 C 
ATOM      5  O   UNL A   1      29.373  24.791  26.728  1.00  0.00    -0.274 OA
ATOM      6  H   UNL A   1      30.279  26.750  27.429  1.00  0.00     0.163 HD
BRANCH   4   7
ATOM      7  C   UNL A   1      30.674  24.809  24.622  1.00  0.00     0.120 C 
BRANCH   7   8
ATOM      8  C   UNL A   1      30.489  25.615  23.297  1.00  0.00     0.107 C 
BRANCH   8   9
ATOM      9  C   UNL A   1      29.959  26.985  23.229  1.00  0.00    -0.102 C 
ATOM     10  C   UNL A   1      28.869  29.406  22.998  1.00  0.00     0.107 C 
ATOM     11  C   UNL A   1      29.549  28.106  23.107  1.00  0.00    -0.107 C 
ENDBRANCH   8   9
ENDBRANCH   7   8
BRANCH   7  12
ATOM     12  C   UNL A   1      32.155  24.306  24.540  1.00  0.00    -0.034 A 
ATOM     13  C   UNL A   1      32.958  24.445  23.394  1.00  0.00     0.004 A 
ATOM     14  C   UNL A   1      32.669  23.527  25.598  1.00  0.00     0.020 A 
ATOM     15  C   UNL A   1      34.227  23.864  23.312  1.00  0.00     0.001 A 
ATOM     16  C   UNL A   1      33.907  22.888  25.481  1.00  0.00     0.018 A 
ATOM     17  C   UNL A   1      34.694  23.065  24.348  1.00  0.00     0.016 A 
ATOM     18  Br  UNL A   1      34.487  21.715  26.844  1.00  0.00    -0.051 Br
ENDBRANCH   7  12
ENDBRANCH   4   7
ENDBRANCH   2   3
ENDBRANCH   1   2
BRANCH   1  19
ATOM     19  C   UNL A   1      32.726  29.645  25.980  1.00  0.00     0.118 C 
BRANCH  19  20
ATOM     20  N   UNL A   1      32.568  31.047  26.374  1.00  0.00    -0.352 N 
ATOM     21  C   UNL A   1      33.288  31.853  27.225  1.00  0.00     0.251 C 
ATOM     22  H   UNL A   1      31.803  31.498  25.949  1.00  0.00     0.163 HD
ATOM     23  O   UNL A   1      32.842  32.958  27.524  1.00  0.00    -0.269 OA
BRANCH  21  24
ATOM     24  C   UNL A   1      34.570  31.394  27.801  1.00  0.00     0.039 A 
ATOM     25  C   UNL A   1      35.619  32.302  27.973  1.00  0.00     0.014 A 
ATOM     26  C   UNL A   1      34.747  30.065  28.173  1.00  0.00     0.014 A 
ATOM     27  C   UNL A   1      36.800  31.882  28.590  1.00  0.00     0.010 A 
ATOM     28  C   UNL A   1      35.836  29.700  28.947  1.00  0.00     0.010 A 
ATOM     29  C   UNL A   1      36.900  30.587  29.128  1.00  0.00    -0.014 A 
BRANCH  29  30
ATOM     30  C   UNL A   1      38.113  30.128  29.848  1.00  0.00     0.031 A 
ATOM     31  C   UNL A   1      38.394  30.608  31.252  1.00  0.00     0.074 A 
ATOM     32  C   UNL A   1      39.001  29.339  29.212  1.00  0.00     0.049 A 
ATOM     33  N   UNL A   1      39.407  30.329  32.030  1.00  0.00    -0.248 NA
ATOM     34  C   UNL A   1      37.436  31.557  31.849  1.00  0.00     0.031 C 
ATOM     35  C   UNL A   1      38.899  28.897  27.819  1.00  0.00     0.029 A 
ATOM     36  N   UNL A   1      40.172  28.776  29.650  1.00  0.00    -0.354 N 
ATOM     37  C   UNL A   1      39.230  31.095  33.177  1.00  0.00     0.074 A 
ATOM     38  C   UNL A   1      38.047  31.896  32.973  1.00  0.00     0.031 C 
ATOM     39  C   UNL A   1      39.941  28.103  27.528  1.00  0.00     0.029 A 
ATOM     40  C   UNL A   1      40.808  28.013  28.698  1.00  0.00     0.049 A 
ATOM     41  H   UNL A   1      40.526  28.906  30.560  1.00  0.00     0.167 HD
ATOM     42  C   UNL A   1      39.960  31.106  34.316  1.00  0.00     0.034 A 
ATOM     43  C   UNL A   1      41.960  27.321  28.760  1.00  0.00     0.034 A 
ATOM     44  C   UNL A   1      41.113  30.276  34.529  1.00  0.00     0.049 A 
ATOM     45  C   UNL A   1      42.721  27.301  30.055  1.00  0.00     0.074 A 
ATOM     46  C   UNL A   1      41.874  30.135  35.675  1.00  0.00     0.029 A 
ATOM     47  N   UNL A   1      41.681  29.454  33.568  1.00  0.00    -0.354 N 
ATOM     48  N   UNL A   1      42.449  27.911  31.184  1.00  0.00    -0.248 NA
ATOM     49  C   UNL A   1      43.926  26.462  30.099  1.00  0.00     0.031 C 
ATOM     50  C   UNL A   1      42.930  29.263  35.393  1.00  0.00     0.029 A 
ATOM     51  C   UNL A   1      42.792  28.814  34.089  1.00  0.00     0.049 A 
ATOM     52  H   UNL A   1      41.345  29.342  32.650  1.00  0.00     0.167 HD
ATOM     53  C   UNL A   1      43.425  27.500  32.083  1.00  0.00     0.074 A 
ATOM     54  C   UNL A   1      44.276  26.567  31.372  1.00  0.00     0.031 C 
ATOM     55  C   UNL A   1      43.609  27.866  33.377  1.00  0.00     0.034 A 
BRANCH  42  56
ATOM     56  C   UNL A   1      39.510  32.016  35.432  1.00  0.00     0.023 A 
ATOM     57  C   UNL A   1      38.655  31.527  36.441  1.00  0.00     0.012 A 
ATOM     58  C   UNL A   1      39.974  33.344  35.508  1.00  0.00     0.148 A 
ATOM     59  C   UNL A   1      38.234  32.354  37.483  1.00  0.00     0.002 A 
ATOM     60  C   UNL A   1      39.595  34.146  36.577  1.00  0.00     0.091 A 
ATOM     61  F   UNL A   1      40.767  33.800  34.528  1.00  0.00    -0.205 F 
ATOM     62  C   UNL A   1      38.713  33.659  37.557  1.00  0.00     0.022 A 
BRANCH  60  63
ATOM     63  S   UNL A   1      40.226  35.810  36.812  1.00  0.00     0.127 S 
ATOM     64  O   UNL A   1      39.667  36.504  35.652  1.00  0.00    -0.237 OA
ATOM     65  O   UNL A   1      39.627  36.185  38.094  1.00  0.00    -0.237 OA
ATOM     66  O   UNL A   1      41.677  35.695  36.828  1.00  0.00    -0.744 OA
ENDBRANCH  60  63
ENDBRANCH  42  56
BRANCH  43  67
ATOM     67  C   UNL A   1      42.428  26.541  27.579  1.00  0.00     0.023 A 
ATOM     68  C   UNL A   1      43.231  27.164  26.602  1.00  0.00     0.012 A 
ATOM     69  C   UNL A   1      42.099  25.181  27.431  1.00  0.00     0.148 A 
ATOM     70  C   UNL A   1      43.661  26.456  25.481  1.00  0.00     0.002 A 
ATOM     71  C   UNL A   1      42.583  24.466  26.344  1.00  0.00     0.091 A 
ATOM     72  F   UNL A   1      41.331  24.610  28.370  1.00  0.00    -0.205 F 
ATOM     73  C   UNL A   1      43.346  25.106  25.356  1.00  0.00     0.022 A 
BRANCH  71  74
ATOM     74  S   UNL A   1      42.342  22.695  26.174  1.00  0.00     0.127 S 
ATOM     75  O   UNL A   1      43.091  22.181  27.317  1.00  0.00    -0.237 OA
ATOM     76  O   UNL A   1      40.887  22.580  26.286  1.00  0.00    -0.237 OA
ATOM     77  O   UNL A   1      42.873  22.347  24.863  1.00  0.00    -0.744 OA
ENDBRANCH  71  74
ENDBRANCH  43  67
BRANCH  55  78
ATOM     78  C   UNL A   1      44.745  27.214  34.121  1.00  0.00     0.023 A 
ATOM     79  C   UNL A   1      46.038  27.773  34.081  1.00  0.00     0.012 A 
ATOM     80  C   UNL A   1      44.518  26.051  34.884  1.00  0.00     0.148 A 
ATOM     81  C   UNL A   1      47.099  27.147  34.734  1.00  0.00     0.002 A 
ATOM     82  C   UNL A   1      45.568  25.468  35.581  1.00  0.00     0.091 A 
ATOM     83  F   UNL A   1      43.285  25.524  34.899  1.00  0.00    -0.205 F 
ATOM     84  C   UNL A   1      46.863  26.002  35.490  1.00  0.00     0.022 A 
BRANCH  82  85
ATOM     85  S   UNL A   1      45.332  24.056  36.664  1.00  0.00     0.127 S 
ATOM     86  O   UNL A   1      46.703  23.775  37.089  1.00  0.00    -0.237 OA
ATOM     87  O   UNL A   1      44.470  24.607  37.709  1.00  0.00    -0.237 OA
ATOM     88  O   UNL A   1      44.706  23.024  35.847  1.00  0.00    -0.744 OA
ENDBRANCH  82  85
ENDBRANCH  55  78
ENDBRANCH  29  30
ENDBRANCH  21  24
ENDBRANCH  19  20
ENDBRANCH   1  19
TORSDOF 16
ENDMDL
