MODEL 1
REMARK VINA RESULT:     -12.9      0.000      0.000
REMARK SMILES CCn1c(N2CCC(C(=O)NCCCNC(=O)c3ccc(-c4c5nc(c(-c6cccc(S(=O)(=O)[O-])c6F)c6ccc([nH]6)c(-c6cccc(S(=O)(=O)[O-])c6F)c6nc(c(-c7cccc(S(=O)(=O)[O-])c7F)c7ccc4[nH]7)C=C6)C=C5)cc3)CC2)nc2cc(C)ccc21
REMARK SMILES IDX 13 1 12 2 11 3 9 4 10 5 8 7 5 8 6 9 82 10 7 11 81 12 4 13
REMARK SMILES IDX 3 14 90 15 83 16 84 17 89 18 85 19 88 20 86 21 87 22 2 23
REMARK SMILES IDX 1 24 14 25 15 26 16 27 17 29 18 30 19 31 80 32 20 33 79 34
REMARK SMILES IDX 21 35 22 36 23 37 73 38 24 39 78 40 72 41 74 42 25 43 77 44
REMARK SMILES IDX 71 45 70 46 26 48 58 49 38 50 57 51 39 52 42 53 56 54 75 55
REMARK SMILES IDX 40 56 41 57 55 59 76 60 43 61 27 62 28 63 36 64 29 65 31 66
REMARK SMILES IDX 37 67 30 68 32 69 33 70 34 71 35 72 59 73 60 74 68 75 61 76
REMARK SMILES IDX 63 77 69 78 62 79 64 80 65 81 66 82 67 83 44 84 45 85 53 86
REMARK SMILES IDX 46 87 48 88 54 89 47 90 49 91 50 92 51 93 52 94
REMARK H PARENT 11 6 15 28 74 47 42 58
REMARK Flexibility Score: inf
ROOT
ATOM      1  C   UNL A   1      36.475  22.669  24.999  1.00  0.00     0.042 C 
ENDROOT
BRANCH   1   2
ATOM      2  C   UNL A   1      35.502  22.125  26.036  1.00  0.00     0.117 C 
BRANCH   2   3
ATOM      3  N   UNL A   1      34.998  20.805  25.683  1.00  0.00    -0.356 N 
ATOM      4  C   UNL A   1      33.803  20.403  25.179  1.00  0.00     0.223 C 
ATOM      5  O   UNL A   1      33.645  19.195  24.979  1.00  0.00    -0.275 OA
ATOM      6  H   UNL A   1      35.638  20.074  25.838  1.00  0.00     0.163 HD
BRANCH   4   7
ATOM      7  C   UNL A   1      32.694  21.382  24.838  1.00  0.00     0.082 C 
ATOM      8  N   UNL A   1      31.719  24.020  24.338  1.00  0.00    -0.342 N 
ATOM      9  C   UNL A   1      31.342  23.367  25.585  1.00  0.00     0.120 C 
ATOM     10  C   UNL A   1      31.962  23.177  23.182  1.00  0.00     0.120 C 
ATOM     11  C   UNL A   1      32.382  22.335  25.993  1.00  0.00     0.035 C 
ATOM     12  C   UNL A   1      32.957  22.068  23.493  1.00  0.00     0.035 C 
BRANCH   8  13
ATOM     13  C   UNL A   1      32.270  25.254  24.424  1.00  0.00     0.206 A 
ATOM     14  N   UNL A   1      31.674  26.356  23.840  1.00  0.00    -0.310 N 
ATOM     15  C   UNL A   1      32.255  27.485  24.387  1.00  0.00     0.070 A 
ATOM     16  N   UNL A   1      33.232  25.609  25.241  1.00  0.00    -0.213 NA
ATOM     17  C   UNL A   1      33.184  26.979  25.290  1.00  0.00     0.091 A 
ATOM     18  C   UNL A   1      31.986  28.854  24.266  1.00  0.00     0.029 A 
ATOM     19  C   UNL A   1      33.839  27.850  26.170  1.00  0.00     0.034 A 
ATOM     20  C   UNL A   1      32.588  29.699  25.203  1.00  0.00     0.006 A 
ATOM     21  C   UNL A   1      33.463  29.201  26.178  1.00  0.00    -0.049 A 
ATOM     22  C   UNL A   1      33.897  30.069  27.322  1.00  0.00     0.044 C 
BRANCH  14  23
ATOM     23  C   UNL A   1      30.407  26.365  23.130  1.00  0.00     0.122 C 
ATOM     24  C   UNL A   1      29.187  26.510  24.020  1.00  0.00     0.028 C 
ENDBRANCH  14  23
ENDBRANCH   8  13
ENDBRANCH   4   7
ENDBRANCH   2   3
ENDBRANCH   1   2
BRANCH   1  25
ATOM     25  C   UNL A   1      37.510  23.647  25.555  1.00  0.00     0.118 C 
BRANCH  25  26
ATOM     26  N   UNL A   1      38.707  23.029  26.094  1.00  0.00    -0.352 N 
ATOM     27  C   UNL A   1      39.662  23.407  26.997  1.00  0.00     0.251 C 
ATOM     28  H   UNL A   1      38.868  22.130  25.725  1.00  0.00     0.163 HD
ATOM     29  O   UNL A   1      40.444  22.520  27.351  1.00  0.00    -0.269 OA
BRANCH  27  30
ATOM     30  C   UNL A   1      39.862  24.793  27.504  1.00  0.00     0.039 A 
ATOM     31  C   UNL A   1      39.464  25.254  28.755  1.00  0.00     0.014 A 
ATOM     32  C   UNL A   1      40.431  25.714  26.602  1.00  0.00     0.014 A 
ATOM     33  C   UNL A   1      39.501  26.611  29.048  1.00  0.00     0.010 A 
ATOM     34  C   UNL A   1      40.511  27.070  26.906  1.00  0.00     0.010 A 
ATOM     35  C   UNL A   1      39.994  27.525  28.112  1.00  0.00    -0.014 A 
BRANCH  35  36
ATOM     36  C   UNL A   1      40.054  28.927  28.521  1.00  0.00     0.031 A 
ATOM     37  C   UNL A   1      41.401  29.538  28.364  1.00  0.00     0.074 A 
ATOM     38  C   UNL A   1      39.007  29.649  28.970  1.00  0.00     0.049 A 
ATOM     39  N   UNL A   1      42.232  29.853  29.303  1.00  0.00    -0.248 NA
ATOM     40  C   UNL A   1      41.950  29.665  27.005  1.00  0.00     0.031 C 
ATOM     41  C   UNL A   1      37.590  29.277  28.948  1.00  0.00     0.029 A 
ATOM     42  N   UNL A   1      38.982  30.930  29.452  1.00  0.00    -0.354 N 
ATOM     43  C   UNL A   1      43.311  30.448  28.657  1.00  0.00     0.074 A 
ATOM     44  C   UNL A   1      43.169  30.151  27.254  1.00  0.00     0.031 C 
ATOM     45  C   UNL A   1      36.836  30.379  29.166  1.00  0.00     0.029 A 
ATOM     46  C   UNL A   1      37.710  31.493  29.492  1.00  0.00     0.049 A 
ATOM     47  H   UNL A   1      39.791  31.410  29.743  1.00  0.00     0.167 HD
ATOM     48  C   UNL A   1      44.084  31.377  29.283  1.00  0.00     0.034 A 
ATOM     49  C   UNL A   1      37.406  32.789  29.739  1.00  0.00     0.034 A 
ATOM     50  C   UNL A   1      43.830  31.425  30.696  1.00  0.00     0.049 A 
ATOM     51  C   UNL A   1      38.531  33.382  30.487  1.00  0.00     0.074 A 
ATOM     52  C   UNL A   1      44.133  30.682  31.815  1.00  0.00     0.029 A 
ATOM     53  N   UNL A   1      42.800  32.261  31.024  1.00  0.00    -0.354 N 
ATOM     54  N   UNL A   1      38.796  33.080  31.724  1.00  0.00    -0.248 NA
ATOM     55  C   UNL A   1      39.551  34.160  29.798  1.00  0.00     0.031 C 
ATOM     56  C   UNL A   1      43.111  30.973  32.772  1.00  0.00     0.029 A 
ATOM     57  C   UNL A   1      42.234  31.901  32.215  1.00  0.00     0.049 A 
ATOM     58  H   UNL A   1      42.503  33.022  30.475  1.00  0.00     0.167 HD
ATOM     59  C   UNL A   1      40.169  33.204  31.802  1.00  0.00     0.074 A 
ATOM     60  C   UNL A   1      40.540  34.065  30.689  1.00  0.00     0.031 C 
ATOM     61  C   UNL A   1      40.894  32.318  32.541  1.00  0.00     0.034 A 
BRANCH  48  62
ATOM     62  C   UNL A   1      44.700  32.565  28.583  1.00  0.00     0.023 A 
ATOM     63  C   UNL A   1      46.106  32.685  28.582  1.00  0.00     0.012 A 
ATOM     64  C   UNL A   1      43.956  33.705  28.197  1.00  0.00     0.148 A 
ATOM     65  C   UNL A   1      46.738  33.879  28.208  1.00  0.00     0.002 A 
ATOM     66  C   UNL A   1      44.588  34.861  27.753  1.00  0.00     0.091 A 
ATOM     67  F   UNL A   1      42.634  33.728  28.397  1.00  0.00    -0.205 F 
ATOM     68  C   UNL A   1      45.979  34.962  27.777  1.00  0.00     0.022 A 
BRANCH  66  69
ATOM     69  S   UNL A   1      43.650  36.273  27.157  1.00  0.00     0.127 S 
ATOM     70  O   UNL A   1      42.961  35.702  26.007  1.00  0.00    -0.237 OA
ATOM     71  O   UNL A   1      42.800  36.574  28.309  1.00  0.00    -0.237 OA
ATOM     72  O   UNL A   1      44.649  37.299  26.869  1.00  0.00    -0.744 OA
ENDBRANCH  66  69
ENDBRANCH  48  62
BRANCH  49  73
ATOM     73  C   UNL A   1      36.280  33.652  29.320  1.00  0.00     0.023 A 
ATOM     74  C   UNL A   1      35.731  33.474  28.030  1.00  0.00     0.012 A 
ATOM     75  C   UNL A   1      35.532  34.367  30.274  1.00  0.00     0.148 A 
ATOM     76  C   UNL A   1      34.437  33.906  27.731  1.00  0.00     0.002 A 
ATOM     77  C   UNL A   1      34.245  34.798  29.970  1.00  0.00     0.091 A 
ATOM     78  F   UNL A   1      36.038  34.526  31.504  1.00  0.00    -0.205 F 
ATOM     79  C   UNL A   1      33.685  34.549  28.707  1.00  0.00     0.022 A 
BRANCH  77  80
ATOM     80  S   UNL A   1      33.198  35.608  31.185  1.00  0.00     0.127 S 
ATOM     81  O   UNL A   1      32.030  35.980  30.389  1.00  0.00    -0.237 OA
ATOM     82  O   UNL A   1      32.970  34.539  32.149  1.00  0.00    -0.237 OA
ATOM     83  O   UNL A   1      33.976  36.748  31.669  1.00  0.00    -0.744 OA
ENDBRANCH  77  80
ENDBRANCH  49  73
BRANCH  61  84
ATOM     84  C   UNL A   1      40.148  31.650  33.653  1.00  0.00     0.023 A 
ATOM     85  C   UNL A   1      39.439  30.442  33.487  1.00  0.00     0.012 A 
ATOM     86  C   UNL A   1      40.115  32.298  34.895  1.00  0.00     0.148 A 
ATOM     87  C   UNL A   1      38.634  29.946  34.516  1.00  0.00     0.002 A 
ATOM     88  C   UNL A   1      39.337  31.787  35.923  1.00  0.00     0.091 A 
ATOM     89  F   UNL A   1      40.864  33.398  35.067  1.00  0.00    -0.205 F 
ATOM     90  C   UNL A   1      38.564  30.631  35.728  1.00  0.00     0.022 A 
BRANCH  88  91
ATOM     91  S   UNL A   1      39.360  32.589  37.525  1.00  0.00     0.127 S 
ATOM     92  O   UNL A   1      39.075  33.988  37.201  1.00  0.00    -0.237 OA
ATOM     93  O   UNL A   1      38.281  31.902  38.232  1.00  0.00    -0.237 OA
ATOM     94  O   UNL A   1      40.707  32.359  38.036  1.00  0.00    -0.744 OA
ENDBRANCH  88  91
ENDBRANCH  61  84
ENDBRANCH  35  36
ENDBRANCH  27  30
ENDBRANCH  25  26
ENDBRANCH   1  25
TORSDOF 15
ENDMDL
MODEL 2
REMARK VINA RESULT:     -12.8      4.453      9.866
REMARK SMILES CCn1c(N2CCC(C(=O)NCCCNC(=O)c3ccc(-c4c5nc(c(-c6cccc(S(=O)(=O)[O-])c6F)c6ccc([nH]6)c(-c6cccc(S(=O)(=O)[O-])c6F)c6nc(c(-c7cccc(S(=O)(=O)[O-])c7F)c7ccc4[nH]7)C=C6)C=C5)cc3)CC2)nc2cc(C)ccc21
REMARK SMILES IDX 13 1 12 2 11 3 9 4 10 5 8 7 5 8 6 9 82 10 7 11 81 12 4 13
REMARK SMILES IDX 3 14 90 15 83 16 84 17 89 18 85 19 88 20 86 21 87 22 2 23
REMARK SMILES IDX 1 24 14 25 15 26 16 27 17 29 18 30 19 31 80 32 20 33 79 34
REMARK SMILES IDX 21 35 22 36 23 37 73 38 24 39 78 40 72 41 74 42 25 43 77 44
REMARK SMILES IDX 71 45 70 46 26 48 58 49 38 50 57 51 39 52 42 53 56 54 75 55
REMARK SMILES IDX 40 56 41 57 55 59 76 60 43 61 27 62 28 63 36 64 29 65 31 66
REMARK SMILES IDX 37 67 30 68 32 69 33 70 34 71 35 72 59 73 60 74 68 75 61 76
REMARK SMILES IDX 63 77 69 78 62 79 64 80 65 81 66 82 67 83 44 84 45 85 53 86
REMARK SMILES IDX 46 87 48 88 54 89 47 90 49 91 50 92 51 93 52 94
REMARK H PARENT 11 6 15 28 74 47 42 58
REMARK Flexibility Score: inf
ROOT
ATOM      1  C   UNL A   1      34.939  29.321  27.636  1.00  0.00     0.042 C 
ENDROOT
BRANCH   1   2
ATOM      2  C   UNL A   1      34.025  28.617  26.643  1.00  0.00     0.117 C 
BRANCH   2   3
ATOM      3  N   UNL A   1      32.983  29.496  26.131  1.00  0.00    -0.356 N 
ATOM      4  C   UNL A   1      31.888  29.247  25.368  1.00  0.00     0.223 C 
ATOM      5  O   UNL A   1      31.167  30.205  25.072  1.00  0.00    -0.275 OA
ATOM      6  H   UNL A   1      33.092  30.442  26.383  1.00  0.00     0.163 HD
BRANCH   4   7
ATOM      7  C   UNL A   1      31.522  27.848  24.904  1.00  0.00     0.082 C 
ATOM      8  N   UNL A   1      31.936  25.023  24.831  1.00  0.00    -0.342 N 
ATOM      9  C   UNL A   1      32.248  25.800  23.637  1.00  0.00     0.120 C 
ATOM     10  C   UNL A   1      30.880  25.513  25.696  1.00  0.00     0.120 C 
ATOM     11  C   UNL A   1      32.594  27.235  24.000  1.00  0.00     0.035 C 
ATOM     12  C   UNL A   1      31.098  26.968  26.083  1.00  0.00     0.035 C 
BRANCH   8  13
ATOM     13  C   UNL A   1      32.903  24.205  25.310  1.00  0.00     0.206 A 
ATOM     14  N   UNL A   1      32.918  22.853  25.020  1.00  0.00    -0.310 N 
ATOM     15  C   UNL A   1      34.175  22.373  25.336  1.00  0.00     0.070 A 
ATOM     16  N   UNL A   1      34.033  24.589  25.854  1.00  0.00    -0.213 NA
ATOM     17  C   UNL A   1      34.854  23.493  25.805  1.00  0.00     0.091 A 
ATOM     18  C   UNL A   1      34.798  21.131  25.156  1.00  0.00     0.029 A 
ATOM     19  C   UNL A   1      36.231  23.415  26.048  1.00  0.00     0.034 A 
ATOM     20  C   UNL A   1      36.184  21.091  25.328  1.00  0.00     0.006 A 
ATOM     21  C   UNL A   1      36.904  22.229  25.717  1.00  0.00    -0.049 A 
ATOM     22  C   UNL A   1      38.402  22.239  25.650  1.00  0.00     0.044 C 
BRANCH  14  23
ATOM     23  C   UNL A   1      31.980  22.154  24.160  1.00  0.00     0.122 C 
ATOM     24  C   UNL A   1      32.384  22.104  22.698  1.00  0.00     0.028 C 
ENDBRANCH  14  23
ENDBRANCH   8  13
ENDBRANCH   4   7
ENDBRANCH   2   3
ENDBRANCH   1   2
BRANCH   1  25
ATOM     25  C   UNL A   1      34.840  30.847  27.612  1.00  0.00     0.118 C 
BRANCH  25  26
ATOM     26  N   UNL A   1      35.011  31.491  28.900  1.00  0.00    -0.352 N 
ATOM     27  C   UNL A   1      36.008  31.519  29.837  1.00  0.00     0.251 C 
ATOM     28  H   UNL A   1      34.230  32.032  29.160  1.00  0.00     0.163 HD
ATOM     29  O   UNL A   1      35.869  32.348  30.741  1.00  0.00    -0.269 OA
BRANCH  27  30
ATOM     30  C   UNL A   1      37.174  30.593  29.878  1.00  0.00     0.039 A 
ATOM     31  C   UNL A   1      37.135  29.275  30.322  1.00  0.00     0.014 A 
ATOM     32  C   UNL A   1      38.420  31.138  29.508  1.00  0.00     0.014 A 
ATOM     33  C   UNL A   1      38.313  28.567  30.525  1.00  0.00     0.010 A 
ATOM     34  C   UNL A   1      39.601  30.418  29.668  1.00  0.00     0.010 A 
ATOM     35  C   UNL A   1      39.550  29.149  30.229  1.00  0.00    -0.014 A 
BRANCH  35  36
ATOM     36  C   UNL A   1      40.737  28.316  30.414  1.00  0.00     0.031 A 
ATOM     37  C   UNL A   1      41.277  28.346  31.799  1.00  0.00     0.074 A 
ATOM     38  C   UNL A   1      41.302  27.549  29.458  1.00  0.00     0.049 A 
ATOM     39  N   UNL A   1      42.359  28.927  32.204  1.00  0.00    -0.248 NA
ATOM     40  C   UNL A   1      40.440  27.806  32.881  1.00  0.00     0.031 C 
ATOM     41  C   UNL A   1      40.758  27.220  28.138  1.00  0.00     0.029 A 
ATOM     42  N   UNL A   1      42.452  26.809  29.512  1.00  0.00    -0.354 N 
ATOM     43  C   UNL A   1      42.462  28.611  33.555  1.00  0.00     0.074 A 
ATOM     44  C   UNL A   1      41.185  28.079  33.955  1.00  0.00     0.031 C 
ATOM     45  C   UNL A   1      41.443  26.175  27.621  1.00  0.00     0.029 A 
ATOM     46  C   UNL A   1      42.561  25.864  28.495  1.00  0.00     0.049 A 
ATOM     47  H   UNL A   1      43.138  26.933  30.206  1.00  0.00     0.167 HD
ATOM     48  C   UNL A   1      43.672  28.548  34.175  1.00  0.00     0.034 A 
ATOM     49  C   UNL A   1      43.484  24.877  28.405  1.00  0.00     0.034 A 
ATOM     50  C   UNL A   1      44.721  29.106  33.368  1.00  0.00     0.049 A 
ATOM     51  C   UNL A   1      44.653  25.277  29.211  1.00  0.00     0.074 A 
ATOM     52  C   UNL A   1      45.176  30.353  33.003  1.00  0.00     0.029 A 
ATOM     53  N   UNL A   1      45.268  28.200  32.503  1.00  0.00    -0.354 N 
ATOM     54  N   UNL A   1      45.462  26.232  28.859  1.00  0.00    -0.248 NA
ATOM     55  C   UNL A   1      44.824  24.776  30.568  1.00  0.00     0.031 C 
ATOM     56  C   UNL A   1      45.866  30.176  31.763  1.00  0.00     0.029 A 
ATOM     57  C   UNL A   1      45.831  28.825  31.426  1.00  0.00     0.049 A 
ATOM     58  H   UNL A   1      45.257  27.225  32.638  1.00  0.00     0.167 HD
ATOM     59  C   UNL A   1      45.887  26.758  30.063  1.00  0.00     0.074 A 
ATOM     60  C   UNL A   1      45.650  25.711  31.044  1.00  0.00     0.031 C 
ATOM     61  C   UNL A   1      46.054  28.104  30.198  1.00  0.00     0.034 A 
BRANCH  48  62
ATOM     62  C   UNL A   1      44.003  27.560  35.269  1.00  0.00     0.023 A 
ATOM     63  C   UNL A   1      44.485  28.061  36.498  1.00  0.00     0.012 A 
ATOM     64  C   UNL A   1      44.145  26.171  35.040  1.00  0.00     0.148 A 
ATOM     65  C   UNL A   1      45.072  27.218  37.451  1.00  0.00     0.002 A 
ATOM     66  C   UNL A   1      44.657  25.329  36.019  1.00  0.00     0.091 A 
ATOM     67  F   UNL A   1      43.922  25.680  33.816  1.00  0.00    -0.205 F 
ATOM     68  C   UNL A   1      45.143  25.849  37.219  1.00  0.00     0.022 A 
BRANCH  66  69
ATOM     69  S   UNL A   1      44.739  23.550  35.777  1.00  0.00     0.127 S 
ATOM     70  O   UNL A   1      43.355  23.236  35.447  1.00  0.00    -0.237 OA
ATOM     71  O   UNL A   1      45.686  23.443  34.668  1.00  0.00    -0.237 OA
ATOM     72  O   UNL A   1      45.240  23.016  37.041  1.00  0.00    -0.744 OA
ENDBRANCH  66  69
ENDBRANCH  48  62
BRANCH  49  73
ATOM     73  C   UNL A   1      43.460  23.537  27.776  1.00  0.00     0.023 A 
ATOM     74  C   UNL A   1      42.320  22.722  27.956  1.00  0.00     0.012 A 
ATOM     75  C   UNL A   1      44.357  23.218  26.739  1.00  0.00     0.148 A 
ATOM     76  C   UNL A   1      42.030  21.684  27.069  1.00  0.00     0.002 A 
ATOM     77  C   UNL A   1      44.064  22.180  25.860  1.00  0.00     0.091 A 
ATOM     78  F   UNL A   1      45.431  23.996  26.552  1.00  0.00    -0.205 F 
ATOM     79  C   UNL A   1      42.889  21.426  26.007  1.00  0.00     0.022 A 
BRANCH  77  80
ATOM     80  S   UNL A   1      45.108  21.804  24.447  1.00  0.00     0.127 S 
ATOM     81  O   UNL A   1      44.485  20.593  23.915  1.00  0.00    -0.237 OA
ATOM     82  O   UNL A   1      44.941  22.994  23.622  1.00  0.00    -0.237 OA
ATOM     83  O   UNL A   1      46.446  21.593  24.998  1.00  0.00    -0.744 OA
ENDBRANCH  77  80
ENDBRANCH  49  73
BRANCH  61  84
ATOM     84  C   UNL A   1      46.329  28.847  28.929  1.00  0.00     0.023 A 
ATOM     85  C   UNL A   1      47.575  28.808  28.270  1.00  0.00     0.012 A 
ATOM     86  C   UNL A   1      45.308  29.658  28.416  1.00  0.00     0.148 A 
ATOM     87  C   UNL A   1      47.825  29.642  27.177  1.00  0.00     0.002 A 
ATOM     88  C   UNL A   1      45.551  30.463  27.313  1.00  0.00     0.091 A 
ATOM     89  F   UNL A   1      44.100  29.618  28.999  1.00  0.00    -0.205 F 
ATOM     90  C   UNL A   1      46.819  30.488  26.712  1.00  0.00     0.022 A 
BRANCH  88  91
ATOM     91  S   UNL A   1      44.216  31.443  26.629  1.00  0.00     0.127 S 
ATOM     92  O   UNL A   1      44.849  32.126  25.500  1.00  0.00    -0.237 OA
ATOM     93  O   UNL A   1      43.244  30.420  26.248  1.00  0.00    -0.237 OA
ATOM     94  O   UNL A   1      43.815  32.332  27.715  1.00  0.00    -0.744 OA
ENDBRANCH  88  91
ENDBRANCH  61  84
ENDBRANCH  35  36
ENDBRANCH  27  30
ENDBRANCH  25  26
ENDBRANCH   1  25
TORSDOF 15
ENDMDL
MODEL 3
REMARK VINA RESULT:     -12.8      5.034     10.399
REMARK SMILES CCn1c(N2CCC(C(=O)NCCCNC(=O)c3ccc(-c4c5nc(c(-c6cccc(S(=O)(=O)[O-])c6F)c6ccc([nH]6)c(-c6cccc(S(=O)(=O)[O-])c6F)c6nc(c(-c7cccc(S(=O)(=O)[O-])c7F)c7ccc4[nH]7)C=C6)C=C5)cc3)CC2)nc2cc(C)ccc21
REMARK SMILES IDX 13 1 12 2 11 3 9 4 10 5 8 7 5 8 6 9 82 10 7 11 81 12 4 13
REMARK SMILES IDX 3 14 90 15 83 16 84 17 89 18 85 19 88 20 86 21 87 22 2 23
REMARK SMILES IDX 1 24 14 25 15 26 16 27 17 29 18 30 19 31 80 32 20 33 79 34
REMARK SMILES IDX 21 35 22 36 23 37 73 38 24 39 78 40 72 41 74 42 25 43 77 44
REMARK SMILES IDX 71 45 70 46 26 48 58 49 38 50 57 51 39 52 42 53 56 54 75 55
REMARK SMILES IDX 40 56 41 57 55 59 76 60 43 61 27 62 28 63 36 64 29 65 31 66
REMARK SMILES IDX 37 67 30 68 32 69 33 70 34 71 35 72 59 73 60 74 68 75 61 76
REMARK SMILES IDX 63 77 69 78 62 79 64 80 65 81 66 82 67 83 44 84 45 85 53 86
REMARK SMILES IDX 46 87 48 88 54 89 47 90 49 91 50 92 51 93 52 94
REMARK H PARENT 11 6 15 28 74 47 42 58
REMARK Flexibility Score: inf
ROOT
ATOM      1  C   UNL A   1      32.955  29.011  25.816  1.00  0.00     0.042 C 
ENDROOT
BRANCH   1   2
ATOM      2  C   UNL A   1      33.073  29.094  24.301  1.00  0.00     0.117 C 
BRANCH   2   3
ATOM      3  N   UNL A   1      31.868  29.628  23.681  1.00  0.00    -0.356 N 
ATOM      4  C   UNL A   1      30.753  29.018  23.207  1.00  0.00     0.223 C 
ATOM      5  O   UNL A   1      29.874  29.733  22.717  1.00  0.00    -0.275 OA
ATOM      6  H   UNL A   1      31.862  30.609  23.589  1.00  0.00     0.163 HD
BRANCH   4   7
ATOM      7  C   UNL A   1      30.552  27.515  23.287  1.00  0.00     0.082 C 
ATOM      8  N   UNL A   1      31.325  24.907  24.160  1.00  0.00    -0.342 N 
ATOM      9  C   UNL A   1      31.483  25.241  22.750  1.00  0.00     0.120 C 
ATOM     10  C   UNL A   1      30.252  25.555  24.890  1.00  0.00     0.120 C 
ATOM     11  C   UNL A   1      31.655  26.740  22.564  1.00  0.00     0.035 C 
ATOM     12  C   UNL A   1      30.295  27.068  24.730  1.00  0.00     0.035 C 
BRANCH   8  13
ATOM     13  C   UNL A   1      32.409  24.420  24.809  1.00  0.00     0.206 A 
ATOM     14  N   UNL A   1      32.353  23.242  25.532  1.00  0.00    -0.310 N 
ATOM     15  C   UNL A   1      33.652  22.833  25.766  1.00  0.00     0.070 A 
ATOM     16  N   UNL A   1      33.648  24.816  24.639  1.00  0.00    -0.213 NA
ATOM     17  C   UNL A   1      34.428  23.811  25.152  1.00  0.00     0.091 A 
ATOM     18  C   UNL A   1      34.204  21.679  26.338  1.00  0.00     0.029 A 
ATOM     19  C   UNL A   1      35.810  23.623  25.031  1.00  0.00     0.034 A 
ATOM     20  C   UNL A   1      35.571  21.470  26.139  1.00  0.00     0.006 A 
ATOM     21  C   UNL A   1      36.358  22.401  25.449  1.00  0.00    -0.049 A 
ATOM     22  C   UNL A   1      37.754  22.049  25.024  1.00  0.00     0.044 C 
BRANCH  14  23
ATOM     23  C   UNL A   1      31.198  22.370  25.653  1.00  0.00     0.122 C 
ATOM     24  C   UNL A   1      30.296  22.680  26.833  1.00  0.00     0.028 C 
ENDBRANCH  14  23
ENDBRANCH   8  13
ENDBRANCH   4   7
ENDBRANCH   2   3
ENDBRANCH   1   2
BRANCH   1  25
ATOM     25  C   UNL A   1      34.290  29.071  26.558  1.00  0.00     0.118 C 
BRANCH  25  26
ATOM     26  N   UNL A   1      34.611  30.362  27.135  1.00  0.00    -0.352 N 
ATOM     27  C   UNL A   1      35.740  30.926  27.664  1.00  0.00     0.251 C 
ATOM     28  H   UNL A   1      33.839  30.973  27.149  1.00  0.00     0.163 HD
ATOM     29  O   UNL A   1      35.678  32.138  27.889  1.00  0.00    -0.269 OA
BRANCH  27  30
ATOM     30  C   UNL A   1      36.972  30.182  28.048  1.00  0.00     0.039 A 
ATOM     31  C   UNL A   1      38.116  30.066  27.263  1.00  0.00     0.014 A 
ATOM     32  C   UNL A   1      36.927  29.483  29.271  1.00  0.00     0.014 A 
ATOM     33  C   UNL A   1      39.122  29.176  27.615  1.00  0.00     0.010 A 
ATOM     34  C   UNL A   1      37.952  28.622  29.651  1.00  0.00     0.010 A 
ATOM     35  C   UNL A   1      39.027  28.428  28.793  1.00  0.00    -0.014 A 
BRANCH  35  36
ATOM     36  C   UNL A   1      40.155  27.559  29.121  1.00  0.00     0.031 A 
ATOM     37  C   UNL A   1      40.761  27.841  30.449  1.00  0.00     0.074 A 
ATOM     38  C   UNL A   1      40.615  26.559  28.340  1.00  0.00     0.049 A 
ATOM     39  N   UNL A   1      41.902  28.403  30.685  1.00  0.00    -0.248 NA
ATOM     40  C   UNL A   1      39.938  27.620  31.647  1.00  0.00     0.031 C 
ATOM     41  C   UNL A   1      39.987  25.999  27.141  1.00  0.00     0.029 A 
ATOM     42  N   UNL A   1      41.708  25.755  28.520  1.00  0.00    -0.354 N 
ATOM     43  C   UNL A   1      42.045  28.380  32.069  1.00  0.00     0.074 A 
ATOM     44  C   UNL A   1      40.751  28.055  32.613  1.00  0.00     0.031 C 
ATOM     45  C   UNL A   1      40.566  24.814  26.845  1.00  0.00     0.029 A 
ATOM     46  C   UNL A   1      41.698  24.606  27.733  1.00  0.00     0.049 A 
ATOM     47  H   UNL A   1      42.434  25.967  29.150  1.00  0.00     0.167 HD
ATOM     48  C   UNL A   1      43.274  28.351  32.651  1.00  0.00     0.034 A 
ATOM     49  C   UNL A   1      42.538  23.549  27.834  1.00  0.00     0.034 A 
ATOM     50  C   UNL A   1      44.323  28.632  31.710  1.00  0.00     0.049 A 
ATOM     51  C   UNL A   1      43.771  24.015  28.497  1.00  0.00     0.074 A 
ATOM     52  C   UNL A   1      44.852  29.728  31.068  1.00  0.00     0.029 A 
ATOM     53  N   UNL A   1      44.759  27.518  31.049  1.00  0.00    -0.354 N 
ATOM     54  N   UNL A   1      44.632  24.801  27.920  1.00  0.00    -0.248 NA
ATOM     55  C   UNL A   1      43.968  23.806  29.925  1.00  0.00     0.031 C 
ATOM     56  C   UNL A   1      45.468  29.230  29.877  1.00  0.00     0.029 A 
ATOM     57  C   UNL A   1      45.316  27.847  29.845  1.00  0.00     0.049 A 
ATOM     58  H   UNL A   1      44.681  26.599  31.394  1.00  0.00     0.167 HD
ATOM     59  C   UNL A   1      45.151  25.537  28.966  1.00  0.00     0.074 A 
ATOM     60  C   UNL A   1      44.884  24.750  30.160  1.00  0.00     0.031 C 
ATOM     61  C   UNL A   1      45.425  26.861  28.799  1.00  0.00     0.034 A 
BRANCH  48  62
ATOM     62  C   UNL A   1      43.581  27.599  33.924  1.00  0.00     0.023 A 
ATOM     63  C   UNL A   1      44.101  28.323  35.019  1.00  0.00     0.012 A 
ATOM     64  C   UNL A   1      43.664  26.188  33.988  1.00  0.00     0.148 A 
ATOM     65  C   UNL A   1      44.668  27.672  36.123  1.00  0.00     0.002 A 
ATOM     66  C   UNL A   1      44.157  25.546  35.118  1.00  0.00     0.091 A 
ATOM     67  F   UNL A   1      43.403  25.463  32.895  1.00  0.00    -0.205 F 
ATOM     68  C   UNL A   1      44.680  26.283  36.181  1.00  0.00     0.022 A 
BRANCH  66  69
ATOM     69  S   UNL A   1      44.163  23.754  35.251  1.00  0.00     0.127 S 
ATOM     70  O   UNL A   1      45.087  23.384  34.186  1.00  0.00    -0.237 OA
ATOM     71  O   UNL A   1      44.665  23.557  36.611  1.00  0.00    -0.237 OA
ATOM     72  O   UNL A   1      42.770  23.353  35.067  1.00  0.00    -0.744 OA
ENDBRANCH  66  69
ENDBRANCH  48  62
BRANCH  49  73
ATOM     73  C   UNL A   1      42.385  22.113  27.514  1.00  0.00     0.023 A 
ATOM     74  C   UNL A   1      41.118  21.511  27.684  1.00  0.00     0.012 A 
ATOM     75  C   UNL A   1      43.344  21.448  26.727  1.00  0.00     0.148 A 
ATOM     76  C   UNL A   1      40.782  20.336  27.008  1.00  0.00     0.002 A 
ATOM     77  C   UNL A   1      43.004  20.276  26.058  1.00  0.00     0.091 A 
ATOM     78  F   UNL A   1      44.541  22.020  26.547  1.00  0.00    -0.205 F 
ATOM     79  C   UNL A   1      41.717  19.729  26.177  1.00  0.00     0.022 A 
BRANCH  77  80
ATOM     80  S   UNL A   1      44.146  19.450  24.943  1.00  0.00     0.127 S 
ATOM     81  O   UNL A   1      45.357  19.353  25.757  1.00  0.00    -0.237 OA
ATOM     82  O   UNL A   1      43.468  18.184  24.698  1.00  0.00    -0.237 OA
ATOM     83  O   UNL A   1      44.274  20.339  23.789  1.00  0.00    -0.744 OA
ENDBRANCH  77  80
ENDBRANCH  49  73
BRANCH  61  84
ATOM     84  C   UNL A   1      45.695  27.287  27.390  1.00  0.00     0.023 A 
ATOM     85  C   UNL A   1      44.697  27.802  26.538  1.00  0.00     0.012 A 
ATOM     86  C   UNL A   1      46.993  27.105  26.893  1.00  0.00     0.148 A 
ATOM     87  C   UNL A   1      44.971  28.037  25.188  1.00  0.00     0.002 A 
ATOM     88  C   UNL A   1      47.267  27.366  25.559  1.00  0.00     0.091 A 
ATOM     89  F   UNL A   1      47.954  26.698  27.738  1.00  0.00    -0.205 F 
ATOM     90  C   UNL A   1      46.251  27.796  24.691  1.00  0.00     0.022 A 
BRANCH  88  91
ATOM     91  S   UNL A   1      48.946  27.193  24.957  1.00  0.00     0.127 S 
ATOM     92  O   UNL A   1      49.736  27.898  25.967  1.00  0.00    -0.237 OA
ATOM     93  O   UNL A   1      49.127  25.743  24.955  1.00  0.00    -0.237 OA
ATOM     94  O   UNL A   1      48.939  27.837  23.648  1.00  0.00    -0.744 OA
ENDBRANCH  88  91
ENDBRANCH  61  84
ENDBRANCH  35  36
ENDBRANCH  27  30
ENDBRANCH  25  26
ENDBRANCH   1  25
TORSDOF 15
ENDMDL
