MODEL 1
REMARK VINA RESULT:     -12.9      0.000      0.000
REMARK SMILES C[C@H](NC(=O)c1cccc(NC(=O)c2ccccc2C(=O)NCCCNC(=O)c2ccc(-c3c4nc(c(-c5cccc(S(=O)(=O)[O-])c5F)c5ccc([nH]5)c(-c5cccc(S(=O)(=O)[O-])c5F)c5nc(c(-c6cccc(S(=O)(=O)[O-])c6F)c6ccc3[nH]6)C=C5)C=C4)cc2)c1)c1ccccc1
REMARK SMILES IDX 23 1 22 2 20 3 21 4 19 6 14 7 15 8 16 9 18 10 17 11 12 12
REMARK SMILES IDX 11 13 13 15 10 16 6 17 7 18 92 19 8 20 9 21 4 22 3 23 5 25
REMARK SMILES IDX 2 26 1 27 93 28 94 29 98 30 95 31 97 32 96 33 24 34 25 35
REMARK SMILES IDX 26 36 27 37 28 39 29 40 30 41 91 42 31 43 90 44 32 45 33 46
REMARK SMILES IDX 34 47 84 48 35 49 89 50 83 51 85 52 36 53 88 54 82 55 81 56
REMARK SMILES IDX 37 58 69 59 49 60 68 61 50 62 53 63 67 64 86 65 51 66 52 67
REMARK SMILES IDX 66 69 87 70 54 71 38 72 39 73 47 74 40 75 42 76 48 77 41 78
REMARK SMILES IDX 43 79 44 80 45 81 46 82 70 83 71 84 79 85 72 86 74 87 80 88
REMARK SMILES IDX 73 89 75 90 76 91 77 92 78 93 55 94 56 95 64 96 57 97 59 98
REMARK SMILES IDX 65 99 58 100 60 101 61 102 62 103 63 104
REMARK H PARENT 22 5 11 14 3 24 26 38 85 57 53 68
REMARK Flexibility Score: inf
ROOT
ATOM      1  C   UNL A   1      32.044  30.213  26.886  1.00  0.00     0.118 C 
ENDROOT
BRANCH   1   2
ATOM      2  N   UNL A   1      33.062  29.698  25.992  1.00  0.00    -0.352 N 
ATOM      3  C   UNL A   1      32.943  28.924  24.869  1.00  0.00     0.252 C 
ATOM      4  O   UNL A   1      33.971  28.644  24.249  1.00  0.00    -0.269 OA
ATOM      5  H   UNL A   1      33.985  29.944  26.230  1.00  0.00     0.163 HD
BRANCH   3   6
ATOM      6  C   UNL A   1      31.653  28.336  24.415  1.00  0.00     0.052 A 
ATOM      7  C   UNL A   1      30.985  27.228  24.958  1.00  0.00     0.052 A 
ATOM      8  C   UNL A   1      29.808  26.758  24.339  1.00  0.00     0.014 A 
ATOM      9  C   UNL A   1      29.244  27.429  23.256  1.00  0.00     0.001 A 
ATOM     10  C   UNL A   1      31.044  29.027  23.345  1.00  0.00     0.014 A 
ATOM     11  C   UNL A   1      29.849  28.583  22.776  1.00  0.00     0.001 A 
BRANCH   7  12
ATOM     12  C   UNL A   1      31.406  26.436  26.133  1.00  0.00     0.256 C 
ATOM     13  N   UNL A   1      32.109  25.261  26.053  1.00  0.00    -0.322 N 
ATOM     14  H   UNL A   1      32.155  24.767  26.904  1.00  0.00     0.170 HD
ATOM     15  O   UNL A   1      31.049  26.830  27.245  1.00  0.00    -0.269 OA
BRANCH  13  16
ATOM     16  C   UNL A   1      32.772  24.629  24.997  1.00  0.00     0.042 A 
ATOM     17  C   UNL A   1      32.886  22.697  23.555  1.00  0.00     0.041 A 
ATOM     18  C   UNL A   1      33.926  23.280  22.831  1.00  0.00     0.014 A 
ATOM     19  C   UNL A   1      32.331  23.346  24.660  1.00  0.00     0.040 A 
ATOM     20  C   UNL A   1      34.396  24.537  23.201  1.00  0.00     0.003 A 
ATOM     21  C   UNL A   1      33.826  25.207  24.287  1.00  0.00     0.026 A 
BRANCH  17  22
ATOM     22  C   UNL A   1      32.382  21.375  23.152  1.00  0.00     0.251 C 
ATOM     23  N   UNL A   1      32.675  20.279  23.922  1.00  0.00    -0.346 N 
ATOM     24  H   UNL A   1      32.432  19.406  23.536  1.00  0.00     0.164 HD
ATOM     25  O   UNL A   1      31.684  21.280  22.148  1.00  0.00    -0.269 OA
BRANCH  23  26
ATOM     26  C   UNL A   1      33.302  20.235  25.245  1.00  0.00     0.109 C 
ATOM     27  C   UNL A   1      32.909  18.910  25.916  1.00  0.00     0.036 C 
BRANCH  26  28
ATOM     28  C   UNL A   1      34.821  20.409  25.198  1.00  0.00    -0.026 A 
ATOM     29  C   UNL A   1      35.692  19.403  24.747  1.00  0.00     0.006 A 
ATOM     30  C   UNL A   1      35.394  21.640  25.573  1.00  0.00     0.006 A 
ATOM     31  C   UNL A   1      37.077  19.598  24.732  1.00  0.00     0.000 A 
ATOM     32  C   UNL A   1      36.778  21.836  25.553  1.00  0.00     0.000 A 
ATOM     33  C   UNL A   1      37.621  20.809  25.144  1.00  0.00     0.000 A 
ENDBRANCH  26  28
ENDBRANCH  23  26
ENDBRANCH  17  22
ENDBRANCH  13  16
ENDBRANCH   7  12
ENDBRANCH   3   6
ENDBRANCH   1   2
BRANCH   1  34
ATOM     34  C   UNL A   1      31.801  31.704  26.772  1.00  0.00     0.042 C 
BRANCH  34  35
ATOM     35  C   UNL A   1      32.895  32.589  27.353  1.00  0.00     0.118 C 
BRANCH  35  36
ATOM     36  N   UNL A   1      32.496  33.964  27.648  1.00  0.00    -0.352 N 
ATOM     37  C   UNL A   1      32.992  34.866  28.566  1.00  0.00     0.251 C 
ATOM     38  H   UNL A   1      31.750  34.302  27.103  1.00  0.00     0.163 HD
ATOM     39  O   UNL A   1      32.466  35.971  28.687  1.00  0.00    -0.269 OA
BRANCH  37  40
ATOM     40  C   UNL A   1      34.117  34.481  29.446  1.00  0.00     0.039 A 
ATOM     41  C   UNL A   1      33.854  33.932  30.704  1.00  0.00     0.014 A 
ATOM     42  C   UNL A   1      35.429  34.580  28.990  1.00  0.00     0.014 A 
ATOM     43  C   UNL A   1      34.896  33.343  31.430  1.00  0.00     0.010 A 
ATOM     44  C   UNL A   1      36.437  33.900  29.654  1.00  0.00     0.010 A 
ATOM     45  C   UNL A   1      36.180  33.252  30.870  1.00  0.00    -0.014 A 
BRANCH  45  46
ATOM     46  C   UNL A   1      37.265  32.434  31.471  1.00  0.00     0.031 A 
ATOM     47  C   UNL A   1      37.778  32.763  32.847  1.00  0.00     0.074 A 
ATOM     48  C   UNL A   1      37.912  31.529  30.706  1.00  0.00     0.049 A 
ATOM     49  N   UNL A   1      38.834  32.307  33.465  1.00  0.00    -0.248 NA
ATOM     50  C   UNL A   1      37.032  33.782  33.607  1.00  0.00     0.031 C 
ATOM     51  C   UNL A   1      37.583  31.203  29.315  1.00  0.00     0.029 A 
ATOM     52  N   UNL A   1      39.011  30.752  30.972  1.00  0.00    -0.354 N 
ATOM     53  C   UNL A   1      38.914  33.020  34.655  1.00  0.00     0.074 A 
ATOM     54  C   UNL A   1      37.820  33.967  34.656  1.00  0.00     0.031 C 
ATOM     55  C   UNL A   1      38.459  30.297  28.853  1.00  0.00     0.029 A 
ATOM     56  C   UNL A   1      39.433  30.002  29.897  1.00  0.00     0.049 A 
ATOM     57  H   UNL A   1      39.457  30.732  31.849  1.00  0.00     0.167 HD
ATOM     58  C   UNL A   1      39.796  32.877  35.673  1.00  0.00     0.034 A 
ATOM     59  C   UNL A   1      40.491  29.179  29.762  1.00  0.00     0.034 A 
ATOM     60  C   UNL A   1      40.830  31.880  35.697  1.00  0.00     0.049 A 
ATOM     61  C   UNL A   1      41.409  28.977  30.937  1.00  0.00     0.074 A 
ATOM     62  C   UNL A   1      41.686  31.554  36.734  1.00  0.00     0.029 A 
ATOM     63  N   UNL A   1      41.146  31.045  34.636  1.00  0.00    -0.354 N 
ATOM     64  N   UNL A   1      41.356  29.528  32.126  1.00  0.00    -0.248 NA
ATOM     65  C   UNL A   1      42.512  28.021  30.765  1.00  0.00     0.031 C 
ATOM     66  C   UNL A   1      42.528  30.527  36.296  1.00  0.00     0.029 A 
ATOM     67  C   UNL A   1      42.189  30.208  34.989  1.00  0.00     0.049 A 
ATOM     68  H   UNL A   1      40.694  31.046  33.762  1.00  0.00     0.167 HD
ATOM     69  C   UNL A   1      42.399  28.967  32.852  1.00  0.00     0.074 A 
ATOM     70  C   UNL A   1      43.053  28.016  31.976  1.00  0.00     0.031 C 
ATOM     71  C   UNL A   1      42.793  29.230  34.122  1.00  0.00     0.034 A 
BRANCH  58  72
ATOM     72  C   UNL A   1      39.627  33.766  36.876  1.00  0.00     0.023 A 
ATOM     73  C   UNL A   1      40.066  35.104  36.813  1.00  0.00     0.012 A 
ATOM     74  C   UNL A   1      38.994  33.301  38.046  1.00  0.00     0.148 A 
ATOM     75  C   UNL A   1      39.915  35.955  37.906  1.00  0.00     0.002 A 
ATOM     76  C   UNL A   1      38.809  34.168  39.117  1.00  0.00     0.091 A 
ATOM     77  F   UNL A   1      38.603  32.019  38.097  1.00  0.00    -0.205 F 
ATOM     78  C   UNL A   1      39.279  35.490  39.053  1.00  0.00     0.022 A 
BRANCH  76  79
ATOM     79  S   UNL A   1      37.937  33.688  40.612  1.00  0.00     0.127 S 
ATOM     80  O   UNL A   1      38.863  32.721  41.197  1.00  0.00    -0.237 OA
ATOM     81  O   UNL A   1      37.843  34.957  41.336  1.00  0.00    -0.237 OA
ATOM     82  O   UNL A   1      36.658  33.146  40.173  1.00  0.00    -0.744 OA
ENDBRANCH  76  79
ENDBRANCH  58  72
BRANCH  59  83
ATOM     83  C   UNL A   1      40.691  28.424  28.492  1.00  0.00     0.023 A 
ATOM     84  C   UNL A   1      41.333  29.062  27.413  1.00  0.00     0.012 A 
ATOM     85  C   UNL A   1      40.294  27.080  28.355  1.00  0.00     0.148 A 
ATOM     86  C   UNL A   1      41.553  28.386  26.212  1.00  0.00     0.002 A 
ATOM     87  C   UNL A   1      40.562  26.395  27.174  1.00  0.00     0.091 A 
ATOM     88  F   UNL A   1      39.674  26.492  29.389  1.00  0.00    -0.205 F 
ATOM     89  C   UNL A   1      41.179  27.050  26.096  1.00  0.00     0.022 A 
BRANCH  87  90
ATOM     90  S   UNL A   1      40.229  24.640  26.983  1.00  0.00     0.127 S 
ATOM     91  O   UNL A   1      41.180  24.265  25.940  1.00  0.00    -0.237 OA
ATOM     92  O   UNL A   1      40.542  24.123  28.317  1.00  0.00    -0.237 OA
ATOM     93  O   UNL A   1      38.820  24.547  26.623  1.00  0.00    -0.744 OA
ENDBRANCH  87  90
ENDBRANCH  59  83
BRANCH  71  94
ATOM     94  C   UNL A   1      43.978  28.473  34.658  1.00  0.00     0.023 A 
ATOM     95  C   UNL A   1      45.265  29.029  34.538  1.00  0.00     0.012 A 
ATOM     96  C   UNL A   1      43.803  27.267  35.366  1.00  0.00     0.148 A 
ATOM     97  C   UNL A   1      46.368  28.388  35.101  1.00  0.00     0.002 A 
ATOM     98  C   UNL A   1      44.900  26.657  35.963  1.00  0.00     0.091 A 
ATOM     99  F   UNL A   1      42.570  26.750  35.452  1.00  0.00    -0.205 F 
ATOM    100  C   UNL A   1      46.183  27.211  35.822  1.00  0.00     0.022 A 
BRANCH  98 101
ATOM    101  S   UNL A   1      44.747  25.191  36.989  1.00  0.00     0.127 S 
ATOM    102  O   UNL A   1      43.877  25.668  38.063  1.00  0.00    -0.237 OA
ATOM    103  O   UNL A   1      44.120  24.238  36.074  1.00  0.00    -0.237 OA
ATOM    104  O   UNL A   1      46.102  24.840  37.393  1.00  0.00    -0.744 OA
ENDBRANCH  98 101
ENDBRANCH  71  94
ENDBRANCH  45  46
ENDBRANCH  37  40
ENDBRANCH  35  36
ENDBRANCH  34  35
ENDBRANCH   1  34
TORSDOF 18
ENDMDL
MODEL 2
REMARK VINA RESULT:     -12.7      2.063      7.693
REMARK SMILES C[C@H](NC(=O)c1cccc(NC(=O)c2ccccc2C(=O)NCCCNC(=O)c2ccc(-c3c4nc(c(-c5cccc(S(=O)(=O)[O-])c5F)c5ccc([nH]5)c(-c5cccc(S(=O)(=O)[O-])c5F)c5nc(c(-c6cccc(S(=O)(=O)[O-])c6F)c6ccc3[nH]6)C=C5)C=C4)cc2)c1)c1ccccc1
REMARK SMILES IDX 23 1 22 2 20 3 21 4 19 6 14 7 15 8 16 9 18 10 17 11 12 12
REMARK SMILES IDX 11 13 13 15 10 16 6 17 7 18 92 19 8 20 9 21 4 22 3 23 5 25
REMARK SMILES IDX 2 26 1 27 93 28 94 29 98 30 95 31 97 32 96 33 24 34 25 35
REMARK SMILES IDX 26 36 27 37 28 39 29 40 30 41 91 42 31 43 90 44 32 45 33 46
REMARK SMILES IDX 34 47 84 48 35 49 89 50 83 51 85 52 36 53 88 54 82 55 81 56
REMARK SMILES IDX 37 58 69 59 49 60 68 61 50 62 53 63 67 64 86 65 51 66 52 67
REMARK SMILES IDX 66 69 87 70 54 71 38 72 39 73 47 74 40 75 42 76 48 77 41 78
REMARK SMILES IDX 43 79 44 80 45 81 46 82 70 83 71 84 79 85 72 86 74 87 80 88
REMARK SMILES IDX 73 89 75 90 76 91 77 92 78 93 55 94 56 95 64 96 57 97 59 98
REMARK SMILES IDX 65 99 58 100 60 101 61 102 62 103 63 104
REMARK H PARENT 22 5 11 14 3 24 26 38 85 57 53 68
REMARK Flexibility Score: inf
ROOT
ATOM      1  C   UNL A   1      31.548  30.754  26.026  1.00  0.00     0.118 C 
ENDROOT
BRANCH   1   2
ATOM      2  N   UNL A   1      31.471  29.477  26.707  1.00  0.00    -0.352 N 
ATOM      3  C   UNL A   1      31.829  28.226  26.281  1.00  0.00     0.252 C 
ATOM      4  O   UNL A   1      31.701  27.288  27.072  1.00  0.00    -0.269 OA
ATOM      5  H   UNL A   1      31.105  29.516  27.620  1.00  0.00     0.163 HD
BRANCH   3   6
ATOM      6  C   UNL A   1      32.278  27.932  24.893  1.00  0.00     0.052 A 
ATOM      7  C   UNL A   1      31.573  27.232  23.901  1.00  0.00     0.052 A 
ATOM      8  C   UNL A   1      32.195  26.974  22.662  1.00  0.00     0.014 A 
ATOM      9  C   UNL A   1      33.459  27.482  22.369  1.00  0.00     0.001 A 
ATOM     10  C   UNL A   1      33.538  28.475  24.562  1.00  0.00     0.014 A 
ATOM     11  C   UNL A   1      34.120  28.259  23.312  1.00  0.00     0.001 A 
BRANCH   7  12
ATOM     12  C   UNL A   1      30.209  26.675  24.019  1.00  0.00     0.256 C 
ATOM     13  N   UNL A   1      29.931  25.425  24.509  1.00  0.00    -0.322 N 
ATOM     14  H   UNL A   1      29.003  25.135  24.356  1.00  0.00     0.170 HD
ATOM     15  O   UNL A   1      29.275  27.357  23.592  1.00  0.00    -0.269 OA
BRANCH  13  16
ATOM     16  C   UNL A   1      30.712  24.483  25.186  1.00  0.00     0.042 A 
ATOM     17  C   UNL A   1      32.644  23.039  25.113  1.00  0.00     0.041 A 
ATOM     18  C   UNL A   1      32.432  22.664  26.441  1.00  0.00     0.014 A 
ATOM     19  C   UNL A   1      31.769  23.915  24.469  1.00  0.00     0.040 A 
ATOM     20  C   UNL A   1      31.349  23.193  27.136  1.00  0.00     0.003 A 
ATOM     21  C   UNL A   1      30.485  24.094  26.508  1.00  0.00     0.026 A 
BRANCH  17  22
ATOM     22  C   UNL A   1      33.799  22.489  24.386  1.00  0.00     0.251 C 
ATOM     23  N   UNL A   1      33.717  21.232  23.847  1.00  0.00    -0.346 N 
ATOM     24  H   UNL A   1      34.559  20.862  23.493  1.00  0.00     0.164 HD
ATOM     25  O   UNL A   1      34.805  23.177  24.251  1.00  0.00    -0.269 OA
BRANCH  23  26
ATOM     26  C   UNL A   1      32.543  20.364  23.725  1.00  0.00     0.109 C 
ATOM     27  C   UNL A   1      31.969  20.531  22.311  1.00  0.00     0.036 C 
BRANCH  26  28
ATOM     28  C   UNL A   1      32.844  18.897  24.038  1.00  0.00    -0.026 A 
ATOM     29  C   UNL A   1      33.318  17.992  23.074  1.00  0.00     0.006 A 
ATOM     30  C   UNL A   1      32.692  18.419  25.355  1.00  0.00     0.006 A 
ATOM     31  C   UNL A   1      33.568  16.654  23.398  1.00  0.00     0.000 A 
ATOM     32  C   UNL A   1      32.947  17.083  25.680  1.00  0.00     0.000 A 
ATOM     33  C   UNL A   1      33.373  16.197  24.697  1.00  0.00     0.000 A 
ENDBRANCH  26  28
ENDBRANCH  23  26
ENDBRANCH  17  22
ENDBRANCH  13  16
ENDBRANCH   7  12
ENDBRANCH   3   6
ENDBRANCH   1   2
BRANCH   1  34
ATOM     34  C   UNL A   1      31.371  31.960  26.925  1.00  0.00     0.042 C 
BRANCH  34  35
ATOM     35  C   UNL A   1      32.505  32.975  26.887  1.00  0.00     0.118 C 
BRANCH  35  36
ATOM     36  N   UNL A   1      32.398  34.069  27.851  1.00  0.00    -0.352 N 
ATOM     37  C   UNL A   1      33.235  34.444  28.881  1.00  0.00     0.251 C 
ATOM     38  H   UNL A   1      31.596  34.630  27.748  1.00  0.00     0.163 HD
ATOM     39  O   UNL A   1      32.922  35.379  29.616  1.00  0.00    -0.269 OA
BRANCH  37  40
ATOM     40  C   UNL A   1      34.476  33.682  29.139  1.00  0.00     0.039 A 
ATOM     41  C   UNL A   1      35.708  34.220  28.759  1.00  0.00     0.014 A 
ATOM     42  C   UNL A   1      34.428  32.478  29.836  1.00  0.00     0.014 A 
ATOM     43  C   UNL A   1      36.890  33.626  29.217  1.00  0.00     0.010 A 
ATOM     44  C   UNL A   1      35.590  31.956  30.383  1.00  0.00     0.010 A 
ATOM     45  C   UNL A   1      36.834  32.537  30.100  1.00  0.00    -0.014 A 
BRANCH  45  46
ATOM     46  C   UNL A   1      38.028  32.014  30.813  1.00  0.00     0.031 A 
ATOM     47  C   UNL A   1      38.787  30.844  30.246  1.00  0.00     0.074 A 
ATOM     48  C   UNL A   1      38.307  32.465  32.054  1.00  0.00     0.049 A 
ATOM     49  N   UNL A   1      39.723  30.121  30.800  1.00  0.00    -0.248 NA
ATOM     50  C   UNL A   1      38.402  30.395  28.897  1.00  0.00     0.031 C 
ATOM     51  C   UNL A   1      37.571  33.517  32.761  1.00  0.00     0.029 A 
ATOM     52  N   UNL A   1      39.255  32.064  32.962  1.00  0.00    -0.354 N 
ATOM     53  C   UNL A   1      39.998  29.102  29.897  1.00  0.00     0.074 A 
ATOM     54  C   UNL A   1      39.103  29.277  28.774  1.00  0.00     0.031 C 
ATOM     55  C   UNL A   1      38.092  33.676  33.988  1.00  0.00     0.029 A 
ATOM     56  C   UNL A   1      39.175  32.717  34.172  1.00  0.00     0.049 A 
ATOM     57  H   UNL A   1      39.928  31.373  32.768  1.00  0.00     0.167 HD
ATOM     58  C   UNL A   1      40.935  28.127  29.977  1.00  0.00     0.034 A 
ATOM     59  C   UNL A   1      39.885  32.555  35.305  1.00  0.00     0.034 A 
ATOM     60  C   UNL A   1      41.873  28.010  31.060  1.00  0.00     0.049 A 
ATOM     61  C   UNL A   1      40.975  31.519  35.338  1.00  0.00     0.074 A 
ATOM     62  C   UNL A   1      42.951  27.151  31.174  1.00  0.00     0.029 A 
ATOM     63  N   UNL A   1      41.845  28.777  32.214  1.00  0.00    -0.354 N 
ATOM     64  N   UNL A   1      41.344  30.683  34.397  1.00  0.00    -0.248 NA
ATOM     65  C   UNL A   1      41.767  31.422  36.572  1.00  0.00     0.031 C 
ATOM     66  C   UNL A   1      43.571  27.392  32.404  1.00  0.00     0.029 A 
ATOM     67  C   UNL A   1      42.882  28.408  33.051  1.00  0.00     0.049 A 
ATOM     68  H   UNL A   1      41.186  29.481  32.409  1.00  0.00     0.167 HD
ATOM     69  C   UNL A   1      42.425  29.980  34.914  1.00  0.00     0.074 A 
ATOM     70  C   UNL A   1      42.667  30.505  36.243  1.00  0.00     0.031 C 
ATOM     71  C   UNL A   1      43.140  28.978  34.348  1.00  0.00     0.034 A 
BRANCH  58  72
ATOM     72  C   UNL A   1      41.045  27.165  28.825  1.00  0.00     0.023 A 
ATOM     73  C   UNL A   1      40.196  26.039  28.782  1.00  0.00     0.012 A 
ATOM     74  C   UNL A   1      41.943  27.393  27.764  1.00  0.00     0.148 A 
ATOM     75  C   UNL A   1      40.266  25.135  27.725  1.00  0.00     0.002 A 
ATOM     76  C   UNL A   1      41.976  26.508  26.691  1.00  0.00     0.091 A 
ATOM     77  F   UNL A   1      42.758  28.456  27.831  1.00  0.00    -0.205 F 
ATOM     78  C   UNL A   1      41.148  25.374  26.675  1.00  0.00     0.022 A 
BRANCH  76  79
ATOM     79  S   UNL A   1      43.025  26.767  25.256  1.00  0.00     0.127 S 
ATOM     80  O   UNL A   1      44.331  26.975  25.878  1.00  0.00    -0.237 OA
ATOM     81  O   UNL A   1      42.887  25.497  24.539  1.00  0.00    -0.237 OA
ATOM     82  O   UNL A   1      42.472  27.918  24.558  1.00  0.00    -0.744 OA
ENDBRANCH  76  79
ENDBRANCH  58  72
BRANCH  59  83
ATOM     83  C   UNL A   1      39.640  33.450  36.472  1.00  0.00     0.023 A 
ATOM     84  C   UNL A   1      38.534  33.196  37.306  1.00  0.00     0.012 A 
ATOM     85  C   UNL A   1      40.506  34.514  36.788  1.00  0.00     0.148 A 
ATOM     86  C   UNL A   1      38.278  33.999  38.418  1.00  0.00     0.002 A 
ATOM     87  C   UNL A   1      40.274  35.281  37.926  1.00  0.00     0.091 A 
ATOM     88  F   UNL A   1      41.547  34.749  35.977  1.00  0.00    -0.205 F 
ATOM     89  C   UNL A   1      39.153  35.035  38.734  1.00  0.00     0.022 A 
BRANCH  87  90
ATOM     90  S   UNL A   1      41.419  36.552  38.479  1.00  0.00     0.127 S 
ATOM     91  O   UNL A   1      42.519  35.752  39.013  1.00  0.00    -0.237 OA
ATOM     92  O   UNL A   1      41.719  37.256  37.231  1.00  0.00    -0.237 OA
ATOM     93  O   UNL A   1      40.680  37.347  39.450  1.00  0.00    -0.744 OA
ENDBRANCH  87  90
ENDBRANCH  59  83
BRANCH  71  94
ATOM     94  C   UNL A   1      44.266  28.383  35.149  1.00  0.00     0.023 A 
ATOM     95  C   UNL A   1      45.581  28.841  34.938  1.00  0.00     0.012 A 
ATOM     96  C   UNL A   1      44.010  27.451  36.173  1.00  0.00     0.148 A 
ATOM     97  C   UNL A   1      46.629  28.367  35.726  1.00  0.00     0.002 A 
ATOM     98  C   UNL A   1      45.052  27.017  36.983  1.00  0.00     0.091 A 
ATOM     99  F   UNL A   1      42.752  27.018  36.343  1.00  0.00    -0.205 F 
ATOM    100  C   UNL A   1      46.363  27.466  36.754  1.00  0.00     0.022 A 
BRANCH  98 101
ATOM    101  S   UNL A   1      44.792  25.931  38.390  1.00  0.00     0.127 S 
ATOM    102  O   UNL A   1      44.324  24.707  37.740  1.00  0.00    -0.237 OA
ATOM    103  O   UNL A   1      46.135  25.841  38.963  1.00  0.00    -0.237 OA
ATOM    104  O   UNL A   1      43.815  26.599  39.239  1.00  0.00    -0.744 OA
ENDBRANCH  98 101
ENDBRANCH  71  94
ENDBRANCH  45  46
ENDBRANCH  37  40
ENDBRANCH  35  36
ENDBRANCH  34  35
ENDBRANCH   1  34
TORSDOF 18
ENDMDL
MODEL 3
REMARK VINA RESULT:     -12.7      1.971      2.857
REMARK SMILES C[C@H](NC(=O)c1cccc(NC(=O)c2ccccc2C(=O)NCCCNC(=O)c2ccc(-c3c4nc(c(-c5cccc(S(=O)(=O)[O-])c5F)c5ccc([nH]5)c(-c5cccc(S(=O)(=O)[O-])c5F)c5nc(c(-c6cccc(S(=O)(=O)[O-])c6F)c6ccc3[nH]6)C=C5)C=C4)cc2)c1)c1ccccc1
REMARK SMILES IDX 23 1 22 2 20 3 21 4 19 6 14 7 15 8 16 9 18 10 17 11 12 12
REMARK SMILES IDX 11 13 13 15 10 16 6 17 7 18 92 19 8 20 9 21 4 22 3 23 5 25
REMARK SMILES IDX 2 26 1 27 93 28 94 29 98 30 95 31 97 32 96 33 24 34 25 35
REMARK SMILES IDX 26 36 27 37 28 39 29 40 30 41 91 42 31 43 90 44 32 45 33 46
REMARK SMILES IDX 34 47 84 48 35 49 89 50 83 51 85 52 36 53 88 54 82 55 81 56
REMARK SMILES IDX 37 58 69 59 49 60 68 61 50 62 53 63 67 64 86 65 51 66 52 67
REMARK SMILES IDX 66 69 87 70 54 71 38 72 39 73 47 74 40 75 42 76 48 77 41 78
REMARK SMILES IDX 43 79 44 80 45 81 46 82 70 83 71 84 79 85 72 86 74 87 80 88
REMARK SMILES IDX 73 89 75 90 76 91 77 92 78 93 55 94 56 95 64 96 57 97 59 98
REMARK SMILES IDX 65 99 58 100 60 101 61 102 62 103 63 104
REMARK H PARENT 22 5 11 14 3 24 26 38 85 57 53 68
REMARK Flexibility Score: inf
ROOT
ATOM      1  C   UNL A   1      33.422  29.467  26.108  1.00  0.00     0.118 C 
ENDROOT
BRANCH   1   2
ATOM      2  N   UNL A   1      32.646  28.360  26.632  1.00  0.00    -0.352 N 
ATOM      3  C   UNL A   1      31.733  27.550  26.012  1.00  0.00     0.252 C 
ATOM      4  O   UNL A   1      31.227  26.639  26.672  1.00  0.00    -0.269 OA
ATOM      5  H   UNL A   1      32.801  28.159  27.583  1.00  0.00     0.163 HD
BRANCH   3   6
ATOM      6  C   UNL A   1      31.259  27.769  24.619  1.00  0.00     0.052 A 
ATOM      7  C   UNL A   1      31.986  27.582  23.433  1.00  0.00     0.052 A 
ATOM      8  C   UNL A   1      31.396  27.924  22.198  1.00  0.00     0.014 A 
ATOM      9  C   UNL A   1      30.073  28.354  22.125  1.00  0.00     0.001 A 
ATOM     10  C   UNL A   1      29.907  28.164  24.521  1.00  0.00     0.014 A 
ATOM     11  C   UNL A   1      29.318  28.447  23.286  1.00  0.00     0.001 A 
BRANCH   7  12
ATOM     12  C   UNL A   1      33.372  27.082  23.321  1.00  0.00     0.256 C 
ATOM     13  N   UNL A   1      33.767  25.826  23.705  1.00  0.00    -0.322 N 
ATOM     14  H   UNL A   1      34.744  25.709  23.737  1.00  0.00     0.170 HD
ATOM     15  O   UNL A   1      34.231  27.867  22.915  1.00  0.00    -0.269 OA
BRANCH  13  16
ATOM     16  C   UNL A   1      33.051  24.679  24.061  1.00  0.00     0.042 A 
ATOM     17  C   UNL A   1      32.884  22.785  25.546  1.00  0.00     0.041 A 
ATOM     18  C   UNL A   1      31.673  22.413  24.961  1.00  0.00     0.014 A 
ATOM     19  C   UNL A   1      33.595  23.891  25.078  1.00  0.00     0.040 A 
ATOM     20  C   UNL A   1      31.158  23.172  23.914  1.00  0.00     0.003 A 
ATOM     21  C   UNL A   1      31.849  24.299  23.460  1.00  0.00     0.026 A 
BRANCH  17  22
ATOM     22  C   UNL A   1      33.418  21.988  26.662  1.00  0.00     0.251 C 
ATOM     23  N   UNL A   1      34.057  20.805  26.398  1.00  0.00    -0.346 N 
ATOM     24  H   UNL A   1      34.271  20.249  27.183  1.00  0.00     0.164 HD
ATOM     25  O   UNL A   1      33.305  22.411  27.808  1.00  0.00    -0.269 OA
BRANCH  23  26
ATOM     26  C   UNL A   1      34.466  20.257  25.103  1.00  0.00     0.109 C 
ATOM     27  C   UNL A   1      35.990  20.409  24.979  1.00  0.00     0.036 C 
BRANCH  26  28
ATOM     28  C   UNL A   1      34.030  18.805  24.898  1.00  0.00    -0.026 A 
ATOM     29  C   UNL A   1      34.816  17.859  24.220  1.00  0.00     0.006 A 
ATOM     30  C   UNL A   1      32.811  18.359  25.445  1.00  0.00     0.006 A 
ATOM     31  C   UNL A   1      34.375  16.544  24.042  1.00  0.00     0.000 A 
ATOM     32  C   UNL A   1      32.371  17.043  25.272  1.00  0.00     0.000 A 
ATOM     33  C   UNL A   1      33.149  16.139  24.559  1.00  0.00     0.000 A 
ENDBRANCH  26  28
ENDBRANCH  23  26
ENDBRANCH  17  22
ENDBRANCH  13  16
ENDBRANCH   7  12
ENDBRANCH   3   6
ENDBRANCH   1   2
BRANCH   1  34
ATOM     34  C   UNL A   1      32.630  30.735  25.869  1.00  0.00     0.042 C 
BRANCH  34  35
ATOM     35  C   UNL A   1      31.948  31.320  27.098  1.00  0.00     0.118 C 
BRANCH  35  36
ATOM     36  N   UNL A   1      32.251  32.724  27.372  1.00  0.00    -0.352 N 
ATOM     37  C   UNL A   1      33.407  33.321  27.830  1.00  0.00     0.251 C 
ATOM     38  H   UNL A   1      31.507  33.346  27.203  1.00  0.00     0.163 HD
ATOM     39  O   UNL A   1      33.428  34.532  28.045  1.00  0.00    -0.269 OA
BRANCH  37  40
ATOM     40  C   UNL A   1      34.599  32.496  28.119  1.00  0.00     0.039 A 
ATOM     41  C   UNL A   1      35.873  33.062  28.017  1.00  0.00     0.014 A 
ATOM     42  C   UNL A   1      34.454  31.190  28.579  1.00  0.00     0.014 A 
ATOM     43  C   UNL A   1      36.978  32.368  28.524  1.00  0.00     0.010 A 
ATOM     44  C   UNL A   1      35.526  30.552  29.181  1.00  0.00     0.010 A 
ATOM     45  C   UNL A   1      36.797  31.143  29.183  1.00  0.00    -0.014 A 
BRANCH  45  46
ATOM     46  C   UNL A   1      37.878  30.474  29.952  1.00  0.00     0.031 A 
ATOM     47  C   UNL A   1      38.160  30.892  31.370  1.00  0.00     0.074 A 
ATOM     48  C   UNL A   1      38.722  29.635  29.313  1.00  0.00     0.049 A 
ATOM     49  N   UNL A   1      39.169  30.579  32.139  1.00  0.00    -0.248 NA
ATOM     50  C   UNL A   1      37.207  31.832  31.986  1.00  0.00     0.031 C 
ATOM     51  C   UNL A   1      38.623  29.241  27.905  1.00  0.00     0.029 A 
ATOM     52  N   UNL A   1      39.857  29.000  29.751  1.00  0.00    -0.354 N 
ATOM     53  C   UNL A   1      39.005  31.322  33.301  1.00  0.00     0.074 A 
ATOM     54  C   UNL A   1      37.819  32.132  33.122  1.00  0.00     0.031 C 
ATOM     55  C   UNL A   1      39.652  28.436  27.596  1.00  0.00     0.029 A 
ATOM     56  C   UNL A   1      40.503  28.282  28.769  1.00  0.00     0.049 A 
ATOM     57  H   UNL A   1      40.181  29.053  30.679  1.00  0.00     0.167 HD
ATOM     58  C   UNL A   1      39.752  31.308  34.430  1.00  0.00     0.034 A 
ATOM     59  C   UNL A   1      41.658  27.588  28.806  1.00  0.00     0.034 A 
ATOM     60  C   UNL A   1      40.881  30.441  34.628  1.00  0.00     0.049 A 
ATOM     61  C   UNL A   1      42.425  27.522  30.098  1.00  0.00     0.074 A 
ATOM     62  C   UNL A   1      41.621  30.242  35.779  1.00  0.00     0.029 A 
ATOM     63  N   UNL A   1      41.431  29.627  33.650  1.00  0.00    -0.354 N 
ATOM     64  N   UNL A   1      42.150  28.089  31.248  1.00  0.00    -0.248 NA
ATOM     65  C   UNL A   1      43.644  26.700  30.109  1.00  0.00     0.031 C 
ATOM     66  C   UNL A   1      42.626  29.313  35.495  1.00  0.00     0.029 A 
ATOM     67  C   UNL A   1      42.506  28.927  34.168  1.00  0.00     0.049 A 
ATOM     68  H   UNL A   1      41.104  29.555  32.725  1.00  0.00     0.167 HD
ATOM     69  C   UNL A   1      43.143  27.672  32.126  1.00  0.00     0.074 A 
ATOM     70  C   UNL A   1      44.014  26.786  31.380  1.00  0.00     0.031 C 
ATOM     71  C   UNL A   1      43.329  28.009  33.425  1.00  0.00     0.034 A 
BRANCH  58  72
ATOM     72  C   UNL A   1      39.322  32.196  35.566  1.00  0.00     0.023 A 
ATOM     73  C   UNL A   1      38.441  31.689  36.544  1.00  0.00     0.012 A 
ATOM     74  C   UNL A   1      39.820  33.507  35.699  1.00  0.00     0.148 A 
ATOM     75  C   UNL A   1      38.032  32.482  37.614  1.00  0.00     0.002 A 
ATOM     76  C   UNL A   1      39.439  34.278  36.793  1.00  0.00     0.091 A 
ATOM     77  F   UNL A   1      40.638  33.982  34.749  1.00  0.00    -0.205 F 
ATOM     78  C   UNL A   1      38.538  33.772  37.744  1.00  0.00     0.022 A 
BRANCH  76  79
ATOM     79  S   UNL A   1      40.092  35.925  37.090  1.00  0.00     0.127 S 
ATOM     80  O   UNL A   1      39.384  36.307  38.311  1.00  0.00    -0.237 OA
ATOM     81  O   UNL A   1      41.521  35.664  37.271  1.00  0.00    -0.237 OA
ATOM     82  O   UNL A   1      39.764  36.705  35.905  1.00  0.00    -0.744 OA
ENDBRANCH  76  79
ENDBRANCH  58  72
BRANCH  59  83
ATOM     83  C   UNL A   1      42.112  26.834  27.603  1.00  0.00     0.023 A 
ATOM     84  C   UNL A   1      42.817  27.519  26.594  1.00  0.00     0.012 A 
ATOM     85  C   UNL A   1      41.893  25.449  27.466  1.00  0.00     0.148 A 
ATOM     86  C   UNL A   1      43.274  26.847  25.460  1.00  0.00     0.002 A 
ATOM     87  C   UNL A   1      42.394  24.775  26.356  1.00  0.00     0.091 A 
ATOM     88  F   UNL A   1      41.210  24.815  28.430  1.00  0.00    -0.205 F 
ATOM     89  C   UNL A   1      43.072  25.474  25.346  1.00  0.00     0.022 A 
BRANCH  87  90
ATOM     90  S   UNL A   1      42.292  22.989  26.190  1.00  0.00     0.127 S 
ATOM     91  O   UNL A   1      43.071  22.535  27.339  1.00  0.00    -0.237 OA
ATOM     92  O   UNL A   1      40.850  22.755  26.293  1.00  0.00    -0.237 OA
ATOM     93  O   UNL A   1      42.854  22.686  24.881  1.00  0.00    -0.744 OA
ENDBRANCH  87  90
ENDBRANCH  59  83
BRANCH  71  94
ATOM     94  C   UNL A   1      44.510  27.410  34.141  1.00  0.00     0.023 A 
ATOM     95  C   UNL A   1      45.746  28.083  34.118  1.00  0.00     0.012 A 
ATOM     96  C   UNL A   1      44.368  26.241  34.914  1.00  0.00     0.148 A 
ATOM     97  C   UNL A   1      46.832  27.593  34.842  1.00  0.00     0.002 A 
ATOM     98  C   UNL A   1      45.441  25.783  35.669  1.00  0.00     0.091 A 
ATOM     99  F   UNL A   1      43.185  25.609  34.907  1.00  0.00    -0.205 F 
ATOM    100  C   UNL A   1      46.675  26.452  35.626  1.00  0.00     0.022 A 
BRANCH  98 101
ATOM    101  S   UNL A   1      45.308  24.378  36.781  1.00  0.00     0.127 S 
ATOM    102  O   UNL A   1      44.165  24.760  37.608  1.00  0.00    -0.237 OA
ATOM    103  O   UNL A   1      45.050  23.275  35.855  1.00  0.00    -0.237 OA
ATOM    104  O   UNL A   1      46.584  24.296  37.479  1.00  0.00    -0.744 OA
ENDBRANCH  98 101
ENDBRANCH  71  94
ENDBRANCH  45  46
ENDBRANCH  37  40
ENDBRANCH  35  36
ENDBRANCH  34  35
ENDBRANCH   1  34
TORSDOF 18
ENDMDL
