MODEL 1
REMARK VINA RESULT:     -13.1      0.000      0.000
REMARK SMILES CC(=O)NS(=O)(=O)c1ccc(-c2ccn(C(F)F)c(=O)c2)cc1C(=O)NCCCNC(=O)c1ccc(-c2c3nc(c(-c4cccc(S(=O)(=O)[O-])c4F)c4ccc([nH]4)c(-c4cccc(S(=O)(=O)[O-])c4F)c4nc(c(-c5cccc(S(=O)(=O)[O-])c5F)c5ccc2[nH]5)C=C4)C=C3)cc1
REMARK SMILES IDX 28 1 27 2 26 3 24 4 25 5 23 7 8 8 9 9 10 10 22 11 11 12 5 13
REMARK SMILES IDX 6 14 7 15 4 16 1 17 2 18 3 19 12 21 13 22 21 23 14 24 19 25
REMARK SMILES IDX 15 26 20 27 16 28 17 29 18 30 29 31 30 32 31 33 32 35 33 36
REMARK SMILES IDX 34 37 95 38 35 39 94 40 36 41 37 42 38 43 88 44 39 45 93 46
REMARK SMILES IDX 87 47 89 48 40 49 92 50 86 51 85 52 41 54 73 55 53 56 72 57
REMARK SMILES IDX 54 58 57 59 71 60 90 61 55 62 56 63 70 65 91 66 58 67 42 68
REMARK SMILES IDX 43 69 51 70 44 71 46 72 52 73 45 74 47 75 48 76 49 77 50 78
REMARK SMILES IDX 74 79 75 80 83 81 76 82 78 83 84 84 77 85 79 86 80 87 81 88
REMARK SMILES IDX 82 89 59 90 60 91 68 92 61 93 63 94 69 95 62 96 64 97 65 98
REMARK SMILES IDX 66 99 67 100
REMARK H PARENT 26 6 4 20 30 34 89 53 57 64
REMARK Flexibility Score: inf
ROOT
ATOM      1  C   UNL A   1      33.263  27.839  26.787  1.00  0.00     0.042 C 
ENDROOT
BRANCH   1   2
ATOM      2  C   UNL A   1      31.843  28.247  27.146  1.00  0.00     0.118 C 
BRANCH   2   3
ATOM      3  N   UNL A   1      30.977  27.102  27.143  1.00  0.00    -0.352 N 
ATOM      4  C   UNL A   1      30.574  26.149  26.264  1.00  0.00     0.252 C 
ATOM      5  O   UNL A   1      29.672  25.439  26.737  1.00  0.00    -0.269 OA
ATOM      6  H   UNL A   1      30.557  26.972  28.024  1.00  0.00     0.163 HD
BRANCH   4   7
ATOM      7  C   UNL A   1      31.096  25.742  24.911  1.00  0.00     0.060 A 
ATOM      8  C   UNL A   1      31.006  26.243  23.599  1.00  0.00     0.100 A 
ATOM      9  C   UNL A   1      31.383  25.416  22.502  1.00  0.00     0.024 A 
ATOM     10  C   UNL A   1      31.945  24.163  22.665  1.00  0.00     0.010 A 
ATOM     11  C   UNL A   1      31.744  24.470  25.033  1.00  0.00     0.024 A 
ATOM     12  C   UNL A   1      32.176  23.701  23.945  1.00  0.00    -0.017 A 
BRANCH   8  13
ATOM     13  S   UNL A   1      30.402  27.807  23.043  1.00  0.00     0.264 S 
ATOM     14  O   UNL A   1      30.571  27.834  21.617  1.00  0.00    -0.201 OA
ATOM     15  O   UNL A   1      31.019  28.845  23.848  1.00  0.00    -0.201 OA
BRANCH  13  16
ATOM     16  N   UNL A   1      28.796  27.934  23.404  1.00  0.00    -0.249 N 
ATOM     17  C   UNL A   1      28.056  30.068  22.286  1.00  0.00     0.115 C 
ATOM     18  C   UNL A   1      27.759  28.784  22.997  1.00  0.00     0.230 C 
ATOM     19  O   UNL A   1      26.620  28.525  23.367  1.00  0.00    -0.274 OA
ATOM     20  H   UNL A   1      28.497  27.256  24.053  1.00  0.00     0.183 HD
ENDBRANCH  13  16
ENDBRANCH   8  13
BRANCH  12  21
ATOM     21  C   UNL A   1      32.871  22.424  24.140  1.00  0.00    -0.011 A 
ATOM     22  C   UNL A   1      34.175  22.306  24.756  1.00  0.00     0.027 A 
ATOM     23  C   UNL A   1      32.227  21.319  23.729  1.00  0.00     0.080 A 
ATOM     24  C   UNL A   1      34.733  21.101  24.918  1.00  0.00     0.095 A 
ATOM     25  C   UNL A   1      32.833  19.977  23.904  1.00  0.00     0.255 A 
ATOM     26  N   UNL A   1      34.082  19.952  24.502  1.00  0.00    -0.258 N 
ATOM     27  O   UNL A   1      32.200  18.999  23.517  1.00  0.00    -0.269 OA
BRANCH  26  28
ATOM     28  C   UNL A   1      34.695  18.663  24.659  1.00  0.00     0.451 C 
ATOM     29  F   UNL A   1      34.385  17.843  23.624  1.00  0.00    -0.185 F 
ATOM     30  F   UNL A   1      36.045  18.774  24.714  1.00  0.00    -0.185 F 
ENDBRANCH  26  28
ENDBRANCH  12  21
ENDBRANCH   4   7
ENDBRANCH   2   3
ENDBRANCH   1   2
BRANCH   1  31
ATOM     31  C   UNL A   1      33.983  28.874  25.952  1.00  0.00     0.118 C 
BRANCH  31  32
ATOM     32  N   UNL A   1      33.829  30.201  26.532  1.00  0.00    -0.352 N 
ATOM     33  C   UNL A   1      34.510  30.783  27.572  1.00  0.00     0.251 C 
ATOM     34  H   UNL A   1      33.134  30.762  26.117  1.00  0.00     0.163 HD
ATOM     35  O   UNL A   1      34.033  31.779  28.109  1.00  0.00    -0.269 OA
BRANCH  33  36
ATOM     36  C   UNL A   1      35.801  30.225  28.041  1.00  0.00     0.039 A 
ATOM     37  C   UNL A   1      35.856  29.598  29.289  1.00  0.00     0.014 A 
ATOM     38  C   UNL A   1      36.968  30.361  27.286  1.00  0.00     0.014 A 
ATOM     39  C   UNL A   1      37.073  29.100  29.762  1.00  0.00     0.010 A 
ATOM     40  C   UNL A   1      38.142  29.743  27.693  1.00  0.00     0.010 A 
ATOM     41  C   UNL A   1      38.225  29.156  28.960  1.00  0.00    -0.014 A 
BRANCH  41  42
ATOM     42  C   UNL A   1      39.537  28.672  29.456  1.00  0.00     0.031 A 
ATOM     43  C   UNL A   1      40.218  29.383  30.602  1.00  0.00     0.074 A 
ATOM     44  C   UNL A   1      40.141  27.634  28.846  1.00  0.00     0.049 A 
ATOM     45  N   UNL A   1      41.369  29.122  31.166  1.00  0.00    -0.248 NA
ATOM     46  C   UNL A   1      39.537  30.563  31.167  1.00  0.00     0.031 C 
ATOM     47  C   UNL A   1      39.627  26.927  27.671  1.00  0.00     0.029 A 
ATOM     48  N   UNL A   1      41.327  27.002  29.120  1.00  0.00    -0.354 N 
ATOM     49  C   UNL A   1      41.566  30.124  32.110  1.00  0.00     0.074 A 
ATOM     50  C   UNL A   1      40.442  31.025  32.015  1.00  0.00     0.031 C 
ATOM     51  C   UNL A   1      40.483  25.947  27.337  1.00  0.00     0.029 A 
ATOM     52  C   UNL A   1      41.619  25.978  28.251  1.00  0.00     0.049 A 
ATOM     53  H   UNL A   1      41.913  27.258  29.869  1.00  0.00     0.167 HD
ATOM     54  C   UNL A   1      42.575  30.265  33.002  1.00  0.00     0.034 A 
ATOM     55  C   UNL A   1      42.686  25.158  28.197  1.00  0.00     0.034 A 
ATOM     56  C   UNL A   1      43.662  29.334  33.128  1.00  0.00     0.049 A 
ATOM     57  C   UNL A   1      43.756  25.293  29.245  1.00  0.00     0.074 A 
ATOM     58  C   UNL A   1      44.684  29.327  34.060  1.00  0.00     0.029 A 
ATOM     59  N   UNL A   1      43.873  28.250  32.291  1.00  0.00    -0.354 N 
ATOM     60  N   UNL A   1      43.844  26.152  30.231  1.00  0.00    -0.248 NA
ATOM     61  C   UNL A   1      44.850  24.314  29.203  1.00  0.00     0.031 C 
ATOM     62  C   UNL A   1      45.535  28.259  33.762  1.00  0.00     0.029 A 
ATOM     63  C   UNL A   1      45.014  27.571  32.677  1.00  0.00     0.049 A 
ATOM     64  H   UNL A   1      43.297  28.001  31.532  1.00  0.00     0.167 HD
ATOM     65  C   UNL A   1      44.976  25.792  30.952  1.00  0.00     0.074 A 
ATOM     66  C   UNL A   1      45.527  24.621  30.300  1.00  0.00     0.031 C 
ATOM     67  C   UNL A   1      45.519  26.380  32.046  1.00  0.00     0.034 A 
BRANCH  54  68
ATOM     68  C   UNL A   1      42.531  31.444  33.940  1.00  0.00     0.023 A 
ATOM     69  C   UNL A   1      43.210  32.635  33.610  1.00  0.00     0.012 A 
ATOM     70  C   UNL A   1      41.761  31.393  35.118  1.00  0.00     0.148 A 
ATOM     71  C   UNL A   1      43.151  33.744  34.452  1.00  0.00     0.002 A 
ATOM     72  C   UNL A   1      41.664  32.520  35.926  1.00  0.00     0.091 A 
ATOM     73  F   UNL A   1      41.141  30.246  35.428  1.00  0.00    -0.205 F 
ATOM     74  C   UNL A   1      42.369  33.692  35.603  1.00  0.00     0.022 A 
BRANCH  72  75
ATOM     75  S   UNL A   1      40.614  32.583  37.382  1.00  0.00     0.127 S 
ATOM     76  O   UNL A   1      40.291  34.008  37.451  1.00  0.00    -0.237 OA
ATOM     77  O   UNL A   1      39.497  31.723  36.990  1.00  0.00    -0.237 OA
ATOM     78  O   UNL A   1      41.419  32.076  38.485  1.00  0.00    -0.744 OA
ENDBRANCH  72  75
ENDBRANCH  54  68
BRANCH  55  79
ATOM     79  C   UNL A   1      42.768  24.102  27.148  1.00  0.00     0.023 A 
ATOM     80  C   UNL A   1      43.507  24.338  25.972  1.00  0.00     0.012 A 
ATOM     81  C   UNL A   1      42.122  22.862  27.315  1.00  0.00     0.148 A 
ATOM     82  C   UNL A   1      43.560  23.377  24.961  1.00  0.00     0.002 A 
ATOM     83  C   UNL A   1      42.229  21.887  26.331  1.00  0.00     0.091 A 
ATOM     84  F   UNL A   1      41.419  22.660  28.438  1.00  0.00    -0.205 F 
ATOM     85  C   UNL A   1      42.930  22.150  25.144  1.00  0.00     0.022 A 
BRANCH  83  86
ATOM     86  S   UNL A   1      41.560  20.234  26.539  1.00  0.00     0.127 S 
ATOM     87  O   UNL A   1      40.122  20.491  26.528  1.00  0.00    -0.237 OA
ATOM     88  O   UNL A   1      42.073  19.550  25.351  1.00  0.00    -0.237 OA
ATOM     89  O   UNL A   1      42.106  19.745  27.797  1.00  0.00    -0.744 OA
ENDBRANCH  83  86
ENDBRANCH  55  79
BRANCH  67  90
ATOM     90  C   UNL A   1      46.737  25.732  32.649  1.00  0.00     0.023 A 
ATOM     91  C   UNL A   1      48.028  26.134  32.254  1.00  0.00     0.012 A 
ATOM     92  C   UNL A   1      46.595  24.747  33.646  1.00  0.00     0.148 A 
ATOM     93  C   UNL A   1      49.157  25.527  32.802  1.00  0.00     0.002 A 
ATOM     94  C   UNL A   1      47.724  24.188  34.231  1.00  0.00     0.091 A 
ATOM     95  F   UNL A   1      45.358  24.364  33.998  1.00  0.00    -0.205 F 
ATOM     96  C   UNL A   1      49.006  24.563  33.797  1.00  0.00     0.022 A 
BRANCH  94  97
ATOM     97  S   UNL A   1      47.621  23.022  35.591  1.00  0.00     0.127 S 
ATOM     98  O   UNL A   1      46.943  23.817  36.613  1.00  0.00    -0.237 OA
ATOM     99  O   UNL A   1      46.810  21.947  35.018  1.00  0.00    -0.237 OA
ATOM    100  O   UNL A   1      48.992  22.642  35.899  1.00  0.00    -0.744 OA
ENDBRANCH  94  97
ENDBRANCH  67  90
ENDBRANCH  41  42
ENDBRANCH  33  36
ENDBRANCH  31  32
ENDBRANCH   1  31
TORSDOF 17
ENDMDL
MODEL 2
REMARK VINA RESULT:     -12.8      4.993     10.020
REMARK SMILES CC(=O)NS(=O)(=O)c1ccc(-c2ccn(C(F)F)c(=O)c2)cc1C(=O)NCCCNC(=O)c1ccc(-c2c3nc(c(-c4cccc(S(=O)(=O)[O-])c4F)c4ccc([nH]4)c(-c4cccc(S(=O)(=O)[O-])c4F)c4nc(c(-c5cccc(S(=O)(=O)[O-])c5F)c5ccc2[nH]5)C=C4)C=C3)cc1
REMARK SMILES IDX 28 1 27 2 26 3 24 4 25 5 23 7 8 8 9 9 10 10 22 11 11 12 5 13
REMARK SMILES IDX 6 14 7 15 4 16 1 17 2 18 3 19 12 21 13 22 21 23 14 24 19 25
REMARK SMILES IDX 15 26 20 27 16 28 17 29 18 30 29 31 30 32 31 33 32 35 33 36
REMARK SMILES IDX 34 37 95 38 35 39 94 40 36 41 37 42 38 43 88 44 39 45 93 46
REMARK SMILES IDX 87 47 89 48 40 49 92 50 86 51 85 52 41 54 73 55 53 56 72 57
REMARK SMILES IDX 54 58 57 59 71 60 90 61 55 62 56 63 70 65 91 66 58 67 42 68
REMARK SMILES IDX 43 69 51 70 44 71 46 72 52 73 45 74 47 75 48 76 49 77 50 78
REMARK SMILES IDX 74 79 75 80 83 81 76 82 78 83 84 84 77 85 79 86 80 87 81 88
REMARK SMILES IDX 82 89 59 90 60 91 68 92 61 93 63 94 69 95 62 96 64 97 65 98
REMARK SMILES IDX 66 99 67 100
REMARK H PARENT 26 6 4 20 30 34 89 53 57 64
REMARK Flexibility Score: inf
ROOT
ATOM      1  C   UNL A   1      35.788  23.796  26.172  1.00  0.00     0.042 C 
ENDROOT
BRANCH   1   2
ATOM      2  C   UNL A   1      34.854  22.642  26.498  1.00  0.00     0.118 C 
BRANCH   2   3
ATOM      3  N   UNL A   1      33.570  23.137  26.905  1.00  0.00    -0.352 N 
ATOM      4  C   UNL A   1      32.537  23.825  26.355  1.00  0.00     0.252 C 
ATOM      5  O   UNL A   1      31.684  24.133  27.203  1.00  0.00    -0.269 OA
ATOM      6  H   UNL A   1      33.386  22.915  27.847  1.00  0.00     0.163 HD
BRANCH   4   7
ATOM      7  C   UNL A   1      32.200  24.163  24.926  1.00  0.00     0.060 A 
ATOM      8  C   UNL A   1      32.386  23.553  23.671  1.00  0.00     0.100 A 
ATOM      9  C   UNL A   1      32.202  24.317  22.483  1.00  0.00     0.024 A 
ATOM     10  C   UNL A   1      31.738  25.620  22.493  1.00  0.00     0.010 A 
ATOM     11  C   UNL A   1      31.657  25.487  24.883  1.00  0.00     0.024 A 
ATOM     12  C   UNL A   1      31.413  26.199  23.702  1.00  0.00    -0.017 A 
BRANCH   8  13
ATOM     13  S   UNL A   1      32.905  21.907  23.299  1.00  0.00     0.264 S 
ATOM     14  O   UNL A   1      34.341  21.922  23.263  1.00  0.00    -0.201 OA
ATOM     15  O   UNL A   1      32.173  21.450  22.131  1.00  0.00    -0.201 OA
BRANCH  13  16
ATOM     16  N   UNL A   1      32.402  20.889  24.498  1.00  0.00    -0.249 N 
ATOM     17  C   UNL A   1      33.106  18.595  23.728  1.00  0.00     0.115 C 
ATOM     18  C   UNL A   1      32.586  19.528  24.777  1.00  0.00     0.230 C 
ATOM     19  O   UNL A   1      32.172  19.096  25.846  1.00  0.00    -0.274 OA
ATOM     20  H   UNL A   1      31.846  21.343  25.173  1.00  0.00     0.183 HD
ENDBRANCH  13  16
ENDBRANCH   8  13
BRANCH  12  21
ATOM     21  C   UNL A   1      30.816  27.539  23.727  1.00  0.00    -0.011 A 
ATOM     22  C   UNL A   1      31.203  28.573  24.661  1.00  0.00     0.027 A 
ATOM     23  C   UNL A   1      29.871  27.793  22.806  1.00  0.00     0.080 A 
ATOM     24  C   UNL A   1      30.625  29.778  24.604  1.00  0.00     0.095 A 
ATOM     25  C   UNL A   1      29.223  29.125  22.730  1.00  0.00     0.255 A 
ATOM     26  N   UNL A   1      29.651  30.058  23.660  1.00  0.00    -0.258 N 
ATOM     27  O   UNL A   1      28.371  29.309  21.866  1.00  0.00    -0.269 OA
BRANCH  26  28
ATOM     28  C   UNL A   1      29.018  31.346  23.617  1.00  0.00     0.451 C 
ATOM     29  F   UNL A   1      27.722  31.270  24.009  1.00  0.00    -0.185 F 
ATOM     30  F   UNL A   1      29.651  32.223  24.436  1.00  0.00    -0.185 F 
ENDBRANCH  26  28
ENDBRANCH  12  21
ENDBRANCH   4   7
ENDBRANCH   2   3
ENDBRANCH   1   2
BRANCH   1  31
ATOM     31  C   UNL A   1      36.909  23.404  25.236  1.00  0.00     0.118 C 
BRANCH  31  32
ATOM     32  N   UNL A   1      37.809  22.456  25.878  1.00  0.00    -0.352 N 
ATOM     33  C   UNL A   1      39.008  22.680  26.508  1.00  0.00     0.251 C 
ATOM     34  H   UNL A   1      37.514  21.517  25.855  1.00  0.00     0.163 HD
ATOM     35  O   UNL A   1      39.758  21.729  26.710  1.00  0.00    -0.269 OA
BRANCH  33  36
ATOM     36  C   UNL A   1      39.394  24.043  26.942  1.00  0.00     0.039 A 
ATOM     37  C   UNL A   1      40.017  24.897  26.026  1.00  0.00     0.014 A 
ATOM     38  C   UNL A   1      39.196  24.470  28.257  1.00  0.00     0.014 A 
ATOM     39  C   UNL A   1      40.422  26.172  26.431  1.00  0.00     0.010 A 
ATOM     40  C   UNL A   1      39.469  25.783  28.617  1.00  0.00     0.010 A 
ATOM     41  C   UNL A   1      40.137  26.631  27.727  1.00  0.00    -0.014 A 
BRANCH  41  42
ATOM     42  C   UNL A   1      40.593  27.965  28.193  1.00  0.00     0.031 A 
ATOM     43  C   UNL A   1      42.065  28.299  28.195  1.00  0.00     0.074 A 
ATOM     44  C   UNL A   1      39.694  28.851  28.663  1.00  0.00     0.049 A 
ATOM     45  N   UNL A   1      42.660  29.400  28.577  1.00  0.00    -0.248 NA
ATOM     46  C   UNL A   1      42.998  27.250  27.745  1.00  0.00     0.031 C 
ATOM     47  C   UNL A   1      38.256  28.609  28.799  1.00  0.00     0.029 A 
ATOM     48  N   UNL A   1      39.859  30.131  29.128  1.00  0.00    -0.354 N 
ATOM     49  C   UNL A   1      44.024  29.158  28.456  1.00  0.00     0.074 A 
ATOM     50  C   UNL A   1      44.176  27.793  28.011  1.00  0.00     0.031 C 
ATOM     51  C   UNL A   1      37.668  29.710  29.295  1.00  0.00     0.029 A 
ATOM     52  C   UNL A   1      38.689  30.722  29.542  1.00  0.00     0.049 A 
ATOM     53  H   UNL A   1      40.733  30.583  29.162  1.00  0.00     0.167 HD
ATOM     54  C   UNL A   1      45.059  30.005  28.664  1.00  0.00     0.034 A 
ATOM     55  C   UNL A   1      38.467  31.942  30.067  1.00  0.00     0.034 A 
ATOM     56  C   UNL A   1      44.898  31.379  29.054  1.00  0.00     0.049 A 
ATOM     57  C   UNL A   1      39.626  32.887  30.218  1.00  0.00     0.074 A 
ATOM     58  C   UNL A   1      45.871  32.352  29.197  1.00  0.00     0.029 A 
ATOM     59  N   UNL A   1      43.686  31.972  29.371  1.00  0.00    -0.354 N 
ATOM     60  N   UNL A   1      40.894  32.690  29.947  1.00  0.00    -0.248 NA
ATOM     61  C   UNL A   1      39.319  34.239  30.703  1.00  0.00     0.031 C 
ATOM     62  C   UNL A   1      45.250  33.524  29.638  1.00  0.00     0.029 A 
ATOM     63  C   UNL A   1      43.885  33.295  29.719  1.00  0.00     0.049 A 
ATOM     64  H   UNL A   1      42.813  31.517  29.352  1.00  0.00     0.167 HD
ATOM     65  C   UNL A   1      41.528  33.903  30.186  1.00  0.00     0.074 A 
ATOM     66  C   UNL A   1      40.499  34.834  30.601  1.00  0.00     0.031 C 
ATOM     67  C   UNL A   1      42.842  34.219  30.082  1.00  0.00     0.034 A 
BRANCH  54  68
ATOM     68  C   UNL A   1      46.455  29.487  28.433  1.00  0.00     0.023 A 
ATOM     69  C   UNL A   1      47.071  29.653  27.174  1.00  0.00     0.012 A 
ATOM     70  C   UNL A   1      47.183  28.895  29.483  1.00  0.00     0.148 A 
ATOM     71  C   UNL A   1      48.375  29.209  26.956  1.00  0.00     0.002 A 
ATOM     72  C   UNL A   1      48.499  28.502  29.273  1.00  0.00     0.091 A 
ATOM     73  F   UNL A   1      46.574  28.724  30.665  1.00  0.00    -0.205 F 
ATOM     74  C   UNL A   1      49.092  28.645  28.008  1.00  0.00     0.022 A 
BRANCH  72  75
ATOM     75  S   UNL A   1      49.537  27.846  30.584  1.00  0.00     0.127 S 
ATOM     76  O   UNL A   1      48.867  26.581  30.886  1.00  0.00    -0.237 OA
ATOM     77  O   UNL A   1      50.828  27.707  29.910  1.00  0.00    -0.237 OA
ATOM     78  O   UNL A   1      49.509  28.833  31.655  1.00  0.00    -0.744 OA
ENDBRANCH  72  75
ENDBRANCH  54  68
BRANCH  55  79
ATOM     79  C   UNL A   1      37.083  32.360  30.434  1.00  0.00     0.023 A 
ATOM     80  C   UNL A   1      36.614  32.157  31.747  1.00  0.00     0.012 A 
ATOM     81  C   UNL A   1      36.234  32.964  29.487  1.00  0.00     0.148 A 
ATOM     82  C   UNL A   1      35.309  32.504  32.097  1.00  0.00     0.002 A 
ATOM     83  C   UNL A   1      34.955  33.361  29.859  1.00  0.00     0.091 A 
ATOM     84  F   UNL A   1      36.696  33.142  28.242  1.00  0.00    -0.205 F 
ATOM     85  C   UNL A   1      34.483  33.114  31.157  1.00  0.00     0.022 A 
BRANCH  83  86
ATOM     86  S   UNL A   1      33.872  34.270  28.753  1.00  0.00     0.127 S 
ATOM     87  O   UNL A   1      33.504  33.241  27.784  1.00  0.00    -0.237 OA
ATOM     88  O   UNL A   1      32.795  34.680  29.655  1.00  0.00    -0.237 OA
ATOM     89  O   UNL A   1      34.673  35.370  28.234  1.00  0.00    -0.744 OA
ENDBRANCH  83  86
ENDBRANCH  55  79
BRANCH  67  90
ATOM     90  C   UNL A   1      43.238  35.644  30.360  1.00  0.00     0.023 A 
ATOM     91  C   UNL A   1      43.660  36.029  31.648  1.00  0.00     0.012 A 
ATOM     92  C   UNL A   1      43.229  36.598  29.323  1.00  0.00     0.148 A 
ATOM     93  C   UNL A   1      44.014  37.352  31.911  1.00  0.00     0.002 A 
ATOM     94  C   UNL A   1      43.641  37.899  29.577  1.00  0.00     0.091 A 
ATOM     95  F   UNL A   1      42.809  36.218  28.106  1.00  0.00    -0.205 F 
ATOM     96  C   UNL A   1      44.015  38.283  30.875  1.00  0.00     0.022 A 
BRANCH  94  97
ATOM     97  S   UNL A   1      43.775  39.132  28.280  1.00  0.00     0.127 S 
ATOM     98  O   UNL A   1      44.184  40.315  29.035  1.00  0.00    -0.237 OA
ATOM     99  O   UNL A   1      44.817  38.567  27.421  1.00  0.00    -0.237 OA
ATOM    100  O   UNL A   1      42.459  39.207  27.660  1.00  0.00    -0.744 OA
ENDBRANCH  94  97
ENDBRANCH  67  90
ENDBRANCH  41  42
ENDBRANCH  33  36
ENDBRANCH  31  32
ENDBRANCH   1  31
TORSDOF 17
ENDMDL
MODEL 3
REMARK VINA RESULT:     -12.5      1.924      2.249
REMARK SMILES CC(=O)NS(=O)(=O)c1ccc(-c2ccn(C(F)F)c(=O)c2)cc1C(=O)NCCCNC(=O)c1ccc(-c2c3nc(c(-c4cccc(S(=O)(=O)[O-])c4F)c4ccc([nH]4)c(-c4cccc(S(=O)(=O)[O-])c4F)c4nc(c(-c5cccc(S(=O)(=O)[O-])c5F)c5ccc2[nH]5)C=C4)C=C3)cc1
REMARK SMILES IDX 28 1 27 2 26 3 24 4 25 5 23 7 8 8 9 9 10 10 22 11 11 12 5 13
REMARK SMILES IDX 6 14 7 15 4 16 1 17 2 18 3 19 12 21 13 22 21 23 14 24 19 25
REMARK SMILES IDX 15 26 20 27 16 28 17 29 18 30 29 31 30 32 31 33 32 35 33 36
REMARK SMILES IDX 34 37 95 38 35 39 94 40 36 41 37 42 38 43 88 44 39 45 93 46
REMARK SMILES IDX 87 47 89 48 40 49 92 50 86 51 85 52 41 54 73 55 53 56 72 57
REMARK SMILES IDX 54 58 57 59 71 60 90 61 55 62 56 63 70 65 91 66 58 67 42 68
REMARK SMILES IDX 43 69 51 70 44 71 46 72 52 73 45 74 47 75 48 76 49 77 50 78
REMARK SMILES IDX 74 79 75 80 83 81 76 82 78 83 84 84 77 85 79 86 80 87 81 88
REMARK SMILES IDX 82 89 59 90 60 91 68 92 61 93 63 94 69 95 62 96 64 97 65 98
REMARK SMILES IDX 66 99 67 100
REMARK H PARENT 26 6 4 20 30 34 89 53 57 64
REMARK Flexibility Score: inf
ROOT
ATOM      1  C   UNL A   1      33.323  27.867  26.835  1.00  0.00     0.042 C 
ENDROOT
BRANCH   1   2
ATOM      2  C   UNL A   1      31.943  28.317  27.290  1.00  0.00     0.118 C 
BRANCH   2   3
ATOM      3  N   UNL A   1      31.018  27.221  27.242  1.00  0.00    -0.352 N 
ATOM      4  C   UNL A   1      30.584  26.310  26.333  1.00  0.00     0.252 C 
ATOM      5  O   UNL A   1      29.636  25.639  26.771  1.00  0.00    -0.269 OA
ATOM      6  H   UNL A   1      30.573  27.094  28.112  1.00  0.00     0.163 HD
BRANCH   4   7
ATOM      7  C   UNL A   1      31.113  25.905  24.982  1.00  0.00     0.060 A 
ATOM      8  C   UNL A   1      31.006  26.392  23.666  1.00  0.00     0.100 A 
ATOM      9  C   UNL A   1      31.401  25.567  22.575  1.00  0.00     0.024 A 
ATOM     10  C   UNL A   1      31.997  24.330  22.747  1.00  0.00     0.010 A 
ATOM     11  C   UNL A   1      31.795  24.653  25.113  1.00  0.00     0.024 A 
ATOM     12  C   UNL A   1      32.244  23.885  24.030  1.00  0.00    -0.017 A 
BRANCH   8  13
ATOM     13  S   UNL A   1      30.359  27.935  23.099  1.00  0.00     0.264 S 
ATOM     14  O   UNL A   1      30.612  27.998  21.686  1.00  0.00    -0.201 OA
ATOM     15  O   UNL A   1      30.873  28.987  23.957  1.00  0.00    -0.201 OA
BRANCH  13  16
ATOM     16  N   UNL A   1      28.730  27.976  23.362  1.00  0.00    -0.249 N 
ATOM     17  C   UNL A   1      28.054  30.343  22.820  1.00  0.00     0.115 C 
ATOM     18  C   UNL A   1      27.717  28.917  23.129  1.00  0.00     0.230 C 
ATOM     19  O   UNL A   1      26.557  28.579  23.330  1.00  0.00    -0.274 OA
ATOM     20  H   UNL A   1      28.391  27.150  23.778  1.00  0.00     0.183 HD
ENDBRANCH  13  16
ENDBRANCH   8  13
BRANCH  12  21
ATOM     21  C   UNL A   1      32.974  22.629  24.234  1.00  0.00    -0.011 A 
ATOM     22  C   UNL A   1      34.416  22.524  24.195  1.00  0.00     0.027 A 
ATOM     23  C   UNL A   1      32.232  21.537  24.486  1.00  0.00     0.080 A 
ATOM     24  C   UNL A   1      35.007  21.343  24.413  1.00  0.00     0.095 A 
ATOM     25  C   UNL A   1      32.875  20.223  24.732  1.00  0.00     0.255 A 
ATOM     26  N   UNL A   1      34.258  20.209  24.677  1.00  0.00    -0.258 N 
ATOM     27  O   UNL A   1      32.153  19.258  24.965  1.00  0.00    -0.269 OA
BRANCH  26  28
ATOM     28  C   UNL A   1      34.897  18.940  24.889  1.00  0.00     0.451 C 
ATOM     29  F   UNL A   1      34.608  18.071  23.889  1.00  0.00    -0.185 F 
ATOM     30  F   UNL A   1      36.245  19.081  24.943  1.00  0.00    -0.185 F 
ENDBRANCH  26  28
ENDBRANCH  12  21
ENDBRANCH   4   7
ENDBRANCH   2   3
ENDBRANCH   1   2
BRANCH   1  31
ATOM     31  C   UNL A   1      34.019  28.884  25.959  1.00  0.00     0.118 C 
BRANCH  31  32
ATOM     32  N   UNL A   1      33.879  30.223  26.513  1.00  0.00    -0.352 N 
ATOM     33  C   UNL A   1      34.565  30.816  27.543  1.00  0.00     0.251 C 
ATOM     34  H   UNL A   1      33.191  30.784  26.087  1.00  0.00     0.163 HD
ATOM     35  O   UNL A   1      34.098  31.828  28.062  1.00  0.00    -0.269 OA
BRANCH  33  36
ATOM     36  C   UNL A   1      35.849  30.254  28.025  1.00  0.00     0.039 A 
ATOM     37  C   UNL A   1      35.906  29.686  29.302  1.00  0.00     0.014 A 
ATOM     38  C   UNL A   1      37.009  30.327  27.251  1.00  0.00     0.014 A 
ATOM     39  C   UNL A   1      37.117  29.185  29.784  1.00  0.00     0.010 A 
ATOM     40  C   UNL A   1      38.175  29.703  27.675  1.00  0.00     0.010 A 
ATOM     41  C   UNL A   1      38.260  29.176  28.968  1.00  0.00    -0.014 A 
BRANCH  41  42
ATOM     42  C   UNL A   1      39.568  28.688  29.472  1.00  0.00     0.031 A 
ATOM     43  C   UNL A   1      40.392  29.555  30.393  1.00  0.00     0.074 A 
ATOM     44  C   UNL A   1      40.038  27.494  29.062  1.00  0.00     0.049 A 
ATOM     45  N   UNL A   1      41.561  29.313  30.927  1.00  0.00    -0.248 NA
ATOM     46  C   UNL A   1      39.851  30.884  30.734  1.00  0.00     0.031 C 
ATOM     47  C   UNL A   1      39.378  26.608  28.101  1.00  0.00     0.029 A 
ATOM     48  N   UNL A   1      41.190  26.826  29.390  1.00  0.00    -0.354 N 
ATOM     49  C   UNL A   1      41.911  30.467  31.619  1.00  0.00     0.074 A 
ATOM     50  C   UNL A   1      40.855  31.428  31.405  1.00  0.00     0.031 C 
ATOM     51  C   UNL A   1      40.126  25.505  27.932  1.00  0.00     0.029 A 
ATOM     52  C   UNL A   1      41.331  25.621  28.744  1.00  0.00     0.049 A 
ATOM     53  H   UNL A   1      41.854  27.177  30.028  1.00  0.00     0.167 HD
ATOM     54  C   UNL A   1      42.996  30.696  32.394  1.00  0.00     0.034 A 
ATOM     55  C   UNL A   1      42.325  24.713  28.800  1.00  0.00     0.034 A 
ATOM     56  C   UNL A   1      44.016  29.717  32.648  1.00  0.00     0.049 A 
ATOM     57  C   UNL A   1      43.483  24.964  29.725  1.00  0.00     0.074 A 
ATOM     58  C   UNL A   1      45.107  29.809  33.494  1.00  0.00     0.029 A 
ATOM     59  N   UNL A   1      44.074  28.467  32.052  1.00  0.00    -0.354 N 
ATOM     60  N   UNL A   1      43.717  25.998  30.496  1.00  0.00    -0.248 NA
ATOM     61  C   UNL A   1      44.492  23.901  29.825  1.00  0.00     0.031 C 
ATOM     62  C   UNL A   1      45.846  28.628  33.380  1.00  0.00     0.029 A 
ATOM     63  C   UNL A   1      45.188  27.781  32.502  1.00  0.00     0.049 A 
ATOM     64  H   UNL A   1      43.420  28.120  31.403  1.00  0.00     0.167 HD
ATOM     65  C   UNL A   1      44.873  25.693  31.204  1.00  0.00     0.074 A 
ATOM     66  C   UNL A   1      45.278  24.366  30.785  1.00  0.00     0.031 C 
ATOM     67  C   UNL A   1      45.547  26.443  32.110  1.00  0.00     0.034 A 
BRANCH  54  68
ATOM     68  C   UNL A   1      43.119  32.044  33.059  1.00  0.00     0.023 A 
ATOM     69  C   UNL A   1      42.660  32.224  34.381  1.00  0.00     0.012 A 
ATOM     70  C   UNL A   1      43.751  33.115  32.398  1.00  0.00     0.148 A 
ATOM     71  C   UNL A   1      42.797  33.455  35.020  1.00  0.00     0.002 A 
ATOM     72  C   UNL A   1      43.932  34.323  33.060  1.00  0.00     0.091 A 
ATOM     73  F   UNL A   1      44.161  32.933  31.134  1.00  0.00    -0.205 F 
ATOM     74  C   UNL A   1      43.444  34.500  34.365  1.00  0.00     0.022 A 
BRANCH  72  75
ATOM     75  S   UNL A   1      44.828  35.702  32.337  1.00  0.00     0.127 S 
ATOM     76  O   UNL A   1      43.871  36.187  31.343  1.00  0.00    -0.237 OA
ATOM     77  O   UNL A   1      45.011  36.584  33.489  1.00  0.00    -0.237 OA
ATOM     78  O   UNL A   1      46.058  35.144  31.793  1.00  0.00    -0.744 OA
ENDBRANCH  72  75
ENDBRANCH  54  68
BRANCH  55  79
ATOM     79  C   UNL A   1      42.240  23.458  27.998  1.00  0.00     0.023 A 
ATOM     80  C   UNL A   1      41.196  22.543  28.238  1.00  0.00     0.012 A 
ATOM     81  C   UNL A   1      43.186  23.173  26.996  1.00  0.00     0.148 A 
ATOM     82  C   UNL A   1      41.125  21.344  27.527  1.00  0.00     0.002 A 
ATOM     83  C   UNL A   1      43.074  22.006  26.250  1.00  0.00     0.091 A 
ATOM     84  F   UNL A   1      44.175  24.054  26.787  1.00  0.00    -0.205 F 
ATOM     85  C   UNL A   1      42.057  21.080  26.528  1.00  0.00     0.022 A 
BRANCH  83  86
ATOM     86  S   UNL A   1      44.151  21.647  24.860  1.00  0.00     0.127 S 
ATOM     87  O   UNL A   1      45.473  21.858  25.444  1.00  0.00    -0.237 OA
ATOM     88  O   UNL A   1      43.820  20.250  24.574  1.00  0.00    -0.237 OA
ATOM     89  O   UNL A   1      43.766  22.582  23.812  1.00  0.00    -0.744 OA
ENDBRANCH  83  86
ENDBRANCH  55  79
BRANCH  67  90
ATOM     90  C   UNL A   1      46.756  25.826  32.760  1.00  0.00     0.023 A 
ATOM     91  C   UNL A   1      48.043  26.056  32.236  1.00  0.00     0.012 A 
ATOM     92  C   UNL A   1      46.614  25.046  33.925  1.00  0.00     0.148 A 
ATOM     93  C   UNL A   1      49.163  25.475  32.829  1.00  0.00     0.002 A 
ATOM     94  C   UNL A   1      47.740  24.520  34.545  1.00  0.00     0.091 A 
ATOM     95  F   UNL A   1      45.380  24.823  34.402  1.00  0.00    -0.205 F 
ATOM     96  C   UNL A   1      49.013  24.717  33.988  1.00  0.00     0.022 A 
BRANCH  94  97
ATOM     97  S   UNL A   1      47.647  23.624  36.098  1.00  0.00     0.127 S 
ATOM     98  O   UNL A   1      46.692  22.566  35.774  1.00  0.00    -0.237 OA
ATOM     99  O   UNL A   1      49.025  23.167  36.276  1.00  0.00    -0.237 OA
ATOM    100  O   UNL A   1      47.200  24.590  37.092  1.00  0.00    -0.744 OA
ENDBRANCH  94  97
ENDBRANCH  67  90
ENDBRANCH  41  42
ENDBRANCH  33  36
ENDBRANCH  31  32
ENDBRANCH   1  31
TORSDOF 17
ENDMDL
