MODEL 1
REMARK VINA RESULT:     -12.4      0.000      0.000
REMARK SMILES COc1cc(/C=C2\SC(=S)N(CC(=O)NCCCNC(=O)c3ccc(-c4c5nc(c(-c6cccc(S(=O)(=O)[O-])c6F)c6ccc([nH]6)c(-c6cccc(S(=O)(=O)[O-])c6F)c6nc(c(-c7cccc(S(=O)(=O)[O-])c7F)c7ccc4[nH]7)C=C6)C=C5)cc3)C2=O)cc2c1OCO2
REMARK SMILES IDX 17 1 16 2 15 3 13 4 14 5 12 7 11 8 6 9 7 10 8 11 85 12 9 13
REMARK SMILES IDX 86 14 10 15 5 16 3 17 4 18 89 19 88 20 90 21 87 22 92 23
REMARK SMILES IDX 91 24 2 25 1 26 18 27 19 28 20 29 21 31 22 32 23 33 84 34
REMARK SMILES IDX 24 35 83 36 25 37 26 38 27 39 77 40 28 41 82 42 76 43 78 44
REMARK SMILES IDX 29 45 81 46 75 47 74 48 30 50 62 51 42 52 61 53 43 54 46 55
REMARK SMILES IDX 60 56 79 57 44 58 45 59 59 61 80 62 47 63 31 64 32 65 40 66
REMARK SMILES IDX 33 67 35 68 41 69 34 70 36 71 37 72 38 73 39 74 63 75 64 76
REMARK SMILES IDX 72 77 65 78 67 79 73 80 66 81 68 82 69 83 70 84 71 85 48 86
REMARK SMILES IDX 49 87 57 88 50 89 52 90 58 91 51 92 53 93 54 94 55 95 56 96
REMARK H PARENT 15 6 19 30 78 49 46 60
REMARK Flexibility Score: inf
ROOT
ATOM      1  C   UNL A   1      31.032  32.047  26.282  1.00  0.00     0.042 C 
ENDROOT
BRANCH   1   2
ATOM      2  C   UNL A   1      30.997  30.829  25.372  1.00  0.00     0.117 C 
BRANCH   2   3
ATOM      3  N   UNL A   1      32.223  30.058  25.421  1.00  0.00    -0.354 N 
ATOM      4  C   UNL A   1      32.428  28.730  25.201  1.00  0.00     0.240 C 
ATOM      5  O   UNL A   1      33.590  28.371  24.981  1.00  0.00    -0.273 OA
ATOM      6  H   UNL A   1      33.030  30.574  25.647  1.00  0.00     0.163 HD
BRANCH   4   7
ATOM      7  C   UNL A   1      31.263  27.747  25.036  1.00  0.00     0.227 C 
BRANCH   7   8
ATOM      8  N   UNL A   1      31.654  26.388  24.670  1.00  0.00    -0.283 N 
ATOM      9  C   UNL A   1      32.678  23.186  25.990  1.00  0.00     0.029 C 
ATOM     10  C   UNL A   1      32.367  24.198  25.171  1.00  0.00     0.081 C 
ATOM     11  S   UNL A   1      32.420  24.253  23.457  1.00  0.00    -0.054 SA
ATOM     12  C   UNL A   1      31.906  25.504  25.708  1.00  0.00     0.266 C 
ATOM     13  C   UNL A   1      31.981  25.953  23.404  1.00  0.00     0.148 C 
ATOM     14  O   UNL A   1      31.806  25.757  26.895  1.00  0.00    -0.268 OA
ATOM     15  S   UNL A   1      32.022  26.830  21.984  1.00  0.00    -0.052 S 
BRANCH   9  16
ATOM     16  C   UNL A   1      33.174  21.857  25.616  1.00  0.00    -0.017 A 
ATOM     17  C   UNL A   1      35.106  20.470  24.991  1.00  0.00     0.165 A 
ATOM     18  C   UNL A   1      34.562  21.688  25.425  1.00  0.00     0.058 A 
ATOM     19  C   UNL A   1      34.222  19.431  24.769  1.00  0.00     0.207 A 
ATOM     20  C   UNL A   1      32.866  19.588  24.982  1.00  0.00     0.170 A 
ATOM     21  O   UNL A   1      34.490  18.178  24.306  1.00  0.00    -0.450 OA
ATOM     22  C   UNL A   1      32.309  20.787  25.372  1.00  0.00     0.059 A 
ATOM     23  O   UNL A   1      32.160  18.443  24.745  1.00  0.00    -0.453 OA
ATOM     24  C   UNL A   1      33.258  17.511  24.620  1.00  0.00     0.468 C 
BRANCH  17  25
ATOM     25  O   UNL A   1      36.460  20.490  24.837  1.00  0.00    -0.493 OA
ATOM     26  C   UNL A   1      37.084  21.762  24.707  1.00  0.00     0.278 C 
ENDBRANCH  17  25
ENDBRANCH   9  16
ENDBRANCH   7   8
ENDBRANCH   4   7
ENDBRANCH   2   3
ENDBRANCH   1   2
BRANCH   1  27
ATOM     27  C   UNL A   1      32.395  32.289  26.924  1.00  0.00     0.118 C 
BRANCH  27  28
ATOM     28  N   UNL A   1      32.578  33.671  27.357  1.00  0.00    -0.352 N 
ATOM     29  C   UNL A   1      33.524  34.205  28.199  1.00  0.00     0.251 C 
ATOM     30  H   UNL A   1      31.930  34.315  26.992  1.00  0.00     0.163 HD
ATOM     31  O   UNL A   1      33.420  35.366  28.583  1.00  0.00    -0.269 OA
BRANCH  29  32
ATOM     32  C   UNL A   1      34.654  33.368  28.652  1.00  0.00     0.039 A 
ATOM     33  C   UNL A   1      35.957  33.863  28.553  1.00  0.00     0.014 A 
ATOM     34  C   UNL A   1      34.418  32.105  29.197  1.00  0.00     0.014 A 
ATOM     35  C   UNL A   1      37.019  33.122  29.081  1.00  0.00     0.010 A 
ATOM     36  C   UNL A   1      35.461  31.409  29.792  1.00  0.00     0.010 A 
ATOM     37  C   UNL A   1      36.773  31.910  29.744  1.00  0.00    -0.014 A 
BRANCH  37  38
ATOM     38  C   UNL A   1      37.849  31.132  30.410  1.00  0.00     0.031 A 
ATOM     39  C   UNL A   1      38.224  31.457  31.830  1.00  0.00     0.074 A 
ATOM     40  C   UNL A   1      38.564  30.233  29.702  1.00  0.00     0.049 A 
ATOM     41  N   UNL A   1      39.235  31.026  32.536  1.00  0.00    -0.248 NA
ATOM     42  C   UNL A   1      37.363  32.420  32.539  1.00  0.00     0.031 C 
ATOM     43  C   UNL A   1      38.306  29.852  28.313  1.00  0.00     0.029 A 
ATOM     44  N   UNL A   1      39.672  29.496  30.045  1.00  0.00    -0.354 N 
ATOM     45  C   UNL A   1      39.164  31.702  33.748  1.00  0.00     0.074 A 
ATOM     46  C   UNL A   1      38.024  32.588  33.675  1.00  0.00     0.031 C 
ATOM     47  C   UNL A   1      39.214  28.941  27.928  1.00  0.00     0.029 A 
ATOM     48  C   UNL A   1      40.157  28.715  29.019  1.00  0.00     0.049 A 
ATOM     49  H   UNL A   1      40.081  29.525  30.940  1.00  0.00     0.167 HD
ATOM     50  C   UNL A   1      39.963  31.579  34.833  1.00  0.00     0.034 A 
ATOM     51  C   UNL A   1      41.245  27.920  28.965  1.00  0.00     0.034 A 
ATOM     52  C   UNL A   1      41.065  30.659  34.913  1.00  0.00     0.049 A 
ATOM     53  C   UNL A   1      42.132  27.829  30.183  1.00  0.00     0.074 A 
ATOM     54  C   UNL A   1      41.888  30.397  35.993  1.00  0.00     0.029 A 
ATOM     55  N   UNL A   1      41.501  29.858  33.869  1.00  0.00    -0.354 N 
ATOM     56  N   UNL A   1      41.979  28.382  31.363  1.00  0.00    -0.248 NA
ATOM     57  C   UNL A   1      43.334  26.987  30.071  1.00  0.00     0.031 C 
ATOM     58  C   UNL A   1      42.845  29.461  35.591  1.00  0.00     0.029 A 
ATOM     59  C   UNL A   1      42.592  29.111  34.274  1.00  0.00     0.049 A 
ATOM     60  H   UNL A   1      41.095  29.825  32.974  1.00  0.00     0.167 HD
ATOM     61  C   UNL A   1      43.022  27.904  32.150  1.00  0.00     0.074 A 
ATOM     62  C   UNL A   1      43.804  27.019  31.312  1.00  0.00     0.031 C 
ATOM     63  C   UNL A   1      43.308  28.173  33.447  1.00  0.00     0.034 A 
BRANCH  50  64
ATOM     64  C   UNL A   1      39.657  32.432  36.037  1.00  0.00     0.023 A 
ATOM     65  C   UNL A   1      40.292  33.681  36.191  1.00  0.00     0.012 A 
ATOM     66  C   UNL A   1      38.698  32.024  36.985  1.00  0.00     0.148 A 
ATOM     67  C   UNL A   1      40.007  34.493  37.288  1.00  0.00     0.002 A 
ATOM     68  C   UNL A   1      38.382  32.861  38.049  1.00  0.00     0.091 A 
ATOM     69  F   UNL A   1      38.118  30.825  36.833  1.00  0.00    -0.205 F 
ATOM     70  C   UNL A   1      39.046  34.088  38.209  1.00  0.00     0.022 A 
BRANCH  68  71
ATOM     71  S   UNL A   1      37.099  32.469  39.242  1.00  0.00     0.127 S 
ATOM     72  O   UNL A   1      37.393  31.069  39.543  1.00  0.00    -0.237 OA
ATOM     73  O   UNL A   1      37.397  33.402  40.330  1.00  0.00    -0.237 OA
ATOM     74  O   UNL A   1      35.832  32.708  38.565  1.00  0.00    -0.744 OA
ENDBRANCH  68  71
ENDBRANCH  50  64
BRANCH  51  75
ATOM     75  C   UNL A   1      41.513  27.072  27.761  1.00  0.00     0.023 A 
ATOM     76  C   UNL A   1      42.101  27.673  26.629  1.00  0.00     0.012 A 
ATOM     77  C   UNL A   1      41.225  25.693  27.716  1.00  0.00     0.148 A 
ATOM     78  C   UNL A   1      42.351  26.938  25.470  1.00  0.00     0.002 A 
ATOM     79  C   UNL A   1      41.549  24.949  26.583  1.00  0.00     0.091 A 
ATOM     80  F   UNL A   1      40.642  25.125  28.782  1.00  0.00    -0.205 F 
ATOM     81  C   UNL A   1      42.086  25.574  25.450  1.00  0.00     0.022 A 
BRANCH  79  82
ATOM     82  S   UNL A   1      41.418  23.160  26.553  1.00  0.00     0.127 S 
ATOM     83  O   UNL A   1      42.153  22.817  25.341  1.00  0.00    -0.237 OA
ATOM     84  O   UNL A   1      42.083  22.763  27.795  1.00  0.00    -0.237 OA
ATOM     85  O   UNL A   1      39.986  22.890  26.546  1.00  0.00    -0.744 OA
ENDBRANCH  79  82
ENDBRANCH  51  75
BRANCH  63  86
ATOM     86  C   UNL A   1      44.466  27.451  34.084  1.00  0.00     0.023 A 
ATOM     87  C   UNL A   1      45.760  28.005  34.041  1.00  0.00     0.012 A 
ATOM     88  C   UNL A   1      44.239  26.277  34.832  1.00  0.00     0.148 A 
ATOM     89  C   UNL A   1      46.814  27.392  34.717  1.00  0.00     0.002 A 
ATOM     90  C   UNL A   1      45.282  25.702  35.546  1.00  0.00     0.091 A 
ATOM     91  F   UNL A   1      43.002  25.760  34.847  1.00  0.00    -0.205 F 
ATOM     92  C   UNL A   1      46.572  26.251  35.481  1.00  0.00     0.022 A 
BRANCH  90  93
ATOM     93  S   UNL A   1      45.046  24.297  36.639  1.00  0.00     0.127 S 
ATOM     94  O   UNL A   1      44.978  23.187  35.690  1.00  0.00    -0.237 OA
ATOM     95  O   UNL A   1      46.262  24.331  37.451  1.00  0.00    -0.237 OA
ATOM     96  O   UNL A   1      43.816  24.558  37.376  1.00  0.00    -0.744 OA
ENDBRANCH  90  93
ENDBRANCH  63  86
ENDBRANCH  37  38
ENDBRANCH  29  32
ENDBRANCH  27  28
ENDBRANCH   1  27
TORSDOF 16
ENDMDL
MODEL 2
REMARK VINA RESULT:     -12.4      0.924      1.266
REMARK SMILES COc1cc(/C=C2\SC(=S)N(CC(=O)NCCCNC(=O)c3ccc(-c4c5nc(c(-c6cccc(S(=O)(=O)[O-])c6F)c6ccc([nH]6)c(-c6cccc(S(=O)(=O)[O-])c6F)c6nc(c(-c7cccc(S(=O)(=O)[O-])c7F)c7ccc4[nH]7)C=C6)C=C5)cc3)C2=O)cc2c1OCO2
REMARK SMILES IDX 17 1 16 2 15 3 13 4 14 5 12 7 11 8 6 9 7 10 8 11 85 12 9 13
REMARK SMILES IDX 86 14 10 15 5 16 3 17 4 18 89 19 88 20 90 21 87 22 92 23
REMARK SMILES IDX 91 24 2 25 1 26 18 27 19 28 20 29 21 31 22 32 23 33 84 34
REMARK SMILES IDX 24 35 83 36 25 37 26 38 27 39 77 40 28 41 82 42 76 43 78 44
REMARK SMILES IDX 29 45 81 46 75 47 74 48 30 50 62 51 42 52 61 53 43 54 46 55
REMARK SMILES IDX 60 56 79 57 44 58 45 59 59 61 80 62 47 63 31 64 32 65 40 66
REMARK SMILES IDX 33 67 35 68 41 69 34 70 36 71 37 72 38 73 39 74 63 75 64 76
REMARK SMILES IDX 72 77 65 78 67 79 73 80 66 81 68 82 69 83 70 84 71 85 48 86
REMARK SMILES IDX 49 87 57 88 50 89 52 90 58 91 51 92 53 93 54 94 55 95 56 96
REMARK H PARENT 15 6 19 30 78 49 46 60
REMARK Flexibility Score: inf
ROOT
ATOM      1  C   UNL A   1      31.078  31.831  26.049  1.00  0.00     0.042 C 
ENDROOT
BRANCH   1   2
ATOM      2  C   UNL A   1      31.039  30.461  25.388  1.00  0.00     0.117 C 
BRANCH   2   3
ATOM      3  N   UNL A   1      32.294  30.110  24.755  1.00  0.00    -0.354 N 
ATOM      4  C   UNL A   1      32.589  29.078  23.915  1.00  0.00     0.240 C 
ATOM      5  O   UNL A   1      33.630  29.173  23.255  1.00  0.00    -0.273 OA
ATOM      6  H   UNL A   1      33.048  30.708  24.963  1.00  0.00     0.163 HD
BRANCH   4   7
ATOM      7  C   UNL A   1      31.594  27.944  23.644  1.00  0.00     0.227 C 
BRANCH   7   8
ATOM      8  N   UNL A   1      31.999  26.637  24.155  1.00  0.00    -0.283 N 
ATOM      9  C   UNL A   1      32.952  23.290  23.189  1.00  0.00     0.029 C 
ATOM     10  C   UNL A   1      32.625  24.380  23.894  1.00  0.00     0.081 C 
ATOM     11  S   UNL A   1      32.485  24.562  25.594  1.00  0.00    -0.054 SA
ATOM     12  C   UNL A   1      32.314  25.665  23.218  1.00  0.00     0.266 C 
ATOM     13  C   UNL A   1      31.916  26.219  25.465  1.00  0.00     0.148 C 
ATOM     14  O   UNL A   1      32.304  25.815  22.009  1.00  0.00    -0.268 OA
ATOM     15  S   UNL A   1      31.346  27.061  26.789  1.00  0.00    -0.052 S 
BRANCH   9  16
ATOM     16  C   UNL A   1      33.253  21.951  23.707  1.00  0.00    -0.017 A 
ATOM     17  C   UNL A   1      34.852  20.496  24.877  1.00  0.00     0.165 A 
ATOM     18  C   UNL A   1      34.455  21.760  24.419  1.00  0.00     0.058 A 
ATOM     19  C   UNL A   1      34.003  19.437  24.613  1.00  0.00     0.207 A 
ATOM     20  C   UNL A   1      32.812  19.627  23.939  1.00  0.00     0.170 A 
ATOM     21  O   UNL A   1      34.179  18.118  24.906  1.00  0.00    -0.450 OA
ATOM     22  C   UNL A   1      32.424  20.856  23.448  1.00  0.00     0.059 A 
ATOM     23  O   UNL A   1      32.094  18.473  23.803  1.00  0.00    -0.453 OA
ATOM     24  C   UNL A   1      32.851  17.620  24.692  1.00  0.00     0.468 C 
BRANCH  17  25
ATOM     25  O   UNL A   1      36.051  20.490  25.526  1.00  0.00    -0.493 OA
ATOM     26  C   UNL A   1      37.209  20.800  24.759  1.00  0.00     0.278 C 
ENDBRANCH  17  25
ENDBRANCH   9  16
ENDBRANCH   7   8
ENDBRANCH   4   7
ENDBRANCH   2   3
ENDBRANCH   1   2
BRANCH   1  27
ATOM     27  C   UNL A   1      32.308  32.050  26.923  1.00  0.00     0.118 C 
BRANCH  27  28
ATOM     28  N   UNL A   1      32.507  33.452  27.276  1.00  0.00    -0.352 N 
ATOM     29  C   UNL A   1      33.475  34.026  28.068  1.00  0.00     0.251 C 
ATOM     30  H   UNL A   1      31.854  34.080  26.892  1.00  0.00     0.163 HD
ATOM     31  O   UNL A   1      33.385  35.207  28.390  1.00  0.00    -0.269 OA
BRANCH  29  32
ATOM     32  C   UNL A   1      34.611  33.208  28.540  1.00  0.00     0.039 A 
ATOM     33  C   UNL A   1      35.903  33.739  28.495  1.00  0.00     0.014 A 
ATOM     34  C   UNL A   1      34.390  31.928  29.049  1.00  0.00     0.014 A 
ATOM     35  C   UNL A   1      36.966  33.014  29.042  1.00  0.00     0.010 A 
ATOM     36  C   UNL A   1      35.432  31.245  29.663  1.00  0.00     0.010 A 
ATOM     37  C   UNL A   1      36.730  31.781  29.670  1.00  0.00    -0.014 A 
BRANCH  37  38
ATOM     38  C   UNL A   1      37.804  31.016  30.354  1.00  0.00     0.031 A 
ATOM     39  C   UNL A   1      38.163  31.358  31.775  1.00  0.00     0.074 A 
ATOM     40  C   UNL A   1      38.531  30.114  29.663  1.00  0.00     0.049 A 
ATOM     41  N   UNL A   1      39.169  30.941  32.496  1.00  0.00    -0.248 NA
ATOM     42  C   UNL A   1      37.290  32.323  32.465  1.00  0.00     0.031 C 
ATOM     43  C   UNL A   1      38.290  29.718  28.275  1.00  0.00     0.029 A 
ATOM     44  N   UNL A   1      39.640  29.388  30.025  1.00  0.00    -0.354 N 
ATOM     45  C   UNL A   1      39.082  31.627  33.700  1.00  0.00     0.074 A 
ATOM     46  C   UNL A   1      37.938  32.507  33.606  1.00  0.00     0.031 C 
ATOM     47  C   UNL A   1      39.207  28.808  27.909  1.00  0.00     0.029 A 
ATOM     48  C   UNL A   1      40.140  28.599  29.012  1.00  0.00     0.049 A 
ATOM     49  H   UNL A   1      40.040  29.428  30.923  1.00  0.00     0.167 HD
ATOM     50  C   UNL A   1      39.871  31.520  34.794  1.00  0.00     0.034 A 
ATOM     51  C   UNL A   1      41.233  27.810  28.976  1.00  0.00     0.034 A 
ATOM     52  C   UNL A   1      40.977  30.608  34.894  1.00  0.00     0.049 A 
ATOM     53  C   UNL A   1      42.109  27.736  30.204  1.00  0.00     0.074 A 
ATOM     54  C   UNL A   1      41.791  30.362  35.985  1.00  0.00     0.029 A 
ATOM     55  N   UNL A   1      41.429  29.799  33.863  1.00  0.00    -0.354 N 
ATOM     56  N   UNL A   1      41.940  28.301  31.377  1.00  0.00    -0.248 NA
ATOM     57  C   UNL A   1      43.317  26.901  30.113  1.00  0.00     0.031 C 
ATOM     58  C   UNL A   1      42.757  29.428  35.602  1.00  0.00     0.029 A 
ATOM     59  C   UNL A   1      42.520  29.063  34.287  1.00  0.00     0.049 A 
ATOM     60  H   UNL A   1      41.031  29.755  32.964  1.00  0.00     0.167 HD
ATOM     61  C   UNL A   1      42.978  27.837  32.179  1.00  0.00     0.074 A 
ATOM     62  C   UNL A   1      43.773  26.948  31.358  1.00  0.00     0.031 C 
ATOM     63  C   UNL A   1      43.250  28.121  33.476  1.00  0.00     0.034 A 
BRANCH  50  64
ATOM     64  C   UNL A   1      39.548  32.384  35.986  1.00  0.00     0.023 A 
ATOM     65  C   UNL A   1      40.134  33.660  36.107  1.00  0.00     0.012 A 
ATOM     66  C   UNL A   1      38.619  31.956  36.956  1.00  0.00     0.148 A 
ATOM     67  C   UNL A   1      39.832  34.481  37.193  1.00  0.00     0.002 A 
ATOM     68  C   UNL A   1      38.285  32.800  38.009  1.00  0.00     0.091 A 
ATOM     69  F   UNL A   1      38.087  30.732  36.836  1.00  0.00    -0.205 F 
ATOM     70  C   UNL A   1      38.901  34.056  38.136  1.00  0.00     0.022 A 
BRANCH  68  71
ATOM     71  S   UNL A   1      37.036  32.380  39.228  1.00  0.00     0.127 S 
ATOM     72  O   UNL A   1      37.330  33.339  40.293  1.00  0.00    -0.237 OA
ATOM     73  O   UNL A   1      35.795  32.641  38.498  1.00  0.00    -0.237 OA
ATOM     74  O   UNL A   1      37.260  30.983  39.570  1.00  0.00    -0.744 OA
ENDBRANCH  68  71
ENDBRANCH  50  64
BRANCH  51  75
ATOM     75  C   UNL A   1      41.518  26.952  27.784  1.00  0.00     0.023 A 
ATOM     76  C   UNL A   1      42.154  27.535  26.669  1.00  0.00     0.012 A 
ATOM     77  C   UNL A   1      41.201  25.580  27.734  1.00  0.00     0.148 A 
ATOM     78  C   UNL A   1      42.423  26.790  25.520  1.00  0.00     0.002 A 
ATOM     79  C   UNL A   1      41.542  24.824  26.614  1.00  0.00     0.091 A 
ATOM     80  F   UNL A   1      40.573  25.029  28.784  1.00  0.00    -0.205 F 
ATOM     81  C   UNL A   1      42.127  25.432  25.496  1.00  0.00     0.022 A 
BRANCH  79  82
ATOM     82  S   UNL A   1      41.371  23.039  26.586  1.00  0.00     0.127 S 
ATOM     83  O   UNL A   1      41.807  22.666  27.927  1.00  0.00    -0.237 OA
ATOM     84  O   UNL A   1      39.940  22.852  26.344  1.00  0.00    -0.237 OA
ATOM     85  O   UNL A   1      42.212  22.598  25.481  1.00  0.00    -0.744 OA
ENDBRANCH  79  82
ENDBRANCH  51  75
BRANCH  63  86
ATOM     86  C   UNL A   1      44.405  27.412  34.132  1.00  0.00     0.023 A 
ATOM     87  C   UNL A   1      45.690  27.988  34.122  1.00  0.00     0.012 A 
ATOM     88  C   UNL A   1      44.182  26.227  34.865  1.00  0.00     0.148 A 
ATOM     89  C   UNL A   1      46.739  27.387  34.816  1.00  0.00     0.002 A 
ATOM     90  C   UNL A   1      45.218  25.663  35.596  1.00  0.00     0.091 A 
ATOM     91  F   UNL A   1      42.953  25.691  34.848  1.00  0.00    -0.205 F 
ATOM     92  C   UNL A   1      46.500  26.235  35.564  1.00  0.00     0.022 A 
BRANCH  90  93
ATOM     93  S   UNL A   1      44.982  24.245  36.672  1.00  0.00     0.127 S 
ATOM     94  O   UNL A   1      46.347  23.982  37.124  1.00  0.00    -0.237 OA
ATOM     95  O   UNL A   1      44.092  24.783  37.700  1.00  0.00    -0.237 OA
ATOM     96  O   UNL A   1      44.392  23.201  35.844  1.00  0.00    -0.744 OA
ENDBRANCH  90  93
ENDBRANCH  63  86
ENDBRANCH  37  38
ENDBRANCH  29  32
ENDBRANCH  27  28
ENDBRANCH   1  27
TORSDOF 16
ENDMDL
MODEL 3
REMARK VINA RESULT:     -12.3      1.441      7.605
REMARK SMILES COc1cc(/C=C2\SC(=S)N(CC(=O)NCCCNC(=O)c3ccc(-c4c5nc(c(-c6cccc(S(=O)(=O)[O-])c6F)c6ccc([nH]6)c(-c6cccc(S(=O)(=O)[O-])c6F)c6nc(c(-c7cccc(S(=O)(=O)[O-])c7F)c7ccc4[nH]7)C=C6)C=C5)cc3)C2=O)cc2c1OCO2
REMARK SMILES IDX 17 1 16 2 15 3 13 4 14 5 12 7 11 8 6 9 7 10 8 11 85 12 9 13
REMARK SMILES IDX 86 14 10 15 5 16 3 17 4 18 89 19 88 20 90 21 87 22 92 23
REMARK SMILES IDX 91 24 2 25 1 26 18 27 19 28 20 29 21 31 22 32 23 33 84 34
REMARK SMILES IDX 24 35 83 36 25 37 26 38 27 39 77 40 28 41 82 42 76 43 78 44
REMARK SMILES IDX 29 45 81 46 75 47 74 48 30 50 62 51 42 52 61 53 43 54 46 55
REMARK SMILES IDX 60 56 79 57 44 58 45 59 59 61 80 62 47 63 31 64 32 65 40 66
REMARK SMILES IDX 33 67 35 68 41 69 34 70 36 71 37 72 38 73 39 74 63 75 64 76
REMARK SMILES IDX 72 77 65 78 67 79 73 80 66 81 68 82 69 83 70 84 71 85 48 86
REMARK SMILES IDX 49 87 57 88 50 89 52 90 58 91 51 92 53 93 54 94 55 95 56 96
REMARK H PARENT 15 6 19 30 78 49 46 60
REMARK Flexibility Score: inf
ROOT
ATOM      1  C   UNL A   1      31.681  28.994  26.306  1.00  0.00     0.042 C 
ENDROOT
BRANCH   1   2
ATOM      2  C   UNL A   1      31.400  29.469  24.888  1.00  0.00     0.117 C 
BRANCH   2   3
ATOM      3  N   UNL A   1      32.555  29.356  24.021  1.00  0.00    -0.354 N 
ATOM      4  C   UNL A   1      32.730  28.613  22.893  1.00  0.00     0.240 C 
ATOM      5  O   UNL A   1      33.670  28.928  22.155  1.00  0.00    -0.273 OA
ATOM      6  H   UNL A   1      33.331  29.900  24.288  1.00  0.00     0.163 HD
BRANCH   4   7
ATOM      7  C   UNL A   1      31.706  27.563  22.448  1.00  0.00     0.227 C 
BRANCH   7   8
ATOM      8  N   UNL A   1      31.842  26.260  23.095  1.00  0.00    -0.283 N 
ATOM      9  C   UNL A   1      33.688  23.157  23.053  1.00  0.00     0.029 C 
ATOM     10  C   UNL A   1      32.807  24.124  23.337  1.00  0.00     0.081 C 
ATOM     11  S   UNL A   1      31.515  24.109  24.465  1.00  0.00    -0.054 SA
ATOM     12  C   UNL A   1      32.855  25.432  22.636  1.00  0.00     0.266 C 
ATOM     13  C   UNL A   1      30.949  25.699  23.981  1.00  0.00     0.148 C 
ATOM     14  O   UNL A   1      33.653  25.708  21.758  1.00  0.00    -0.268 OA
ATOM     15  S   UNL A   1      29.508  26.331  24.541  1.00  0.00    -0.052 S 
BRANCH   9  16
ATOM     16  C   UNL A   1      33.749  21.810  23.632  1.00  0.00    -0.017 A 
ATOM     17  C   UNL A   1      35.128  20.081  24.707  1.00  0.00     0.165 A 
ATOM     18  C   UNL A   1      34.965  21.380  24.204  1.00  0.00     0.058 A 
ATOM     19  C   UNL A   1      34.036  19.237  24.632  1.00  0.00     0.207 A 
ATOM     20  C   UNL A   1      32.836  19.666  24.096  1.00  0.00     0.170 A 
ATOM     21  O   UNL A   1      33.951  17.929  25.003  1.00  0.00    -0.450 OA
ATOM     22  C   UNL A   1      32.669  20.926  23.563  1.00  0.00     0.059 A 
ATOM     23  O   UNL A   1      31.866  18.705  24.140  1.00  0.00    -0.453 OA
ATOM     24  C   UNL A   1      32.528  17.742  24.993  1.00  0.00     0.468 C 
BRANCH  17  25
ATOM     25  O   UNL A   1      36.372  19.828  25.201  1.00  0.00    -0.493 OA
ATOM     26  C   UNL A   1      37.369  20.823  25.000  1.00  0.00     0.278 C 
ENDBRANCH  17  25
ENDBRANCH   9  16
ENDBRANCH   7   8
ENDBRANCH   4   7
ENDBRANCH   2   3
ENDBRANCH   1   2
BRANCH   1  27
ATOM     27  C   UNL A   1      32.920  29.632  26.927  1.00  0.00     0.118 C 
BRANCH  27  28
ATOM     28  N   UNL A   1      32.827  31.087  27.005  1.00  0.00    -0.352 N 
ATOM     29  C   UNL A   1      33.688  31.989  27.585  1.00  0.00     0.251 C 
ATOM     30  H   UNL A   1      32.032  31.481  26.579  1.00  0.00     0.163 HD
ATOM     31  O   UNL A   1      33.360  33.166  27.700  1.00  0.00    -0.269 OA
BRANCH  29  32
ATOM     32  C   UNL A   1      35.000  31.528  28.084  1.00  0.00     0.039 A 
ATOM     33  C   UNL A   1      36.075  32.420  28.112  1.00  0.00     0.014 A 
ATOM     34  C   UNL A   1      35.155  30.220  28.546  1.00  0.00     0.014 A 
ATOM     35  C   UNL A   1      37.286  32.023  28.685  1.00  0.00     0.010 A 
ATOM     36  C   UNL A   1      36.332  29.854  29.186  1.00  0.00     0.010 A 
ATOM     37  C   UNL A   1      37.409  30.751  29.267  1.00  0.00    -0.014 A 
BRANCH  37  38
ATOM     38  C   UNL A   1      38.639  30.314  29.976  1.00  0.00     0.031 A 
ATOM     39  C   UNL A   1      39.545  29.303  29.327  1.00  0.00     0.074 A 
ATOM     40  C   UNL A   1      38.868  30.725  31.240  1.00  0.00     0.049 A 
ATOM     41  N   UNL A   1      40.564  28.662  29.833  1.00  0.00    -0.248 NA
ATOM     42  C   UNL A   1      39.243  28.942  27.930  1.00  0.00     0.031 C 
ATOM     43  C   UNL A   1      38.047  31.685  31.979  1.00  0.00     0.029 A 
ATOM     44  N   UNL A   1      39.843  30.366  32.138  1.00  0.00    -0.354 N 
ATOM     45  C   UNL A   1      40.991  27.788  28.841  1.00  0.00     0.074 A 
ATOM     46  C   UNL A   1      40.107  27.963  27.711  1.00  0.00     0.031 C 
ATOM     47  C   UNL A   1      38.562  31.854  33.207  1.00  0.00     0.029 A 
ATOM     48  C   UNL A   1      39.713  30.972  33.369  1.00  0.00     0.049 A 
ATOM     49  H   UNL A   1      40.567  29.735  31.923  1.00  0.00     0.167 HD
ATOM     50  C   UNL A   1      42.039  26.932  28.863  1.00  0.00     0.034 A 
ATOM     51  C   UNL A   1      40.432  30.820  34.499  1.00  0.00     0.034 A 
ATOM     52  C   UNL A   1      42.940  26.800  29.975  1.00  0.00     0.049 A 
ATOM     53  C   UNL A   1      41.577  29.834  34.498  1.00  0.00     0.074 A 
ATOM     54  C   UNL A   1      44.080  26.023  30.068  1.00  0.00     0.029 A 
ATOM     55  N   UNL A   1      42.799  27.458  31.187  1.00  0.00    -0.354 N 
ATOM     56  N   UNL A   1      42.041  29.106  33.510  1.00  0.00    -0.248 NA
ATOM     57  C   UNL A   1      42.310  29.662  35.762  1.00  0.00     0.031 C 
ATOM     58  C   UNL A   1      44.609  26.184  31.352  1.00  0.00     0.029 A 
ATOM     59  C   UNL A   1      43.823  27.092  32.042  1.00  0.00     0.049 A 
ATOM     60  H   UNL A   1      42.078  28.091  31.406  1.00  0.00     0.167 HD
ATOM     61  C   UNL A   1      43.157  28.444  34.013  1.00  0.00     0.074 A 
ATOM     62  C   UNL A   1      43.297  28.854  35.394  1.00  0.00     0.031 C 
ATOM     63  C   UNL A   1      43.989  27.575  33.389  1.00  0.00     0.034 A 
BRANCH  50  64
ATOM     64  C   UNL A   1      42.292  26.094  27.636  1.00  0.00     0.023 A 
ATOM     65  C   UNL A   1      42.986  26.646  26.540  1.00  0.00     0.012 A 
ATOM     66  C   UNL A   1      41.894  24.743  27.591  1.00  0.00     0.148 A 
ATOM     67  C   UNL A   1      43.246  25.880  25.404  1.00  0.00     0.002 A 
ATOM     68  C   UNL A   1      42.201  23.972  26.476  1.00  0.00     0.091 A 
ATOM     69  F   UNL A   1      41.218  24.240  28.634  1.00  0.00    -0.205 F 
ATOM     70  C   UNL A   1      42.864  24.542  25.377  1.00  0.00     0.022 A 
BRANCH  68  71
ATOM     71  S   UNL A   1      41.827  22.218  26.378  1.00  0.00     0.127 S 
ATOM     72  O   UNL A   1      40.373  22.235  26.228  1.00  0.00    -0.237 OA
ATOM     73  O   UNL A   1      42.559  21.815  25.177  1.00  0.00    -0.237 OA
ATOM     74  O   UNL A   1      42.319  21.631  27.616  1.00  0.00    -0.744 OA
ENDBRANCH  68  71
ENDBRANCH  50  64
BRANCH  51  75
ATOM     75  C   UNL A   1      40.167  31.679  35.696  1.00  0.00     0.023 A 
ATOM     76  C   UNL A   1      41.075  32.714  35.998  1.00  0.00     0.012 A 
ATOM     77  C   UNL A   1      39.037  31.514  36.522  1.00  0.00     0.148 A 
ATOM     78  C   UNL A   1      40.892  33.531  37.115  1.00  0.00     0.002 A 
ATOM     79  C   UNL A   1      38.821  32.382  37.590  1.00  0.00     0.091 A 
ATOM     80  F   UNL A   1      38.187  30.513  36.251  1.00  0.00    -0.205 F 
ATOM     81  C   UNL A   1      39.760  33.373  37.905  1.00  0.00     0.022 A 
BRANCH  79  82
ATOM     82  S   UNL A   1      37.295  32.365  38.533  1.00  0.00     0.127 S 
ATOM     83  O   UNL A   1      36.374  33.060  37.640  1.00  0.00    -0.237 OA
ATOM     84  O   UNL A   1      37.021  30.935  38.686  1.00  0.00    -0.237 OA
ATOM     85  O   UNL A   1      37.620  33.034  39.785  1.00  0.00    -0.744 OA
ENDBRANCH  79  82
ENDBRANCH  51  75
BRANCH  63  86
ATOM     86  C   UNL A   1      45.181  27.060  34.153  1.00  0.00     0.023 A 
ATOM     87  C   UNL A   1      46.384  27.793  34.171  1.00  0.00     0.012 A 
ATOM     88  C   UNL A   1      45.061  25.905  34.954  1.00  0.00     0.148 A 
ATOM     89  C   UNL A   1      47.455  27.373  34.958  1.00  0.00     0.002 A 
ATOM     90  C   UNL A   1      46.112  25.523  35.775  1.00  0.00     0.091 A 
ATOM     91  F   UNL A   1      43.911  25.217  34.910  1.00  0.00    -0.205 F 
ATOM     92  C   UNL A   1      47.314  26.249  35.771  1.00  0.00     0.022 A 
BRANCH  90  93
ATOM     93  S   UNL A   1      45.987  24.156  36.934  1.00  0.00     0.127 S 
ATOM     94  O   UNL A   1      44.860  24.572  37.766  1.00  0.00    -0.237 OA
ATOM     95  O   UNL A   1      45.706  23.027  36.047  1.00  0.00    -0.237 OA
ATOM     96  O   UNL A   1      47.270  24.086  37.619  1.00  0.00    -0.744 OA
ENDBRANCH  90  93
ENDBRANCH  63  86
ENDBRANCH  37  38
ENDBRANCH  29  32
ENDBRANCH  27  28
ENDBRANCH   1  27
TORSDOF 16
ENDMDL
