MODEL 1
REMARK VINA RESULT:     -12.5      0.000      0.000
REMARK SMILES Cc1cc(OC(F)(F)F)cc2c1O[C@H](C(F)(F)F)C(C(=O)NCCCNC(=O)c1ccc(-c3c4nc(c(-c5cccc(S(=O)(=O)[O-])c5F)c5ccc([nH]5)c(-c5cccc(S(=O)(=O)[O-])c5F)c5nc(c(-c6cccc(S(=O)(=O)[O-])c6F)c6ccc3[nH]6)C=C5)C=C4)cc1)=C2
REMARK SMILES IDX 24 1 23 2 22 3 20 4 21 5 19 7 1 8 2 9 3 10 12 11 4 12 11 13
REMARK SMILES IDX 13 14 10 15 92 16 14 17 5 18 6 19 7 20 8 21 9 22 15 23 16 24
REMARK SMILES IDX 17 25 18 26 25 27 26 28 27 29 28 31 29 32 30 33 91 34 31 35
REMARK SMILES IDX 90 36 32 37 33 38 34 39 84 40 35 41 89 42 83 43 85 44 36 45
REMARK SMILES IDX 88 46 82 47 81 48 37 50 69 51 49 52 68 53 50 54 53 55 67 56
REMARK SMILES IDX 86 57 51 58 52 59 66 61 87 62 54 63 38 64 39 65 47 66 40 67
REMARK SMILES IDX 42 68 48 69 41 70 43 71 44 72 45 73 46 74 70 75 71 76 79 77
REMARK SMILES IDX 72 78 74 79 80 80 73 81 75 82 76 83 77 84 78 85 55 86 56 87
REMARK SMILES IDX 64 88 57 89 59 90 65 91 58 92 60 93 61 94 62 95 63 96
REMARK H PARENT 22 6 26 30 85 49 53 60
REMARK Flexibility Score: inf
ROOT
ATOM      1  C   UNL A   1      32.795  29.009  23.940  1.00  0.00     0.042 C 
ENDROOT
BRANCH   1   2
ATOM      2  C   UNL A   1      34.042  28.490  23.236  1.00  0.00     0.118 C 
BRANCH   2   3
ATOM      3  N   UNL A   1      33.716  27.574  22.152  1.00  0.00    -0.352 N 
ATOM      4  C   UNL A   1      33.359  26.276  22.020  1.00  0.00     0.251 C 
ATOM      5  O   UNL A   1      33.158  25.902  20.859  1.00  0.00    -0.270 OA
ATOM      6  H   UNL A   1      33.769  28.022  21.276  1.00  0.00     0.163 HD
BRANCH   4   7
ATOM      7  C   UNL A   1      33.189  25.312  23.145  1.00  0.00     0.067 C 
ATOM      8  C   UNL A   1      32.251  22.955  27.603  1.00  0.00     0.048 C 
ATOM      9  C   UNL A   1      32.978  22.591  26.339  1.00  0.00    -0.005 A 
ATOM     10  C   UNL A   1      33.500  21.299  26.171  1.00  0.00     0.054 A 
ATOM     11  C   UNL A   1      33.095  23.510  25.290  1.00  0.00     0.131 A 
ATOM     12  C   UNL A   1      34.159  20.945  24.992  1.00  0.00     0.130 A 
ATOM     13  C   UNL A   1      33.755  23.172  24.108  1.00  0.00     0.021 A 
ATOM     14  O   UNL A   1      32.574  24.757  25.492  1.00  0.00    -0.475 OA
ATOM     15  C   UNL A   1      34.288  21.889  23.966  1.00  0.00     0.058 A 
ATOM     16  C   UNL A   1      33.902  24.174  23.058  1.00  0.00     0.025 C 
ATOM     17  C   UNL A   1      32.262  25.529  24.304  1.00  0.00     0.314 C 
BRANCH  12  18
ATOM     18  O   UNL A   1      34.718  19.728  24.715  1.00  0.00    -0.406 OA
BRANCH  18  19
ATOM     19  C   UNL A   1      33.845  18.659  24.398  1.00  0.00     0.573 C 
ATOM     20  F   UNL A   1      33.362  18.070  25.513  1.00  0.00    -0.132 F 
ATOM     21  F   UNL A   1      32.818  19.078  23.628  1.00  0.00    -0.132 F 
ATOM     22  F   UNL A   1      34.535  17.728  23.700  1.00  0.00    -0.132 F 
ENDBRANCH  18  19
ENDBRANCH  12  18
BRANCH  17  23
ATOM     23  C   UNL A   1      30.786  25.299  23.928  1.00  0.00     0.429 C 
ATOM     24  F   UNL A   1      30.664  24.239  23.089  1.00  0.00    -0.167 F 
ATOM     25  F   UNL A   1      30.009  25.024  25.004  1.00  0.00    -0.167 F 
ATOM     26  F   UNL A   1      30.230  26.367  23.312  1.00  0.00    -0.167 F 
ENDBRANCH  17  23
ENDBRANCH   4   7
ENDBRANCH   2   3
ENDBRANCH   1   2
BRANCH   1  27
ATOM     27  C   UNL A   1      33.027  29.208  25.433  1.00  0.00     0.118 C 
BRANCH  27  28
ATOM     28  N   UNL A   1      32.626  30.547  25.861  1.00  0.00    -0.352 N 
ATOM     29  C   UNL A   1      33.092  31.300  26.909  1.00  0.00     0.251 C 
ATOM     30  H   UNL A   1      31.921  30.970  25.319  1.00  0.00     0.163 HD
ATOM     31  O   UNL A   1      32.446  32.266  27.309  1.00  0.00    -0.269 OA
BRANCH  29  32
ATOM     32  C   UNL A   1      34.370  30.940  27.550  1.00  0.00     0.039 A 
ATOM     33  C   UNL A   1      35.372  31.904  27.683  1.00  0.00     0.014 A 
ATOM     34  C   UNL A   1      34.572  29.636  28.010  1.00  0.00     0.014 A 
ATOM     35  C   UNL A   1      36.560  31.570  28.336  1.00  0.00     0.010 A 
ATOM     36  C   UNL A   1      35.719  29.328  28.729  1.00  0.00     0.010 A 
ATOM     37  C   UNL A   1      36.729  30.287  28.885  1.00  0.00    -0.014 A 
BRANCH  37  38
ATOM     38  C   UNL A   1      37.970  29.918  29.602  1.00  0.00     0.031 A 
ATOM     39  C   UNL A   1      38.230  30.471  30.975  1.00  0.00     0.074 A 
ATOM     40  C   UNL A   1      38.886  29.142  28.991  1.00  0.00     0.049 A 
ATOM     41  N   UNL A   1      39.255  30.266  31.758  1.00  0.00    -0.248 NA
ATOM     42  C   UNL A   1      37.222  31.391  31.535  1.00  0.00     0.031 C 
ATOM     43  C   UNL A   1      38.778  28.620  27.628  1.00  0.00     0.029 A 
ATOM     44  N   UNL A   1      40.096  28.672  29.433  1.00  0.00    -0.354 N 
ATOM     45  C   UNL A   1      39.028  31.045  32.886  1.00  0.00     0.074 A 
ATOM     46  C   UNL A   1      37.790  31.758  32.674  1.00  0.00     0.031 C 
ATOM     47  C   UNL A   1      39.867  27.884  27.352  1.00  0.00     0.029 A 
ATOM     48  C   UNL A   1      40.755  27.893  28.511  1.00  0.00     0.049 A 
ATOM     49  H   UNL A   1      40.458  28.872  30.326  1.00  0.00     0.167 HD
ATOM     50  C   UNL A   1      39.764  31.122  34.018  1.00  0.00     0.034 A 
ATOM     51  C   UNL A   1      41.934  27.248  28.597  1.00  0.00     0.034 A 
ATOM     52  C   UNL A   1      40.956  30.359  34.251  1.00  0.00     0.049 A 
ATOM     53  C   UNL A   1      42.713  27.314  29.883  1.00  0.00     0.074 A 
ATOM     54  C   UNL A   1      41.713  30.289  35.404  1.00  0.00     0.029 A 
ATOM     55  N   UNL A   1      41.558  29.534  33.316  1.00  0.00    -0.354 N 
ATOM     56  N   UNL A   1      42.402  27.932  30.996  1.00  0.00    -0.248 NA
ATOM     57  C   UNL A   1      43.983  26.575  29.939  1.00  0.00     0.031 C 
ATOM     58  C   UNL A   1      42.782  29.422  35.165  1.00  0.00     0.029 A 
ATOM     59  C   UNL A   1      42.685  28.954  33.863  1.00  0.00     0.049 A 
ATOM     60  H   UNL A   1      41.233  29.385  32.399  1.00  0.00     0.167 HD
ATOM     61  C   UNL A   1      43.424  27.641  31.892  1.00  0.00     0.074 A 
ATOM     62  C   UNL A   1      44.359  26.781  31.196  1.00  0.00     0.031 C 
ATOM     63  C   UNL A   1      43.576  28.060  33.171  1.00  0.00     0.034 A 
BRANCH  50  64
ATOM     64  C   UNL A   1      39.252  31.991  35.130  1.00  0.00     0.023 A 
ATOM     65  C   UNL A   1      38.311  31.457  36.033  1.00  0.00     0.012 A 
ATOM     66  C   UNL A   1      39.759  33.287  35.335  1.00  0.00     0.148 A 
ATOM     67  C   UNL A   1      37.871  32.207  37.120  1.00  0.00     0.002 A 
ATOM     68  C   UNL A   1      39.337  34.018  36.439  1.00  0.00     0.091 A 
ATOM     69  F   UNL A   1      40.642  33.775  34.452  1.00  0.00    -0.205 F 
ATOM     70  C   UNL A   1      38.391  33.482  37.329  1.00  0.00     0.022 A 
BRANCH  68  71
ATOM     71  S   UNL A   1      39.977  35.650  36.830  1.00  0.00     0.127 S 
ATOM     72  O   UNL A   1      41.411  35.387  36.934  1.00  0.00    -0.237 OA
ATOM     73  O   UNL A   1      39.581  36.422  35.653  1.00  0.00    -0.237 OA
ATOM     74  O   UNL A   1      39.330  36.050  38.073  1.00  0.00    -0.744 OA
ENDBRANCH  68  71
ENDBRANCH  50  64
BRANCH  51  75
ATOM     75  C   UNL A   1      42.390  26.405  27.460  1.00  0.00     0.023 A 
ATOM     76  C   UNL A   1      43.263  26.961  26.506  1.00  0.00     0.012 A 
ATOM     77  C   UNL A   1      42.033  25.046  27.361  1.00  0.00     0.148 A 
ATOM     78  C   UNL A   1      43.765  26.182  25.463  1.00  0.00     0.002 A 
ATOM     79  C   UNL A   1      42.565  24.266  26.340  1.00  0.00     0.091 A 
ATOM     80  F   UNL A   1      41.204  24.542  28.284  1.00  0.00    -0.205 F 
ATOM     81  C   UNL A   1      43.425  24.834  25.385  1.00  0.00     0.022 A 
BRANCH  79  82
ATOM     82  S   UNL A   1      42.268  22.499  26.212  1.00  0.00     0.127 S 
ATOM     83  O   UNL A   1      43.003  22.161  24.994  1.00  0.00    -0.237 OA
ATOM     84  O   UNL A   1      42.868  22.005  27.451  1.00  0.00    -0.237 OA
ATOM     85  O   UNL A   1      40.823  22.343  26.132  1.00  0.00    -0.744 OA
ENDBRANCH  79  82
ENDBRANCH  51  75
BRANCH  63  86
ATOM     86  C   UNL A   1      44.790  27.610  33.933  1.00  0.00     0.023 A 
ATOM     87  C   UNL A   1      45.914  28.454  33.983  1.00  0.00     0.012 A 
ATOM     88  C   UNL A   1      44.739  26.459  34.744  1.00  0.00     0.148 A 
ATOM     89  C   UNL A   1      46.974  28.162  34.838  1.00  0.00     0.002 A 
ATOM     90  C   UNL A   1      45.785  26.194  35.618  1.00  0.00     0.091 A 
ATOM     91  F   UNL A   1      43.652  25.678  34.673  1.00  0.00    -0.205 F 
ATOM     92  C   UNL A   1      46.903  27.044  35.666  1.00  0.00     0.022 A 
BRANCH  90  93
ATOM     93  S   UNL A   1      45.751  24.828  36.784  1.00  0.00     0.127 S 
ATOM     94  O   UNL A   1      45.643  23.676  35.890  1.00  0.00    -0.237 OA
ATOM     95  O   UNL A   1      47.044  24.963  37.452  1.00  0.00    -0.237 OA
ATOM     96  O   UNL A   1      44.593  25.051  37.639  1.00  0.00    -0.744 OA
ENDBRANCH  90  93
ENDBRANCH  63  86
ENDBRANCH  37  38
ENDBRANCH  29  32
ENDBRANCH  27  28
ENDBRANCH   1  27
TORSDOF 16
ENDMDL
MODEL 2
REMARK VINA RESULT:     -12.5      2.540      7.973
REMARK SMILES Cc1cc(OC(F)(F)F)cc2c1O[C@H](C(F)(F)F)C(C(=O)NCCCNC(=O)c1ccc(-c3c4nc(c(-c5cccc(S(=O)(=O)[O-])c5F)c5ccc([nH]5)c(-c5cccc(S(=O)(=O)[O-])c5F)c5nc(c(-c6cccc(S(=O)(=O)[O-])c6F)c6ccc3[nH]6)C=C5)C=C4)cc1)=C2
REMARK SMILES IDX 24 1 23 2 22 3 20 4 21 5 19 7 1 8 2 9 3 10 12 11 4 12 11 13
REMARK SMILES IDX 13 14 10 15 92 16 14 17 5 18 6 19 7 20 8 21 9 22 15 23 16 24
REMARK SMILES IDX 17 25 18 26 25 27 26 28 27 29 28 31 29 32 30 33 91 34 31 35
REMARK SMILES IDX 90 36 32 37 33 38 34 39 84 40 35 41 89 42 83 43 85 44 36 45
REMARK SMILES IDX 88 46 82 47 81 48 37 50 69 51 49 52 68 53 50 54 53 55 67 56
REMARK SMILES IDX 86 57 51 58 52 59 66 61 87 62 54 63 38 64 39 65 47 66 40 67
REMARK SMILES IDX 42 68 48 69 41 70 43 71 44 72 45 73 46 74 70 75 71 76 79 77
REMARK SMILES IDX 72 78 74 79 80 80 73 81 75 82 76 83 77 84 78 85 55 86 56 87
REMARK SMILES IDX 64 88 57 89 59 90 65 91 58 92 60 93 61 94 62 95 63 96
REMARK H PARENT 22 6 26 30 85 49 53 60
REMARK Flexibility Score: inf
ROOT
ATOM      1  C   UNL A   1      31.550  32.015  26.797  1.00  0.00     0.042 C 
ENDROOT
BRANCH   1   2
ATOM      2  C   UNL A   1      31.676  30.516  26.566  1.00  0.00     0.118 C 
BRANCH   2   3
ATOM      3  N   UNL A   1      32.396  30.210  25.338  1.00  0.00    -0.352 N 
ATOM      4  C   UNL A   1      32.761  29.105  24.647  1.00  0.00     0.251 C 
ATOM      5  O   UNL A   1      33.379  29.322  23.600  1.00  0.00    -0.270 OA
ATOM      6  H   UNL A   1      32.701  31.031  24.888  1.00  0.00     0.163 HD
BRANCH   4   7
ATOM      7  C   UNL A   1      32.461  27.702  25.050  1.00  0.00     0.067 C 
ATOM      8  C   UNL A   1      30.415  23.338  26.806  1.00  0.00     0.048 C 
ATOM      9  C   UNL A   1      31.791  23.776  26.389  1.00  0.00    -0.005 A 
ATOM     10  C   UNL A   1      32.844  22.849  26.341  1.00  0.00     0.054 A 
ATOM     11  C   UNL A   1      32.032  25.096  25.989  1.00  0.00     0.131 A 
ATOM     12  C   UNL A   1      34.122  23.242  25.936  1.00  0.00     0.130 A 
ATOM     13  C   UNL A   1      33.305  25.504  25.586  1.00  0.00     0.021 A 
ATOM     14  O   UNL A   1      30.982  25.967  26.050  1.00  0.00    -0.475 OA
ATOM     15  C   UNL A   1      34.346  24.573  25.565  1.00  0.00     0.058 A 
ATOM     16  C   UNL A   1      33.528  26.900  25.226  1.00  0.00     0.025 C 
ATOM     17  C   UNL A   1      31.075  27.153  25.220  1.00  0.00     0.314 C 
BRANCH  12  18
ATOM     18  O   UNL A   1      35.225  22.440  25.858  1.00  0.00    -0.406 OA
BRANCH  18  19
ATOM     19  C   UNL A   1      35.290  21.510  24.791  1.00  0.00     0.573 C 
ATOM     20  F   UNL A   1      36.568  21.225  24.463  1.00  0.00    -0.132 F 
ATOM     21  F   UNL A   1      34.637  20.369  25.097  1.00  0.00    -0.132 F 
ATOM     22  F   UNL A   1      34.692  22.053  23.706  1.00  0.00    -0.132 F 
ENDBRANCH  18  19
ENDBRANCH  12  18
BRANCH  17  23
ATOM     23  C   UNL A   1      30.382  26.878  23.872  1.00  0.00     0.429 C 
ATOM     24  F   UNL A   1      29.430  25.921  24.009  1.00  0.00    -0.167 F 
ATOM     25  F   UNL A   1      29.754  27.971  23.375  1.00  0.00    -0.167 F 
ATOM     26  F   UNL A   1      31.242  26.458  22.916  1.00  0.00    -0.167 F 
ENDBRANCH  17  23
ENDBRANCH   4   7
ENDBRANCH   2   3
ENDBRANCH   1   2
BRANCH   1  27
ATOM     27  C   UNL A   1      32.845  32.621  27.324  1.00  0.00     0.118 C 
BRANCH  27  28
ATOM     28  N   UNL A   1      32.674  34.032  27.666  1.00  0.00    -0.352 N 
ATOM     29  C   UNL A   1      33.188  34.738  28.724  1.00  0.00     0.251 C 
ATOM     30  H   UNL A   1      32.111  34.550  27.046  1.00  0.00     0.163 HD
ATOM     31  O   UNL A   1      32.708  35.828  29.028  1.00  0.00    -0.269 OA
BRANCH  29  32
ATOM     32  C   UNL A   1      34.315  34.179  29.491  1.00  0.00     0.039 A 
ATOM     33  C   UNL A   1      34.074  33.544  30.711  1.00  0.00     0.014 A 
ATOM     34  C   UNL A   1      35.618  34.298  28.997  1.00  0.00     0.014 A 
ATOM     35  C   UNL A   1      35.140  32.972  31.408  1.00  0.00     0.010 A 
ATOM     36  C   UNL A   1      36.664  33.661  29.650  1.00  0.00     0.010 A 
ATOM     37  C   UNL A   1      36.438  33.006  30.868  1.00  0.00    -0.014 A 
BRANCH  37  38
ATOM     38  C   UNL A   1      37.578  32.386  31.577  1.00  0.00     0.031 A 
ATOM     39  C   UNL A   1      38.324  31.246  30.940  1.00  0.00     0.074 A 
ATOM     40  C   UNL A   1      37.899  32.805  32.817  1.00  0.00     0.049 A 
ATOM     41  N   UNL A   1      39.344  30.576  31.402  1.00  0.00    -0.248 NA
ATOM     42  C   UNL A   1      37.849  30.783  29.622  1.00  0.00     0.031 C 
ATOM     43  C   UNL A   1      37.191  33.844  33.567  1.00  0.00     0.029 A 
ATOM     44  N   UNL A   1      38.892  32.396  33.670  1.00  0.00    -0.354 N 
ATOM     45  C   UNL A   1      39.617  29.603  30.450  1.00  0.00     0.074 A 
ATOM     46  C   UNL A   1      38.635  29.740  29.401  1.00  0.00     0.031 C 
ATOM     47  C   UNL A   1      37.786  34.005  34.761  1.00  0.00     0.029 A 
ATOM     48  C   UNL A   1      38.906  33.073  34.866  1.00  0.00     0.049 A 
ATOM     49  H   UNL A   1      39.535  31.685  33.446  1.00  0.00     0.167 HD
ATOM     50  C   UNL A   1      40.628  28.704  30.430  1.00  0.00     0.034 A 
ATOM     51  C   UNL A   1      39.737  32.967  35.920  1.00  0.00     0.034 A 
ATOM     52  C   UNL A   1      41.641  28.617  31.442  1.00  0.00     0.049 A 
ATOM     53  C   UNL A   1      40.879  31.990  35.856  1.00  0.00     0.074 A 
ATOM     54  C   UNL A   1      42.764  27.812  31.459  1.00  0.00     0.029 A 
ATOM     55  N   UNL A   1      41.655  29.364  32.608  1.00  0.00    -0.354 N 
ATOM     56  N   UNL A   1      41.213  31.186  34.876  1.00  0.00    -0.248 NA
ATOM     57  C   UNL A   1      41.774  31.925  37.021  1.00  0.00     0.031 C 
ATOM     58  C   UNL A   1      43.458  28.067  32.644  1.00  0.00     0.029 A 
ATOM     59  C   UNL A   1      42.766  29.033  33.360  1.00  0.00     0.049 A 
ATOM     60  H   UNL A   1      40.977  30.029  32.863  1.00  0.00     0.167 HD
ATOM     61  C   UNL A   1      42.367  30.534  35.294  1.00  0.00     0.074 A 
ATOM     62  C   UNL A   1      42.683  31.045  36.613  1.00  0.00     0.031 C 
ATOM     63  C   UNL A   1      43.090  29.590  34.647  1.00  0.00     0.034 A 
BRANCH  50  64
ATOM     64  C   UNL A   1      40.744  27.804  29.234  1.00  0.00     0.023 A 
ATOM     65  C   UNL A   1      39.938  26.651  29.169  1.00  0.00     0.012 A 
ATOM     66  C   UNL A   1      41.574  28.139  28.148  1.00  0.00     0.148 A 
ATOM     67  C   UNL A   1      39.964  25.833  28.042  1.00  0.00     0.002 A 
ATOM     68  C   UNL A   1      41.572  27.334  27.016  1.00  0.00     0.091 A 
ATOM     69  F   UNL A   1      42.342  29.233  28.244  1.00  0.00    -0.205 F 
ATOM     70  C   UNL A   1      40.772  26.180  26.963  1.00  0.00     0.022 A 
BRANCH  68  71
ATOM     71  S   UNL A   1      42.538  27.712  25.550  1.00  0.00     0.127 S 
ATOM     72  O   UNL A   1      42.238  26.564  24.695  1.00  0.00    -0.237 OA
ATOM     73  O   UNL A   1      41.943  28.973  25.109  1.00  0.00    -0.237 OA
ATOM     74  O   UNL A   1      43.923  27.808  25.991  1.00  0.00    -0.744 OA
ENDBRANCH  68  71
ENDBRANCH  50  64
BRANCH  51  75
ATOM     75  C   UNL A   1      39.569  33.884  37.079  1.00  0.00     0.023 A 
ATOM     76  C   UNL A   1      39.952  35.232  36.942  1.00  0.00     0.012 A 
ATOM     77  C   UNL A   1      38.965  33.456  38.276  1.00  0.00     0.148 A 
ATOM     78  C   UNL A   1      39.747  36.138  37.983  1.00  0.00     0.002 A 
ATOM     79  C   UNL A   1      38.730  34.372  39.296  1.00  0.00     0.091 A 
ATOM     80  F   UNL A   1      38.606  32.169  38.378  1.00  0.00    -0.205 F 
ATOM     81  C   UNL A   1      39.129  35.711  39.155  1.00  0.00     0.022 A 
BRANCH  79  82
ATOM     82  S   UNL A   1      37.851  33.944  40.803  1.00  0.00     0.127 S 
ATOM     83  O   UNL A   1      38.802  33.050  41.460  1.00  0.00    -0.237 OA
ATOM     84  O   UNL A   1      37.695  35.253  41.439  1.00  0.00    -0.237 OA
ATOM     85  O   UNL A   1      36.605  33.325  40.374  1.00  0.00    -0.744 OA
ENDBRANCH  79  82
ENDBRANCH  51  75
BRANCH  63  86
ATOM     86  C   UNL A   1      44.305  29.026  35.327  1.00  0.00     0.023 A 
ATOM     87  C   UNL A   1      45.522  29.727  35.240  1.00  0.00     0.012 A 
ATOM     88  C   UNL A   1      44.190  27.925  36.199  1.00  0.00     0.148 A 
ATOM     89  C   UNL A   1      46.611  29.343  36.019  1.00  0.00     0.002 A 
ATOM     90  C   UNL A   1      45.271  27.570  36.996  1.00  0.00     0.091 A 
ATOM     91  F   UNL A   1      43.016  27.282  36.260  1.00  0.00    -0.205 F 
ATOM     92  C   UNL A   1      46.482  28.277  36.906  1.00  0.00     0.022 A 
BRANCH  90  93
ATOM     93  S   UNL A   1      45.178  26.269  38.230  1.00  0.00     0.127 S 
ATOM     94  O   UNL A   1      46.410  26.488  38.987  1.00  0.00    -0.237 OA
ATOM     95  O   UNL A   1      43.952  26.613  38.947  1.00  0.00    -0.237 OA
ATOM     96  O   UNL A   1      45.127  25.013  37.495  1.00  0.00    -0.744 OA
ENDBRANCH  90  93
ENDBRANCH  63  86
ENDBRANCH  37  38
ENDBRANCH  29  32
ENDBRANCH  27  28
ENDBRANCH   1  27
TORSDOF 16
ENDMDL
MODEL 3
REMARK VINA RESULT:     -12.4      4.707      9.580
REMARK SMILES Cc1cc(OC(F)(F)F)cc2c1O[C@H](C(F)(F)F)C(C(=O)NCCCNC(=O)c1ccc(-c3c4nc(c(-c5cccc(S(=O)(=O)[O-])c5F)c5ccc([nH]5)c(-c5cccc(S(=O)(=O)[O-])c5F)c5nc(c(-c6cccc(S(=O)(=O)[O-])c6F)c6ccc3[nH]6)C=C5)C=C4)cc1)=C2
REMARK SMILES IDX 24 1 23 2 22 3 20 4 21 5 19 7 1 8 2 9 3 10 12 11 4 12 11 13
REMARK SMILES IDX 13 14 10 15 92 16 14 17 5 18 6 19 7 20 8 21 9 22 15 23 16 24
REMARK SMILES IDX 17 25 18 26 25 27 26 28 27 29 28 31 29 32 30 33 91 34 31 35
REMARK SMILES IDX 90 36 32 37 33 38 34 39 84 40 35 41 89 42 83 43 85 44 36 45
REMARK SMILES IDX 88 46 82 47 81 48 37 50 69 51 49 52 68 53 50 54 53 55 67 56
REMARK SMILES IDX 86 57 51 58 52 59 66 61 87 62 54 63 38 64 39 65 47 66 40 67
REMARK SMILES IDX 42 68 48 69 41 70 43 71 44 72 45 73 46 74 70 75 71 76 79 77
REMARK SMILES IDX 72 78 74 79 80 80 73 81 75 82 76 83 77 84 78 85 55 86 56 87
REMARK SMILES IDX 64 88 57 89 59 90 65 91 58 92 60 93 61 94 62 95 63 96
REMARK H PARENT 22 6 26 30 85 49 53 60
REMARK Flexibility Score: inf
ROOT
ATOM      1  C   UNL A   1      36.309  23.121  24.368  1.00  0.00     0.042 C 
ENDROOT
BRANCH   1   2
ATOM      2  C   UNL A   1      34.791  23.029  24.313  1.00  0.00     0.118 C 
BRANCH   2   3
ATOM      3  N   UNL A   1      34.291  23.063  22.946  1.00  0.00    -0.352 N 
ATOM      4  C   UNL A   1      33.505  23.868  22.193  1.00  0.00     0.251 C 
ATOM      5  O   UNL A   1      33.350  23.505  21.023  1.00  0.00    -0.270 OA
ATOM      6  H   UNL A   1      34.611  22.290  22.427  1.00  0.00     0.163 HD
BRANCH   4   7
ATOM      7  C   UNL A   1      32.855  25.123  22.669  1.00  0.00     0.067 C 
ATOM      8  C   UNL A   1      29.835  29.192  23.463  1.00  0.00     0.048 C 
ATOM      9  C   UNL A   1      31.222  28.797  23.887  1.00  0.00    -0.005 A 
ATOM     10  C   UNL A   1      31.943  29.602  24.783  1.00  0.00     0.054 A 
ATOM     11  C   UNL A   1      31.792  27.597  23.445  1.00  0.00     0.131 A 
ATOM     12  C   UNL A   1      33.224  29.233  25.199  1.00  0.00     0.130 A 
ATOM     13  C   UNL A   1      33.073  27.218  23.849  1.00  0.00     0.021 A 
ATOM     14  O   UNL A   1      31.058  26.842  22.574  1.00  0.00    -0.475 OA
ATOM     15  C   UNL A   1      33.785  28.041  24.724  1.00  0.00     0.058 A 
ATOM     16  C   UNL A   1      33.653  25.986  23.325  1.00  0.00     0.025 C 
ATOM     17  C   UNL A   1      31.399  25.435  22.491  1.00  0.00     0.314 C 
BRANCH  12  18
ATOM     18  O   UNL A   1      34.027  29.934  26.055  1.00  0.00    -0.406 OA
BRANCH  18  19
ATOM     19  C   UNL A   1      34.272  29.376  27.334  1.00  0.00     0.573 C 
ATOM     20  F   UNL A   1      33.228  28.634  27.757  1.00  0.00    -0.132 F 
ATOM     21  F   UNL A   1      35.391  28.621  27.331  1.00  0.00    -0.132 F 
ATOM     22  F   UNL A   1      34.454  30.384  28.219  1.00  0.00    -0.132 F 
ENDBRANCH  18  19
ENDBRANCH  12  18
BRANCH  17  23
ATOM     23  C   UNL A   1      30.505  24.643  23.464  1.00  0.00     0.429 C 
ATOM     24  F   UNL A   1      31.080  24.567  24.691  1.00  0.00    -0.167 F 
ATOM     25  F   UNL A   1      29.292  25.219  23.648  1.00  0.00    -0.167 F 
ATOM     26  F   UNL A   1      30.273  23.376  23.050  1.00  0.00    -0.167 F 
ENDBRANCH  17  23
ENDBRANCH   4   7
ENDBRANCH   2   3
ENDBRANCH   1   2
BRANCH   1  27
ATOM     27  C   UNL A   1      36.814  23.354  25.787  1.00  0.00     0.118 C 
BRANCH  27  28
ATOM     28  N   UNL A   1      37.915  22.451  26.118  1.00  0.00    -0.352 N 
ATOM     29  C   UNL A   1      39.201  22.749  26.492  1.00  0.00     0.251 C 
ATOM     30  H   UNL A   1      37.702  21.491  26.066  1.00  0.00     0.163 HD
ATOM     31  O   UNL A   1      40.074  21.885  26.440  1.00  0.00    -0.269 OA
BRANCH  29  32
ATOM     32  C   UNL A   1      39.526  24.111  26.954  1.00  0.00     0.039 A 
ATOM     33  C   UNL A   1      39.255  24.476  28.274  1.00  0.00     0.014 A 
ATOM     34  C   UNL A   1      40.092  25.029  26.065  1.00  0.00     0.014 A 
ATOM     35  C   UNL A   1      39.611  25.750  28.719  1.00  0.00     0.010 A 
ATOM     36  C   UNL A   1      40.518  26.266  26.529  1.00  0.00     0.010 A 
ATOM     37  C   UNL A   1      40.268  26.643  27.854  1.00  0.00    -0.014 A 
BRANCH  37  38
ATOM     38  C   UNL A   1      40.676  27.990  28.311  1.00  0.00     0.031 A 
ATOM     39  C   UNL A   1      42.131  28.369  28.312  1.00  0.00     0.074 A 
ATOM     40  C   UNL A   1      39.747  28.843  28.783  1.00  0.00     0.049 A 
ATOM     41  N   UNL A   1      42.683  29.495  28.675  1.00  0.00    -0.248 NA
ATOM     42  C   UNL A   1      43.095  27.344  27.871  1.00  0.00     0.031 C 
ATOM     43  C   UNL A   1      38.317  28.551  28.908  1.00  0.00     0.029 A 
ATOM     44  N   UNL A   1      39.868  30.123  29.260  1.00  0.00    -0.354 N 
ATOM     45  C   UNL A   1      44.051  29.308  28.529  1.00  0.00     0.074 A 
ATOM     46  C   UNL A   1      44.254  27.950  28.083  1.00  0.00     0.031 C 
ATOM     47  C   UNL A   1      37.691  29.630  29.409  1.00  0.00     0.029 A 
ATOM     48  C   UNL A   1      38.675  30.681  29.653  1.00  0.00     0.049 A 
ATOM     49  H   UNL A   1      40.729  30.598  29.315  1.00  0.00     0.167 HD
ATOM     50  C   UNL A   1      45.047  30.205  28.706  1.00  0.00     0.034 A 
ATOM     51  C   UNL A   1      38.402  31.908  30.139  1.00  0.00     0.034 A 
ATOM     52  C   UNL A   1      44.835  31.573  29.083  1.00  0.00     0.049 A 
ATOM     53  C   UNL A   1      39.522  32.902  30.286  1.00  0.00     0.074 A 
ATOM     54  C   UNL A   1      45.769  32.585  29.187  1.00  0.00     0.029 A 
ATOM     55  N   UNL A   1      43.605  32.117  29.412  1.00  0.00    -0.354 N 
ATOM     56  N   UNL A   1      40.791  32.754  29.993  1.00  0.00    -0.248 NA
ATOM     57  C   UNL A   1      39.174  34.235  30.799  1.00  0.00     0.031 C 
ATOM     58  C   UNL A   1      45.103  33.746  29.586  1.00  0.00     0.029 A 
ATOM     59  C   UNL A   1      43.755  33.453  29.728  1.00  0.00     0.049 A 
ATOM     60  H   UNL A   1      42.752  31.626  29.421  1.00  0.00     0.167 HD
ATOM     61  C   UNL A   1      41.390  33.978  30.264  1.00  0.00     0.074 A 
ATOM     62  C   UNL A   1      40.343  34.862  30.735  1.00  0.00     0.031 C 
ATOM     63  C   UNL A   1      42.692  34.330  30.145  1.00  0.00     0.034 A 
BRANCH  50  64
ATOM     64  C   UNL A   1      46.450  29.765  28.405  1.00  0.00     0.023 A 
ATOM     65  C   UNL A   1      46.969  29.984  27.113  1.00  0.00     0.012 A 
ATOM     66  C   UNL A   1      47.277  29.224  29.407  1.00  0.00     0.148 A 
ATOM     67  C   UNL A   1      48.291  29.658  26.818  1.00  0.00     0.002 A 
ATOM     68  C   UNL A   1      48.602  28.930  29.112  1.00  0.00     0.091 A 
ATOM     69  F   UNL A   1      46.752  29.013  30.622  1.00  0.00    -0.205 F 
ATOM     70  C   UNL A   1      49.109  29.141  27.819  1.00  0.00     0.022 A 
BRANCH  68  71
ATOM     71  S   UNL A   1      49.757  28.305  30.337  1.00  0.00     0.127 S 
ATOM     72  O   UNL A   1      49.202  26.981  30.618  1.00  0.00    -0.237 OA
ATOM     73  O   UNL A   1      51.015  28.294  29.592  1.00  0.00    -0.237 OA
ATOM     74  O   UNL A   1      49.711  29.243  31.451  1.00  0.00    -0.744 OA
ENDBRANCH  68  71
ENDBRANCH  50  64
BRANCH  51  75
ATOM     75  C   UNL A   1      36.992  32.284  30.422  1.00  0.00     0.023 A 
ATOM     76  C   UNL A   1      36.480  32.084  31.719  1.00  0.00     0.012 A 
ATOM     77  C   UNL A   1      36.185  32.906  29.450  1.00  0.00     0.148 A 
ATOM     78  C   UNL A   1      35.184  32.487  32.040  1.00  0.00     0.002 A 
ATOM     79  C   UNL A   1      34.907  33.338  29.787  1.00  0.00     0.091 A 
ATOM     80  F   UNL A   1      36.699  33.088  28.226  1.00  0.00    -0.205 F 
ATOM     81  C   UNL A   1      34.401  33.121  31.080  1.00  0.00     0.022 A 
BRANCH  79  82
ATOM     82  S   UNL A   1      33.859  34.254  28.652  1.00  0.00     0.127 S 
ATOM     83  O   UNL A   1      32.759  34.662  29.524  1.00  0.00    -0.237 OA
ATOM     84  O   UNL A   1      34.749  35.338  28.234  1.00  0.00    -0.237 OA
ATOM     85  O   UNL A   1      33.505  33.318  27.594  1.00  0.00    -0.744 OA
ENDBRANCH  79  82
ENDBRANCH  51  75
BRANCH  63  86
ATOM     86  C   UNL A   1      43.094  35.728  30.519  1.00  0.00     0.023 A 
ATOM     87  C   UNL A   1      43.567  35.976  31.821  1.00  0.00     0.012 A 
ATOM     88  C   UNL A   1      43.184  36.734  29.537  1.00  0.00     0.148 A 
ATOM     89  C   UNL A   1      44.133  37.208  32.140  1.00  0.00     0.002 A 
ATOM     90  C   UNL A   1      43.779  37.947  29.855  1.00  0.00     0.091 A 
ATOM     91  F   UNL A   1      42.726  36.464  28.306  1.00  0.00    -0.205 F 
ATOM     92  C   UNL A   1      44.253  38.186  31.156  1.00  0.00     0.022 A 
BRANCH  90  93
ATOM     93  S   UNL A   1      44.059  39.238  28.638  1.00  0.00     0.127 S 
ATOM     94  O   UNL A   1      42.726  39.392  28.055  1.00  0.00    -0.237 OA
ATOM     95  O   UNL A   1      44.492  40.358  29.472  1.00  0.00    -0.237 OA
ATOM     96  O   UNL A   1      45.071  38.726  27.726  1.00  0.00    -0.744 OA
ENDBRANCH  90  93
ENDBRANCH  63  86
ENDBRANCH  37  38
ENDBRANCH  29  32
ENDBRANCH  27  28
ENDBRANCH   1  27
TORSDOF 16
ENDMDL
