MODEL 1
REMARK VINA RESULT:     -12.7      0.000      0.000
REMARK SMILES COC(=O)C1CCN(C(=O)N[C@@H]2C=C[C@H](C(=O)NCCCNC(=O)c3ccc(-c4c5nc(c(-c6cccc(S(=O)(=O)[O-])c6F)c6ccc([nH]6)c(-c6cccc(S(=O)(=O)[O-])c6F)c6nc(c(-c7cccc(S(=O)(=O)[O-])c7F)c7ccc4[nH]7)C=C6)C=C5)cc3)C2)CC1
REMARK SMILES IDX 20 1 19 2 18 3 16 4 17 5 15 7 12 8 13 9 88 10 14 11 11 12
REMARK SMILES IDX 5 13 6 14 90 15 7 16 89 17 8 18 9 19 10 20 3 22 4 23 2 24
REMARK SMILES IDX 1 25 21 26 22 27 23 28 24 30 25 31 26 32 87 33 27 34 86 35
REMARK SMILES IDX 28 36 29 37 30 38 80 39 31 40 85 41 79 42 81 43 32 44 84 45
REMARK SMILES IDX 78 46 77 47 33 49 65 50 45 51 64 52 46 53 49 54 63 55 82 56
REMARK SMILES IDX 47 57 48 58 62 60 83 61 50 62 34 63 35 64 43 65 36 66 38 67
REMARK SMILES IDX 44 68 37 69 39 70 40 71 41 72 42 73 66 74 67 75 75 76 68 77
REMARK SMILES IDX 70 78 76 79 69 80 71 81 72 82 73 83 74 84 51 85 52 86 60 87
REMARK SMILES IDX 53 88 55 89 61 90 54 91 56 92 57 93 58 94 59 95
REMARK H PARENT 18 6 11 21 22 29 81 48 49 59
REMARK Flexibility Score: inf
ROOT
ATOM      1  C   UNL A   1      31.677  32.183  26.842  1.00  0.00     0.042 C 
ENDROOT
BRANCH   1   2
ATOM      2  C   UNL A   1      31.850  30.684  26.886  1.00  0.00     0.117 C 
BRANCH   2   3
ATOM      3  N   UNL A   1      32.690  30.145  25.831  1.00  0.00    -0.356 N 
ATOM      4  C   UNL A   1      32.345  29.433  24.717  1.00  0.00     0.227 C 
ATOM      5  O   UNL A   1      33.240  29.176  23.908  1.00  0.00    -0.274 OA
ATOM      6  H   UNL A   1      33.654  30.319  25.936  1.00  0.00     0.163 HD
BRANCH   4   7
ATOM      7  C   UNL A   1      30.915  28.906  24.552  1.00  0.00     0.103 C 
ATOM      8  C   UNL A   1      30.436  27.255  22.727  1.00  0.00     0.107 C 
ATOM      9  C   UNL A   1      29.983  28.633  22.418  1.00  0.00    -0.006 C 
ATOM     10  C   UNL A   1      30.874  27.392  24.206  1.00  0.00     0.047 C 
ATOM     11  C   UNL A   1      30.199  29.504  23.392  1.00  0.00    -0.016 C 
BRANCH   8  12
ATOM     12  N   UNL A   1      31.485  26.881  21.804  1.00  0.00    -0.332 N 
ATOM     13  C   UNL A   1      31.888  22.182  23.102  1.00  0.00     0.102 C 
ATOM     14  C   UNL A   1      33.145  22.588  22.310  1.00  0.00     0.037 C 
ATOM     15  C   UNL A   1      30.927  23.356  23.287  1.00  0.00     0.037 C 
ATOM     16  C   UNL A   1      33.691  23.998  22.607  1.00  0.00     0.122 C 
ATOM     17  C   UNL A   1      31.691  24.581  23.794  1.00  0.00     0.122 C 
ATOM     18  N   UNL A   1      32.614  24.982  22.751  1.00  0.00    -0.325 N 
ATOM     19  C   UNL A   1      32.492  25.978  21.813  1.00  0.00     0.317 C 
ATOM     20  O   UNL A   1      33.307  26.091  20.890  1.00  0.00    -0.249 OA
ATOM     21  H   UNL A   1      31.460  27.410  20.974  1.00  0.00     0.165 HD
BRANCH  13  22
ATOM     22  C   UNL A   1      32.151  21.608  24.480  1.00  0.00     0.308 C 
ATOM     23  O   UNL A   1      31.368  21.635  25.421  1.00  0.00    -0.252 OA
BRANCH  22  24
ATOM     24  O   UNL A   1      33.335  20.930  24.450  1.00  0.00    -0.469 OA
ATOM     25  C   UNL A   1      33.477  19.850  25.372  1.00  0.00     0.282 C 
ENDBRANCH  22  24
ENDBRANCH  13  22
ENDBRANCH   8  12
ENDBRANCH   4   7
ENDBRANCH   2   3
ENDBRANCH   1   2
BRANCH   1  26
ATOM     26  C   UNL A   1      32.903  32.959  27.255  1.00  0.00     0.118 C 
BRANCH  26  27
ATOM     27  N   UNL A   1      32.600  34.319  27.686  1.00  0.00    -0.352 N 
ATOM     28  C   UNL A   1      33.115  35.038  28.738  1.00  0.00     0.251 C 
ATOM     29  H   UNL A   1      31.928  34.790  27.144  1.00  0.00     0.163 HD
ATOM     30  O   UNL A   1      32.616  36.118  29.041  1.00  0.00    -0.269 OA
BRANCH  28  31
ATOM     31  C   UNL A   1      34.248  34.493  29.519  1.00  0.00     0.039 A 
ATOM     32  C   UNL A   1      33.997  33.849  30.732  1.00  0.00     0.014 A 
ATOM     33  C   UNL A   1      35.556  34.598  29.043  1.00  0.00     0.014 A 
ATOM     34  C   UNL A   1      35.053  33.260  31.430  1.00  0.00     0.010 A 
ATOM     35  C   UNL A   1      36.576  33.890  29.660  1.00  0.00     0.010 A 
ATOM     36  C   UNL A   1      36.347  33.246  30.883  1.00  0.00    -0.014 A 
BRANCH  36  37
ATOM     37  C   UNL A   1      37.493  32.622  31.591  1.00  0.00     0.031 A 
ATOM     38  C   UNL A   1      38.236  31.480  30.944  1.00  0.00     0.074 A 
ATOM     39  C   UNL A   1      37.814  33.021  32.838  1.00  0.00     0.049 A 
ATOM     40  N   UNL A   1      39.218  30.761  31.420  1.00  0.00    -0.248 NA
ATOM     41  C   UNL A   1      37.794  31.068  29.601  1.00  0.00     0.031 C 
ATOM     42  C   UNL A   1      37.120  34.058  33.606  1.00  0.00     0.029 A 
ATOM     43  N   UNL A   1      38.799  32.584  33.689  1.00  0.00    -0.354 N 
ATOM     44  C   UNL A   1      39.477  29.791  30.459  1.00  0.00     0.074 A 
ATOM     45  C   UNL A   1      38.516  29.977  29.398  1.00  0.00     0.031 C 
ATOM     46  C   UNL A   1      37.710  34.189  34.804  1.00  0.00     0.029 A 
ATOM     47  C   UNL A   1      38.801  33.224  34.906  1.00  0.00     0.049 A 
ATOM     48  H   UNL A   1      39.443  31.879  33.449  1.00  0.00     0.167 HD
ATOM     49  C   UNL A   1      40.452  28.852  30.437  1.00  0.00     0.034 A 
ATOM     50  C   UNL A   1      39.591  33.050  35.984  1.00  0.00     0.034 A 
ATOM     51  C   UNL A   1      41.439  28.703  31.470  1.00  0.00     0.049 A 
ATOM     52  C   UNL A   1      40.696  32.029  35.918  1.00  0.00     0.074 A 
ATOM     53  C   UNL A   1      42.520  27.844  31.508  1.00  0.00     0.029 A 
ATOM     54  N   UNL A   1      41.461  29.431  32.650  1.00  0.00    -0.354 N 
ATOM     55  N   UNL A   1      41.016  31.221  34.938  1.00  0.00    -0.248 NA
ATOM     56  C   UNL A   1      41.575  31.926  37.092  1.00  0.00     0.031 C 
ATOM     57  C   UNL A   1      43.180  28.028  32.727  1.00  0.00     0.029 A 
ATOM     58  C   UNL A   1      42.535  29.036  33.427  1.00  0.00     0.049 A 
ATOM     59  H   UNL A   1      40.809  30.126  32.897  1.00  0.00     0.167 HD
ATOM     60  C   UNL A   1      42.160  30.548  35.355  1.00  0.00     0.074 A 
ATOM     61  C   UNL A   1      42.483  31.056  36.673  1.00  0.00     0.031 C 
ATOM     62  C   UNL A   1      42.874  29.592  34.711  1.00  0.00     0.034 A 
BRANCH  49  63
ATOM     63  C   UNL A   1      40.525  27.946  29.235  1.00  0.00     0.023 A 
ATOM     64  C   UNL A   1      39.668  26.829  29.144  1.00  0.00     0.012 A 
ATOM     65  C   UNL A   1      41.411  28.222  28.175  1.00  0.00     0.148 A 
ATOM     66  C   UNL A   1      39.721  25.979  28.041  1.00  0.00     0.002 A 
ATOM     67  C   UNL A   1      41.420  27.401  27.055  1.00  0.00     0.091 A 
ATOM     68  F   UNL A   1      42.234  29.274  28.288  1.00  0.00    -0.205 F 
ATOM     69  C   UNL A   1      40.587  26.271  26.992  1.00  0.00     0.022 A 
BRANCH  67  70
ATOM     70  S   UNL A   1      42.437  27.739  25.614  1.00  0.00     0.127 S 
ATOM     71  O   UNL A   1      43.770  27.828  26.208  1.00  0.00    -0.237 OA
ATOM     72  O   UNL A   1      42.214  26.546  24.795  1.00  0.00    -0.237 OA
ATOM     73  O   UNL A   1      41.926  28.976  25.040  1.00  0.00    -0.744 OA
ENDBRANCH  67  70
ENDBRANCH  49  63
BRANCH  50  74
ATOM     74  C   UNL A   1      39.413  33.907  37.190  1.00  0.00     0.023 A 
ATOM     75  C   UNL A   1      39.880  35.235  37.172  1.00  0.00     0.012 A 
ATOM     76  C   UNL A   1      38.773  33.421  38.346  1.00  0.00     0.148 A 
ATOM     77  C   UNL A   1      39.751  36.051  38.297  1.00  0.00     0.002 A 
ATOM     78  C   UNL A   1      38.595  34.256  39.443  1.00  0.00     0.091 A 
ATOM     79  F   UNL A   1      38.339  32.152  38.345  1.00  0.00    -0.205 F 
ATOM     80  C   UNL A   1      39.102  35.565  39.427  1.00  0.00     0.022 A 
BRANCH  78  81
ATOM     81  S   UNL A   1      37.659  33.759  40.893  1.00  0.00     0.127 S 
ATOM     82  O   UNL A   1      38.578  32.825  41.537  1.00  0.00    -0.237 OA
ATOM     83  O   UNL A   1      37.487  35.035  41.590  1.00  0.00    -0.237 OA
ATOM     84  O   UNL A   1      36.422  33.182  40.386  1.00  0.00    -0.744 OA
ENDBRANCH  78  81
ENDBRANCH  50  74
BRANCH  62  85
ATOM     85  C   UNL A   1      44.117  29.073  35.386  1.00  0.00     0.023 A 
ATOM     86  C   UNL A   1      45.360  29.698  35.162  1.00  0.00     0.012 A 
ATOM     87  C   UNL A   1      44.032  28.008  36.303  1.00  0.00     0.148 A 
ATOM     88  C   UNL A   1      46.506  29.243  35.812  1.00  0.00     0.002 A 
ATOM     89  C   UNL A   1      45.168  27.596  36.988  1.00  0.00     0.091 A 
ATOM     90  F   UNL A   1      42.844  27.415  36.489  1.00  0.00    -0.205 F 
ATOM     91  C   UNL A   1      46.408  28.202  36.732  1.00  0.00     0.022 A 
BRANCH  89  92
ATOM     92  S   UNL A   1      45.115  26.336  38.267  1.00  0.00     0.127 S 
ATOM     93  O   UNL A   1      44.609  25.182  37.526  1.00  0.00    -0.237 OA
ATOM     94  O   UNL A   1      46.521  26.238  38.662  1.00  0.00    -0.237 OA
ATOM     95  O   UNL A   1      44.230  26.850  39.303  1.00  0.00    -0.744 OA
ENDBRANCH  89  92
ENDBRANCH  62  85
ENDBRANCH  36  37
ENDBRANCH  28  31
ENDBRANCH  26  27
ENDBRANCH   1  26
TORSDOF 16
ENDMDL
MODEL 2
REMARK VINA RESULT:     -12.5      5.997     12.112
REMARK SMILES COC(=O)C1CCN(C(=O)N[C@@H]2C=C[C@H](C(=O)NCCCNC(=O)c3ccc(-c4c5nc(c(-c6cccc(S(=O)(=O)[O-])c6F)c6ccc([nH]6)c(-c6cccc(S(=O)(=O)[O-])c6F)c6nc(c(-c7cccc(S(=O)(=O)[O-])c7F)c7ccc4[nH]7)C=C6)C=C5)cc3)C2)CC1
REMARK SMILES IDX 20 1 19 2 18 3 16 4 17 5 15 7 12 8 13 9 88 10 14 11 11 12
REMARK SMILES IDX 5 13 6 14 90 15 7 16 89 17 8 18 9 19 10 20 3 22 4 23 2 24
REMARK SMILES IDX 1 25 21 26 22 27 23 28 24 30 25 31 26 32 87 33 27 34 86 35
REMARK SMILES IDX 28 36 29 37 30 38 80 39 31 40 85 41 79 42 81 43 32 44 84 45
REMARK SMILES IDX 78 46 77 47 33 49 65 50 45 51 64 52 46 53 49 54 63 55 82 56
REMARK SMILES IDX 47 57 48 58 62 60 83 61 50 62 34 63 35 64 43 65 36 66 38 67
REMARK SMILES IDX 44 68 37 69 39 70 40 71 41 72 42 73 66 74 67 75 75 76 68 77
REMARK SMILES IDX 70 78 76 79 69 80 71 81 72 82 73 83 74 84 51 85 52 86 60 87
REMARK SMILES IDX 53 88 55 89 61 90 54 91 56 92 57 93 58 94 59 95
REMARK H PARENT 18 6 11 21 22 29 81 48 49 59
REMARK Flexibility Score: inf
ROOT
ATOM      1  C   UNL A   1      38.469  20.143  25.045  1.00  0.00     0.042 C 
ENDROOT
BRANCH   1   2
ATOM      2  C   UNL A   1      37.656  21.401  24.859  1.00  0.00     0.117 C 
BRANCH   2   3
ATOM      3  N   UNL A   1      36.724  21.678  25.938  1.00  0.00    -0.356 N 
ATOM      4  C   UNL A   1      35.380  21.441  26.015  1.00  0.00     0.227 C 
ATOM      5  O   UNL A   1      34.824  21.673  27.091  1.00  0.00    -0.274 OA
ATOM      6  H   UNL A   1      37.120  22.103  26.733  1.00  0.00     0.163 HD
BRANCH   4   7
ATOM      7  C   UNL A   1      34.604  20.994  24.771  1.00  0.00     0.103 C 
ATOM      8  C   UNL A   1      32.128  21.382  24.683  1.00  0.00     0.107 C 
ATOM      9  C   UNL A   1      32.502  19.977  24.977  1.00  0.00    -0.006 C 
ATOM     10  C   UNL A   1      33.505  22.011  24.356  1.00  0.00     0.047 C 
ATOM     11  C   UNL A   1      33.807  19.756  24.989  1.00  0.00    -0.016 C 
BRANCH   8  12
ATOM     12  N   UNL A   1      31.449  21.943  25.830  1.00  0.00    -0.332 N 
ATOM     13  C   UNL A   1      29.750  26.001  23.692  1.00  0.00     0.102 C 
ATOM     14  C   UNL A   1      29.684  26.181  25.220  1.00  0.00     0.037 C 
ATOM     15  C   UNL A   1      30.359  24.656  23.302  1.00  0.00     0.037 C 
ATOM     16  C   UNL A   1      30.882  25.614  26.008  1.00  0.00     0.122 C 
ATOM     17  C   UNL A   1      31.660  24.428  24.075  1.00  0.00     0.122 C 
ATOM     18  N   UNL A   1      31.318  24.318  25.479  1.00  0.00    -0.325 N 
ATOM     19  C   UNL A   1      31.161  23.195  26.254  1.00  0.00     0.317 C 
ATOM     20  O   UNL A   1      30.714  23.269  27.405  1.00  0.00    -0.249 OA
ATOM     21  H   UNL A   1      31.120  21.250  26.447  1.00  0.00     0.165 HD
BRANCH  13  22
ATOM     22  C   UNL A   1      30.530  27.069  22.950  1.00  0.00     0.308 C 
ATOM     23  O   UNL A   1      30.958  26.969  21.807  1.00  0.00    -0.252 OA
BRANCH  22  24
ATOM     24  O   UNL A   1      30.543  28.204  23.708  1.00  0.00    -0.469 OA
ATOM     25  C   UNL A   1      31.818  28.650  24.169  1.00  0.00     0.282 C 
ENDBRANCH  22  24
ENDBRANCH  13  22
ENDBRANCH   8  12
ENDBRANCH   4   7
ENDBRANCH   2   3
ENDBRANCH   1   2
BRANCH   1  26
ATOM     26  C   UNL A   1      39.477  20.219  26.166  1.00  0.00     0.118 C 
BRANCH  26  27
ATOM     27  N   UNL A   1      40.510  19.195  26.074  1.00  0.00    -0.352 N 
ATOM     28  C   UNL A   1      41.878  19.331  26.063  1.00  0.00     0.251 C 
ATOM     29  H   UNL A   1      40.180  18.270  26.012  1.00  0.00     0.163 HD
ATOM     30  O   UNL A   1      42.585  18.358  25.816  1.00  0.00    -0.269 OA
BRANCH  28  31
ATOM     31  C   UNL A   1      42.489  20.655  26.318  1.00  0.00     0.039 A 
ATOM     32  C   UNL A   1      42.860  21.457  25.237  1.00  0.00     0.014 A 
ATOM     33  C   UNL A   1      42.675  21.113  27.623  1.00  0.00     0.014 A 
ATOM     34  C   UNL A   1      43.358  22.740  25.472  1.00  0.00     0.010 A 
ATOM     35  C   UNL A   1      43.030  22.434  27.848  1.00  0.00     0.010 A 
ATOM     36  C   UNL A   1      43.416  23.252  26.779  1.00  0.00    -0.014 A 
BRANCH  36  37
ATOM     37  C   UNL A   1      43.932  24.615  27.067  1.00  0.00     0.031 A 
ATOM     38  C   UNL A   1      43.002  25.658  27.634  1.00  0.00     0.074 A 
ATOM     39  C   UNL A   1      45.201  24.937  26.748  1.00  0.00     0.049 A 
ATOM     40  N   UNL A   1      43.237  26.917  27.894  1.00  0.00    -0.248 NA
ATOM     41  C   UNL A   1      41.616  25.243  27.910  1.00  0.00     0.031 C 
ATOM     42  C   UNL A   1      46.174  24.043  26.118  1.00  0.00     0.029 A 
ATOM     43  N   UNL A   1      45.884  26.119  26.892  1.00  0.00    -0.354 N 
ATOM     44  C   UNL A   1      42.025  27.448  28.319  1.00  0.00     0.074 A 
ATOM     45  C   UNL A   1      41.044  26.393  28.230  1.00  0.00     0.031 C 
ATOM     46  C   UNL A   1      47.332  24.701  25.946  1.00  0.00     0.029 A 
ATOM     47  C   UNL A   1      47.175  26.072  26.420  1.00  0.00     0.049 A 
ATOM     48  H   UNL A   1      45.487  26.925  27.295  1.00  0.00     0.167 HD
ATOM     49  C   UNL A   1      41.755  28.692  28.781  1.00  0.00     0.034 A 
ATOM     50  C   UNL A   1      48.123  27.028  26.373  1.00  0.00     0.034 A 
ATOM     51  C   UNL A   1      42.745  29.724  28.917  1.00  0.00     0.049 A 
ATOM     52  C   UNL A   1      47.812  28.390  26.933  1.00  0.00     0.074 A 
ATOM     53  C   UNL A   1      42.599  30.990  29.453  1.00  0.00     0.029 A 
ATOM     54  N   UNL A   1      44.065  29.609  28.510  1.00  0.00    -0.354 N 
ATOM     55  N   UNL A   1      46.699  28.829  27.467  1.00  0.00    -0.248 NA
ATOM     56  C   UNL A   1      48.902  29.376  26.923  1.00  0.00     0.031 C 
ATOM     57  C   UNL A   1      43.824  31.654  29.341  1.00  0.00     0.029 A 
ATOM     58  C   UNL A   1      44.744  30.784  28.777  1.00  0.00     0.049 A 
ATOM     59  H   UNL A   1      44.460  28.810  28.093  1.00  0.00     0.167 HD
ATOM     60  C   UNL A   1      46.966  30.123  27.899  1.00  0.00     0.074 A 
ATOM     61  C   UNL A   1      48.353  30.391  27.577  1.00  0.00     0.031 C 
ATOM     62  C   UNL A   1      46.139  31.013  28.501  1.00  0.00     0.034 A 
BRANCH  49  63
ATOM     63  C   UNL A   1      40.343  28.986  29.217  1.00  0.00     0.023 A 
ATOM     64  C   UNL A   1      39.383  29.388  28.265  1.00  0.00     0.012 A 
ATOM     65  C   UNL A   1      39.953  28.823  30.561  1.00  0.00     0.148 A 
ATOM     66  C   UNL A   1      38.072  29.665  28.648  1.00  0.00     0.002 A 
ATOM     67  C   UNL A   1      38.632  29.049  30.926  1.00  0.00     0.091 A 
ATOM     68  F   UNL A   1      40.883  28.462  31.457  1.00  0.00    -0.205 F 
ATOM     69  C   UNL A   1      37.694  29.484  29.975  1.00  0.00     0.022 A 
BRANCH  67  70
ATOM     70  S   UNL A   1      38.024  28.762  32.592  1.00  0.00     0.127 S 
ATOM     71  O   UNL A   1      36.657  29.274  32.499  1.00  0.00    -0.237 OA
ATOM     72  O   UNL A   1      38.123  27.307  32.707  1.00  0.00    -0.237 OA
ATOM     73  O   UNL A   1      38.909  29.505  33.477  1.00  0.00    -0.744 OA
ENDBRANCH  67  70
ENDBRANCH  49  63
BRANCH  50  74
ATOM     74  C   UNL A   1      49.479  26.713  25.838  1.00  0.00     0.023 A 
ATOM     75  C   UNL A   1      50.381  25.975  26.628  1.00  0.00     0.012 A 
ATOM     76  C   UNL A   1      49.873  27.125  24.551  1.00  0.00     0.148 A 
ATOM     77  C   UNL A   1      51.666  25.689  26.163  1.00  0.00     0.002 A 
ATOM     78  C   UNL A   1      51.133  26.788  24.071  1.00  0.00     0.091 A 
ATOM     79  F   UNL A   1      49.001  27.831  23.816  1.00  0.00    -0.205 F 
ATOM     80  C   UNL A   1      52.038  26.088  24.883  1.00  0.00     0.022 A 
BRANCH  78  81
ATOM     81  S   UNL A   1      51.652  27.146  22.389  1.00  0.00     0.127 S 
ATOM     82  O   UNL A   1      51.904  28.583  22.453  1.00  0.00    -0.237 OA
ATOM     83  O   UNL A   1      52.850  26.314  22.262  1.00  0.00    -0.237 OA
ATOM     84  O   UNL A   1      50.545  26.736  21.537  1.00  0.00    -0.744 OA
ENDBRANCH  78  81
ENDBRANCH  50  74
BRANCH  62  85
ATOM     85  C   UNL A   1      46.720  32.339  28.916  1.00  0.00     0.023 A 
ATOM     86  C   UNL A   1      47.258  32.507  30.207  1.00  0.00     0.012 A 
ATOM     87  C   UNL A   1      46.797  33.399  27.990  1.00  0.00     0.148 A 
ATOM     88  C   UNL A   1      47.828  33.722  30.582  1.00  0.00     0.002 A 
ATOM     89  C   UNL A   1      47.416  34.588  28.354  1.00  0.00     0.091 A 
ATOM     90  F   UNL A   1      46.263  33.226  26.772  1.00  0.00    -0.205 F 
ATOM     91  C   UNL A   1      47.918  34.756  29.654  1.00  0.00     0.022 A 
BRANCH  89  92
ATOM     92  S   UNL A   1      47.671  35.933  27.191  1.00  0.00     0.127 S 
ATOM     93  O   UNL A   1      48.567  35.316  26.214  1.00  0.00    -0.237 OA
ATOM     94  O   UNL A   1      46.314  36.180  26.703  1.00  0.00    -0.237 OA
ATOM     95  O   UNL A   1      48.246  37.028  27.961  1.00  0.00    -0.744 OA
ENDBRANCH  89  92
ENDBRANCH  62  85
ENDBRANCH  36  37
ENDBRANCH  28  31
ENDBRANCH  26  27
ENDBRANCH   1  26
TORSDOF 16
ENDMDL
MODEL 3
REMARK VINA RESULT:     -12.5      5.557      9.210
REMARK SMILES COC(=O)C1CCN(C(=O)N[C@@H]2C=C[C@H](C(=O)NCCCNC(=O)c3ccc(-c4c5nc(c(-c6cccc(S(=O)(=O)[O-])c6F)c6ccc([nH]6)c(-c6cccc(S(=O)(=O)[O-])c6F)c6nc(c(-c7cccc(S(=O)(=O)[O-])c7F)c7ccc4[nH]7)C=C6)C=C5)cc3)C2)CC1
REMARK SMILES IDX 20 1 19 2 18 3 16 4 17 5 15 7 12 8 13 9 88 10 14 11 11 12
REMARK SMILES IDX 5 13 6 14 90 15 7 16 89 17 8 18 9 19 10 20 3 22 4 23 2 24
REMARK SMILES IDX 1 25 21 26 22 27 23 28 24 30 25 31 26 32 87 33 27 34 86 35
REMARK SMILES IDX 28 36 29 37 30 38 80 39 31 40 85 41 79 42 81 43 32 44 84 45
REMARK SMILES IDX 78 46 77 47 33 49 65 50 45 51 64 52 46 53 49 54 63 55 82 56
REMARK SMILES IDX 47 57 48 58 62 60 83 61 50 62 34 63 35 64 43 65 36 66 38 67
REMARK SMILES IDX 44 68 37 69 39 70 40 71 41 72 42 73 66 74 67 75 75 76 68 77
REMARK SMILES IDX 70 78 76 79 69 80 71 81 72 82 73 83 74 84 51 85 52 86 60 87
REMARK SMILES IDX 53 88 55 89 61 90 54 91 56 92 57 93 58 94 59 95
REMARK H PARENT 18 6 11 21 22 29 81 48 49 59
REMARK Flexibility Score: inf
ROOT
ATOM      1  C   UNL A   1      35.385  21.837  24.690  1.00  0.00     0.042 C 
ENDROOT
BRANCH   1   2
ATOM      2  C   UNL A   1      34.349  21.068  25.473  1.00  0.00     0.117 C 
BRANCH   2   3
ATOM      3  N   UNL A   1      33.957  21.692  26.724  1.00  0.00    -0.356 N 
ATOM      4  C   UNL A   1      32.753  22.218  27.101  1.00  0.00     0.227 C 
ATOM      5  O   UNL A   1      32.640  22.599  28.268  1.00  0.00    -0.274 OA
ATOM      6  H   UNL A   1      34.668  21.744  27.404  1.00  0.00     0.163 HD
BRANCH   4   7
ATOM      7  C   UNL A   1      31.636  22.401  26.067  1.00  0.00     0.103 C 
ATOM      8  C   UNL A   1      30.704  24.696  25.684  1.00  0.00     0.107 C 
ATOM      9  C   UNL A   1      29.827  23.826  26.505  1.00  0.00    -0.006 C 
ATOM     10  C   UNL A   1      31.801  23.701  25.234  1.00  0.00     0.047 C 
ATOM     11  C   UNL A   1      30.294  22.600  26.681  1.00  0.00    -0.016 C 
BRANCH   8  12
ATOM     12  N   UNL A   1      31.166  25.802  26.493  1.00  0.00    -0.332 N 
ATOM     13  C   UNL A   1      29.707  29.439  23.566  1.00  0.00     0.102 C 
ATOM     14  C   UNL A   1      30.738  29.992  24.567  1.00  0.00     0.037 C 
ATOM     15  C   UNL A   1      29.484  27.939  23.747  1.00  0.00     0.037 C 
ATOM     16  C   UNL A   1      31.929  29.063  24.875  1.00  0.00     0.122 C 
ATOM     17  C   UNL A   1      30.831  27.215  23.812  1.00  0.00     0.122 C 
ATOM     18  N   UNL A   1      31.509  27.665  25.011  1.00  0.00    -0.325 N 
ATOM     19  C   UNL A   1      31.606  27.057  26.240  1.00  0.00     0.317 C 
ATOM     20  O   UNL A   1      32.094  27.648  27.210  1.00  0.00    -0.249 OA
ATOM     21  H   UNL A   1      31.160  25.592  27.455  1.00  0.00     0.165 HD
BRANCH  13  22
ATOM     22  C   UNL A   1      30.043  29.661  22.105  1.00  0.00     0.308 C 
ATOM     23  O   UNL A   1      31.172  29.668  21.630  1.00  0.00    -0.252 OA
BRANCH  22  24
ATOM     24  O   UNL A   1      28.880  29.701  21.391  1.00  0.00    -0.469 OA
ATOM     25  C   UNL A   1      28.257  30.978  21.256  1.00  0.00     0.282 C 
ENDBRANCH  22  24
ENDBRANCH  13  22
ENDBRANCH   8  12
ENDBRANCH   4   7
ENDBRANCH   2   3
ENDBRANCH   1   2
BRANCH   1  26
ATOM     26  C   UNL A   1      36.581  22.268  25.505  1.00  0.00     0.118 C 
BRANCH  26  27
ATOM     27  N   UNL A   1      37.550  21.198  25.707  1.00  0.00    -0.352 N 
ATOM     28  C   UNL A   1      38.865  21.271  26.101  1.00  0.00     0.251 C 
ATOM     29  H   UNL A   1      37.213  20.289  25.538  1.00  0.00     0.163 HD
ATOM     30  O   UNL A   1      39.571  20.268  26.059  1.00  0.00    -0.269 OA
BRANCH  28  31
ATOM     31  C   UNL A   1      39.431  22.566  26.542  1.00  0.00     0.039 A 
ATOM     32  C   UNL A   1      40.445  22.579  27.501  1.00  0.00     0.014 A 
ATOM     33  C   UNL A   1      38.976  23.765  25.993  1.00  0.00     0.014 A 
ATOM     34  C   UNL A   1      41.040  23.791  27.858  1.00  0.00     0.010 A 
ATOM     35  C   UNL A   1      39.663  24.944  26.239  1.00  0.00     0.010 A 
ATOM     36  C   UNL A   1      40.676  24.980  27.205  1.00  0.00    -0.014 A 
BRANCH  36  37
ATOM     37  C   UNL A   1      41.293  26.286  27.551  1.00  0.00     0.031 A 
ATOM     38  C   UNL A   1      42.715  26.571  27.139  1.00  0.00     0.074 A 
ATOM     39  C   UNL A   1      40.611  27.177  28.298  1.00  0.00     0.049 A 
ATOM     40  N   UNL A   1      43.454  27.618  27.396  1.00  0.00    -0.248 NA
ATOM     41  C   UNL A   1      43.411  25.528  26.366  1.00  0.00     0.031 C 
ATOM     42  C   UNL A   1      39.260  26.986  28.830  1.00  0.00     0.029 A 
ATOM     43  N   UNL A   1      40.973  28.419  28.758  1.00  0.00    -0.354 N 
ATOM     44  C   UNL A   1      44.706  27.339  26.860  1.00  0.00     0.074 A 
ATOM     45  C   UNL A   1      44.645  26.005  26.311  1.00  0.00     0.031 C 
ATOM     46  C   UNL A   1      38.901  28.076  29.527  1.00  0.00     0.029 A 
ATOM     47  C   UNL A   1      40.006  29.029  29.523  1.00  0.00     0.049 A 
ATOM     48  H   UNL A   1      41.844  28.833  28.559  1.00  0.00     0.167 HD
ATOM     49  C   UNL A   1      45.799  28.134  26.792  1.00  0.00     0.034 A 
ATOM     50  C   UNL A   1      40.013  30.220  30.152  1.00  0.00     0.034 A 
ATOM     51  C   UNL A   1      45.840  29.479  27.293  1.00  0.00     0.049 A 
ATOM     52  C   UNL A   1      41.225  31.104  30.024  1.00  0.00     0.074 A 
ATOM     53  C   UNL A   1      46.866  30.400  27.200  1.00  0.00     0.029 A 
ATOM     54  N   UNL A   1      44.808  30.094  27.985  1.00  0.00    -0.354 N 
ATOM     55  N   UNL A   1      42.347  30.879  29.386  1.00  0.00    -0.248 NA
ATOM     56  C   UNL A   1      41.155  32.422  30.669  1.00  0.00     0.031 C 
ATOM     57  C   UNL A   1      46.467  31.564  27.865  1.00  0.00     0.029 A 
ATOM     58  C   UNL A   1      45.175  31.382  28.331  1.00  0.00     0.049 A 
ATOM     59  H   UNL A   1      43.942  29.676  28.198  1.00  0.00     0.167 HD
ATOM     60  C   UNL A   1      43.097  32.044  29.510  1.00  0.00     0.074 A 
ATOM     61  C   UNL A   1      42.294  32.976  30.274  1.00  0.00     0.031 C 
ATOM     62  C   UNL A   1      44.341  32.315  29.043  1.00  0.00     0.034 A 
BRANCH  49  63
ATOM     63  C   UNL A   1      47.024  27.582  26.109  1.00  0.00     0.023 A 
ATOM     64  C   UNL A   1      47.217  27.800  24.729  1.00  0.00     0.012 A 
ATOM     65  C   UNL A   1      48.006  26.885  26.840  1.00  0.00     0.148 A 
ATOM     66  C   UNL A   1      48.342  27.296  24.079  1.00  0.00     0.002 A 
ATOM     67  C   UNL A   1      49.151  26.432  26.195  1.00  0.00     0.091 A 
ATOM     68  F   UNL A   1      47.797  26.666  28.146  1.00  0.00    -0.205 F 
ATOM     69  C   UNL A   1      49.314  26.624  24.813  1.00  0.00     0.022 A 
BRANCH  67  70
ATOM     70  S   UNL A   1      50.501  25.631  27.067  1.00  0.00     0.127 S 
ATOM     71  O   UNL A   1      50.868  26.653  28.046  1.00  0.00    -0.237 OA
ATOM     72  O   UNL A   1      49.842  24.453  27.634  1.00  0.00    -0.237 OA
ATOM     73  O   UNL A   1      51.513  25.338  26.062  1.00  0.00    -0.744 OA
ENDBRANCH  67  70
ENDBRANCH  49  63
BRANCH  50  74
ATOM     74  C   UNL A   1      38.808  30.679  30.900  1.00  0.00     0.023 A 
ATOM     75  C   UNL A   1      38.745  30.492  32.295  1.00  0.00     0.012 A 
ATOM     76  C   UNL A   1      37.735  31.312  30.244  1.00  0.00     0.148 A 
ATOM     77  C   UNL A   1      37.618  30.888  33.017  1.00  0.00     0.002 A 
ATOM     78  C   UNL A   1      36.640  31.756  30.977  1.00  0.00     0.091 A 
ATOM     79  F   UNL A   1      37.812  31.476  28.916  1.00  0.00    -0.205 F 
ATOM     80  C   UNL A   1      36.571  31.526  32.359  1.00  0.00     0.022 A 
BRANCH  78  81
ATOM     81  S   UNL A   1      35.304  32.701  30.238  1.00  0.00     0.127 S 
ATOM     82  O   UNL A   1      34.396  32.871  31.368  1.00  0.00    -0.237 OA
ATOM     83  O   UNL A   1      35.997  33.919  29.815  1.00  0.00    -0.237 OA
ATOM     84  O   UNL A   1      34.802  31.886  29.140  1.00  0.00    -0.744 OA
ENDBRANCH  78  81
ENDBRANCH  50  74
BRANCH  62  85
ATOM     85  C   UNL A   1      44.892  33.697  29.280  1.00  0.00     0.023 A 
ATOM     86  C   UNL A   1      45.600  33.986  30.463  1.00  0.00     0.012 A 
ATOM     87  C   UNL A   1      44.768  34.689  28.287  1.00  0.00     0.148 A 
ATOM     88  C   UNL A   1      46.142  35.253  30.670  1.00  0.00     0.002 A 
ATOM     89  C   UNL A   1      45.358  35.931  28.477  1.00  0.00     0.091 A 
ATOM     90  F   UNL A   1      44.075  34.399  27.176  1.00  0.00    -0.205 F 
ATOM     91  C   UNL A   1      46.032  36.220  29.674  1.00  0.00     0.022 A 
BRANCH  89  92
ATOM     92  S   UNL A   1      45.357  37.200  27.205  1.00  0.00     0.127 S 
ATOM     93  O   UNL A   1      46.081  38.284  27.866  1.00  0.00    -0.237 OA
ATOM     94  O   UNL A   1      46.092  36.549  26.120  1.00  0.00    -0.237 OA
ATOM     95  O   UNL A   1      43.957  37.473  26.909  1.00  0.00    -0.744 OA
ENDBRANCH  89  92
ENDBRANCH  62  85
ENDBRANCH  36  37
ENDBRANCH  28  31
ENDBRANCH  26  27
ENDBRANCH   1  26
TORSDOF 16
ENDMDL
