MODEL 1
REMARK VINA RESULT:     -14.8      0.000      0.000
REMARK SMILES C[C@]1(C(=O)NCCCNC(=O)c2ccc(-c3c4nc(c(-c5cccc(S(=O)(=O)[O-])c5F)c5ccc([nH]5)c(-c5cccc(S(=O)(=O)[O-])c5F)c5nc(c(-c6cccc(S(=O)(=O)[O-])c6F)c6ccc3[nH]6)C=C5)C=C4)cc2)[NH2+]C2(C(=O)c3ccccc3C2=O)[C@@H]2C(=O)N(c3ccccc3)C(=O)[C@H]21
REMARK SMILES IDX 8 1 7 2 6 3 5 4 3 5 4 6 2 8 1 9 75 10 99 11 76 12 87 15
REMARK SMILES IDX 97 16 77 17 85 18 88 19 90 20 98 21 78 22 79 23 84 24 86 25
REMARK SMILES IDX 89 26 80 27 83 28 81 29 82 30 91 31 92 32 96 33 93 34 95 35
REMARK SMILES IDX 94 36 9 37 10 38 11 40 12 41 13 42 74 43 14 44 73 45 15 46
REMARK SMILES IDX 16 47 17 48 67 49 18 50 72 51 66 52 68 53 19 54 71 55 65 56
REMARK SMILES IDX 64 57 20 59 52 60 32 61 51 62 33 63 36 64 50 65 69 66 34 67
REMARK SMILES IDX 35 68 49 70 70 71 37 72 21 73 22 74 30 75 23 76 25 77 31 78
REMARK SMILES IDX 24 79 26 80 27 81 28 82 29 83 53 84 54 85 62 86 55 87 57 88
REMARK SMILES IDX 63 89 56 90 58 91 59 92 60 93 61 94 38 95 39 96 47 97 40 98
REMARK SMILES IDX 42 99 48 100 41 101 43 102 44 103 45 104 46 105
REMARK H PARENT 5 7 75 13 75 14 9 39 68 58 36 69
REMARK Flexibility Score: inf
ROOT
ATOM      1  C   UNL A   1      32.498  32.606  27.412  1.00  0.00     0.118 C 
ENDROOT
BRANCH   1   2
ATOM      2  C   UNL A   1      33.877  32.024  27.658  1.00  0.00     0.042 C 
BRANCH   2   3
ATOM      3  C   UNL A   1      33.983  30.551  27.314  1.00  0.00     0.118 C 
BRANCH   3   4
ATOM      4  N   UNL A   1      32.989  29.654  27.833  1.00  0.00    -0.351 N 
ATOM      5  C   UNL A   1      32.601  28.422  27.386  1.00  0.00     0.281 C 
ATOM      6  O   UNL A   1      31.675  27.919  28.041  1.00  0.00    -0.268 OA
ATOM      7  H   UNL A   1      32.514  29.976  28.632  1.00  0.00     0.163 HD
BRANCH   5   8
ATOM      8  C   UNL A   1      33.222  27.636  26.148  1.00  0.00     0.186 C 
ATOM      9  C   UNL A   1      34.677  28.159  26.010  1.00  0.00     0.091 C 
ATOM     10  N   UNL A   1      33.284  26.137  26.361  1.00  0.00    -0.314 N 
ATOM     11  C   UNL A   1      32.567  27.737  24.796  1.00  0.00     0.170 C 
ATOM     12  C   UNL A   1      32.468  25.438  25.278  1.00  0.00     0.236 C 
ATOM     13  H   UNL A   1      32.900  25.909  27.278  1.00  0.00     0.348 HD
ATOM     14  H   UNL A   1      34.253  25.826  26.312  1.00  0.00     0.348 HD
ATOM     15  C   UNL A   1      31.641  26.543  24.702  1.00  0.00     0.177 C 
ATOM     16  C   UNL A   1      31.668  28.825  24.335  1.00  0.00     0.244 C 
ATOM     17  C   UNL A   1      33.330  24.657  24.288  1.00  0.00     0.232 C 
ATOM     18  C   UNL A   1      31.651  24.321  25.957  1.00  0.00     0.232 C 
ATOM     19  C   UNL A   1      31.026  26.815  23.372  1.00  0.00     0.245 C 
ATOM     20  N   UNL A   1      30.856  28.206  23.381  1.00  0.00    -0.250 N 
ATOM     21  O   UNL A   1      31.696  29.979  24.719  1.00  0.00    -0.273 OA
ATOM     22  O   UNL A   1      34.182  25.116  23.550  1.00  0.00    -0.286 OA
ATOM     23  C   UNL A   1      33.005  23.225  24.414  1.00  0.00     0.036 A 
ATOM     24  C   UNL A   1      32.058  23.041  25.410  1.00  0.00     0.036 A 
ATOM     25  O   UNL A   1      30.792  24.400  26.816  1.00  0.00    -0.286 OA
ATOM     26  O   UNL A   1      30.627  25.971  22.593  1.00  0.00    -0.273 OA
ATOM     27  C   UNL A   1      33.509  22.141  23.720  1.00  0.00     0.013 A 
ATOM     28  C   UNL A   1      31.593  21.794  25.788  1.00  0.00     0.013 A 
ATOM     29  C   UNL A   1      33.038  20.866  24.070  1.00  0.00     0.001 A 
ATOM     30  C   UNL A   1      32.096  20.692  25.102  1.00  0.00     0.001 A 
BRANCH  20  31
ATOM     31  C   UNL A   1      29.793  28.901  22.774  1.00  0.00     0.052 A 
ATOM     32  C   UNL A   1      30.055  29.960  21.894  1.00  0.00     0.027 A 
ATOM     33  C   UNL A   1      28.479  28.665  23.195  1.00  0.00     0.027 A 
ATOM     34  C   UNL A   1      29.016  30.771  21.437  1.00  0.00     0.002 A 
ATOM     35  C   UNL A   1      27.450  29.514  22.779  1.00  0.00     0.002 A 
ATOM     36  C   UNL A   1      27.717  30.560  21.897  1.00  0.00     0.000 A 
ENDBRANCH  20  31
ENDBRANCH   5   8
ENDBRANCH   3   4
ENDBRANCH   2   3
ENDBRANCH   1   2
BRANCH   1  37
ATOM     37  N   UNL A   1      32.380  34.015  27.789  1.00  0.00    -0.352 N 
ATOM     38  C   UNL A   1      33.069  34.832  28.661  1.00  0.00     0.251 C 
ATOM     39  H   UNL A   1      31.650  34.480  27.319  1.00  0.00     0.163 HD
ATOM     40  O   UNL A   1      32.639  35.975  28.830  1.00  0.00    -0.269 OA
BRANCH  38  41
ATOM     41  C   UNL A   1      34.254  34.380  29.439  1.00  0.00     0.039 A 
ATOM     42  C   UNL A   1      35.555  34.642  29.036  1.00  0.00     0.014 A 
ATOM     43  C   UNL A   1      34.063  33.685  30.645  1.00  0.00     0.014 A 
ATOM     44  C   UNL A   1      36.629  34.018  29.661  1.00  0.00     0.010 A 
ATOM     45  C   UNL A   1      35.160  33.180  31.363  1.00  0.00     0.010 A 
ATOM     46  C   UNL A   1      36.456  33.281  30.842  1.00  0.00    -0.014 A 
BRANCH  46  47
ATOM     47  C   UNL A   1      37.647  32.652  31.486  1.00  0.00     0.031 A 
ATOM     48  C   UNL A   1      38.084  33.044  32.876  1.00  0.00     0.074 A 
ATOM     49  C   UNL A   1      38.302  31.659  30.845  1.00  0.00     0.049 A 
ATOM     50  N   UNL A   1      39.075  32.569  33.589  1.00  0.00    -0.248 NA
ATOM     51  C   UNL A   1      37.326  34.109  33.556  1.00  0.00     0.031 C 
ATOM     52  C   UNL A   1      38.007  31.193  29.489  1.00  0.00     0.029 A 
ATOM     53  N   UNL A   1      39.325  30.838  31.256  1.00  0.00    -0.354 N 
ATOM     54  C   UNL A   1      39.100  33.313  34.762  1.00  0.00     0.074 A 
ATOM     55  C   UNL A   1      38.021  34.273  34.673  1.00  0.00     0.031 C 
ATOM     56  C   UNL A   1      38.758  30.119  29.215  1.00  0.00     0.029 A 
ATOM     57  C   UNL A   1      39.655  29.868  30.338  1.00  0.00     0.049 A 
ATOM     58  H   UNL A   1      39.777  30.935  32.125  1.00  0.00     0.167 HD
ATOM     59  C   UNL A   1      39.930  33.199  35.824  1.00  0.00     0.034 A 
ATOM     60  C   UNL A   1      40.580  28.890  30.375  1.00  0.00     0.034 A 
ATOM     61  C   UNL A   1      40.948  32.193  35.958  1.00  0.00     0.049 A 
ATOM     62  C   UNL A   1      41.464  28.760  31.579  1.00  0.00     0.074 A 
ATOM     63  C   UNL A   1      41.794  31.968  37.030  1.00  0.00     0.029 A 
ATOM     64  N   UNL A   1      41.249  31.238  35.000  1.00  0.00    -0.354 N 
ATOM     65  N   UNL A   1      41.430  29.445  32.695  1.00  0.00    -0.248 NA
ATOM     66  C   UNL A   1      42.511  27.730  31.530  1.00  0.00     0.031 C 
ATOM     67  C   UNL A   1      42.613  30.879  36.718  1.00  0.00     0.029 A 
ATOM     68  C   UNL A   1      42.271  30.422  35.455  1.00  0.00     0.049 A 
ATOM     69  H   UNL A   1      40.803  31.152  34.127  1.00  0.00     0.167 HD
ATOM     70  C   UNL A   1      42.451  28.932  33.485  1.00  0.00     0.074 A 
ATOM     71  C   UNL A   1      43.068  27.859  32.730  1.00  0.00     0.031 C 
ATOM     72  C   UNL A   1      42.851  29.333  34.714  1.00  0.00     0.034 A 
BRANCH  59  73
ATOM     73  C   UNL A   1      39.749  34.160  36.969  1.00  0.00     0.023 A 
ATOM     74  C   UNL A   1      40.071  35.520  36.790  1.00  0.00     0.012 A 
ATOM     75  C   UNL A   1      39.174  33.735  38.183  1.00  0.00     0.148 A 
ATOM     76  C   UNL A   1      39.834  36.443  37.807  1.00  0.00     0.002 A 
ATOM     77  C   UNL A   1      38.914  34.666  39.182  1.00  0.00     0.091 A 
ATOM     78  F   UNL A   1      38.890  32.433  38.334  1.00  0.00    -0.205 F 
ATOM     79  C   UNL A   1      39.248  36.018  38.997  1.00  0.00     0.022 A 
BRANCH  77  80
ATOM     80  S   UNL A   1      38.110  34.234  40.729  1.00  0.00     0.127 S 
ATOM     81  O   UNL A   1      39.160  33.469  41.401  1.00  0.00    -0.237 OA
ATOM     82  O   UNL A   1      37.846  35.548  41.315  1.00  0.00    -0.237 OA
ATOM     83  O   UNL A   1      36.921  33.476  40.368  1.00  0.00    -0.744 OA
ENDBRANCH  77  80
ENDBRANCH  59  73
BRANCH  60  84
ATOM     84  C   UNL A   1      40.676  27.943  29.231  1.00  0.00     0.023 A 
ATOM     85  C   UNL A   1      39.762  26.877  29.141  1.00  0.00     0.012 A 
ATOM     86  C   UNL A   1      41.586  28.166  28.179  1.00  0.00     0.148 A 
ATOM     87  C   UNL A   1      39.746  26.052  28.015  1.00  0.00     0.002 A 
ATOM     88  C   UNL A   1      41.532  27.372  27.040  1.00  0.00     0.091 A 
ATOM     89  F   UNL A   1      42.448  29.185  28.295  1.00  0.00    -0.205 F 
ATOM     90  C   UNL A   1      40.618  26.309  26.960  1.00  0.00     0.022 A 
BRANCH  88  91
ATOM     91  S   UNL A   1      42.520  27.708  25.579  1.00  0.00     0.127 S 
ATOM     92  O   UNL A   1      43.871  27.742  26.134  1.00  0.00    -0.237 OA
ATOM     93  O   UNL A   1      42.224  26.541  24.747  1.00  0.00    -0.237 OA
ATOM     94  O   UNL A   1      42.031  28.972  25.049  1.00  0.00    -0.744 OA
ENDBRANCH  88  91
ENDBRANCH  60  84
BRANCH  72  95
ATOM     95  C   UNL A   1      44.017  28.623  35.341  1.00  0.00     0.023 A 
ATOM     96  C   UNL A   1      45.323  29.056  35.046  1.00  0.00     0.012 A 
ATOM     97  C   UNL A   1      43.815  27.619  36.307  1.00  0.00     0.148 A 
ATOM     98  C   UNL A   1      46.418  28.495  35.702  1.00  0.00     0.002 A 
ATOM     99  C   UNL A   1      44.907  27.087  36.980  1.00  0.00     0.091 A 
ATOM    100  F   UNL A   1      42.560  27.221  36.560  1.00  0.00    -0.205 F 
ATOM    101  C   UNL A   1      46.209  27.521  36.675  1.00  0.00     0.022 A 
BRANCH  99 102
ATOM    102  S   UNL A   1      44.738  25.882  38.301  1.00  0.00     0.127 S 
ATOM    103  O   UNL A   1      44.179  24.735  37.589  1.00  0.00    -0.237 OA
ATOM    104  O   UNL A   1      46.123  25.712  38.743  1.00  0.00    -0.237 OA
ATOM    105  O   UNL A   1      43.856  26.488  39.290  1.00  0.00    -0.744 OA
ENDBRANCH  99 102
ENDBRANCH  72  95
ENDBRANCH  46  47
ENDBRANCH  38  41
ENDBRANCH   1  37
TORSDOF 14
ENDMDL
MODEL 2
REMARK VINA RESULT:     -14.8      0.196      7.358
REMARK SMILES C[C@]1(C(=O)NCCCNC(=O)c2ccc(-c3c4nc(c(-c5cccc(S(=O)(=O)[O-])c5F)c5ccc([nH]5)c(-c5cccc(S(=O)(=O)[O-])c5F)c5nc(c(-c6cccc(S(=O)(=O)[O-])c6F)c6ccc3[nH]6)C=C5)C=C4)cc2)[NH2+]C2(C(=O)c3ccccc3C2=O)[C@@H]2C(=O)N(c3ccccc3)C(=O)[C@H]21
REMARK SMILES IDX 8 1 7 2 6 3 5 4 3 5 4 6 2 8 1 9 75 10 99 11 76 12 87 15
REMARK SMILES IDX 97 16 77 17 85 18 88 19 90 20 98 21 78 22 79 23 84 24 86 25
REMARK SMILES IDX 89 26 80 27 83 28 81 29 82 30 91 31 92 32 96 33 93 34 95 35
REMARK SMILES IDX 94 36 9 37 10 38 11 40 12 41 13 42 74 43 14 44 73 45 15 46
REMARK SMILES IDX 16 47 17 48 67 49 18 50 72 51 66 52 68 53 19 54 71 55 65 56
REMARK SMILES IDX 64 57 20 59 52 60 32 61 51 62 33 63 36 64 50 65 69 66 34 67
REMARK SMILES IDX 35 68 49 70 70 71 37 72 21 73 22 74 30 75 23 76 25 77 31 78
REMARK SMILES IDX 24 79 26 80 27 81 28 82 29 83 53 84 54 85 62 86 55 87 57 88
REMARK SMILES IDX 63 89 56 90 58 91 59 92 60 93 61 94 38 95 39 96 47 97 40 98
REMARK SMILES IDX 42 99 48 100 41 101 43 102 44 103 45 104 46 105
REMARK H PARENT 5 7 75 13 75 14 9 39 68 58 36 69
REMARK Flexibility Score: inf
ROOT
ATOM      1  C   UNL A   1      32.448  32.766  27.578  1.00  0.00     0.118 C 
ENDROOT
BRANCH   1   2
ATOM      2  C   UNL A   1      33.784  32.060  27.703  1.00  0.00     0.042 C 
BRANCH   2   3
ATOM      3  C   UNL A   1      33.774  30.644  27.161  1.00  0.00     0.118 C 
BRANCH   3   4
ATOM      4  N   UNL A   1      32.879  29.691  27.754  1.00  0.00    -0.351 N 
ATOM      5  C   UNL A   1      32.571  28.417  27.367  1.00  0.00     0.281 C 
ATOM      6  O   UNL A   1      31.718  27.867  28.080  1.00  0.00    -0.268 OA
ATOM      7  H   UNL A   1      32.415  30.004  28.564  1.00  0.00     0.163 HD
BRANCH   5   8
ATOM      8  C   UNL A   1      33.200  27.638  26.128  1.00  0.00     0.186 C 
ATOM      9  C   UNL A   1      34.653  28.168  25.995  1.00  0.00     0.091 C 
ATOM     10  N   UNL A   1      33.268  26.138  26.337  1.00  0.00    -0.314 N 
ATOM     11  C   UNL A   1      32.548  27.739  24.775  1.00  0.00     0.170 C 
ATOM     12  C   UNL A   1      32.459  25.438  25.251  1.00  0.00     0.236 C 
ATOM     13  H   UNL A   1      32.883  25.906  27.253  1.00  0.00     0.348 HD
ATOM     14  H   UNL A   1      34.239  25.832  26.290  1.00  0.00     0.348 HD
ATOM     15  C   UNL A   1      31.628  26.540  24.676  1.00  0.00     0.177 C 
ATOM     16  C   UNL A   1      31.645  28.824  24.315  1.00  0.00     0.244 C 
ATOM     17  C   UNL A   1      33.327  24.664  24.261  1.00  0.00     0.232 C 
ATOM     18  C   UNL A   1      31.645  24.315  25.925  1.00  0.00     0.232 C 
ATOM     19  C   UNL A   1      31.015  26.813  23.345  1.00  0.00     0.245 C 
ATOM     20  N   UNL A   1      30.838  28.204  23.358  1.00  0.00    -0.250 N 
ATOM     21  O   UNL A   1      31.666  29.976  24.702  1.00  0.00    -0.273 OA
ATOM     22  O   UNL A   1      34.178  25.130  23.525  1.00  0.00    -0.286 OA
ATOM     23  C   UNL A   1      33.008  23.231  24.381  1.00  0.00     0.036 A 
ATOM     24  C   UNL A   1      32.060  23.039  25.374  1.00  0.00     0.036 A 
ATOM     25  O   UNL A   1      30.784  24.388  26.781  1.00  0.00    -0.286 OA
ATOM     26  O   UNL A   1      30.622  25.970  22.562  1.00  0.00    -0.273 OA
ATOM     27  C   UNL A   1      33.519  22.151  23.686  1.00  0.00     0.013 A 
ATOM     28  C   UNL A   1      31.600  21.788  25.748  1.00  0.00     0.013 A 
ATOM     29  C   UNL A   1      33.054  20.872  24.031  1.00  0.00     0.001 A 
ATOM     30  C   UNL A   1      32.110  20.691  25.060  1.00  0.00     0.001 A 
BRANCH  20  31
ATOM     31  C   UNL A   1      29.773  28.896  22.749  1.00  0.00     0.052 A 
ATOM     32  C   UNL A   1      30.033  29.928  21.839  1.00  0.00     0.027 A 
ATOM     33  C   UNL A   1      28.464  28.685  23.197  1.00  0.00     0.027 A 
ATOM     34  C   UNL A   1      28.996  30.739  21.378  1.00  0.00     0.002 A 
ATOM     35  C   UNL A   1      27.438  29.535  22.777  1.00  0.00     0.002 A 
ATOM     36  C   UNL A   1      27.702  30.556  21.864  1.00  0.00     0.000 A 
ENDBRANCH  20  31
ENDBRANCH   5   8
ENDBRANCH   3   4
ENDBRANCH   2   3
ENDBRANCH   1   2
BRANCH   1  37
ATOM     37  N   UNL A   1      32.516  34.202  27.850  1.00  0.00    -0.352 N 
ATOM     38  C   UNL A   1      33.300  34.983  28.674  1.00  0.00     0.251 C 
ATOM     39  H   UNL A   1      31.859  34.724  27.333  1.00  0.00     0.163 HD
ATOM     40  O   UNL A   1      33.024  36.182  28.752  1.00  0.00    -0.269 OA
BRANCH  38  41
ATOM     41  C   UNL A   1      34.405  34.437  29.505  1.00  0.00     0.039 A 
ATOM     42  C   UNL A   1      35.740  34.560  29.147  1.00  0.00     0.014 A 
ATOM     43  C   UNL A   1      34.104  33.795  30.718  1.00  0.00     0.014 A 
ATOM     44  C   UNL A   1      36.724  33.850  29.825  1.00  0.00     0.010 A 
ATOM     45  C   UNL A   1      35.120  33.203  31.488  1.00  0.00     0.010 A 
ATOM     46  C   UNL A   1      36.437  33.163  31.014  1.00  0.00    -0.014 A 
BRANCH  46  47
ATOM     47  C   UNL A   1      37.537  32.437  31.716  1.00  0.00     0.031 A 
ATOM     48  C   UNL A   1      38.313  31.339  31.031  1.00  0.00     0.074 A 
ATOM     49  C   UNL A   1      37.897  32.819  32.960  1.00  0.00     0.049 A 
ATOM     50  N   UNL A   1      39.317  30.635  31.490  1.00  0.00    -0.248 NA
ATOM     51  C   UNL A   1      37.911  30.970  29.663  1.00  0.00     0.031 C 
ATOM     52  C   UNL A   1      37.222  33.849  33.754  1.00  0.00     0.029 A 
ATOM     53  N   UNL A   1      38.938  32.419  33.764  1.00  0.00    -0.354 N 
ATOM     54  C   UNL A   1      39.622  29.706  30.503  1.00  0.00     0.074 A 
ATOM     55  C   UNL A   1      38.701  29.935  29.412  1.00  0.00     0.031 C 
ATOM     56  C   UNL A   1      37.912  34.064  34.881  1.00  0.00     0.029 A 
ATOM     57  C   UNL A   1      39.030  33.128  34.939  1.00  0.00     0.049 A 
ATOM     58  H   UNL A   1      39.557  31.694  33.521  1.00  0.00     0.167 HD
ATOM     59  C   UNL A   1      40.592  28.762  30.493  1.00  0.00     0.034 A 
ATOM     60  C   UNL A   1      39.901  33.039  35.963  1.00  0.00     0.034 A 
ATOM     61  C   UNL A   1      41.567  28.586  31.535  1.00  0.00     0.049 A 
ATOM     62  C   UNL A   1      40.990  32.010  35.914  1.00  0.00     0.074 A 
ATOM     63  C   UNL A   1      42.622  27.692  31.578  1.00  0.00     0.029 A 
ATOM     64  N   UNL A   1      41.616  29.323  32.708  1.00  0.00    -0.354 N 
ATOM     65  N   UNL A   1      41.286  31.180  34.944  1.00  0.00    -0.248 NA
ATOM     66  C   UNL A   1      41.859  31.900  37.093  1.00  0.00     0.031 C 
ATOM     67  C   UNL A   1      43.308  27.884  32.780  1.00  0.00     0.029 A 
ATOM     68  C   UNL A   1      42.683  28.902  33.483  1.00  0.00     0.049 A 
ATOM     69  H   UNL A   1      40.987  30.038  32.953  1.00  0.00     0.167 HD
ATOM     70  C   UNL A   1      42.376  30.447  35.394  1.00  0.00     0.074 A 
ATOM     71  C   UNL A   1      42.706  30.949  36.713  1.00  0.00     0.031 C 
ATOM     72  C   UNL A   1      43.027  29.434  34.775  1.00  0.00     0.034 A 
BRANCH  59  73
ATOM     73  C   UNL A   1      40.691  27.862  29.291  1.00  0.00     0.023 A 
ATOM     74  C   UNL A   1      39.831  26.751  29.184  1.00  0.00     0.012 A 
ATOM     75  C   UNL A   1      41.563  28.171  28.228  1.00  0.00     0.148 A 
ATOM     76  C   UNL A   1      39.846  25.951  28.042  1.00  0.00     0.002 A 
ATOM     77  C   UNL A   1      41.553  27.386  27.082  1.00  0.00     0.091 A 
ATOM     78  F   UNL A   1      42.381  29.225  28.360  1.00  0.00    -0.205 F 
ATOM     79  C   UNL A   1      40.698  26.274  26.989  1.00  0.00     0.022 A 
BRANCH  77  80
ATOM     80  S   UNL A   1      42.569  27.748  25.645  1.00  0.00     0.127 S 
ATOM     81  O   UNL A   1      42.347  26.559  24.823  1.00  0.00    -0.237 OA
ATOM     82  O   UNL A   1      41.948  28.969  25.130  1.00  0.00    -0.237 OA
ATOM     83  O   UNL A   1      43.926  27.918  26.143  1.00  0.00    -0.744 OA
ENDBRANCH  77  80
ENDBRANCH  59  73
BRANCH  60  84
ATOM     84  C   UNL A   1      39.778  33.991  37.100  1.00  0.00     0.023 A 
ATOM     85  C   UNL A   1      40.136  35.339  36.913  1.00  0.00     0.012 A 
ATOM     86  C   UNL A   1      39.199  33.591  38.320  1.00  0.00     0.148 A 
ATOM     87  C   UNL A   1      39.910  36.277  37.921  1.00  0.00     0.002 A 
ATOM     88  C   UNL A   1      38.931  34.540  39.301  1.00  0.00     0.091 A 
ATOM     89  F   UNL A   1      38.873  32.300  38.473  1.00  0.00    -0.205 F 
ATOM     90  C   UNL A   1      39.294  35.882  39.106  1.00  0.00     0.022 A 
BRANCH  88  91
ATOM     91  S   UNL A   1      38.022  34.151  40.800  1.00  0.00     0.127 S 
ATOM     92  O   UNL A   1      38.979  33.312  41.519  1.00  0.00    -0.237 OA
ATOM     93  O   UNL A   1      37.815  35.481  41.373  1.00  0.00    -0.237 OA
ATOM     94  O   UNL A   1      36.806  33.480  40.366  1.00  0.00    -0.744 OA
ENDBRANCH  88  91
ENDBRANCH  60  84
BRANCH  72  95
ATOM     95  C   UNL A   1      44.166  28.781  35.504  1.00  0.00     0.023 A 
ATOM     96  C   UNL A   1      45.464  29.307  35.359  1.00  0.00     0.012 A 
ATOM     97  C   UNL A   1      43.934  27.736  36.418  1.00  0.00     0.148 A 
ATOM     98  C   UNL A   1      46.521  28.798  36.112  1.00  0.00     0.002 A 
ATOM     99  C   UNL A   1      44.985  27.255  37.189  1.00  0.00     0.091 A 
ATOM    100  F   UNL A   1      42.690  27.250  36.528  1.00  0.00    -0.205 F 
ATOM    101  C   UNL A   1      46.279  27.782  37.034  1.00  0.00     0.022 A 
BRANCH  99 102
ATOM    102  S   UNL A   1      44.762  26.001  38.455  1.00  0.00     0.127 S 
ATOM    103  O   UNL A   1      46.127  25.830  38.949  1.00  0.00    -0.237 OA
ATOM    104  O   UNL A   1      43.852  26.664  39.390  1.00  0.00    -0.237 OA
ATOM    105  O   UNL A   1      44.198  24.840  37.779  1.00  0.00    -0.744 OA
ENDBRANCH  99 102
ENDBRANCH  72  95
ENDBRANCH  46  47
ENDBRANCH  38  41
ENDBRANCH   1  37
TORSDOF 14
ENDMDL
MODEL 3
REMARK VINA RESULT:     -14.6      2.936      9.335
REMARK SMILES C[C@]1(C(=O)NCCCNC(=O)c2ccc(-c3c4nc(c(-c5cccc(S(=O)(=O)[O-])c5F)c5ccc([nH]5)c(-c5cccc(S(=O)(=O)[O-])c5F)c5nc(c(-c6cccc(S(=O)(=O)[O-])c6F)c6ccc3[nH]6)C=C5)C=C4)cc2)[NH2+]C2(C(=O)c3ccccc3C2=O)[C@@H]2C(=O)N(c3ccccc3)C(=O)[C@H]21
REMARK SMILES IDX 8 1 7 2 6 3 5 4 3 5 4 6 2 8 1 9 75 10 99 11 76 12 87 15
REMARK SMILES IDX 97 16 77 17 85 18 88 19 90 20 98 21 78 22 79 23 84 24 86 25
REMARK SMILES IDX 89 26 80 27 83 28 81 29 82 30 91 31 92 32 96 33 93 34 95 35
REMARK SMILES IDX 94 36 9 37 10 38 11 40 12 41 13 42 74 43 14 44 73 45 15 46
REMARK SMILES IDX 16 47 17 48 67 49 18 50 72 51 66 52 68 53 19 54 71 55 65 56
REMARK SMILES IDX 64 57 20 59 52 60 32 61 51 62 33 63 36 64 50 65 69 66 34 67
REMARK SMILES IDX 35 68 49 70 70 71 37 72 21 73 22 74 30 75 23 76 25 77 31 78
REMARK SMILES IDX 24 79 26 80 27 81 28 82 29 83 53 84 54 85 62 86 55 87 57 88
REMARK SMILES IDX 63 89 56 90 58 91 59 92 60 93 61 94 38 95 39 96 47 97 40 98
REMARK SMILES IDX 42 99 48 100 41 101 43 102 44 103 45 104 46 105
REMARK H PARENT 5 7 75 13 75 14 9 39 68 58 36 69
REMARK Flexibility Score: inf
ROOT
ATOM      1  C   UNL A   1      40.958  21.539  26.239  1.00  0.00     0.118 C 
ENDROOT
BRANCH   1   2
ATOM      2  C   UNL A   1      39.736  22.426  26.383  1.00  0.00     0.042 C 
BRANCH   2   3
ATOM      3  C   UNL A   1      38.479  21.827  25.782  1.00  0.00     0.118 C 
BRANCH   3   4
ATOM      4  N   UNL A   1      38.073  22.260  24.474  1.00  0.00    -0.351 N 
ATOM      5  C   UNL A   1      36.921  22.877  24.074  1.00  0.00     0.281 C 
ATOM      6  O   UNL A   1      36.860  23.084  22.853  1.00  0.00    -0.268 OA
ATOM      7  H   UNL A   1      38.723  22.085  23.757  1.00  0.00     0.163 HD
BRANCH   5   8
ATOM      8  C   UNL A   1      35.719  23.321  25.020  1.00  0.00     0.186 C 
ATOM      9  C   UNL A   1      36.377  23.741  26.362  1.00  0.00     0.091 C 
ATOM     10  N   UNL A   1      34.946  24.510  24.487  1.00  0.00    -0.314 N 
ATOM     11  C   UNL A   1      34.618  22.343  25.335  1.00  0.00     0.170 C 
ATOM     12  C   UNL A   1      33.488  24.116  24.281  1.00  0.00     0.236 C 
ATOM     13  H   UNL A   1      35.349  24.805  23.598  1.00  0.00     0.348 HD
ATOM     14  H   UNL A   1      35.000  25.278  25.156  1.00  0.00     0.348 HD
ATOM     15  C   UNL A   1      33.526  22.621  24.323  1.00  0.00     0.177 C 
ATOM     16  C   UNL A   1      34.707  20.864  25.250  1.00  0.00     0.244 C 
ATOM     17  C   UNL A   1      32.538  24.792  25.267  1.00  0.00     0.232 C 
ATOM     18  C   UNL A   1      33.032  24.701  22.930  1.00  0.00     0.232 C 
ATOM     19  C   UNL A   1      32.560  21.553  24.707  1.00  0.00     0.245 C 
ATOM     20  N   UNL A   1      33.393  20.463  24.997  1.00  0.00    -0.250 N 
ATOM     21  O   UNL A   1      35.718  20.205  25.402  1.00  0.00    -0.273 OA
ATOM     22  O   UNL A   1      32.547  24.673  26.479  1.00  0.00    -0.286 OA
ATOM     23  C   UNL A   1      31.631  25.674  24.513  1.00  0.00     0.036 A 
ATOM     24  C   UNL A   1      31.952  25.641  23.164  1.00  0.00     0.036 A 
ATOM     25  O   UNL A   1      33.446  24.477  21.808  1.00  0.00    -0.286 OA
ATOM     26  O   UNL A   1      31.351  21.622  24.598  1.00  0.00    -0.273 OA
ATOM     27  C   UNL A   1      30.598  26.473  24.965  1.00  0.00     0.013 A 
ATOM     28  C   UNL A   1      31.302  26.408  22.214  1.00  0.00     0.013 A 
ATOM     29  C   UNL A   1      29.908  27.246  24.018  1.00  0.00     0.001 A 
ATOM     30  C   UNL A   1      30.263  27.222  22.655  1.00  0.00     0.001 A 
BRANCH  20  31
ATOM     31  C   UNL A   1      33.081  19.112  24.754  1.00  0.00     0.052 A 
ATOM     32  C   UNL A   1      32.779  18.256  25.820  1.00  0.00     0.027 A 
ATOM     33  C   UNL A   1      33.262  18.578  23.472  1.00  0.00     0.027 A 
ATOM     34  C   UNL A   1      32.655  16.883  25.609  1.00  0.00     0.002 A 
ATOM     35  C   UNL A   1      33.192  17.197  23.276  1.00  0.00     0.002 A 
ATOM     36  C   UNL A   1      32.883  16.352  24.341  1.00  0.00     0.000 A 
ENDBRANCH  20  31
ENDBRANCH   5   8
ENDBRANCH   3   4
ENDBRANCH   2   3
ENDBRANCH   1   2
BRANCH   1  37
ATOM     37  N   UNL A   1      42.003  22.113  25.391  1.00  0.00    -0.352 N 
ATOM     38  C   UNL A   1      42.677  23.317  25.386  1.00  0.00     0.251 C 
ATOM     39  H   UNL A   1      42.287  21.509  24.666  1.00  0.00     0.163 HD
ATOM     40  O   UNL A   1      43.443  23.537  24.446  1.00  0.00    -0.269 OA
BRANCH  38  41
ATOM     41  C   UNL A   1      42.472  24.369  26.418  1.00  0.00     0.039 A 
ATOM     42  C   UNL A   1      42.606  24.118  27.776  1.00  0.00     0.014 A 
ATOM     43  C   UNL A   1      42.162  25.679  26.016  1.00  0.00     0.014 A 
ATOM     44  C   UNL A   1      42.193  25.059  28.714  1.00  0.00     0.010 A 
ATOM     45  C   UNL A   1      41.890  26.676  26.968  1.00  0.00     0.010 A 
ATOM     46  C   UNL A   1      41.834  26.359  28.331  1.00  0.00    -0.014 A 
BRANCH  46  47
ATOM     47  C   UNL A   1      41.422  27.337  29.381  1.00  0.00     0.031 A 
ATOM     48  C   UNL A   1      40.110  28.078  29.291  1.00  0.00     0.074 A 
ATOM     49  C   UNL A   1      42.200  27.507  30.472  1.00  0.00     0.049 A 
ATOM     50  N   UNL A   1      39.592  28.933  30.136  1.00  0.00    -0.248 NA
ATOM     51  C   UNL A   1      39.274  27.843  28.101  1.00  0.00     0.031 C 
ATOM     52  C   UNL A   1      43.504  26.876  30.684  1.00  0.00     0.029 A 
ATOM     53  N   UNL A   1      41.996  28.228  31.625  1.00  0.00    -0.354 N 
ATOM     54  C   UNL A   1      38.412  29.383  29.556  1.00  0.00     0.074 A 
ATOM     55  C   UNL A   1      38.283  28.705  28.285  1.00  0.00     0.031 C 
ATOM     56  C   UNL A   1      43.940  27.160  31.918  1.00  0.00     0.029 A 
ATOM     57  C   UNL A   1      42.993  28.065  32.559  1.00  0.00     0.049 A 
ATOM     58  H   UNL A   1      41.213  28.806  31.767  1.00  0.00     0.167 HD
ATOM     59  C   UNL A   1      37.508  30.266  30.041  1.00  0.00     0.034 A 
ATOM     60  C   UNL A   1      43.148  28.588  33.790  1.00  0.00     0.034 A 
ATOM     61  C   UNL A   1      37.584  30.878  31.339  1.00  0.00     0.049 A 
ATOM     62  C   UNL A   1      42.114  29.534  34.323  1.00  0.00     0.074 A 
ATOM     63  C   UNL A   1      36.678  31.738  31.936  1.00  0.00     0.029 A 
ATOM     64  N   UNL A   1      38.614  30.688  32.247  1.00  0.00    -0.354 N 
ATOM     65  N   UNL A   1      40.983  29.901  33.773  1.00  0.00    -0.248 NA
ATOM     66  C   UNL A   1      42.376  30.140  35.635  1.00  0.00     0.031 C 
ATOM     67  C   UNL A   1      37.163  32.073  33.203  1.00  0.00     0.029 A 
ATOM     68  C   UNL A   1      38.367  31.416  33.398  1.00  0.00     0.049 A 
ATOM     69  H   UNL A   1      39.403  30.119  32.095  1.00  0.00     0.167 HD
ATOM     70  C   UNL A   1      40.395  30.782  34.671  1.00  0.00     0.074 A 
ATOM     71  C   UNL A   1      41.282  30.873  35.814  1.00  0.00     0.031 C 
ATOM     72  C   UNL A   1      39.236  31.469  34.545  1.00  0.00     0.034 A 
BRANCH  59  73
ATOM     73  C   UNL A   1      36.314  30.596  29.187  1.00  0.00     0.023 A 
ATOM     74  C   UNL A   1      35.562  29.552  28.612  1.00  0.00     0.012 A 
ATOM     75  C   UNL A   1      35.883  31.929  29.034  1.00  0.00     0.148 A 
ATOM     76  C   UNL A   1      34.404  29.830  27.886  1.00  0.00     0.002 A 
ATOM     77  C   UNL A   1      34.712  32.196  28.334  1.00  0.00     0.091 A 
ATOM     78  F   UNL A   1      36.623  32.905  29.579  1.00  0.00    -0.205 F 
ATOM     79  C   UNL A   1      33.975  31.149  27.756  1.00  0.00     0.022 A 
BRANCH  77  80
ATOM     80  S   UNL A   1      34.041  33.853  28.156  1.00  0.00     0.127 S 
ATOM     81  O   UNL A   1      32.719  33.574  27.598  1.00  0.00    -0.237 OA
ATOM     82  O   UNL A   1      34.030  34.330  29.539  1.00  0.00    -0.237 OA
ATOM     83  O   UNL A   1      34.953  34.565  27.273  1.00  0.00    -0.744 OA
ENDBRANCH  77  80
ENDBRANCH  59  73
BRANCH  60  84
ATOM     84  C   UNL A   1      44.327  28.183  34.604  1.00  0.00     0.023 A 
ATOM     85  C   UNL A   1      45.550  28.856  34.428  1.00  0.00     0.012 A 
ATOM     86  C   UNL A   1      44.206  27.221  35.626  1.00  0.00     0.148 A 
ATOM     87  C   UNL A   1      46.633  28.584  35.265  1.00  0.00     0.002 A 
ATOM     88  C   UNL A   1      45.272  26.992  36.487  1.00  0.00     0.091 A 
ATOM     89  F   UNL A   1      43.031  26.593  35.767  1.00  0.00    -0.205 F 
ATOM     90  C   UNL A   1      46.490  27.666  36.302  1.00  0.00     0.022 A 
BRANCH  88  91
ATOM     91  S   UNL A   1      45.140  25.931  37.929  1.00  0.00     0.127 S 
ATOM     92  O   UNL A   1      44.738  24.660  37.329  1.00  0.00    -0.237 OA
ATOM     93  O   UNL A   1      46.508  25.963  38.447  1.00  0.00    -0.237 OA
ATOM     94  O   UNL A   1      44.149  26.554  38.794  1.00  0.00    -0.744 OA
ENDBRANCH  88  91
ENDBRANCH  60  84
BRANCH  72  95
ATOM     95  C   UNL A   1      38.839  32.392  35.661  1.00  0.00     0.023 A 
ATOM     96  C   UNL A   1      37.937  31.935  36.641  1.00  0.00     0.012 A 
ATOM     97  C   UNL A   1      39.450  33.653  35.807  1.00  0.00     0.148 A 
ATOM     98  C   UNL A   1      37.642  32.725  37.751  1.00  0.00     0.002 A 
ATOM     99  C   UNL A   1      39.176  34.420  36.931  1.00  0.00     0.091 A 
ATOM    100  F   UNL A   1      40.297  34.064  34.853  1.00  0.00    -0.205 F 
ATOM    101  C   UNL A   1      38.270  33.960  37.902  1.00  0.00     0.022 A 
BRANCH  99 102
ATOM    102  S   UNL A   1      39.988  35.989  37.254  1.00  0.00     0.127 S 
ATOM    103  O   UNL A   1      39.267  36.460  38.436  1.00  0.00    -0.237 OA
ATOM    104  O   UNL A   1      41.369  35.577  37.505  1.00  0.00    -0.237 OA
ATOM    105  O   UNL A   1      39.803  36.795  36.055  1.00  0.00    -0.744 OA
ENDBRANCH  99 102
ENDBRANCH  72  95
ENDBRANCH  46  47
ENDBRANCH  38  41
ENDBRANCH   1  37
TORSDOF 14
ENDMDL
