MODEL 1
REMARK VINA RESULT:     -11.7      0.000      0.000
REMARK SMILES C[C@H](CNS(=O)(=O)c1ccc(C(=O)NCCCNC(=O)c2ccc(-c3c4nc(c(-c5cccc(S(=O)(=O)[O-])c5F)c5ccc([nH]5)c(-c5cccc(S(=O)(=O)[O-])c5F)c5nc(c(-c6cccc(S(=O)(=O)[O-])c6F)c6ccc3[nH]6)C=C5)C=C4)cc2)cc1F)[NH+](C)C
REMARK SMILES IDX 15 1 14 2 12 3 13 4 11 6 8 7 9 8 85 9 10 10 84 11 86 12 5 13
REMARK SMILES IDX 6 14 7 15 4 16 3 18 2 19 1 20 87 21 88 22 89 23 16 25 17 26
REMARK SMILES IDX 18 27 19 28 20 30 21 31 22 32 83 33 23 34 82 35 24 36 25 37
REMARK SMILES IDX 26 38 76 39 27 40 81 41 75 42 77 43 28 44 80 45 74 46 73 47
REMARK SMILES IDX 29 49 61 50 41 51 60 52 42 53 45 54 59 55 78 56 43 57 44 58
REMARK SMILES IDX 58 60 79 61 46 62 30 63 31 64 39 65 32 66 34 67 40 68 33 69
REMARK SMILES IDX 35 70 36 71 37 72 38 73 62 74 63 75 71 76 64 77 66 78 72 79
REMARK SMILES IDX 65 80 67 81 68 82 69 83 70 84 47 85 48 86 56 87 49 88 51 89
REMARK SMILES IDX 57 90 50 91 52 92 53 93 54 94 55 95
REMARK H PARENT 14 5 4 17 87 24 18 29 77 48 45 59
REMARK Flexibility Score: inf
ROOT
ATOM      1  C   UNL A   1      32.288  28.772  22.903  1.00  0.00     0.118 C 
ENDROOT
BRANCH   1   2
ATOM      2  N   UNL A   1      32.793  27.785  21.965  1.00  0.00    -0.352 N 
ATOM      3  C   UNL A   1      33.072  26.448  22.070  1.00  0.00     0.251 C 
ATOM      4  O   UNL A   1      33.459  25.874  21.051  1.00  0.00    -0.269 OA
ATOM      5  H   UNL A   1      32.973  28.153  21.070  1.00  0.00     0.163 HD
BRANCH   3   6
ATOM      6  C   UNL A   1      32.857  25.644  23.307  1.00  0.00     0.042 A 
ATOM      7  C   UNL A   1      32.746  23.998  25.581  1.00  0.00     0.118 A 
ATOM      8  C   UNL A   1      33.886  24.763  25.344  1.00  0.00     0.026 A 
ATOM      9  C   UNL A   1      31.641  24.133  24.752  1.00  0.00     0.144 A 
ATOM     10  C   UNL A   1      33.943  25.565  24.199  1.00  0.00     0.015 A 
ATOM     11  C   UNL A   1      31.680  24.976  23.642  1.00  0.00     0.054 A 
ATOM     12  F   UNL A   1      30.521  23.436  24.980  1.00  0.00    -0.205 F 
BRANCH   7  13
ATOM     13  S   UNL A   1      32.663  22.769  26.833  1.00  0.00     0.243 S 
ATOM     14  O   UNL A   1      31.544  23.082  27.697  1.00  0.00    -0.207 OA
ATOM     15  O   UNL A   1      33.998  22.552  27.338  1.00  0.00    -0.207 OA
BRANCH  13  16
ATOM     16  N   UNL A   1      32.287  21.332  26.036  1.00  0.00    -0.205 NA
ATOM     17  H   UNL A   1      31.486  20.925  26.517  1.00  0.00     0.141 HD
BRANCH  16  18
ATOM     18  C   UNL A   1      33.311  20.275  25.936  1.00  0.00     0.163 C 
BRANCH  18  19
ATOM     19  C   UNL A   1      32.808  19.037  25.132  1.00  0.00     0.195 C 
ATOM     20  C   UNL A   1      32.512  19.360  23.658  1.00  0.00     0.076 C 
BRANCH  19  21
ATOM     21  N   UNL A   1      33.655  17.841  25.354  1.00  0.00    -0.337 N 
ATOM     22  C   UNL A   1      32.881  16.602  25.422  1.00  0.00     0.332 C 
ATOM     23  C   UNL A   1      34.779  17.699  24.434  1.00  0.00     0.332 C 
ATOM     24  H   UNL A   1      34.068  18.012  26.270  1.00  0.00     0.347 HD
ENDBRANCH  19  21
ENDBRANCH  18  19
ENDBRANCH  16  18
ENDBRANCH  13  16
ENDBRANCH   7  13
ENDBRANCH   3   6
ENDBRANCH   1   2
BRANCH   1  25
ATOM     25  C   UNL A   1      33.361  29.183  23.910  1.00  0.00     0.042 C 
BRANCH  25  26
ATOM     26  C   UNL A   1      32.888  29.111  25.362  1.00  0.00     0.118 C 
BRANCH  26  27
ATOM     27  N   UNL A   1      32.422  30.402  25.846  1.00  0.00    -0.352 N 
ATOM     28  C   UNL A   1      32.899  31.177  26.875  1.00  0.00     0.251 C 
ATOM     29  H   UNL A   1      31.648  30.776  25.364  1.00  0.00     0.163 HD
ATOM     30  O   UNL A   1      32.233  32.130  27.271  1.00  0.00    -0.269 OA
BRANCH  28  31
ATOM     31  C   UNL A   1      34.199  30.868  27.511  1.00  0.00     0.039 A 
ATOM     32  C   UNL A   1      35.152  31.886  27.626  1.00  0.00     0.014 A 
ATOM     33  C   UNL A   1      34.500  29.576  27.951  1.00  0.00     0.014 A 
ATOM     34  C   UNL A   1      36.382  31.623  28.239  1.00  0.00     0.010 A 
ATOM     35  C   UNL A   1      35.705  29.328  28.607  1.00  0.00     0.010 A 
ATOM     36  C   UNL A   1      36.656  30.348  28.759  1.00  0.00    -0.014 A 
BRANCH  36  37
ATOM     37  C   UNL A   1      37.913  30.067  29.500  1.00  0.00     0.031 A 
ATOM     38  C   UNL A   1      38.928  29.105  28.946  1.00  0.00     0.074 A 
ATOM     39  C   UNL A   1      38.087  30.599  30.726  1.00  0.00     0.049 A 
ATOM     40  N   UNL A   1      40.026  28.661  29.500  1.00  0.00    -0.248 NA
ATOM     41  C   UNL A   1      38.667  28.552  27.607  1.00  0.00     0.031 C 
ATOM     42  C   UNL A   1      37.137  31.486  31.403  1.00  0.00     0.029 A 
ATOM     43  N   UNL A   1      39.101  30.442  31.639  1.00  0.00    -0.354 N 
ATOM     44  C   UNL A   1      40.565  27.750  28.600  1.00  0.00     0.074 A 
ATOM     45  C   UNL A   1      39.669  27.694  27.466  1.00  0.00     0.031 C 
ATOM     46  C   UNL A   1      37.605  31.782  32.625  1.00  0.00     0.029 A 
ATOM     47  C   UNL A   1      38.875  31.090  32.831  1.00  0.00     0.049 A 
ATOM     48  H   UNL A   1      39.913  29.916  31.456  1.00  0.00     0.167 HD
ATOM     49  C   UNL A   1      41.715  27.042  28.703  1.00  0.00     0.034 A 
ATOM     50  C   UNL A   1      39.599  31.115  33.967  1.00  0.00     0.034 A 
ATOM     51  C   UNL A   1      42.634  27.146  29.803  1.00  0.00     0.049 A 
ATOM     52  C   UNL A   1      40.909  30.378  34.020  1.00  0.00     0.074 A 
ATOM     53  C   UNL A   1      43.867  26.533  29.949  1.00  0.00     0.029 A 
ATOM     54  N   UNL A   1      42.430  27.913  30.938  1.00  0.00    -0.354 N 
ATOM     55  N   UNL A   1      41.475  29.644  33.094  1.00  0.00    -0.248 NA
ATOM     56  C   UNL A   1      41.699  30.502  35.255  1.00  0.00     0.031 C 
ATOM     57  C   UNL A   1      44.408  26.928  31.176  1.00  0.00     0.029 A 
ATOM     58  C   UNL A   1      43.516  27.792  31.789  1.00  0.00     0.049 A 
ATOM     59  H   UNL A   1      41.633  28.462  31.115  1.00  0.00     0.167 HD
ATOM     60  C   UNL A   1      42.698  29.244  33.620  1.00  0.00     0.074 A 
ATOM     61  C   UNL A   1      42.803  29.835  34.937  1.00  0.00     0.031 C 
ATOM     62  C   UNL A   1      43.640  28.442  33.067  1.00  0.00     0.034 A 
BRANCH  49  63
ATOM     63  C   UNL A   1      42.100  26.137  27.563  1.00  0.00     0.023 A 
ATOM     64  C   UNL A   1      43.011  26.606  26.596  1.00  0.00     0.012 A 
ATOM     65  C   UNL A   1      41.674  24.795  27.525  1.00  0.00     0.148 A 
ATOM     66  C   UNL A   1      43.486  25.755  25.600  1.00  0.00     0.002 A 
ATOM     67  C   UNL A   1      42.179  23.943  26.549  1.00  0.00     0.091 A 
ATOM     68  F   UNL A   1      40.799  24.377  28.450  1.00  0.00    -0.205 F 
ATOM     69  C   UNL A   1      43.081  24.422  25.584  1.00  0.00     0.022 A 
BRANCH  67  70
ATOM     70  S   UNL A   1      41.781  22.193  26.481  1.00  0.00     0.127 S 
ATOM     71  O   UNL A   1      42.229  21.736  27.796  1.00  0.00    -0.237 OA
ATOM     72  O   UNL A   1      40.329  22.215  26.305  1.00  0.00    -0.237 OA
ATOM     73  O   UNL A   1      42.527  21.652  25.353  1.00  0.00    -0.744 OA
ENDBRANCH  67  70
ENDBRANCH  49  63
BRANCH  50  74
ATOM     74  C   UNL A   1      39.130  31.936  35.120  1.00  0.00     0.023 A 
ATOM     75  C   UNL A   1      38.229  31.374  36.044  1.00  0.00     0.012 A 
ATOM     76  C   UNL A   1      39.612  33.241  35.338  1.00  0.00     0.148 A 
ATOM     77  C   UNL A   1      37.798  32.105  37.153  1.00  0.00     0.002 A 
ATOM     78  C   UNL A   1      39.222  33.942  36.474  1.00  0.00     0.091 A 
ATOM     79  F   UNL A   1      40.453  33.771  34.438  1.00  0.00    -0.205 F 
ATOM     80  C   UNL A   1      38.305  33.382  37.375  1.00  0.00     0.022 A 
BRANCH  78  81
ATOM     81  S   UNL A   1      39.953  35.529  36.896  1.00  0.00     0.127 S 
ATOM     82  O   UNL A   1      39.282  35.845  38.154  1.00  0.00    -0.237 OA
ATOM     83  O   UNL A   1      41.373  35.196  37.021  1.00  0.00    -0.237 OA
ATOM     84  O   UNL A   1      39.647  36.396  35.765  1.00  0.00    -0.744 OA
ENDBRANCH  78  81
ENDBRANCH  50  74
BRANCH  62  85
ATOM     85  C   UNL A   1      44.888  28.165  33.860  1.00  0.00     0.023 A 
ATOM     86  C   UNL A   1      45.978  29.052  33.766  1.00  0.00     0.012 A 
ATOM     87  C   UNL A   1      44.936  27.101  34.782  1.00  0.00     0.148 A 
ATOM     88  C   UNL A   1      47.105  28.875  34.568  1.00  0.00     0.002 A 
ATOM     89  C   UNL A   1      46.045  26.955  35.607  1.00  0.00     0.091 A 
ATOM     90  F   UNL A   1      43.896  26.256  34.841  1.00  0.00    -0.205 F 
ATOM     91  C   UNL A   1      47.133  27.837  35.497  1.00  0.00     0.022 A 
BRANCH  89  92
ATOM     92  S   UNL A   1      46.118  25.705  36.896  1.00  0.00     0.127 S 
ATOM     93  O   UNL A   1      44.758  25.747  37.430  1.00  0.00    -0.237 OA
ATOM     94  O   UNL A   1      46.438  24.492  36.143  1.00  0.00    -0.237 OA
ATOM     95  O   UNL A   1      47.167  26.139  37.808  1.00  0.00    -0.744 OA
ENDBRANCH  89  92
ENDBRANCH  62  85
ENDBRANCH  36  37
ENDBRANCH  28  31
ENDBRANCH  26  27
ENDBRANCH  25  26
ENDBRANCH   1  25
TORSDOF 18
ENDMDL
MODEL 2
REMARK VINA RESULT:     -11.5      2.649      3.578
REMARK SMILES C[C@H](CNS(=O)(=O)c1ccc(C(=O)NCCCNC(=O)c2ccc(-c3c4nc(c(-c5cccc(S(=O)(=O)[O-])c5F)c5ccc([nH]5)c(-c5cccc(S(=O)(=O)[O-])c5F)c5nc(c(-c6cccc(S(=O)(=O)[O-])c6F)c6ccc3[nH]6)C=C5)C=C4)cc2)cc1F)[NH+](C)C
REMARK SMILES IDX 15 1 14 2 12 3 13 4 11 6 8 7 9 8 85 9 10 10 84 11 86 12 5 13
REMARK SMILES IDX 6 14 7 15 4 16 3 18 2 19 1 20 87 21 88 22 89 23 16 25 17 26
REMARK SMILES IDX 18 27 19 28 20 30 21 31 22 32 83 33 23 34 82 35 24 36 25 37
REMARK SMILES IDX 26 38 76 39 27 40 81 41 75 42 77 43 28 44 80 45 74 46 73 47
REMARK SMILES IDX 29 49 61 50 41 51 60 52 42 53 45 54 59 55 78 56 43 57 44 58
REMARK SMILES IDX 58 60 79 61 46 62 30 63 31 64 39 65 32 66 34 67 40 68 33 69
REMARK SMILES IDX 35 70 36 71 37 72 38 73 62 74 63 75 71 76 64 77 66 78 72 79
REMARK SMILES IDX 65 80 67 81 68 82 69 83 70 84 47 85 48 86 56 87 49 88 51 89
REMARK SMILES IDX 57 90 50 91 52 92 53 93 54 94 55 95
REMARK H PARENT 14 5 4 17 87 24 18 29 77 48 45 59
REMARK Flexibility Score: inf
ROOT
ATOM      1  C   UNL A   1      31.646  30.459  26.269  1.00  0.00     0.118 C 
ENDROOT
BRANCH   1   2
ATOM      2  N   UNL A   1      31.365  30.122  24.884  1.00  0.00    -0.352 N 
ATOM      3  C   UNL A   1      31.266  28.934  24.210  1.00  0.00     0.251 C 
ATOM      4  O   UNL A   1      30.967  28.989  23.016  1.00  0.00    -0.269 OA
ATOM      5  H   UNL A   1      31.215  30.910  24.313  1.00  0.00     0.163 HD
BRANCH   3   6
ATOM      6  C   UNL A   1      31.418  27.595  24.848  1.00  0.00     0.042 A 
ATOM      7  C   UNL A   1      31.859  24.982  25.779  1.00  0.00     0.118 A 
ATOM      8  C   UNL A   1      32.919  25.704  25.237  1.00  0.00     0.026 A 
ATOM      9  C   UNL A   1      30.625  25.593  25.948  1.00  0.00     0.144 A 
ATOM     10  C   UNL A   1      32.688  26.998  24.757  1.00  0.00     0.015 A 
ATOM     11  C   UNL A   1      30.410  26.902  25.519  1.00  0.00     0.054 A 
ATOM     12  F   UNL A   1      29.599  24.932  26.500  1.00  0.00    -0.205 F 
BRANCH   7  13
ATOM     13  S   UNL A   1      31.968  23.273  26.173  1.00  0.00     0.243 S 
ATOM     14  O   UNL A   1      30.939  22.575  25.432  1.00  0.00    -0.207 OA
ATOM     15  O   UNL A   1      32.115  23.151  27.603  1.00  0.00    -0.207 OA
BRANCH  13  16
ATOM     16  N   UNL A   1      33.453  22.760  25.562  1.00  0.00    -0.205 NA
ATOM     17  H   UNL A   1      33.309  21.832  25.167  1.00  0.00     0.141 HD
BRANCH  16  18
ATOM     18  C   UNL A   1      34.611  22.664  26.471  1.00  0.00     0.163 C 
BRANCH  18  19
ATOM     19  C   UNL A   1      35.665  21.625  25.981  1.00  0.00     0.195 C 
ATOM     20  C   UNL A   1      35.076  20.587  25.011  1.00  0.00     0.076 C 
BRANCH  19  21
ATOM     21  N   UNL A   1      36.920  22.268  25.525  1.00  0.00    -0.337 N 
ATOM     22  C   UNL A   1      37.082  22.230  24.072  1.00  0.00     0.332 C 
ATOM     23  C   UNL A   1      37.147  23.616  26.036  1.00  0.00     0.332 C 
ATOM     24  H   UNL A   1      37.647  21.688  25.944  1.00  0.00     0.347 HD
ENDBRANCH  19  21
ENDBRANCH  18  19
ENDBRANCH  16  18
ENDBRANCH  13  16
ENDBRANCH   7  13
ENDBRANCH   3   6
ENDBRANCH   1   2
BRANCH   1  25
ATOM     25  C   UNL A   1      31.536  31.964  26.509  1.00  0.00     0.042 C 
BRANCH  25  26
ATOM     26  C   UNL A   1      32.724  32.542  27.277  1.00  0.00     0.118 C 
BRANCH  26  27
ATOM     27  N   UNL A   1      32.519  33.943  27.620  1.00  0.00    -0.352 N 
ATOM     28  C   UNL A   1      33.106  34.698  28.605  1.00  0.00     0.251 C 
ATOM     29  H   UNL A   1      31.862  34.419  27.062  1.00  0.00     0.163 HD
ATOM     30  O   UNL A   1      32.639  35.801  28.878  1.00  0.00    -0.269 OA
BRANCH  28  31
ATOM     31  C   UNL A   1      34.286  34.193  29.341  1.00  0.00     0.039 A 
ATOM     32  C   UNL A   1      34.086  33.457  30.514  1.00  0.00     0.014 A 
ATOM     33  C   UNL A   1      35.585  34.476  28.908  1.00  0.00     0.014 A 
ATOM     34  C   UNL A   1      35.185  32.955  31.219  1.00  0.00     0.010 A 
ATOM     35  C   UNL A   1      36.678  33.932  29.581  1.00  0.00     0.010 A 
ATOM     36  C   UNL A   1      36.489  33.165  30.741  1.00  0.00    -0.014 A 
BRANCH  36  37
ATOM     37  C   UNL A   1      37.668  32.560  31.414  1.00  0.00     0.031 A 
ATOM     38  C   UNL A   1      38.394  31.402  30.787  1.00  0.00     0.074 A 
ATOM     39  C   UNL A   1      38.013  32.986  32.644  1.00  0.00     0.049 A 
ATOM     40  N   UNL A   1      39.372  30.684  31.276  1.00  0.00    -0.248 NA
ATOM     41  C   UNL A   1      37.954  30.980  29.446  1.00  0.00     0.031 C 
ATOM     42  C   UNL A   1      37.335  34.051  33.389  1.00  0.00     0.029 A 
ATOM     43  N   UNL A   1      38.994  32.554  33.504  1.00  0.00    -0.354 N 
ATOM     44  C   UNL A   1      39.637  29.704  30.327  1.00  0.00     0.074 A 
ATOM     45  C   UNL A   1      38.711  29.911  29.235  1.00  0.00     0.031 C 
ATOM     46  C   UNL A   1      37.910  34.177  34.596  1.00  0.00     0.029 A 
ATOM     47  C   UNL A   1      38.979  33.191  34.723  1.00  0.00     0.049 A 
ATOM     48  H   UNL A   1      39.645  31.854  33.268  1.00  0.00     0.167 HD
ATOM     49  C   UNL A   1      40.582  28.735  30.356  1.00  0.00     0.034 A 
ATOM     50  C   UNL A   1      39.731  32.997  35.824  1.00  0.00     0.034 A 
ATOM     51  C   UNL A   1      41.541  28.572  31.413  1.00  0.00     0.049 A 
ATOM     52  C   UNL A   1      40.823  31.962  35.794  1.00  0.00     0.074 A 
ATOM     53  C   UNL A   1      42.593  27.673  31.484  1.00  0.00     0.029 A 
ATOM     54  N   UNL A   1      41.575  29.321  32.577  1.00  0.00    -0.354 N 
ATOM     55  N   UNL A   1      41.156  31.149  34.823  1.00  0.00    -0.248 NA
ATOM     56  C   UNL A   1      41.668  31.844  36.993  1.00  0.00     0.031 C 
ATOM     57  C   UNL A   1      43.261  27.878  32.695  1.00  0.00     0.029 A 
ATOM     58  C   UNL A   1      42.631  28.908  33.373  1.00  0.00     0.049 A 
ATOM     59  H   UNL A   1      40.943  30.040  32.806  1.00  0.00     0.167 HD
ATOM     60  C   UNL A   1      42.264  30.445  35.279  1.00  0.00     0.074 A 
ATOM     61  C   UNL A   1      42.562  30.942  36.605  1.00  0.00     0.031 C 
ATOM     62  C   UNL A   1      42.960  29.460  34.660  1.00  0.00     0.034 A 
BRANCH  49  63
ATOM     63  C   UNL A   1      40.690  27.808  29.175  1.00  0.00     0.023 A 
ATOM     64  C   UNL A   1      39.800  26.720  29.075  1.00  0.00     0.012 A 
ATOM     65  C   UNL A   1      41.569  28.087  28.110  1.00  0.00     0.148 A 
ATOM     66  C   UNL A   1      39.788  25.917  27.937  1.00  0.00     0.002 A 
ATOM     67  C   UNL A   1      41.528  27.303  26.963  1.00  0.00     0.091 A 
ATOM     68  F   UNL A   1      42.413  29.120  28.234  1.00  0.00    -0.205 F 
ATOM     69  C   UNL A   1      40.642  26.215  26.877  1.00  0.00     0.022 A 
BRANCH  67  70
ATOM     70  S   UNL A   1      42.530  27.642  25.512  1.00  0.00     0.127 S 
ATOM     71  O   UNL A   1      42.246  26.475  24.677  1.00  0.00    -0.237 OA
ATOM     72  O   UNL A   1      41.951  28.895  25.025  1.00  0.00    -0.237 OA
ATOM     73  O   UNL A   1      43.904  27.745  25.983  1.00  0.00    -0.744 OA
ENDBRANCH  67  70
ENDBRANCH  49  63
BRANCH  50  74
ATOM     74  C   UNL A   1      39.522  33.862  37.019  1.00  0.00     0.023 A 
ATOM     75  C   UNL A   1      39.923  35.210  36.973  1.00  0.00     0.012 A 
ATOM     76  C   UNL A   1      38.880  33.376  38.175  1.00  0.00     0.148 A 
ATOM     77  C   UNL A   1      39.710  36.054  38.064  1.00  0.00     0.002 A 
ATOM     78  C   UNL A   1      38.621  34.237  39.236  1.00  0.00     0.091 A 
ATOM     79  F   UNL A   1      38.523  32.084  38.213  1.00  0.00    -0.205 F 
ATOM     80  C   UNL A   1      39.046  35.572  39.189  1.00  0.00     0.022 A 
BRANCH  78  81
ATOM     81  S   UNL A   1      37.639  33.718  40.649  1.00  0.00     0.127 S 
ATOM     82  O   UNL A   1      38.505  32.719  41.268  1.00  0.00    -0.237 OA
ATOM     83  O   UNL A   1      37.495  34.962  41.405  1.00  0.00    -0.237 OA
ATOM     84  O   UNL A   1      36.391  33.226  40.079  1.00  0.00    -0.744 OA
ENDBRANCH  78  81
ENDBRANCH  50  74
BRANCH  62  85
ATOM     85  C   UNL A   1      44.133  28.858  35.386  1.00  0.00     0.023 A 
ATOM     86  C   UNL A   1      45.396  29.473  35.286  1.00  0.00     0.012 A 
ATOM     87  C   UNL A   1      43.960  27.763  36.255  1.00  0.00     0.148 A 
ATOM     88  C   UNL A   1      46.475  28.997  36.031  1.00  0.00     0.002 A 
ATOM     89  C   UNL A   1      45.029  27.319  37.024  1.00  0.00     0.091 A 
ATOM     90  F   UNL A   1      42.754  27.179  36.318  1.00  0.00    -0.205 F 
ATOM     91  C   UNL A   1      46.288  27.931  36.908  1.00  0.00     0.022 A 
BRANCH  89  92
ATOM     92  S   UNL A   1      44.848  26.017  38.249  1.00  0.00     0.127 S 
ATOM     93  O   UNL A   1      46.157  26.034  38.899  1.00  0.00    -0.237 OA
ATOM     94  O   UNL A   1      43.749  26.513  39.078  1.00  0.00    -0.237 OA
ATOM     95  O   UNL A   1      44.534  24.810  37.497  1.00  0.00    -0.744 OA
ENDBRANCH  89  92
ENDBRANCH  62  85
ENDBRANCH  36  37
ENDBRANCH  28  31
ENDBRANCH  26  27
ENDBRANCH  25  26
ENDBRANCH   1  25
TORSDOF 18
ENDMDL
MODEL 3
REMARK VINA RESULT:     -11.4      1.380      7.654
REMARK SMILES C[C@H](CNS(=O)(=O)c1ccc(C(=O)NCCCNC(=O)c2ccc(-c3c4nc(c(-c5cccc(S(=O)(=O)[O-])c5F)c5ccc([nH]5)c(-c5cccc(S(=O)(=O)[O-])c5F)c5nc(c(-c6cccc(S(=O)(=O)[O-])c6F)c6ccc3[nH]6)C=C5)C=C4)cc2)cc1F)[NH+](C)C
REMARK SMILES IDX 15 1 14 2 12 3 13 4 11 6 8 7 9 8 85 9 10 10 84 11 86 12 5 13
REMARK SMILES IDX 6 14 7 15 4 16 3 18 2 19 1 20 87 21 88 22 89 23 16 25 17 26
REMARK SMILES IDX 18 27 19 28 20 30 21 31 22 32 83 33 23 34 82 35 24 36 25 37
REMARK SMILES IDX 26 38 76 39 27 40 81 41 75 42 77 43 28 44 80 45 74 46 73 47
REMARK SMILES IDX 29 49 61 50 41 51 60 52 42 53 45 54 59 55 78 56 43 57 44 58
REMARK SMILES IDX 58 60 79 61 46 62 30 63 31 64 39 65 32 66 34 67 40 68 33 69
REMARK SMILES IDX 35 70 36 71 37 72 38 73 62 74 63 75 71 76 64 77 66 78 72 79
REMARK SMILES IDX 65 80 67 81 68 82 69 83 70 84 47 85 48 86 56 87 49 88 51 89
REMARK SMILES IDX 57 90 50 91 52 92 53 93 54 94 55 95
REMARK H PARENT 14 5 4 17 87 24 18 29 77 48 45 59
REMARK Flexibility Score: inf
ROOT
ATOM      1  C   UNL A   1      32.388  28.940  23.039  1.00  0.00     0.118 C 
ENDROOT
BRANCH   1   2
ATOM      2  N   UNL A   1      32.941  27.949  22.133  1.00  0.00    -0.352 N 
ATOM      3  C   UNL A   1      33.217  26.613  22.260  1.00  0.00     0.251 C 
ATOM      4  O   UNL A   1      33.655  26.033  21.265  1.00  0.00    -0.269 OA
ATOM      5  H   UNL A   1      33.164  28.312  21.245  1.00  0.00     0.163 HD
BRANCH   3   6
ATOM      6  C   UNL A   1      32.944  25.816  23.490  1.00  0.00     0.042 A 
ATOM      7  C   UNL A   1      32.698  24.145  25.735  1.00  0.00     0.118 A 
ATOM      8  C   UNL A   1      33.923  24.746  25.459  1.00  0.00     0.026 A 
ATOM      9  C   UNL A   1      31.589  24.456  24.961  1.00  0.00     0.144 A 
ATOM     10  C   UNL A   1      34.045  25.561  24.329  1.00  0.00     0.015 A 
ATOM     11  C   UNL A   1      31.699  25.313  23.866  1.00  0.00     0.054 A 
ATOM     12  F   UNL A   1      30.391  23.920  25.227  1.00  0.00    -0.205 F 
BRANCH   7  13
ATOM     13  S   UNL A   1      32.495  22.908  26.966  1.00  0.00     0.243 S 
ATOM     14  O   UNL A   1      31.225  23.134  27.624  1.00  0.00    -0.207 OA
ATOM     15  O   UNL A   1      33.737  22.790  27.692  1.00  0.00    -0.207 OA
BRANCH  13  16
ATOM     16  N   UNL A   1      32.367  21.450  26.129  1.00  0.00    -0.205 NA
ATOM     17  H   UNL A   1      32.965  20.778  26.609  1.00  0.00     0.141 HD
BRANCH  16  18
ATOM     18  C   UNL A   1      32.731  21.406  24.700  1.00  0.00     0.163 C 
BRANCH  18  19
ATOM     19  C   UNL A   1      33.953  20.476  24.428  1.00  0.00     0.195 C 
ATOM     20  C   UNL A   1      35.258  21.004  25.047  1.00  0.00     0.076 C 
BRANCH  19  21
ATOM     21  N   UNL A   1      33.653  19.054  24.717  1.00  0.00    -0.337 N 
ATOM     22  C   UNL A   1      32.522  18.543  23.944  1.00  0.00     0.332 C 
ATOM     23  C   UNL A   1      34.794  18.149  24.625  1.00  0.00     0.332 C 
ATOM     24  H   UNL A   1      33.389  19.065  25.703  1.00  0.00     0.347 HD
ENDBRANCH  19  21
ENDBRANCH  18  19
ENDBRANCH  16  18
ENDBRANCH  13  16
ENDBRANCH   7  13
ENDBRANCH   3   6
ENDBRANCH   1   2
BRANCH   1  25
ATOM     25  C   UNL A   1      33.395  29.328  24.121  1.00  0.00     0.042 C 
BRANCH  25  26
ATOM     26  C   UNL A   1      32.786  29.386  25.521  1.00  0.00     0.118 C 
BRANCH  26  27
ATOM     27  N   UNL A   1      32.509  30.754  25.937  1.00  0.00    -0.352 N 
ATOM     28  C   UNL A   1      33.076  31.497  26.943  1.00  0.00     0.251 C 
ATOM     29  H   UNL A   1      31.810  31.216  25.419  1.00  0.00     0.163 HD
ATOM     30  O   UNL A   1      32.553  32.555  27.280  1.00  0.00    -0.269 OA
BRANCH  28  31
ATOM     31  C   UNL A   1      34.303  31.028  27.626  1.00  0.00     0.039 A 
ATOM     32  C   UNL A   1      35.338  31.941  27.856  1.00  0.00     0.014 A 
ATOM     33  C   UNL A   1      34.457  29.690  27.999  1.00  0.00     0.014 A 
ATOM     34  C   UNL A   1      36.500  31.527  28.514  1.00  0.00     0.010 A 
ATOM     35  C   UNL A   1      35.594  29.289  28.700  1.00  0.00     0.010 A 
ATOM     36  C   UNL A   1      36.624  30.203  28.966  1.00  0.00    -0.014 A 
BRANCH  36  37
ATOM     37  C   UNL A   1      37.804  29.760  29.754  1.00  0.00     0.031 A 
ATOM     38  C   UNL A   1      38.058  30.317  31.127  1.00  0.00     0.074 A 
ATOM     39  C   UNL A   1      38.706  28.938  29.182  1.00  0.00     0.049 A 
ATOM     40  N   UNL A   1      39.085  30.127  31.914  1.00  0.00    -0.248 NA
ATOM     41  C   UNL A   1      37.037  31.220  31.684  1.00  0.00     0.031 C 
ATOM     42  C   UNL A   1      38.609  28.393  27.825  1.00  0.00     0.029 A 
ATOM     43  N   UNL A   1      39.900  28.447  29.652  1.00  0.00    -0.354 N 
ATOM     44  C   UNL A   1      38.858  30.915  33.035  1.00  0.00     0.074 A 
ATOM     45  C   UNL A   1      37.598  31.595  32.827  1.00  0.00     0.031 C 
ATOM     46  C   UNL A   1      39.702  27.657  27.568  1.00  0.00     0.029 A 
ATOM     47  C   UNL A   1      40.589  27.696  28.728  1.00  0.00     0.049 A 
ATOM     48  H   UNL A   1      40.231  28.618  30.563  1.00  0.00     0.167 HD
ATOM     49  C   UNL A   1      39.621  31.041  34.147  1.00  0.00     0.034 A 
ATOM     50  C   UNL A   1      41.801  27.112  28.799  1.00  0.00     0.034 A 
ATOM     51  C   UNL A   1      40.840  30.316  34.379  1.00  0.00     0.049 A 
ATOM     52  C   UNL A   1      42.588  27.209  30.077  1.00  0.00     0.074 A 
ATOM     53  C   UNL A   1      41.632  30.313  35.514  1.00  0.00     0.029 A 
ATOM     54  N   UNL A   1      41.442  29.463  33.468  1.00  0.00    -0.354 N 
ATOM     55  N   UNL A   1      42.279  27.836  31.186  1.00  0.00    -0.248 NA
ATOM     56  C   UNL A   1      43.870  26.489  30.132  1.00  0.00     0.031 C 
ATOM     57  C   UNL A   1      42.716  29.459  35.289  1.00  0.00     0.029 A 
ATOM     58  C   UNL A   1      42.594  28.925  34.016  1.00  0.00     0.049 A 
ATOM     59  H   UNL A   1      41.102  29.268  32.565  1.00  0.00     0.167 HD
ATOM     60  C   UNL A   1      43.310  27.562  32.078  1.00  0.00     0.074 A 
ATOM     61  C   UNL A   1      44.242  26.694  31.390  1.00  0.00     0.031 C 
ATOM     62  C   UNL A   1      43.477  28.007  33.347  1.00  0.00     0.034 A 
BRANCH  49  63
ATOM     63  C   UNL A   1      39.132  31.941  35.250  1.00  0.00     0.023 A 
ATOM     64  C   UNL A   1      39.172  33.337  35.062  1.00  0.00     0.012 A 
ATOM     65  C   UNL A   1      38.516  31.412  36.401  1.00  0.00     0.148 A 
ATOM     66  C   UNL A   1      38.614  34.195  36.007  1.00  0.00     0.002 A 
ATOM     67  C   UNL A   1      37.930  32.272  37.322  1.00  0.00     0.091 A 
ATOM     68  F   UNL A   1      38.501  30.081  36.562  1.00  0.00    -0.205 F 
ATOM     69  C   UNL A   1      37.982  33.663  37.129  1.00  0.00     0.022 A 
BRANCH  67  70
ATOM     70  S   UNL A   1      37.028  31.692  38.763  1.00  0.00     0.127 S 
ATOM     71  O   UNL A   1      38.022  31.862  39.823  1.00  0.00    -0.237 OA
ATOM     72  O   UNL A   1      35.907  32.631  38.822  1.00  0.00    -0.237 OA
ATOM     73  O   UNL A   1      36.657  30.312  38.480  1.00  0.00    -0.744 OA
ENDBRANCH  67  70
ENDBRANCH  49  63
BRANCH  50  74
ATOM     74  C   UNL A   1      42.305  26.318  27.643  1.00  0.00     0.023 A 
ATOM     75  C   UNL A   1      43.212  26.908  26.744  1.00  0.00     0.012 A 
ATOM     76  C   UNL A   1      41.937  24.970  27.462  1.00  0.00     0.148 A 
ATOM     77  C   UNL A   1      43.728  26.179  25.672  1.00  0.00     0.002 A 
ATOM     78  C   UNL A   1      42.498  24.234  26.424  1.00  0.00     0.091 A 
ATOM     79  F   UNL A   1      41.055  24.427  28.313  1.00  0.00    -0.205 F 
ATOM     80  C   UNL A   1      43.383  24.839  25.519  1.00  0.00     0.022 A 
BRANCH  78  81
ATOM     81  S   UNL A   1      42.211  22.467  26.263  1.00  0.00     0.127 S 
ATOM     82  O   UNL A   1      40.754  22.402  26.204  1.00  0.00    -0.237 OA
ATOM     83  O   UNL A   1      42.892  22.152  25.006  1.00  0.00    -0.237 OA
ATOM     84  O   UNL A   1      42.837  21.876  27.439  1.00  0.00    -0.744 OA
ENDBRANCH  78  81
ENDBRANCH  50  74
BRANCH  62  85
ATOM     85  C   UNL A   1      44.696  27.553  34.102  1.00  0.00     0.023 A 
ATOM     86  C   UNL A   1      45.863  28.343  34.070  1.00  0.00     0.012 A 
ATOM     87  C   UNL A   1      44.650  26.417  34.934  1.00  0.00     0.148 A 
ATOM     88  C   UNL A   1      46.971  27.999  34.844  1.00  0.00     0.002 A 
ATOM     89  C   UNL A   1      45.743  26.104  35.733  1.00  0.00     0.091 A 
ATOM     90  F   UNL A   1      43.537  25.668  34.933  1.00  0.00    -0.205 F 
ATOM     91  C   UNL A   1      46.906  26.890  35.684  1.00  0.00     0.022 A 
BRANCH  89  92
ATOM     92  S   UNL A   1      45.704  24.750  36.913  1.00  0.00     0.127 S 
ATOM     93  O   UNL A   1      47.037  24.835  37.509  1.00  0.00    -0.237 OA
ATOM     94  O   UNL A   1      44.612  25.139  37.806  1.00  0.00    -0.237 OA
ATOM     95  O   UNL A   1      45.440  23.551  36.130  1.00  0.00    -0.744 OA
ENDBRANCH  89  92
ENDBRANCH  62  85
ENDBRANCH  36  37
ENDBRANCH  28  31
ENDBRANCH  26  27
ENDBRANCH  25  26
ENDBRANCH   1  25
TORSDOF 18
ENDMDL
