MODEL 1
REMARK VINA RESULT:     -12.9      0.000      0.000
REMARK SMILES Cc1cccc(NC(=O)C[C@@H]2CCCCO2)c1C(=O)NCCCNC(=O)c1ccc(-c2c3nc(c(-c4cccc(S(=O)(=O)[O-])c4F)c4ccc([nH]4)c(-c4cccc(S(=O)(=O)[O-])c4F)c4nc(c(-c5cccc(S(=O)(=O)[O-])c5F)c5ccc2[nH]5)C=C4)C=C3)cc1
REMARK SMILES IDX 22 1 21 2 20 3 18 4 19 5 17 7 1 8 2 9 3 10 4 11 6 12 5 13
REMARK SMILES IDX 7 14 8 15 9 17 10 18 11 19 12 20 16 21 13 22 15 23 14 24
REMARK SMILES IDX 23 25 24 26 25 27 26 29 27 30 28 31 89 32 29 33 88 34 30 35
REMARK SMILES IDX 31 36 32 37 82 38 33 39 87 40 81 41 83 42 34 43 86 44 80 45
REMARK SMILES IDX 79 46 35 48 67 49 47 50 66 51 48 52 51 53 65 54 84 55 49 56
REMARK SMILES IDX 50 57 64 59 85 60 52 61 36 62 37 63 45 64 38 65 40 66 46 67
REMARK SMILES IDX 39 68 41 69 42 70 43 71 44 72 68 73 69 74 77 75 70 76 72 77
REMARK SMILES IDX 78 78 71 79 73 80 74 81 75 82 76 83 53 84 54 85 62 86 55 87
REMARK SMILES IDX 57 88 63 89 56 90 58 91 59 92 60 93 61 94
REMARK H PARENT 20 6 7 16 24 28 83 47 51 58
REMARK Flexibility Score: inf
ROOT
ATOM      1  C   UNL A   1      32.811  31.160  26.913  1.00  0.00     0.042 C 
ENDROOT
BRANCH   1   2
ATOM      2  C   UNL A   1      32.101  30.438  25.768  1.00  0.00     0.118 C 
BRANCH   2   3
ATOM      3  N   UNL A   1      33.034  29.771  24.875  1.00  0.00    -0.352 N 
ATOM      4  C   UNL A   1      33.021  28.519  24.302  1.00  0.00     0.253 C 
ATOM      5  O   UNL A   1      33.915  28.249  23.500  1.00  0.00    -0.269 OA
ATOM      6  H   UNL A   1      33.818  30.315  24.638  1.00  0.00     0.163 HD
BRANCH   4   7
ATOM      7  C   UNL A   1      31.900  27.547  24.510  1.00  0.00     0.066 A 
ATOM      8  C   UNL A   1      32.464  26.956  26.933  1.00  0.00     0.045 C 
ATOM      9  C   UNL A   1      31.517  27.041  25.769  1.00  0.00    -0.036 A 
ATOM     10  C   UNL A   1      30.296  26.358  25.908  1.00  0.00     0.004 A 
ATOM     11  C   UNL A   1      29.525  26.060  24.792  1.00  0.00     0.002 A 
ATOM     12  C   UNL A   1      31.275  26.971  23.379  1.00  0.00     0.054 A 
ATOM     13  C   UNL A   1      30.038  26.329  23.526  1.00  0.00     0.027 A 
BRANCH  12  14
ATOM     14  N   UNL A   1      31.979  26.904  22.152  1.00  0.00    -0.325 N 
ATOM     15  C   UNL A   1      32.688  25.857  21.603  1.00  0.00     0.227 C 
ATOM     16  H   UNL A   1      31.958  27.726  21.610  1.00  0.00     0.169 HD
ATOM     17  O   UNL A   1      33.277  26.029  20.531  1.00  0.00    -0.275 OA
BRANCH  15  18
ATOM     18  C   UNL A   1      32.784  24.506  22.293  1.00  0.00     0.132 C 
BRANCH  18  19
ATOM     19  C   UNL A   1      33.952  24.349  23.287  1.00  0.00     0.127 C 
ATOM     20  C   UNL A   1      34.593  22.954  23.168  1.00  0.00     0.033 C 
ATOM     21  O   UNL A   1      33.640  24.579  24.662  1.00  0.00    -0.378 OA
ATOM     22  C   UNL A   1      33.682  21.859  23.725  1.00  0.00     0.005 C 
ATOM     23  C   UNL A   1      32.773  23.633  25.268  1.00  0.00     0.160 C 
ATOM     24  C   UNL A   1      33.245  22.195  25.144  1.00  0.00     0.029 C 
ENDBRANCH  18  19
ENDBRANCH  15  18
ENDBRANCH  12  14
ENDBRANCH   4   7
ENDBRANCH   2   3
ENDBRANCH   1   2
BRANCH   1  25
ATOM     25  C   UNL A   1      34.032  30.452  27.475  1.00  0.00     0.118 C 
BRANCH  25  26
ATOM     26  N   UNL A   1      34.944  31.431  28.081  1.00  0.00    -0.352 N 
ATOM     27  C   UNL A   1      36.252  31.269  28.508  1.00  0.00     0.251 C 
ATOM     28  H   UNL A   1      34.573  32.335  28.201  1.00  0.00     0.163 HD
ATOM     29  O   UNL A   1      36.892  32.198  28.964  1.00  0.00    -0.269 OA
BRANCH  27  30
ATOM     30  C   UNL A   1      36.837  29.932  28.315  1.00  0.00     0.039 A 
ATOM     31  C   UNL A   1      37.038  29.167  29.466  1.00  0.00     0.014 A 
ATOM     32  C   UNL A   1      37.554  29.709  27.141  1.00  0.00     0.014 A 
ATOM     33  C   UNL A   1      38.154  28.347  29.530  1.00  0.00     0.010 A 
ATOM     34  C   UNL A   1      38.698  28.942  27.230  1.00  0.00     0.010 A 
ATOM     35  C   UNL A   1      39.036  28.340  28.450  1.00  0.00    -0.014 A 
BRANCH  35  36
ATOM     36  C   UNL A   1      40.348  27.719  28.510  1.00  0.00     0.031 A 
ATOM     37  C   UNL A   1      40.438  26.259  28.375  1.00  0.00     0.074 A 
ATOM     38  C   UNL A   1      41.470  28.449  28.691  1.00  0.00     0.049 A 
ATOM     39  N   UNL A   1      41.419  25.550  28.812  1.00  0.00    -0.248 NA
ATOM     40  C   UNL A   1      39.356  25.482  27.792  1.00  0.00     0.031 C 
ATOM     41  C   UNL A   1      42.846  28.008  28.500  1.00  0.00     0.029 A 
ATOM     42  N   UNL A   1      41.589  29.679  29.342  1.00  0.00    -0.354 N 
ATOM     43  C   UNL A   1      41.241  24.273  28.328  1.00  0.00     0.074 A 
ATOM     44  C   UNL A   1      39.898  24.264  27.801  1.00  0.00     0.031 C 
ATOM     45  C   UNL A   1      43.652  28.773  29.251  1.00  0.00     0.029 A 
ATOM     46  C   UNL A   1      42.803  29.629  30.059  1.00  0.00     0.049 A 
ATOM     47  H   UNL A   1      40.953  30.429  29.308  1.00  0.00     0.167 HD
ATOM     48  C   UNL A   1      42.314  23.434  28.292  1.00  0.00     0.034 A 
ATOM     49  C   UNL A   1      42.905  29.820  31.407  1.00  0.00     0.034 A 
ATOM     50  C   UNL A   1      43.476  24.021  28.985  1.00  0.00     0.049 A 
ATOM     51  C   UNL A   1      43.564  28.658  32.140  1.00  0.00     0.074 A 
ATOM     52  C   UNL A   1      44.632  24.661  28.565  1.00  0.00     0.029 A 
ATOM     53  N   UNL A   1      43.406  24.232  30.355  1.00  0.00    -0.354 N 
ATOM     54  N   UNL A   1      44.036  27.580  31.576  1.00  0.00    -0.248 NA
ATOM     55  C   UNL A   1      43.602  28.581  33.599  1.00  0.00     0.031 C 
ATOM     56  C   UNL A   1      45.248  25.269  29.699  1.00  0.00     0.029 A 
ATOM     57  C   UNL A   1      44.480  24.983  30.812  1.00  0.00     0.049 A 
ATOM     58  H   UNL A   1      42.684  23.891  30.931  1.00  0.00     0.167 HD
ATOM     59  C   UNL A   1      44.253  26.618  32.539  1.00  0.00     0.074 A 
ATOM     60  C   UNL A   1      43.978  27.307  33.789  1.00  0.00     0.031 C 
ATOM     61  C   UNL A   1      44.552  25.314  32.234  1.00  0.00     0.034 A 
BRANCH  48  62
ATOM     62  C   UNL A   1      42.416  22.230  27.363  1.00  0.00     0.023 A 
ATOM     63  C   UNL A   1      41.563  21.135  27.628  1.00  0.00     0.012 A 
ATOM     64  C   UNL A   1      43.342  22.039  26.312  1.00  0.00     0.148 A 
ATOM     65  C   UNL A   1      41.704  19.898  26.986  1.00  0.00     0.002 A 
ATOM     66  C   UNL A   1      43.541  20.786  25.726  1.00  0.00     0.091 A 
ATOM     67  F   UNL A   1      43.978  23.085  25.782  1.00  0.00    -0.205 F 
ATOM     68  C   UNL A   1      42.723  19.708  26.065  1.00  0.00     0.022 A 
BRANCH  66  69
ATOM     69  S   UNL A   1      44.898  20.459  24.583  1.00  0.00     0.127 S 
ATOM     70  O   UNL A   1      46.066  20.858  25.372  1.00  0.00    -0.237 OA
ATOM     71  O   UNL A   1      44.780  19.020  24.358  1.00  0.00    -0.237 OA
ATOM     72  O   UNL A   1      44.657  21.299  23.416  1.00  0.00    -0.744 OA
ENDBRANCH  66  69
ENDBRANCH  48  62
BRANCH  49  73
ATOM     73  C   UNL A   1      41.797  30.653  31.967  1.00  0.00     0.023 A 
ATOM     74  C   UNL A   1      41.670  31.977  31.483  1.00  0.00     0.012 A 
ATOM     75  C   UNL A   1      40.695  30.058  32.602  1.00  0.00     0.148 A 
ATOM     76  C   UNL A   1      40.428  32.613  31.468  1.00  0.00     0.002 A 
ATOM     77  C   UNL A   1      39.467  30.708  32.601  1.00  0.00     0.091 A 
ATOM     78  F   UNL A   1      40.826  28.834  33.129  1.00  0.00    -0.205 F 
ATOM     79  C   UNL A   1      39.316  31.959  31.987  1.00  0.00     0.022 A 
BRANCH  77  80
ATOM     80  S   UNL A   1      38.023  29.890  33.284  1.00  0.00     0.127 S 
ATOM     81  O   UNL A   1      36.940  30.615  32.629  1.00  0.00    -0.237 OA
ATOM     82  O   UNL A   1      38.199  28.508  32.840  1.00  0.00    -0.237 OA
ATOM     83  O   UNL A   1      38.160  30.074  34.722  1.00  0.00    -0.744 OA
ENDBRANCH  77  80
ENDBRANCH  49  73
BRANCH  61  84
ATOM     84  C   UNL A   1      44.859  24.211  33.251  1.00  0.00     0.023 A 
ATOM     85  C   UNL A   1      43.863  23.347  33.747  1.00  0.00     0.012 A 
ATOM     86  C   UNL A   1      46.153  24.046  33.821  1.00  0.00     0.148 A 
ATOM     87  C   UNL A   1      44.149  22.285  34.614  1.00  0.00     0.002 A 
ATOM     88  C   UNL A   1      46.433  23.011  34.713  1.00  0.00     0.091 A 
ATOM     89  F   UNL A   1      47.120  24.928  33.548  1.00  0.00    -0.205 F 
ATOM     90  C   UNL A   1      45.440  22.103  35.081  1.00  0.00     0.022 A 
BRANCH  88  91
ATOM     91  S   UNL A   1      48.051  22.795  35.471  1.00  0.00     0.127 S 
ATOM     92  O   UNL A   1      48.166  24.019  36.265  1.00  0.00    -0.237 OA
ATOM     93  O   UNL A   1      47.858  21.576  36.256  1.00  0.00    -0.237 OA
ATOM     94  O   UNL A   1      49.002  22.669  34.376  1.00  0.00    -0.744 OA
ENDBRANCH  88  91
ENDBRANCH  61  84
ENDBRANCH  35  36
ENDBRANCH  27  30
ENDBRANCH  25  26
ENDBRANCH   1  25
TORSDOF 16
ENDMDL
MODEL 2
REMARK VINA RESULT:     -12.7      4.274     10.331
REMARK SMILES Cc1cccc(NC(=O)C[C@@H]2CCCCO2)c1C(=O)NCCCNC(=O)c1ccc(-c2c3nc(c(-c4cccc(S(=O)(=O)[O-])c4F)c4ccc([nH]4)c(-c4cccc(S(=O)(=O)[O-])c4F)c4nc(c(-c5cccc(S(=O)(=O)[O-])c5F)c5ccc2[nH]5)C=C4)C=C3)cc1
REMARK SMILES IDX 22 1 21 2 20 3 18 4 19 5 17 7 1 8 2 9 3 10 4 11 6 12 5 13
REMARK SMILES IDX 7 14 8 15 9 17 10 18 11 19 12 20 16 21 13 22 15 23 14 24
REMARK SMILES IDX 23 25 24 26 25 27 26 29 27 30 28 31 89 32 29 33 88 34 30 35
REMARK SMILES IDX 31 36 32 37 82 38 33 39 87 40 81 41 83 42 34 43 86 44 80 45
REMARK SMILES IDX 79 46 35 48 67 49 47 50 66 51 48 52 51 53 65 54 84 55 49 56
REMARK SMILES IDX 50 57 64 59 85 60 52 61 36 62 37 63 45 64 38 65 40 66 46 67
REMARK SMILES IDX 39 68 41 69 42 70 43 71 44 72 68 73 69 74 77 75 70 76 72 77
REMARK SMILES IDX 78 78 71 79 73 80 74 81 75 82 76 83 53 84 54 85 62 86 55 87
REMARK SMILES IDX 57 88 63 89 56 90 58 91 59 92 60 93 61 94
REMARK H PARENT 20 6 7 16 24 28 83 47 51 58
REMARK Flexibility Score: inf
ROOT
ATOM      1  C   UNL A   1      38.251  21.140  25.625  1.00  0.00     0.042 C 
ENDROOT
BRANCH   1   2
ATOM      2  C   UNL A   1      36.762  20.897  25.381  1.00  0.00     0.118 C 
BRANCH   2   3
ATOM      3  N   UNL A   1      35.929  21.525  26.392  1.00  0.00    -0.352 N 
ATOM      4  C   UNL A   1      34.754  22.237  26.302  1.00  0.00     0.253 C 
ATOM      5  O   UNL A   1      34.212  22.582  27.351  1.00  0.00    -0.269 OA
ATOM      6  H   UNL A   1      36.268  21.423  27.310  1.00  0.00     0.163 HD
BRANCH   4   7
ATOM      7  C   UNL A   1      34.055  22.480  24.999  1.00  0.00     0.066 A 
ATOM      8  C   UNL A   1      35.773  24.111  24.038  1.00  0.00     0.045 C 
ATOM      9  C   UNL A   1      34.644  23.130  23.895  1.00  0.00    -0.036 A 
ATOM     10  C   UNL A   1      34.025  23.071  22.634  1.00  0.00     0.004 A 
ATOM     11  C   UNL A   1      32.770  22.493  22.493  1.00  0.00     0.002 A 
ATOM     12  C   UNL A   1      32.674  22.187  24.898  1.00  0.00     0.054 A 
ATOM     13  C   UNL A   1      32.079  22.092  23.632  1.00  0.00     0.027 A 
BRANCH  12  14
ATOM     14  N   UNL A   1      31.880  22.160  26.070  1.00  0.00    -0.325 N 
ATOM     15  C   UNL A   1      31.034  23.120  26.580  1.00  0.00     0.227 C 
ATOM     16  H   UNL A   1      31.941  21.331  26.599  1.00  0.00     0.169 HD
ATOM     17  O   UNL A   1      30.468  22.910  27.658  1.00  0.00    -0.275 OA
BRANCH  15  18
ATOM     18  C   UNL A   1      30.797  24.440  25.865  1.00  0.00     0.132 C 
BRANCH  18  19
ATOM     19  C   UNL A   1      31.762  25.582  26.240  1.00  0.00     0.127 C 
ATOM     20  C   UNL A   1      31.025  26.933  26.288  1.00  0.00     0.033 C 
ATOM     21  O   UNL A   1      32.911  25.733  25.403  1.00  0.00    -0.378 OA
ATOM     22  C   UNL A   1      30.639  27.422  24.891  1.00  0.00     0.005 C 
ATOM     23  C   UNL A   1      32.658  26.154  24.073  1.00  0.00     0.160 C 
ATOM     24  C   UNL A   1      31.853  27.439  23.974  1.00  0.00     0.029 C 
ENDBRANCH  18  19
ENDBRANCH  15  18
ENDBRANCH  12  14
ENDBRANCH   4   7
ENDBRANCH   2   3
ENDBRANCH   1   2
BRANCH   1  25
ATOM     25  C   UNL A   1      38.635  22.574  25.949  1.00  0.00     0.118 C 
BRANCH  25  26
ATOM     26  N   UNL A   1      39.959  22.607  26.585  1.00  0.00    -0.352 N 
ATOM     27  C   UNL A   1      40.591  23.644  27.251  1.00  0.00     0.251 C 
ATOM     28  H   UNL A   1      40.473  21.769  26.531  1.00  0.00     0.163 HD
ATOM     29  O   UNL A   1      41.688  23.501  27.757  1.00  0.00    -0.269 OA
BRANCH  27  30
ATOM     30  C   UNL A   1      39.830  24.900  27.366  1.00  0.00     0.039 A 
ATOM     31  C   UNL A   1      40.311  25.989  26.635  1.00  0.00     0.014 A 
ATOM     32  C   UNL A   1      39.021  25.058  28.489  1.00  0.00     0.014 A 
ATOM     33  C   UNL A   1      40.202  27.256  27.187  1.00  0.00     0.010 A 
ATOM     34  C   UNL A   1      38.970  26.311  29.066  1.00  0.00     0.010 A 
ATOM     35  C   UNL A   1      39.637  27.383  28.455  1.00  0.00    -0.014 A 
BRANCH  35  36
ATOM     36  C   UNL A   1      39.699  28.614  29.225  1.00  0.00     0.031 A 
ATOM     37  C   UNL A   1      38.756  29.690  28.899  1.00  0.00     0.074 A 
ATOM     38  C   UNL A   1      40.600  28.785  30.216  1.00  0.00     0.049 A 
ATOM     39  N   UNL A   1      38.950  30.932  29.177  1.00  0.00    -0.248 NA
ATOM     40  C   UNL A   1      37.538  29.432  28.148  1.00  0.00     0.031 C 
ATOM     41  C   UNL A   1      40.601  29.829  31.233  1.00  0.00     0.029 A 
ATOM     42  N   UNL A   1      41.855  28.183  30.339  1.00  0.00    -0.354 N 
ATOM     43  C   UNL A   1      37.775  31.596  28.900  1.00  0.00     0.074 A 
ATOM     44  C   UNL A   1      36.979  30.642  28.165  1.00  0.00     0.031 C 
ATOM     45  C   UNL A   1      41.856  29.999  31.675  1.00  0.00     0.029 A 
ATOM     46  C   UNL A   1      42.719  29.173  30.850  1.00  0.00     0.049 A 
ATOM     47  H   UNL A   1      42.089  27.253  30.114  1.00  0.00     0.167 HD
ATOM     48  C   UNL A   1      37.564  32.815  29.470  1.00  0.00     0.034 A 
ATOM     49  C   UNL A   1      43.870  29.577  30.237  1.00  0.00     0.034 A 
ATOM     50  C   UNL A   1      38.775  33.299  30.160  1.00  0.00     0.049 A 
ATOM     51  C   UNL A   1      43.920  31.074  29.957  1.00  0.00     0.074 A 
ATOM     52  C   UNL A   1      39.183  33.339  31.485  1.00  0.00     0.029 A 
ATOM     53  N   UNL A   1      39.903  33.597  29.409  1.00  0.00    -0.354 N 
ATOM     54  N   UNL A   1      42.995  31.934  30.286  1.00  0.00    -0.248 NA
ATOM     55  C   UNL A   1      44.975  31.678  29.146  1.00  0.00     0.031 C 
ATOM     56  C   UNL A   1      40.574  33.653  31.517  1.00  0.00     0.029 A 
ATOM     57  C   UNL A   1      41.009  33.825  30.216  1.00  0.00     0.049 A 
ATOM     58  H   UNL A   1      39.918  33.641  28.426  1.00  0.00     0.167 HD
ATOM     59  C   UNL A   1      43.206  33.113  29.605  1.00  0.00     0.074 A 
ATOM     60  C   UNL A   1      44.469  32.899  28.918  1.00  0.00     0.031 C 
ATOM     61  C   UNL A   1      42.290  34.135  29.584  1.00  0.00     0.034 A 
BRANCH  48  62
ATOM     62  C   UNL A   1      36.184  33.425  29.680  1.00  0.00     0.023 A 
ATOM     63  C   UNL A   1      35.472  33.825  28.527  1.00  0.00     0.012 A 
ATOM     64  C   UNL A   1      35.563  33.729  30.913  1.00  0.00     0.148 A 
ATOM     65  C   UNL A   1      34.296  34.583  28.593  1.00  0.00     0.002 A 
ATOM     66  C   UNL A   1      34.436  34.553  30.986  1.00  0.00     0.091 A 
ATOM     67  F   UNL A   1      35.984  33.144  32.036  1.00  0.00    -0.205 F 
ATOM     68  C   UNL A   1      33.801  34.987  29.823  1.00  0.00     0.022 A 
BRANCH  66  69
ATOM     69  S   UNL A   1      33.795  35.174  32.554  1.00  0.00     0.127 S 
ATOM     70  O   UNL A   1      34.982  35.793  33.147  1.00  0.00    -0.237 OA
ATOM     71  O   UNL A   1      32.769  36.120  32.120  1.00  0.00    -0.237 OA
ATOM     72  O   UNL A   1      33.307  34.009  33.283  1.00  0.00    -0.744 OA
ENDBRANCH  66  69
ENDBRANCH  48  62
BRANCH  49  73
ATOM     73  C   UNL A   1      44.457  28.531  29.345  1.00  0.00     0.023 A 
ATOM     74  C   UNL A   1      44.843  27.307  29.944  1.00  0.00     0.012 A 
ATOM     75  C   UNL A   1      44.256  28.568  27.957  1.00  0.00     0.148 A 
ATOM     76  C   UNL A   1      44.843  26.123  29.206  1.00  0.00     0.002 A 
ATOM     77  C   UNL A   1      44.279  27.387  27.225  1.00  0.00     0.091 A 
ATOM     78  F   UNL A   1      43.963  29.735  27.369  1.00  0.00    -0.205 F 
ATOM     79  C   UNL A   1      44.516  26.157  27.855  1.00  0.00     0.022 A 
BRANCH  77  80
ATOM     80  S   UNL A   1      43.880  27.410  25.476  1.00  0.00     0.127 S 
ATOM     81  O   UNL A   1      45.127  27.900  24.899  1.00  0.00    -0.237 OA
ATOM     82  O   UNL A   1      43.581  26.007  25.198  1.00  0.00    -0.237 OA
ATOM     83  O   UNL A   1      42.726  28.294  25.389  1.00  0.00    -0.744 OA
ENDBRANCH  77  80
ENDBRANCH  49  73
BRANCH  61  84
ATOM     84  C   UNL A   1      42.483  35.489  28.895  1.00  0.00     0.023 A 
ATOM     85  C   UNL A   1      42.005  35.746  27.595  1.00  0.00     0.012 A 
ATOM     86  C   UNL A   1      43.230  36.543  29.494  1.00  0.00     0.148 A 
ATOM     87  C   UNL A   1      42.106  37.006  26.990  1.00  0.00     0.002 A 
ATOM     88  C   UNL A   1      43.363  37.787  28.878  1.00  0.00     0.091 A 
ATOM     89  F   UNL A   1      43.873  36.333  30.647  1.00  0.00    -0.205 F 
ATOM     90  C   UNL A   1      42.767  38.034  27.641  1.00  0.00     0.022 A 
BRANCH  88  91
ATOM     91  S   UNL A   1      44.326  39.127  29.597  1.00  0.00     0.127 S 
ATOM     92  O   UNL A   1      43.636  39.330  30.871  1.00  0.00    -0.237 OA
ATOM     93  O   UNL A   1      45.651  38.520  29.713  1.00  0.00    -0.237 OA
ATOM     94  O   UNL A   1      44.244  40.237  28.658  1.00  0.00    -0.744 OA
ENDBRANCH  88  91
ENDBRANCH  61  84
ENDBRANCH  35  36
ENDBRANCH  27  30
ENDBRANCH  25  26
ENDBRANCH   1  25
TORSDOF 16
ENDMDL
MODEL 3
REMARK VINA RESULT:     -12.4      1.954      2.695
REMARK SMILES Cc1cccc(NC(=O)C[C@@H]2CCCCO2)c1C(=O)NCCCNC(=O)c1ccc(-c2c3nc(c(-c4cccc(S(=O)(=O)[O-])c4F)c4ccc([nH]4)c(-c4cccc(S(=O)(=O)[O-])c4F)c4nc(c(-c5cccc(S(=O)(=O)[O-])c5F)c5ccc2[nH]5)C=C4)C=C3)cc1
REMARK SMILES IDX 22 1 21 2 20 3 18 4 19 5 17 7 1 8 2 9 3 10 4 11 6 12 5 13
REMARK SMILES IDX 7 14 8 15 9 17 10 18 11 19 12 20 16 21 13 22 15 23 14 24
REMARK SMILES IDX 23 25 24 26 25 27 26 29 27 30 28 31 89 32 29 33 88 34 30 35
REMARK SMILES IDX 31 36 32 37 82 38 33 39 87 40 81 41 83 42 34 43 86 44 80 45
REMARK SMILES IDX 79 46 35 48 67 49 47 50 66 51 48 52 51 53 65 54 84 55 49 56
REMARK SMILES IDX 50 57 64 59 85 60 52 61 36 62 37 63 45 64 38 65 40 66 46 67
REMARK SMILES IDX 39 68 41 69 42 70 43 71 44 72 68 73 69 74 77 75 70 76 72 77
REMARK SMILES IDX 78 78 71 79 73 80 74 81 75 82 76 83 53 84 54 85 62 86 55 87
REMARK SMILES IDX 57 88 63 89 56 90 58 91 59 92 60 93 61 94
REMARK H PARENT 20 6 7 16 24 28 83 47 51 58
REMARK Flexibility Score: inf
ROOT
ATOM      1  C   UNL A   1      32.872  30.618  26.234  1.00  0.00     0.042 C 
ENDROOT
BRANCH   1   2
ATOM      2  C   UNL A   1      31.840  29.690  25.592  1.00  0.00     0.118 C 
BRANCH   2   3
ATOM      3  N   UNL A   1      31.626  28.483  26.373  1.00  0.00    -0.352 N 
ATOM      4  C   UNL A   1      31.619  27.152  26.022  1.00  0.00     0.253 C 
ATOM      5  O   UNL A   1      31.497  26.324  26.924  1.00  0.00    -0.269 OA
ATOM      6  H   UNL A   1      31.454  28.649  27.327  1.00  0.00     0.163 HD
BRANCH   4   7
ATOM      7  C   UNL A   1      31.889  26.683  24.625  1.00  0.00     0.066 A 
ATOM      8  C   UNL A   1      29.465  26.741  23.815  1.00  0.00     0.045 C 
ATOM      9  C   UNL A   1      30.948  26.739  23.577  1.00  0.00    -0.036 A 
ATOM     10  C   UNL A   1      31.366  26.540  22.248  1.00  0.00     0.004 A 
ATOM     11  C   UNL A   1      32.671  26.155  21.971  1.00  0.00     0.002 A 
ATOM     12  C   UNL A   1      33.098  25.999  24.354  1.00  0.00     0.054 A 
ATOM     13  C   UNL A   1      33.522  25.844  23.027  1.00  0.00     0.027 A 
BRANCH  12  14
ATOM     14  N   UNL A   1      33.777  25.339  25.408  1.00  0.00    -0.325 N 
ATOM     15  C   UNL A   1      33.684  24.030  25.827  1.00  0.00     0.227 C 
ATOM     16  H   UNL A   1      34.409  25.899  25.916  1.00  0.00     0.169 HD
ATOM     17  O   UNL A   1      34.335  23.669  26.813  1.00  0.00    -0.275 OA
BRANCH  15  18
ATOM     18  C   UNL A   1      32.784  23.026  25.126  1.00  0.00     0.132 C 
BRANCH  18  19
ATOM     19  C   UNL A   1      33.412  22.299  23.920  1.00  0.00     0.127 C 
ATOM     20  C   UNL A   1      32.472  21.201  23.389  1.00  0.00     0.033 C 
ATOM     21  O   UNL A   1      34.698  21.716  24.139  1.00  0.00    -0.378 OA
ATOM     22  C   UNL A   1      32.389  20.010  24.344  1.00  0.00     0.005 C 
ATOM     23  C   UNL A   1      34.735  20.618  25.038  1.00  0.00     0.160 C 
ATOM     24  C   UNL A   1      33.781  19.492  24.678  1.00  0.00     0.029 C 
ENDBRANCH  18  19
ENDBRANCH  15  18
ENDBRANCH  12  14
ENDBRANCH   4   7
ENDBRANCH   2   3
ENDBRANCH   1   2
BRANCH   1  25
ATOM     25  C   UNL A   1      33.355  30.205  27.613  1.00  0.00     0.118 C 
BRANCH  25  26
ATOM     26  N   UNL A   1      34.070  31.319  28.249  1.00  0.00    -0.352 N 
ATOM     27  C   UNL A   1      35.363  31.368  28.743  1.00  0.00     0.251 C 
ATOM     28  H   UNL A   1      33.556  32.155  28.337  1.00  0.00     0.163 HD
ATOM     29  O   UNL A   1      35.825  32.390  29.216  1.00  0.00    -0.269 OA
BRANCH  27  30
ATOM     30  C   UNL A   1      36.160  30.139  28.600  1.00  0.00     0.039 A 
ATOM     31  C   UNL A   1      36.430  29.431  29.773  1.00  0.00     0.014 A 
ATOM     32  C   UNL A   1      36.952  30.017  27.461  1.00  0.00     0.014 A 
ATOM     33  C   UNL A   1      37.658  28.799  29.898  1.00  0.00     0.010 A 
ATOM     34  C   UNL A   1      38.198  29.442  27.610  1.00  0.00     0.010 A 
ATOM     35  C   UNL A   1      38.574  28.917  28.855  1.00  0.00    -0.014 A 
BRANCH  35  36
ATOM     36  C   UNL A   1      39.965  28.513  28.978  1.00  0.00     0.031 A 
ATOM     37  C   UNL A   1      40.318  27.121  28.673  1.00  0.00     0.074 A 
ATOM     38  C   UNL A   1      40.922  29.380  29.371  1.00  0.00     0.049 A 
ATOM     39  N   UNL A   1      41.366  26.524  29.122  1.00  0.00    -0.248 NA
ATOM     40  C   UNL A   1      39.442  26.271  27.882  1.00  0.00     0.031 C 
ATOM     41  C   UNL A   1      42.366  29.197  29.277  1.00  0.00     0.029 A 
ATOM     42  N   UNL A   1      40.770  30.509  30.180  1.00  0.00    -0.354 N 
ATOM     43  C   UNL A   1      41.455  25.317  28.466  1.00  0.00     0.074 A 
ATOM     44  C   UNL A   1      40.185  25.166  27.797  1.00  0.00     0.031 C 
ATOM     45  C   UNL A   1      42.958  29.968  30.202  1.00  0.00     0.029 A 
ATOM     46  C   UNL A   1      41.907  30.553  31.013  1.00  0.00     0.049 A 
ATOM     47  H   UNL A   1      40.018  31.144  30.171  1.00  0.00     0.167 HD
ATOM     48  C   UNL A   1      42.657  24.674  28.441  1.00  0.00     0.034 A 
ATOM     49  C   UNL A   1      41.858  30.565  32.377  1.00  0.00     0.034 A 
ATOM     50  C   UNL A   1      43.635  25.336  29.325  1.00  0.00     0.049 A 
ATOM     51  C   UNL A   1      42.643  29.432  33.027  1.00  0.00     0.074 A 
ATOM     52  C   UNL A   1      44.694  26.206  29.117  1.00  0.00     0.029 A 
ATOM     53  N   UNL A   1      43.411  25.336  30.695  1.00  0.00    -0.354 N 
ATOM     54  N   UNL A   1      43.341  28.535  32.387  1.00  0.00    -0.248 NA
ATOM     55  C   UNL A   1      42.567  29.156  34.460  1.00  0.00     0.031 C 
ATOM     56  C   UNL A   1      45.094  26.738  30.378  1.00  0.00     0.029 A 
ATOM     57  C   UNL A   1      44.295  26.177  31.357  1.00  0.00     0.049 A 
ATOM     58  H   UNL A   1      42.712  24.806  31.142  1.00  0.00     0.167 HD
ATOM     59  C   UNL A   1      43.638  27.493  33.239  1.00  0.00     0.074 A 
ATOM     60  C   UNL A   1      43.141  27.945  34.528  1.00  0.00     0.031 C 
ATOM     61  C   UNL A   1      44.185  26.311  32.808  1.00  0.00     0.034 A 
BRANCH  48  62
ATOM     62  C   UNL A   1      43.046  23.646  27.386  1.00  0.00     0.023 A 
ATOM     63  C   UNL A   1      43.730  24.119  26.244  1.00  0.00     0.012 A 
ATOM     64  C   UNL A   1      42.716  22.272  27.370  1.00  0.00     0.148 A 
ATOM     65  C   UNL A   1      43.956  23.320  25.116  1.00  0.00     0.002 A 
ATOM     66  C   UNL A   1      42.865  21.492  26.220  1.00  0.00     0.091 A 
ATOM     67  F   UNL A   1      42.349  21.659  28.497  1.00  0.00    -0.205 F 
ATOM     68  C   UNL A   1      43.483  22.017  25.085  1.00  0.00     0.022 A 
BRANCH  66  69
ATOM     69  S   UNL A   1      42.201  19.820  26.094  1.00  0.00     0.127 S 
ATOM     70  O   UNL A   1      42.678  19.206  27.336  1.00  0.00    -0.237 OA
ATOM     71  O   UNL A   1      40.760  20.057  26.049  1.00  0.00    -0.237 OA
ATOM     72  O   UNL A   1      42.780  19.242  24.887  1.00  0.00    -0.744 OA
ENDBRANCH  66  69
ENDBRANCH  48  62
BRANCH  49  73
ATOM     73  C   UNL A   1      40.577  31.121  32.913  1.00  0.00     0.023 A 
ATOM     74  C   UNL A   1      39.510  30.214  33.118  1.00  0.00     0.012 A 
ATOM     75  C   UNL A   1      40.547  32.359  33.574  1.00  0.00     0.148 A 
ATOM     76  C   UNL A   1      38.543  30.462  34.094  1.00  0.00     0.002 A 
ATOM     77  C   UNL A   1      39.569  32.606  34.529  1.00  0.00     0.091 A 
ATOM     78  F   UNL A   1      41.513  33.254  33.331  1.00  0.00    -0.205 F 
ATOM     79  C   UNL A   1      38.600  31.640  34.832  1.00  0.00     0.022 A 
BRANCH  77  80
ATOM     80  S   UNL A   1      39.611  34.129  35.479  1.00  0.00     0.127 S 
ATOM     81  O   UNL A   1      38.382  34.021  36.257  1.00  0.00    -0.237 OA
ATOM     82  O   UNL A   1      40.845  33.989  36.250  1.00  0.00    -0.237 OA
ATOM     83  O   UNL A   1      39.657  35.175  34.467  1.00  0.00    -0.744 OA
ENDBRANCH  77  80
ENDBRANCH  49  73
BRANCH  61  84
ATOM     84  C   UNL A   1      44.590  25.138  33.706  1.00  0.00     0.023 A 
ATOM     85  C   UNL A   1      43.643  24.262  34.271  1.00  0.00     0.012 A 
ATOM     86  C   UNL A   1      45.941  24.913  34.093  1.00  0.00     0.148 A 
ATOM     87  C   UNL A   1      44.009  23.141  35.027  1.00  0.00     0.002 A 
ATOM     88  C   UNL A   1      46.305  23.817  34.875  1.00  0.00     0.091 A 
ATOM     89  F   UNL A   1      46.888  25.794  33.754  1.00  0.00    -0.205 F 
ATOM     90  C   UNL A   1      45.344  22.906  35.312  1.00  0.00     0.022 A 
BRANCH  88  91
ATOM     91  S   UNL A   1      48.000  23.523  35.404  1.00  0.00     0.127 S 
ATOM     92  O   UNL A   1      48.719  23.592  34.131  1.00  0.00    -0.237 OA
ATOM     93  O   UNL A   1      48.239  24.655  36.299  1.00  0.00    -0.237 OA
ATOM     94  O   UNL A   1      48.005  22.221  36.055  1.00  0.00    -0.744 OA
ENDBRANCH  88  91
ENDBRANCH  61  84
ENDBRANCH  35  36
ENDBRANCH  27  30
ENDBRANCH  25  26
ENDBRANCH   1  25
TORSDOF 16
ENDMDL
