MODEL 1
REMARK VINA RESULT:     -13.1      0.000      0.000
REMARK SMILES Cc1ccc(NC(=O)C[C@H]2SC[C@H](C(=O)NCCCNC(=O)c3ccc(-c4c5nc(c(-c6cccc(S(=O)(=O)[O-])c6F)c6ccc([nH]6)c(-c6cccc(S(=O)(=O)[O-])c6F)c6nc(c(-c7cccc(S(=O)(=O)[O-])c7F)c7ccc4[nH]7)C=C6)C=C5)cc3)NC2=O)cc1
REMARK SMILES IDX 18 1 17 2 16 3 14 4 15 5 13 7 10 8 11 9 87 10 12 11 86 12
REMARK SMILES IDX 88 13 9 15 7 16 6 17 8 19 5 20 1 21 2 22 3 23 90 24 4 25
REMARK SMILES IDX 89 26 19 27 20 28 21 29 22 31 23 32 24 33 85 34 25 35 84 36
REMARK SMILES IDX 26 37 27 38 28 39 78 40 29 41 83 42 77 43 79 44 30 45 82 46
REMARK SMILES IDX 76 47 75 48 31 50 63 51 43 52 62 53 44 54 47 55 61 56 80 57
REMARK SMILES IDX 45 58 46 59 60 61 81 62 48 63 32 64 33 65 41 66 34 67 36 68
REMARK SMILES IDX 42 69 35 70 37 71 38 72 39 73 40 74 64 75 65 76 73 77 66 78
REMARK SMILES IDX 68 79 74 80 67 81 69 82 70 83 71 84 72 85 49 86 50 87 58 88
REMARK SMILES IDX 51 89 53 90 59 91 52 92 54 93 55 94 56 95 57 96
REMARK H PARENT 16 6 86 14 6 18 20 30 79 49 47 60
REMARK Flexibility Score: inf
ROOT
ATOM      1  C   UNL A   1      32.983  31.044  27.244  1.00  0.00     0.042 C 
ENDROOT
BRANCH   1   2
ATOM      2  C   UNL A   1      31.980  30.102  26.587  1.00  0.00     0.117 C 
BRANCH   2   3
ATOM      3  N   UNL A   1      32.181  29.975  25.150  1.00  0.00    -0.354 N 
ATOM      4  C   UNL A   1      32.414  28.890  24.356  1.00  0.00     0.243 C 
ATOM      5  O   UNL A   1      32.635  29.093  23.159  1.00  0.00    -0.273 OA
ATOM      6  H   UNL A   1      32.140  30.829  24.661  1.00  0.00     0.163 HD
BRANCH   4   7
ATOM      7  C   UNL A   1      32.495  27.456  24.910  1.00  0.00     0.181 C 
ATOM      8  C   UNL A   1      31.595  24.613  24.404  1.00  0.00     0.145 C 
ATOM      9  S   UNL A   1      31.147  25.291  26.058  1.00  0.00    -0.145 SA
ATOM     10  C   UNL A   1      32.971  25.167  24.011  1.00  0.00     0.234 C 
ATOM     11  C   UNL A   1      31.182  27.046  25.575  1.00  0.00     0.105 C 
ATOM     12  N   UNL A   1      33.064  26.536  23.924  1.00  0.00    -0.343 N 
ATOM     13  O   UNL A   1      33.945  24.496  23.691  1.00  0.00    -0.274 OA
ATOM     14  H   UNL A   1      33.542  26.920  23.153  1.00  0.00     0.164 HD
BRANCH   8  15
ATOM     15  C   UNL A   1      31.355  23.102  24.368  1.00  0.00     0.124 C 
BRANCH  15  16
ATOM     16  C   UNL A   1      31.263  22.359  25.682  1.00  0.00     0.226 C 
ATOM     17  N   UNL A   1      32.347  22.011  26.423  1.00  0.00    -0.326 N 
ATOM     18  H   UNL A   1      32.112  21.641  27.304  1.00  0.00     0.169 HD
ATOM     19  O   UNL A   1      30.150  22.049  26.123  1.00  0.00    -0.275 OA
BRANCH  17  20
ATOM     20  C   UNL A   1      33.729  22.066  26.200  1.00  0.00     0.041 A 
ATOM     21  C   UNL A   1      37.964  21.942  25.373  1.00  0.00     0.044 C 
ATOM     22  C   UNL A   1      36.489  21.988  25.642  1.00  0.00    -0.051 A 
ATOM     23  C   UNL A   1      35.932  23.055  26.359  1.00  0.00     0.005 A 
ATOM     24  C   UNL A   1      35.650  20.965  25.196  1.00  0.00     0.005 A 
ATOM     25  C   UNL A   1      34.559  23.097  26.632  1.00  0.00     0.026 A 
ATOM     26  C   UNL A   1      34.280  21.015  25.457  1.00  0.00     0.026 A 
ENDBRANCH  17  20
ENDBRANCH  15  16
ENDBRANCH   8  15
ENDBRANCH   4   7
ENDBRANCH   2   3
ENDBRANCH   1   2
BRANCH   1  27
ATOM     27  C   UNL A   1      34.421  30.548  27.221  1.00  0.00     0.118 C 
BRANCH  27  28
ATOM     28  N   UNL A   1      35.383  31.549  27.651  1.00  0.00    -0.352 N 
ATOM     29  C   UNL A   1      36.636  31.372  28.208  1.00  0.00     0.251 C 
ATOM     30  H   UNL A   1      35.104  32.486  27.527  1.00  0.00     0.163 HD
ATOM     31  O   UNL A   1      37.223  32.344  28.677  1.00  0.00    -0.269 OA
BRANCH  29  32
ATOM     32  C   UNL A   1      37.298  30.050  28.098  1.00  0.00     0.039 A 
ATOM     33  C   UNL A   1      37.252  29.213  29.219  1.00  0.00     0.014 A 
ATOM     34  C   UNL A   1      38.167  29.768  27.049  1.00  0.00     0.014 A 
ATOM     35  C   UNL A   1      38.259  28.273  29.416  1.00  0.00     0.010 A 
ATOM     36  C   UNL A   1      39.218  28.910  27.279  1.00  0.00     0.010 A 
ATOM     37  C   UNL A   1      39.299  28.221  28.495  1.00  0.00    -0.014 A 
BRANCH  37  38
ATOM     38  C   UNL A   1      40.553  27.523  28.709  1.00  0.00     0.031 A 
ATOM     39  C   UNL A   1      40.625  26.066  28.513  1.00  0.00     0.074 A 
ATOM     40  C   UNL A   1      41.670  28.267  28.860  1.00  0.00     0.049 A 
ATOM     41  N   UNL A   1      41.589  25.323  28.932  1.00  0.00    -0.248 NA
ATOM     42  C   UNL A   1      39.573  25.329  27.825  1.00  0.00     0.031 C 
ATOM     43  C   UNL A   1      43.049  27.847  28.653  1.00  0.00     0.029 A 
ATOM     44  N   UNL A   1      41.780  29.538  29.436  1.00  0.00    -0.354 N 
ATOM     45  C   UNL A   1      41.434  24.084  28.347  1.00  0.00     0.074 A 
ATOM     46  C   UNL A   1      40.132  24.121  27.720  1.00  0.00     0.031 C 
ATOM     47  C   UNL A   1      43.859  28.685  29.321  1.00  0.00     0.029 A 
ATOM     48  C   UNL A   1      43.007  29.547  30.123  1.00  0.00     0.049 A 
ATOM     49  H   UNL A   1      41.130  30.276  29.374  1.00  0.00     0.167 HD
ATOM     50  C   UNL A   1      42.488  23.220  28.324  1.00  0.00     0.034 A 
ATOM     51  C   UNL A   1      43.114  29.727  31.472  1.00  0.00     0.034 A 
ATOM     52  C   UNL A   1      43.644  23.789  29.025  1.00  0.00     0.049 A 
ATOM     53  C   UNL A   1      43.784  28.559  32.173  1.00  0.00     0.074 A 
ATOM     54  C   UNL A   1      44.742  24.512  28.585  1.00  0.00     0.029 A 
ATOM     55  N   UNL A   1      43.609  23.932  30.407  1.00  0.00    -0.354 N 
ATOM     56  N   UNL A   1      44.054  27.419  31.597  1.00  0.00    -0.248 NA
ATOM     57  C   UNL A   1      44.177  28.570  33.579  1.00  0.00     0.031 C 
ATOM     58  C   UNL A   1      45.308  25.175  29.706  1.00  0.00     0.029 A 
ATOM     59  C   UNL A   1      44.577  24.832  30.830  1.00  0.00     0.049 A 
ATOM     60  H   UNL A   1      42.984  23.460  31.004  1.00  0.00     0.167 HD
ATOM     61  C   UNL A   1      44.514  26.523  32.527  1.00  0.00     0.074 A 
ATOM     62  C   UNL A   1      44.648  27.319  33.736  1.00  0.00     0.031 C 
ATOM     63  C   UNL A   1      44.682  25.195  32.239  1.00  0.00     0.034 A 
BRANCH  50  64
ATOM     64  C   UNL A   1      42.587  22.037  27.377  1.00  0.00     0.023 A 
ATOM     65  C   UNL A   1      41.733  20.937  27.621  1.00  0.00     0.012 A 
ATOM     66  C   UNL A   1      43.498  21.891  26.307  1.00  0.00     0.148 A 
ATOM     67  C   UNL A   1      41.850  19.727  26.930  1.00  0.00     0.002 A 
ATOM     68  C   UNL A   1      43.669  20.658  25.668  1.00  0.00     0.091 A 
ATOM     69  F   UNL A   1      44.148  22.963  25.842  1.00  0.00    -0.205 F 
ATOM     70  C   UNL A   1      42.847  19.571  25.981  1.00  0.00     0.022 A 
BRANCH  68  71
ATOM     71  S   UNL A   1      45.013  20.352  24.507  1.00  0.00     0.127 S 
ATOM     72  O   UNL A   1      44.598  21.129  23.336  1.00  0.00    -0.237 OA
ATOM     73  O   UNL A   1      46.171  20.892  25.215  1.00  0.00    -0.237 OA
ATOM     74  O   UNL A   1      45.021  18.910  24.282  1.00  0.00    -0.744 OA
ENDBRANCH  68  71
ENDBRANCH  50  64
BRANCH  51  75
ATOM     75  C   UNL A   1      42.036  30.586  32.047  1.00  0.00     0.023 A 
ATOM     76  C   UNL A   1      41.951  31.910  31.552  1.00  0.00     0.012 A 
ATOM     77  C   UNL A   1      40.918  30.033  32.695  1.00  0.00     0.148 A 
ATOM     78  C   UNL A   1      40.743  32.608  31.567  1.00  0.00     0.002 A 
ATOM     79  C   UNL A   1      39.715  30.738  32.709  1.00  0.00     0.091 A 
ATOM     80  F   UNL A   1      41.019  28.799  33.207  1.00  0.00    -0.205 F 
ATOM     81  C   UNL A   1      39.615  32.005  32.110  1.00  0.00     0.022 A 
BRANCH  79  82
ATOM     82  S   UNL A   1      38.206  30.013  33.367  1.00  0.00     0.127 S 
ATOM     83  O   UNL A   1      38.155  28.743  32.652  1.00  0.00    -0.237 OA
ATOM     84  O   UNL A   1      38.507  29.904  34.794  1.00  0.00    -0.237 OA
ATOM     85  O   UNL A   1      37.164  30.980  33.051  1.00  0.00    -0.744 OA
ENDBRANCH  79  82
ENDBRANCH  51  75
BRANCH  63  86
ATOM     86  C   UNL A   1      44.948  24.108  33.262  1.00  0.00     0.023 A 
ATOM     87  C   UNL A   1      44.034  23.063  33.500  1.00  0.00     0.012 A 
ATOM     88  C   UNL A   1      46.208  24.012  33.909  1.00  0.00     0.148 A 
ATOM     89  C   UNL A   1      44.321  22.015  34.381  1.00  0.00     0.002 A 
ATOM     90  C   UNL A   1      46.530  22.909  34.697  1.00  0.00     0.091 A 
ATOM     91  F   UNL A   1      47.102  25.004  33.779  1.00  0.00    -0.205 F 
ATOM     92  C   UNL A   1      45.577  21.925  34.962  1.00  0.00     0.022 A 
BRANCH  90  93
ATOM     93  S   UNL A   1      48.218  22.635  35.255  1.00  0.00     0.127 S 
ATOM     94  O   UNL A   1      48.342  23.603  36.341  1.00  0.00    -0.237 OA
ATOM     95  O   UNL A   1      48.185  21.235  35.689  1.00  0.00    -0.237 OA
ATOM     96  O   UNL A   1      49.045  22.872  34.080  1.00  0.00    -0.744 OA
ENDBRANCH  90  93
ENDBRANCH  63  86
ENDBRANCH  37  38
ENDBRANCH  29  32
ENDBRANCH  27  28
ENDBRANCH   1  27
TORSDOF 16
ENDMDL
MODEL 2
REMARK VINA RESULT:     -12.7      4.132     10.436
REMARK SMILES Cc1ccc(NC(=O)C[C@H]2SC[C@H](C(=O)NCCCNC(=O)c3ccc(-c4c5nc(c(-c6cccc(S(=O)(=O)[O-])c6F)c6ccc([nH]6)c(-c6cccc(S(=O)(=O)[O-])c6F)c6nc(c(-c7cccc(S(=O)(=O)[O-])c7F)c7ccc4[nH]7)C=C6)C=C5)cc3)NC2=O)cc1
REMARK SMILES IDX 18 1 17 2 16 3 14 4 15 5 13 7 10 8 11 9 87 10 12 11 86 12
REMARK SMILES IDX 88 13 9 15 7 16 6 17 8 19 5 20 1 21 2 22 3 23 90 24 4 25
REMARK SMILES IDX 89 26 19 27 20 28 21 29 22 31 23 32 24 33 85 34 25 35 84 36
REMARK SMILES IDX 26 37 27 38 28 39 78 40 29 41 83 42 77 43 79 44 30 45 82 46
REMARK SMILES IDX 76 47 75 48 31 50 63 51 43 52 62 53 44 54 47 55 61 56 80 57
REMARK SMILES IDX 45 58 46 59 60 61 81 62 48 63 32 64 33 65 41 66 34 67 36 68
REMARK SMILES IDX 42 69 35 70 37 71 38 72 39 73 40 74 64 75 65 76 73 77 66 78
REMARK SMILES IDX 68 79 74 80 67 81 69 82 70 83 71 84 72 85 49 86 50 87 58 88
REMARK SMILES IDX 51 89 53 90 59 91 52 92 54 93 55 94 56 95 57 96
REMARK H PARENT 16 6 86 14 6 18 20 30 79 49 47 60
REMARK Flexibility Score: inf
ROOT
ATOM      1  C   UNL A   1      37.872  21.279  25.389  1.00  0.00     0.042 C 
ENDROOT
BRANCH   1   2
ATOM      2  C   UNL A   1      36.538  21.362  24.656  1.00  0.00     0.117 C 
BRANCH   2   3
ATOM      3  N   UNL A   1      35.520  20.493  25.232  1.00  0.00    -0.354 N 
ATOM      4  C   UNL A   1      34.163  20.606  25.306  1.00  0.00     0.243 C 
ATOM      5  O   UNL A   1      33.550  19.744  25.941  1.00  0.00    -0.273 OA
ATOM      6  H   UNL A   1      35.878  19.673  25.644  1.00  0.00     0.163 HD
BRANCH   4   7
ATOM      7  C   UNL A   1      33.393  21.798  24.708  1.00  0.00     0.181 C 
ATOM      8  C   UNL A   1      33.732  24.606  23.637  1.00  0.00     0.145 C 
ATOM      9  S   UNL A   1      32.521  24.437  25.016  1.00  0.00    -0.145 SA
ATOM     10  C   UNL A   1      33.644  23.351  22.759  1.00  0.00     0.234 C 
ATOM     11  C   UNL A   1      33.234  22.922  25.730  1.00  0.00     0.105 C 
ATOM     12  N   UNL A   1      33.912  22.158  23.388  1.00  0.00    -0.343 N 
ATOM     13  O   UNL A   1      33.443  23.339  21.551  1.00  0.00    -0.274 OA
ATOM     14  H   UNL A   1      34.487  21.508  22.923  1.00  0.00     0.164 HD
BRANCH   8  15
ATOM     15  C   UNL A   1      33.609  25.987  22.990  1.00  0.00     0.124 C 
BRANCH  15  16
ATOM     16  C   UNL A   1      32.226  26.558  22.777  1.00  0.00     0.226 C 
ATOM     17  N   UNL A   1      31.764  27.660  23.423  1.00  0.00    -0.326 N 
ATOM     18  H   UNL A   1      30.893  27.971  23.085  1.00  0.00     0.169 HD
ATOM     19  O   UNL A   1      31.463  26.010  21.971  1.00  0.00    -0.275 OA
BRANCH  17  20
ATOM     20  C   UNL A   1      32.262  28.449  24.467  1.00  0.00     0.041 A 
ATOM     21  C   UNL A   1      33.542  31.078  27.643  1.00  0.00     0.044 C 
ATOM     22  C   UNL A   1      33.084  30.158  26.550  1.00  0.00    -0.051 A 
ATOM     23  C   UNL A   1      33.873  29.068  26.163  1.00  0.00     0.005 A 
ATOM     24  C   UNL A   1      31.872  30.379  25.893  1.00  0.00     0.005 A 
ATOM     25  C   UNL A   1      33.463  28.214  25.132  1.00  0.00     0.026 A 
ATOM     26  C   UNL A   1      31.459  29.521  24.874  1.00  0.00     0.026 A 
ENDBRANCH  17  20
ENDBRANCH  15  16
ENDBRANCH   8  15
ENDBRANCH   4   7
ENDBRANCH   2   3
ENDBRANCH   1   2
BRANCH   1  27
ATOM     27  C   UNL A   1      38.379  22.608  25.926  1.00  0.00     0.118 C 
BRANCH  27  28
ATOM     28  N   UNL A   1      39.529  22.474  26.806  1.00  0.00    -0.352 N 
ATOM     29  C   UNL A   1      40.281  23.462  27.414  1.00  0.00     0.251 C 
ATOM     30  H   UNL A   1      39.811  21.550  26.996  1.00  0.00     0.163 HD
ATOM     31  O   UNL A   1      41.330  23.153  27.974  1.00  0.00    -0.269 OA
BRANCH  29  32
ATOM     32  C   UNL A   1      39.736  24.838  27.503  1.00  0.00     0.039 A 
ATOM     33  C   UNL A   1      40.331  25.817  26.698  1.00  0.00     0.014 A 
ATOM     34  C   UNL A   1      38.879  25.206  28.535  1.00  0.00     0.014 A 
ATOM     35  C   UNL A   1      40.295  27.149  27.098  1.00  0.00     0.010 A 
ATOM     36  C   UNL A   1      38.918  26.504  28.990  1.00  0.00     0.010 A 
ATOM     37  C   UNL A   1      39.688  27.455  28.311  1.00  0.00    -0.014 A 
BRANCH  37  38
ATOM     38  C   UNL A   1      39.827  28.723  29.003  1.00  0.00     0.031 A 
ATOM     39  C   UNL A   1      38.862  29.806  28.752  1.00  0.00     0.074 A 
ATOM     40  C   UNL A   1      40.705  28.789  30.027  1.00  0.00     0.049 A 
ATOM     41  N   UNL A   1      39.045  31.034  29.092  1.00  0.00    -0.248 NA
ATOM     42  C   UNL A   1      37.599  29.568  28.066  1.00  0.00     0.031 C 
ATOM     43  C   UNL A   1      40.720  29.749  31.122  1.00  0.00     0.029 A 
ATOM     44  N   UNL A   1      41.907  28.084  30.170  1.00  0.00    -0.354 N 
ATOM     45  C   UNL A   1      37.841  31.687  28.927  1.00  0.00     0.074 A 
ATOM     46  C   UNL A   1      36.993  30.747  28.227  1.00  0.00     0.031 C 
ATOM     47  C   UNL A   1      41.953  29.776  31.653  1.00  0.00     0.029 A 
ATOM     48  C   UNL A   1      42.803  28.972  30.791  1.00  0.00     0.049 A 
ATOM     49  H   UNL A   1      42.088  27.157  29.891  1.00  0.00     0.167 HD
ATOM     50  C   UNL A   1      37.643  32.889  29.538  1.00  0.00     0.034 A 
ATOM     51  C   UNL A   1      43.967  29.395  30.214  1.00  0.00     0.034 A 
ATOM     52  C   UNL A   1      38.852  33.315  30.253  1.00  0.00     0.049 A 
ATOM     53  C   UNL A   1      44.030  30.902  30.048  1.00  0.00     0.074 A 
ATOM     54  C   UNL A   1      39.262  33.165  31.569  1.00  0.00     0.029 A 
ATOM     55  N   UNL A   1      39.975  33.704  29.534  1.00  0.00    -0.354 N 
ATOM     56  N   UNL A   1      43.018  31.703  30.247  1.00  0.00    -0.248 NA
ATOM     57  C   UNL A   1      45.226  31.625  29.622  1.00  0.00     0.031 C 
ATOM     58  C   UNL A   1      40.666  33.369  31.616  1.00  0.00     0.029 A 
ATOM     59  C   UNL A   1      41.105  33.674  30.339  1.00  0.00     0.049 A 
ATOM     60  H   UNL A   1      39.971  33.966  28.585  1.00  0.00     0.167 HD
ATOM     61  C   UNL A   1      43.350  32.978  29.869  1.00  0.00     0.074 A 
ATOM     62  C   UNL A   1      44.768  32.889  29.562  1.00  0.00     0.031 C 
ATOM     63  C   UNL A   1      42.418  33.978  29.781  1.00  0.00     0.034 A 
BRANCH  50  64
ATOM     64  C   UNL A   1      36.273  33.494  29.783  1.00  0.00     0.023 A 
ATOM     65  C   UNL A   1      35.597  34.045  28.670  1.00  0.00     0.012 A 
ATOM     66  C   UNL A   1      35.624  33.627  31.032  1.00  0.00     0.148 A 
ATOM     67  C   UNL A   1      34.414  34.780  28.797  1.00  0.00     0.002 A 
ATOM     68  C   UNL A   1      34.484  34.427  31.171  1.00  0.00     0.091 A 
ATOM     69  F   UNL A   1      36.054  32.914  32.079  1.00  0.00    -0.205 F 
ATOM     70  C   UNL A   1      33.879  35.008  30.054  1.00  0.00     0.022 A 
BRANCH  68  71
ATOM     71  S   UNL A   1      33.799  34.857  32.782  1.00  0.00     0.127 S 
ATOM     72  O   UNL A   1      33.386  33.551  33.304  1.00  0.00    -0.237 OA
ATOM     73  O   UNL A   1      34.947  35.448  33.465  1.00  0.00    -0.237 OA
ATOM     74  O   UNL A   1      32.686  35.760  32.510  1.00  0.00    -0.744 OA
ENDBRANCH  68  71
ENDBRANCH  50  64
BRANCH  51  75
ATOM     75  C   UNL A   1      44.573  28.390  29.290  1.00  0.00     0.023 A 
ATOM     76  C   UNL A   1      44.945  27.149  29.862  1.00  0.00     0.012 A 
ATOM     77  C   UNL A   1      44.402  28.470  27.897  1.00  0.00     0.148 A 
ATOM     78  C   UNL A   1      44.996  25.988  29.089  1.00  0.00     0.002 A 
ATOM     79  C   UNL A   1      44.459  27.305  27.132  1.00  0.00     0.091 A 
ATOM     80  F   UNL A   1      44.101  29.657  27.354  1.00  0.00    -0.205 F 
ATOM     81  C   UNL A   1      44.713  26.060  27.731  1.00  0.00     0.022 A 
BRANCH  79  82
ATOM     82  S   UNL A   1      44.076  27.314  25.374  1.00  0.00     0.127 S 
ATOM     83  O   UNL A   1      45.335  27.781  24.803  1.00  0.00    -0.237 OA
ATOM     84  O   UNL A   1      43.767  25.909  25.113  1.00  0.00    -0.237 OA
ATOM     85  O   UNL A   1      42.934  28.208  25.249  1.00  0.00    -0.744 OA
ENDBRANCH  79  82
ENDBRANCH  51  75
BRANCH  63  86
ATOM     86  C   UNL A   1      42.653  35.334  29.145  1.00  0.00     0.023 A 
ATOM     87  C   UNL A   1      41.991  35.734  27.967  1.00  0.00     0.012 A 
ATOM     88  C   UNL A   1      43.432  36.320  29.804  1.00  0.00     0.148 A 
ATOM     89  C   UNL A   1      42.145  37.017  27.431  1.00  0.00     0.002 A 
ATOM     90  C   UNL A   1      43.490  37.628  29.327  1.00  0.00     0.091 A 
ATOM     91  F   UNL A   1      44.141  35.992  30.895  1.00  0.00    -0.205 F 
ATOM     92  C   UNL A   1      42.875  37.972  28.124  1.00  0.00     0.022 A 
BRANCH  90  93
ATOM     93  S   UNL A   1      44.212  38.942  30.322  1.00  0.00     0.127 S 
ATOM     94  O   UNL A   1      45.642  38.670  30.196  1.00  0.00    -0.237 OA
ATOM     95  O   UNL A   1      43.759  40.151  29.628  1.00  0.00    -0.237 OA
ATOM     96  O   UNL A   1      43.636  38.767  31.648  1.00  0.00    -0.744 OA
ENDBRANCH  90  93
ENDBRANCH  63  86
ENDBRANCH  37  38
ENDBRANCH  29  32
ENDBRANCH  27  28
ENDBRANCH   1  27
TORSDOF 16
ENDMDL
MODEL 3
REMARK VINA RESULT:     -12.7      4.180      9.981
REMARK SMILES Cc1ccc(NC(=O)C[C@H]2SC[C@H](C(=O)NCCCNC(=O)c3ccc(-c4c5nc(c(-c6cccc(S(=O)(=O)[O-])c6F)c6ccc([nH]6)c(-c6cccc(S(=O)(=O)[O-])c6F)c6nc(c(-c7cccc(S(=O)(=O)[O-])c7F)c7ccc4[nH]7)C=C6)C=C5)cc3)NC2=O)cc1
REMARK SMILES IDX 18 1 17 2 16 3 14 4 15 5 13 7 10 8 11 9 87 10 12 11 86 12
REMARK SMILES IDX 88 13 9 15 7 16 6 17 8 19 5 20 1 21 2 22 3 23 90 24 4 25
REMARK SMILES IDX 89 26 19 27 20 28 21 29 22 31 23 32 24 33 85 34 25 35 84 36
REMARK SMILES IDX 26 37 27 38 28 39 78 40 29 41 83 42 77 43 79 44 30 45 82 46
REMARK SMILES IDX 76 47 75 48 31 50 63 51 43 52 62 53 44 54 47 55 61 56 80 57
REMARK SMILES IDX 45 58 46 59 60 61 81 62 48 63 32 64 33 65 41 66 34 67 36 68
REMARK SMILES IDX 42 69 35 70 37 71 38 72 39 73 40 74 64 75 65 76 73 77 66 78
REMARK SMILES IDX 68 79 74 80 67 81 69 82 70 83 71 84 72 85 49 86 50 87 58 88
REMARK SMILES IDX 51 89 53 90 59 91 52 92 54 93 55 94 56 95 57 96
REMARK H PARENT 16 6 86 14 6 18 20 30 79 49 47 60
REMARK Flexibility Score: inf
ROOT
ATOM      1  C   UNL A   1      37.339  21.362  24.900  1.00  0.00     0.042 C 
ENDROOT
BRANCH   1   2
ATOM      2  C   UNL A   1      36.102  21.083  25.747  1.00  0.00     0.117 C 
BRANCH   2   3
ATOM      3  N   UNL A   1      34.945  20.700  24.949  1.00  0.00    -0.354 N 
ATOM      4  C   UNL A   1      33.825  21.386  24.581  1.00  0.00     0.243 C 
ATOM      5  O   UNL A   1      32.952  20.770  23.963  1.00  0.00    -0.273 OA
ATOM      6  H   UNL A   1      34.977  19.775  24.613  1.00  0.00     0.163 HD
BRANCH   4   7
ATOM      7  C   UNL A   1      33.579  22.853  24.979  1.00  0.00     0.181 C 
ATOM      8  C   UNL A   1      31.534  25.078  24.878  1.00  0.00     0.145 C 
ATOM      9  S   UNL A   1      33.171  25.489  24.140  1.00  0.00    -0.145 SA
ATOM     10  C   UNL A   1      31.766  24.172  26.094  1.00  0.00     0.234 C 
ATOM     11  C   UNL A   1      33.662  23.776  23.765  1.00  0.00     0.105 C 
ATOM     12  N   UNL A   1      32.404  22.981  25.843  1.00  0.00    -0.343 N 
ATOM     13  O   UNL A   1      31.357  24.384  27.230  1.00  0.00    -0.274 OA
ATOM     14  H   UNL A   1      32.050  22.166  26.267  1.00  0.00     0.164 HD
BRANCH   8  15
ATOM     15  C   UNL A   1      30.690  26.345  25.035  1.00  0.00     0.124 C 
BRANCH  15  16
ATOM     16  C   UNL A   1      30.723  27.371  23.925  1.00  0.00     0.226 C 
ATOM     17  N   UNL A   1      31.435  28.526  23.995  1.00  0.00    -0.326 N 
ATOM     18  H   UNL A   1      31.448  29.025  23.147  1.00  0.00     0.169 HD
ATOM     19  O   UNL A   1      30.080  27.162  22.890  1.00  0.00    -0.275 OA
BRANCH  17  20
ATOM     20  C   UNL A   1      32.155  29.158  25.017  1.00  0.00     0.041 A 
ATOM     21  C   UNL A   1      34.126  31.318  28.192  1.00  0.00     0.044 C 
ATOM     22  C   UNL A   1      33.429  30.560  27.101  1.00  0.00    -0.051 A 
ATOM     23  C   UNL A   1      34.072  29.498  26.453  1.00  0.00     0.005 A 
ATOM     24  C   UNL A   1      32.137  30.908  26.705  1.00  0.00     0.005 A 
ATOM     25  C   UNL A   1      33.437  28.797  25.421  1.00  0.00     0.026 A 
ATOM     26  C   UNL A   1      31.500  30.200  25.684  1.00  0.00     0.026 A 
ENDBRANCH  17  20
ENDBRANCH  15  16
ENDBRANCH   8  15
ENDBRANCH   4   7
ENDBRANCH   2   3
ENDBRANCH   1   2
BRANCH   1  27
ATOM     27  C   UNL A   1      38.114  22.605  25.309  1.00  0.00     0.118 C 
BRANCH  27  28
ATOM     28  N   UNL A   1      39.350  22.308  26.014  1.00  0.00    -0.352 N 
ATOM     29  C   UNL A   1      40.228  23.175  26.639  1.00  0.00     0.251 C 
ATOM     30  H   UNL A   1      39.598  21.355  26.052  1.00  0.00     0.163 HD
ATOM     31  O   UNL A   1      41.316  22.749  27.020  1.00  0.00    -0.269 OA
BRANCH  29  32
ATOM     32  C   UNL A   1      39.781  24.550  26.964  1.00  0.00     0.039 A 
ATOM     33  C   UNL A   1      40.469  25.608  26.356  1.00  0.00     0.014 A 
ATOM     34  C   UNL A   1      38.923  24.793  28.031  1.00  0.00     0.014 A 
ATOM     35  C   UNL A   1      40.517  26.847  26.989  1.00  0.00     0.010 A 
ATOM     36  C   UNL A   1      39.042  25.984  28.711  1.00  0.00     0.010 A 
ATOM     37  C   UNL A   1      39.898  26.979  28.226  1.00  0.00    -0.014 A 
BRANCH  37  38
ATOM     38  C   UNL A   1      40.107  28.090  29.137  1.00  0.00     0.031 A 
ATOM     39  C   UNL A   1      39.206  29.253  29.094  1.00  0.00     0.074 A 
ATOM     40  C   UNL A   1      40.985  27.918  30.149  1.00  0.00     0.049 A 
ATOM     41  N   UNL A   1      39.458  30.387  29.650  1.00  0.00    -0.248 NA
ATOM     42  C   UNL A   1      37.933  29.216  28.386  1.00  0.00     0.031 C 
ATOM     43  C   UNL A   1      41.052  28.661  31.400  1.00  0.00     0.029 A 
ATOM     44  N   UNL A   1      42.144  27.132  30.152  1.00  0.00    -0.354 N 
ATOM     45  C   UNL A   1      38.293  31.125  29.616  1.00  0.00     0.074 A 
ATOM     46  C   UNL A   1      37.396  30.378  28.764  1.00  0.00     0.031 C 
ATOM     47  C   UNL A   1      42.283  28.521  31.917  1.00  0.00     0.029 A 
ATOM     48  C   UNL A   1      43.088  27.840  30.916  1.00  0.00     0.049 A 
ATOM     49  H   UNL A   1      42.273  26.263  29.707  1.00  0.00     0.167 HD
ATOM     50  C   UNL A   1      38.163  32.205  30.437  1.00  0.00     0.034 A 
ATOM     51  C   UNL A   1      44.275  28.294  30.416  1.00  0.00     0.034 A 
ATOM     52  C   UNL A   1      39.392  32.425  31.208  1.00  0.00     0.049 A 
ATOM     53  C   UNL A   1      44.425  29.801  30.527  1.00  0.00     0.074 A 
ATOM     54  C   UNL A   1      39.790  32.015  32.472  1.00  0.00     0.029 A 
ATOM     55  N   UNL A   1      40.538  32.874  30.564  1.00  0.00    -0.354 N 
ATOM     56  N   UNL A   1      43.460  30.607  30.876  1.00  0.00    -0.248 NA
ATOM     57  C   UNL A   1      45.661  30.520  30.230  1.00  0.00     0.031 C 
ATOM     58  C   UNL A   1      41.203  32.127  32.544  1.00  0.00     0.029 A 
ATOM     59  C   UNL A   1      41.663  32.634  31.340  1.00  0.00     0.049 A 
ATOM     60  H   UNL A   1      40.551  33.304  29.678  1.00  0.00     0.167 HD
ATOM     61  C   UNL A   1      43.866  31.909  30.735  1.00  0.00     0.074 A 
ATOM     62  C   UNL A   1      45.276  31.797  30.405  1.00  0.00     0.031 C 
ATOM     63  C   UNL A   1      42.992  32.959  30.837  1.00  0.00     0.034 A 
BRANCH  50  64
ATOM     64  C   UNL A   1      36.829  32.832  30.800  1.00  0.00     0.023 A 
ATOM     65  C   UNL A   1      36.176  32.348  31.956  1.00  0.00     0.012 A 
ATOM     66  C   UNL A   1      36.133  33.813  30.058  1.00  0.00     0.148 A 
ATOM     67  C   UNL A   1      34.872  32.722  32.295  1.00  0.00     0.002 A 
ATOM     68  C   UNL A   1      34.801  34.129  30.350  1.00  0.00     0.091 A 
ATOM     69  F   UNL A   1      36.777  34.510  29.115  1.00  0.00    -0.205 F 
ATOM     70  C   UNL A   1      34.166  33.580  31.468  1.00  0.00     0.022 A 
BRANCH  68  71
ATOM     71  S   UNL A   1      33.791  35.148  29.261  1.00  0.00     0.127 S 
ATOM     72  O   UNL A   1      32.679  34.251  28.936  1.00  0.00    -0.237 OA
ATOM     73  O   UNL A   1      33.431  36.271  30.124  1.00  0.00    -0.237 OA
ATOM     74  O   UNL A   1      34.640  35.470  28.119  1.00  0.00    -0.744 OA
ENDBRANCH  68  71
ENDBRANCH  50  64
BRANCH  51  75
ATOM     75  C   UNL A   1      44.826  27.442  29.321  1.00  0.00     0.023 A 
ATOM     76  C   UNL A   1      45.146  26.104  29.660  1.00  0.00     0.012 A 
ATOM     77  C   UNL A   1      44.644  27.772  27.967  1.00  0.00     0.148 A 
ATOM     78  C   UNL A   1      45.136  25.096  28.696  1.00  0.00     0.002 A 
ATOM     79  C   UNL A   1      44.640  26.758  27.008  1.00  0.00     0.091 A 
ATOM     80  F   UNL A   1      44.393  29.047  27.645  1.00  0.00    -0.205 F 
ATOM     81  C   UNL A   1      44.844  25.418  27.376  1.00  0.00     0.022 A 
BRANCH  79  82
ATOM     82  S   UNL A   1      44.241  27.092  25.287  1.00  0.00     0.127 S 
ATOM     83  O   UNL A   1      43.918  25.756  24.797  1.00  0.00    -0.237 OA
ATOM     84  O   UNL A   1      43.098  27.997  25.399  1.00  0.00    -0.237 OA
ATOM     85  O   UNL A   1      45.440  27.712  24.743  1.00  0.00    -0.744 OA
ENDBRANCH  79  82
ENDBRANCH  51  75
BRANCH  63  86
ATOM     86  C   UNL A   1      43.305  34.393  30.456  1.00  0.00     0.023 A 
ATOM     87  C   UNL A   1      43.651  35.365  31.416  1.00  0.00     0.012 A 
ATOM     88  C   UNL A   1      43.418  34.775  29.094  1.00  0.00     0.148 A 
ATOM     89  C   UNL A   1      44.023  36.664  31.053  1.00  0.00     0.002 A 
ATOM     90  C   UNL A   1      43.897  36.034  28.737  1.00  0.00     0.091 A 
ATOM     91  F   UNL A   1      43.044  33.922  28.128  1.00  0.00    -0.205 F 
ATOM     92  C   UNL A   1      44.169  36.992  29.714  1.00  0.00     0.022 A 
BRANCH  90  93
ATOM     93  S   UNL A   1      44.335  36.406  27.032  1.00  0.00     0.127 S 
ATOM     94  O   UNL A   1      44.818  37.780  27.133  1.00  0.00    -0.237 OA
ATOM     95  O   UNL A   1      45.377  35.414  26.749  1.00  0.00    -0.237 OA
ATOM     96  O   UNL A   1      43.105  36.206  26.278  1.00  0.00    -0.744 OA
ENDBRANCH  90  93
ENDBRANCH  63  86
ENDBRANCH  37  38
ENDBRANCH  29  32
ENDBRANCH  27  28
ENDBRANCH   1  27
TORSDOF 16
ENDMDL
