MODEL 1
REMARK VINA RESULT:     -11.7      0.000      0.000
REMARK SMILES COCC[C@@H](C)NC(=O)N1Cc2nc[nH]c2C[C@@H]1C(=O)NCCCNC(=O)c1ccc(-c2c3nc(c(-c4cccc(S(=O)(=O)[O-])c4F)c4ccc([nH]4)c(-c4cccc(S(=O)(=O)[O-])c4F)c4nc(c(-c5cccc(S(=O)(=O)[O-])c5F)c5ccc2[nH]5)C=C4)C=C3)cc1
REMARK SMILES IDX 22 1 21 2 19 3 20 4 18 6 10 7 11 8 12 9 17 10 13 11 16 12
REMARK SMILES IDX 14 13 15 14 8 16 7 17 9 19 5 20 6 21 4 22 3 23 2 24 1 25
REMARK SMILES IDX 23 26 24 27 25 28 26 29 27 31 28 32 29 33 90 34 30 35 89 36
REMARK SMILES IDX 31 37 32 38 33 39 83 40 34 41 88 42 82 43 84 44 35 45 87 46
REMARK SMILES IDX 81 47 80 48 36 50 68 51 48 52 67 53 49 54 52 55 66 56 85 57
REMARK SMILES IDX 50 58 51 59 65 61 86 62 53 63 37 64 38 65 46 66 39 67 41 68
REMARK SMILES IDX 47 69 40 70 42 71 43 72 44 73 45 74 69 75 70 76 78 77 71 78
REMARK SMILES IDX 73 79 79 80 72 81 74 82 75 83 76 84 77 85 54 86 55 87 63 88
REMARK SMILES IDX 56 89 58 90 64 91 57 92 59 93 60 94 61 95 62 96
REMARK H PARENT 21 5 15 15 7 18 25 30 84 49 52 60
REMARK Flexibility Score: inf
ROOT
ATOM      1  C   UNL A   1      36.422  20.821  24.597  1.00  0.00     0.117 C 
ENDROOT
BRANCH   1   2
ATOM      2  N   UNL A   1      35.026  20.630  24.976  1.00  0.00    -0.354 N 
ATOM      3  C   UNL A   1      33.926  21.282  24.466  1.00  0.00     0.243 C 
ATOM      4  O   UNL A   1      32.876  20.652  24.362  1.00  0.00    -0.273 OA
ATOM      5  H   UNL A   1      34.852  19.960  25.676  1.00  0.00     0.163 HD
BRANCH   3   6
ATOM      6  C   UNL A   1      34.105  22.703  23.919  1.00  0.00     0.182 C 
ATOM      7  N   UNL A   1      34.239  23.930  24.776  1.00  0.00    -0.306 N 
ATOM      8  C   UNL A   1      34.394  25.223  24.047  1.00  0.00     0.180 C 
ATOM      9  C   UNL A   1      33.653  25.209  22.743  1.00  0.00     0.081 A 
ATOM     10  C   UNL A   1      32.908  22.816  22.926  1.00  0.00     0.091 C 
ATOM     11  N   UNL A   1      33.574  26.245  21.845  1.00  0.00    -0.240 NA
ATOM     12  C   UNL A   1      32.999  24.112  22.243  1.00  0.00     0.042 A 
ATOM     13  C   UNL A   1      32.860  25.778  20.840  1.00  0.00     0.197 A 
ATOM     14  N   UNL A   1      32.493  24.474  21.035  1.00  0.00    -0.348 N 
ATOM     15  H   UNL A   1      31.968  23.911  20.422  1.00  0.00     0.167 HD
BRANCH   7  16
ATOM     16  C   UNL A   1      33.895  24.037  26.098  1.00  0.00     0.318 C 
ATOM     17  N   UNL A   1      33.024  24.985  26.510  1.00  0.00    -0.335 N 
ATOM     18  H   UNL A   1      33.013  25.112  27.486  1.00  0.00     0.165 HD
ATOM     19  O   UNL A   1      34.259  23.204  26.933  1.00  0.00    -0.249 OA
BRANCH  17  20
ATOM     20  C   UNL A   1      32.093  25.864  25.797  1.00  0.00     0.083 C 
ATOM     21  C   UNL A   1      31.733  27.049  26.691  1.00  0.00     0.031 C 
BRANCH  20  22
ATOM     22  C   UNL A   1      30.833  25.096  25.347  1.00  0.00     0.053 C 
BRANCH  22  23
ATOM     23  C   UNL A   1      29.814  25.962  24.592  1.00  0.00     0.162 C 
BRANCH  23  24
ATOM     24  O   UNL A   1      30.197  26.227  23.236  1.00  0.00    -0.385 OA
ATOM     25  C   UNL A   1      30.322  27.597  22.920  1.00  0.00     0.194 C 
ENDBRANCH  23  24
ENDBRANCH  22  23
ENDBRANCH  20  22
ENDBRANCH  17  20
ENDBRANCH   7  16
ENDBRANCH   3   6
ENDBRANCH   1   2
BRANCH   1  26
ATOM     26  C   UNL A   1      37.390  19.720  25.021  1.00  0.00     0.042 C 
BRANCH  26  27
ATOM     27  C   UNL A   1      38.745  20.238  25.448  1.00  0.00     0.118 C 
BRANCH  27  28
ATOM     28  N   UNL A   1      39.735  19.175  25.650  1.00  0.00    -0.352 N 
ATOM     29  C   UNL A   1      41.088  19.321  25.928  1.00  0.00     0.251 C 
ATOM     30  H   UNL A   1      39.403  18.251  25.582  1.00  0.00     0.163 HD
ATOM     31  O   UNL A   1      41.871  18.408  25.742  1.00  0.00    -0.269 OA
BRANCH  29  32
ATOM     32  C   UNL A   1      41.540  20.612  26.485  1.00  0.00     0.039 A 
ATOM     33  C   UNL A   1      42.317  21.526  25.766  1.00  0.00     0.014 A 
ATOM     34  C   UNL A   1      41.131  20.895  27.782  1.00  0.00     0.014 A 
ATOM     35  C   UNL A   1      42.646  22.736  26.375  1.00  0.00     0.010 A 
ATOM     36  C   UNL A   1      41.215  22.165  28.255  1.00  0.00     0.010 A 
ATOM     37  C   UNL A   1      42.092  23.032  27.627  1.00  0.00    -0.014 A 
BRANCH  37  38
ATOM     38  C   UNL A   1      42.336  24.271  28.341  1.00  0.00     0.031 A 
ATOM     39  C   UNL A   1      41.260  25.274  28.167  1.00  0.00     0.074 A 
ATOM     40  C   UNL A   1      43.288  24.331  29.302  1.00  0.00     0.049 A 
ATOM     41  N   UNL A   1      41.330  26.400  27.539  1.00  0.00    -0.248 NA
ATOM     42  C   UNL A   1      39.893  24.900  28.570  1.00  0.00     0.031 C 
ATOM     43  C   UNL A   1      44.165  23.248  29.785  1.00  0.00     0.029 A 
ATOM     44  N   UNL A   1      43.565  25.332  30.176  1.00  0.00    -0.354 N 
ATOM     45  C   UNL A   1      40.081  26.991  27.716  1.00  0.00     0.074 A 
ATOM     46  C   UNL A   1      39.189  25.932  28.101  1.00  0.00     0.031 C 
ATOM     47  C   UNL A   1      44.666  23.574  30.998  1.00  0.00     0.029 A 
ATOM     48  C   UNL A   1      44.291  24.940  31.299  1.00  0.00     0.049 A 
ATOM     49  H   UNL A   1      43.276  26.262  30.026  1.00  0.00     0.167 HD
ATOM     50  C   UNL A   1      39.957  28.341  27.840  1.00  0.00     0.034 A 
ATOM     51  C   UNL A   1      44.514  25.677  32.417  1.00  0.00     0.034 A 
ATOM     52  C   UNL A   1      41.175  29.007  27.442  1.00  0.00     0.049 A 
ATOM     53  C   UNL A   1      44.272  27.090  32.048  1.00  0.00     0.074 A 
ATOM     54  C   UNL A   1      41.927  29.063  26.286  1.00  0.00     0.029 A 
ATOM     55  N   UNL A   1      42.008  29.417  28.457  1.00  0.00    -0.354 N 
ATOM     56  N   UNL A   1      44.998  27.735  31.177  1.00  0.00    -0.248 NA
ATOM     57  C   UNL A   1      42.940  27.626  32.277  1.00  0.00     0.031 C 
ATOM     58  C   UNL A   1      43.283  29.043  26.731  1.00  0.00     0.029 A 
ATOM     59  C   UNL A   1      43.287  29.057  28.127  1.00  0.00     0.049 A 
ATOM     60  H   UNL A   1      41.732  29.887  29.277  1.00  0.00     0.167 HD
ATOM     61  C   UNL A   1      44.075  28.444  30.419  1.00  0.00     0.074 A 
ATOM     62  C   UNL A   1      42.841  28.423  31.208  1.00  0.00     0.031 C 
ATOM     63  C   UNL A   1      44.303  28.708  29.098  1.00  0.00     0.034 A 
BRANCH  50  64
ATOM     64  C   UNL A   1      38.922  29.052  28.689  1.00  0.00     0.023 A 
ATOM     65  C   UNL A   1      38.173  30.071  28.056  1.00  0.00     0.012 A 
ATOM     66  C   UNL A   1      38.827  28.977  30.098  1.00  0.00     0.148 A 
ATOM     67  C   UNL A   1      37.431  31.004  28.787  1.00  0.00     0.002 A 
ATOM     68  C   UNL A   1      38.028  29.860  30.816  1.00  0.00     0.091 A 
ATOM     69  F   UNL A   1      39.607  28.142  30.786  1.00  0.00    -0.205 F 
ATOM     70  C   UNL A   1      37.355  30.897  30.169  1.00  0.00     0.022 A 
BRANCH  68  71
ATOM     71  S   UNL A   1      37.862  29.746  32.604  1.00  0.00     0.127 S 
ATOM     72  O   UNL A   1      37.415  28.367  32.767  1.00  0.00    -0.237 OA
ATOM     73  O   UNL A   1      39.232  30.013  33.045  1.00  0.00    -0.237 OA
ATOM     74  O   UNL A   1      36.905  30.779  32.976  1.00  0.00    -0.744 OA
ENDBRANCH  68  71
ENDBRANCH  50  64
BRANCH  51  75
ATOM     75  C   UNL A   1      44.627  25.243  33.832  1.00  0.00     0.023 A 
ATOM     76  C   UNL A   1      43.472  25.097  34.627  1.00  0.00     0.012 A 
ATOM     77  C   UNL A   1      45.835  24.695  34.314  1.00  0.00     0.148 A 
ATOM     78  C   UNL A   1      43.516  24.409  35.848  1.00  0.00     0.002 A 
ATOM     79  C   UNL A   1      45.873  24.010  35.527  1.00  0.00     0.091 A 
ATOM     80  F   UNL A   1      46.928  24.774  33.542  1.00  0.00    -0.205 F 
ATOM     81  C   UNL A   1      44.712  23.856  36.294  1.00  0.00     0.022 A 
BRANCH  79  82
ATOM     82  S   UNL A   1      47.367  23.219  36.133  1.00  0.00     0.127 S 
ATOM     83  O   UNL A   1      48.266  24.360  36.297  1.00  0.00    -0.237 OA
ATOM     84  O   UNL A   1      46.910  22.611  37.380  1.00  0.00    -0.237 OA
ATOM     85  O   UNL A   1      47.758  22.277  35.095  1.00  0.00    -0.744 OA
ENDBRANCH  79  82
ENDBRANCH  51  75
BRANCH  63  86
ATOM     86  C   UNL A   1      45.671  28.384  28.539  1.00  0.00     0.023 A 
ATOM     87  C   UNL A   1      46.809  29.176  28.807  1.00  0.00     0.012 A 
ATOM     88  C   UNL A   1      45.848  27.150  27.893  1.00  0.00     0.148 A 
ATOM     89  C   UNL A   1      48.088  28.755  28.431  1.00  0.00     0.002 A 
ATOM     90  C   UNL A   1      47.124  26.714  27.561  1.00  0.00     0.091 A 
ATOM     91  F   UNL A   1      44.760  26.403  27.656  1.00  0.00    -0.205 F 
ATOM     92  C   UNL A   1      48.248  27.516  27.819  1.00  0.00     0.022 A 
BRANCH  90  93
ATOM     93  S   UNL A   1      47.414  25.076  26.890  1.00  0.00     0.127 S 
ATOM     94  O   UNL A   1      46.781  24.220  27.890  1.00  0.00    -0.237 OA
ATOM     95  O   UNL A   1      46.714  25.139  25.606  1.00  0.00    -0.237 OA
ATOM     96  O   UNL A   1      48.861  24.936  26.775  1.00  0.00    -0.744 OA
ENDBRANCH  90  93
ENDBRANCH  63  86
ENDBRANCH  37  38
ENDBRANCH  29  32
ENDBRANCH  27  28
ENDBRANCH  26  27
ENDBRANCH   1  26
TORSDOF 18
ENDMDL
MODEL 2
REMARK VINA RESULT:     -11.4      1.187      2.227
REMARK SMILES COCC[C@@H](C)NC(=O)N1Cc2nc[nH]c2C[C@@H]1C(=O)NCCCNC(=O)c1ccc(-c2c3nc(c(-c4cccc(S(=O)(=O)[O-])c4F)c4ccc([nH]4)c(-c4cccc(S(=O)(=O)[O-])c4F)c4nc(c(-c5cccc(S(=O)(=O)[O-])c5F)c5ccc2[nH]5)C=C4)C=C3)cc1
REMARK SMILES IDX 22 1 21 2 19 3 20 4 18 6 10 7 11 8 12 9 17 10 13 11 16 12
REMARK SMILES IDX 14 13 15 14 8 16 7 17 9 19 5 20 6 21 4 22 3 23 2 24 1 25
REMARK SMILES IDX 23 26 24 27 25 28 26 29 27 31 28 32 29 33 90 34 30 35 89 36
REMARK SMILES IDX 31 37 32 38 33 39 83 40 34 41 88 42 82 43 84 44 35 45 87 46
REMARK SMILES IDX 81 47 80 48 36 50 68 51 48 52 67 53 49 54 52 55 66 56 85 57
REMARK SMILES IDX 50 58 51 59 65 61 86 62 53 63 37 64 38 65 46 66 39 67 41 68
REMARK SMILES IDX 47 69 40 70 42 71 43 72 44 73 45 74 69 75 70 76 78 77 71 78
REMARK SMILES IDX 73 79 79 80 72 81 74 82 75 83 76 84 77 85 54 86 55 87 63 88
REMARK SMILES IDX 56 89 58 90 64 91 57 92 59 93 60 94 61 95 62 96
REMARK H PARENT 21 5 15 15 7 18 25 30 84 49 52 60
REMARK Flexibility Score: inf
ROOT
ATOM      1  C   UNL A   1      37.198  21.830  24.227  1.00  0.00     0.117 C 
ENDROOT
BRANCH   1   2
ATOM      2  N   UNL A   1      36.316  22.479  25.190  1.00  0.00    -0.354 N 
ATOM      3  C   UNL A   1      35.058  22.073  25.576  1.00  0.00     0.243 C 
ATOM      4  O   UNL A   1      34.720  22.263  26.742  1.00  0.00    -0.273 OA
ATOM      5  H   UNL A   1      36.659  23.299  25.612  1.00  0.00     0.163 HD
BRANCH   3   6
ATOM      6  C   UNL A   1      34.209  21.276  24.579  1.00  0.00     0.182 C 
ATOM      7  N   UNL A   1      32.837  21.682  24.119  1.00  0.00    -0.306 N 
ATOM      8  C   UNL A   1      32.172  20.760  23.152  1.00  0.00     0.180 C 
ATOM      9  C   UNL A   1      32.569  19.334  23.394  1.00  0.00     0.081 A 
ATOM     10  C   UNL A   1      34.209  19.856  25.224  1.00  0.00     0.091 C 
ATOM     11  N   UNL A   1      32.120  18.239  22.696  1.00  0.00    -0.240 NA
ATOM     12  C   UNL A   1      33.499  18.941  24.322  1.00  0.00     0.042 A 
ATOM     13  C   UNL A   1      32.754  17.210  23.222  1.00  0.00     0.197 A 
ATOM     14  N   UNL A   1      33.615  17.592  24.215  1.00  0.00    -0.348 N 
ATOM     15  H   UNL A   1      34.202  17.006  24.745  1.00  0.00     0.167 HD
BRANCH   7  16
ATOM     16  C   UNL A   1      32.012  22.588  24.733  1.00  0.00     0.318 C 
ATOM     17  N   UNL A   1      32.050  23.896  24.394  1.00  0.00    -0.335 N 
ATOM     18  H   UNL A   1      31.582  24.481  25.031  1.00  0.00     0.165 HD
ATOM     19  O   UNL A   1      31.125  22.233  25.513  1.00  0.00    -0.249 OA
BRANCH  17  20
ATOM     20  C   UNL A   1      32.648  24.619  23.268  1.00  0.00     0.083 C 
ATOM     21  C   UNL A   1      33.720  25.573  23.793  1.00  0.00     0.031 C 
BRANCH  20  22
ATOM     22  C   UNL A   1      31.576  25.373  22.455  1.00  0.00     0.053 C 
BRANCH  22  23
ATOM     23  C   UNL A   1      31.744  26.899  22.465  1.00  0.00     0.162 C 
BRANCH  23  24
ATOM     24  O   UNL A   1      30.625  27.591  21.895  1.00  0.00    -0.385 OA
ATOM     25  C   UNL A   1      30.430  28.898  22.392  1.00  0.00     0.194 C 
ENDBRANCH  23  24
ENDBRANCH  22  23
ENDBRANCH  20  22
ENDBRANCH  17  20
ENDBRANCH   7  16
ENDBRANCH   3   6
ENDBRANCH   1   2
BRANCH   1  26
ATOM     26  C   UNL A   1      37.677  20.426  24.592  1.00  0.00     0.042 C 
BRANCH  26  27
ATOM     27  C   UNL A   1      38.506  20.381  25.855  1.00  0.00     0.118 C 
BRANCH  27  28
ATOM     28  N   UNL A   1      39.561  19.361  25.819  1.00  0.00    -0.352 N 
ATOM     29  C   UNL A   1      40.934  19.561  25.890  1.00  0.00     0.251 C 
ATOM     30  H   UNL A   1      39.261  18.428  25.737  1.00  0.00     0.163 HD
ATOM     31  O   UNL A   1      41.714  18.705  25.516  1.00  0.00    -0.269 OA
BRANCH  29  32
ATOM     32  C   UNL A   1      41.414  20.835  26.462  1.00  0.00     0.039 A 
ATOM     33  C   UNL A   1      42.073  21.812  25.709  1.00  0.00     0.014 A 
ATOM     34  C   UNL A   1      41.158  21.033  27.813  1.00  0.00     0.014 A 
ATOM     35  C   UNL A   1      42.440  22.998  26.342  1.00  0.00     0.010 A 
ATOM     36  C   UNL A   1      41.264  22.278  28.345  1.00  0.00     0.010 A 
ATOM     37  C   UNL A   1      42.034  23.207  27.667  1.00  0.00    -0.014 A 
BRANCH  37  38
ATOM     38  C   UNL A   1      42.329  24.413  28.417  1.00  0.00     0.031 A 
ATOM     39  C   UNL A   1      41.293  25.463  28.277  1.00  0.00     0.074 A 
ATOM     40  C   UNL A   1      43.285  24.407  29.376  1.00  0.00     0.049 A 
ATOM     41  N   UNL A   1      41.407  26.604  27.683  1.00  0.00    -0.248 NA
ATOM     42  C   UNL A   1      39.914  25.132  28.674  1.00  0.00     0.031 C 
ATOM     43  C   UNL A   1      44.119  23.275  29.824  1.00  0.00     0.029 A 
ATOM     44  N   UNL A   1      43.604  25.370  30.278  1.00  0.00    -0.354 N 
ATOM     45  C   UNL A   1      40.183  27.238  27.882  1.00  0.00     0.074 A 
ATOM     46  C   UNL A   1      39.251  26.205  28.238  1.00  0.00     0.031 C 
ATOM     47  C   UNL A   1      44.636  23.545  31.043  1.00  0.00     0.029 A 
ATOM     48  C   UNL A   1      44.317  24.915  31.386  1.00  0.00     0.049 A 
ATOM     49  H   UNL A   1      43.352  26.314  30.157  1.00  0.00     0.167 HD
ATOM     50  C   UNL A   1      40.113  28.588  28.047  1.00  0.00     0.034 A 
ATOM     51  C   UNL A   1      44.571  25.609  32.525  1.00  0.00     0.034 A 
ATOM     52  C   UNL A   1      41.356  29.217  27.664  1.00  0.00     0.049 A 
ATOM     53  C   UNL A   1      44.385  27.041  32.200  1.00  0.00     0.074 A 
ATOM     54  C   UNL A   1      42.106  29.277  26.507  1.00  0.00     0.029 A 
ATOM     55  N   UNL A   1      42.207  29.563  28.688  1.00  0.00    -0.354 N 
ATOM     56  N   UNL A   1      45.134  27.683  31.346  1.00  0.00    -0.248 NA
ATOM     57  C   UNL A   1      43.076  27.623  32.449  1.00  0.00     0.031 C 
ATOM     58  C   UNL A   1      43.462  29.190  26.946  1.00  0.00     0.029 A 
ATOM     59  C   UNL A   1      43.470  29.162  28.343  1.00  0.00     0.049 A 
ATOM     60  H   UNL A   1      41.953  30.019  29.522  1.00  0.00     0.167 HD
ATOM     61  C   UNL A   1      44.238  28.450  30.612  1.00  0.00     0.074 A 
ATOM     62  C   UNL A   1      43.007  28.454  31.405  1.00  0.00     0.031 C 
ATOM     63  C   UNL A   1      44.474  28.744  29.299  1.00  0.00     0.034 A 
BRANCH  50  64
ATOM     64  C   UNL A   1      39.109  29.314  28.920  1.00  0.00     0.023 A 
ATOM     65  C   UNL A   1      38.417  30.395  28.328  1.00  0.00     0.012 A 
ATOM     66  C   UNL A   1      39.002  29.185  30.324  1.00  0.00     0.148 A 
ATOM     67  C   UNL A   1      37.718  31.333  29.094  1.00  0.00     0.002 A 
ATOM     68  C   UNL A   1      38.242  30.076  31.076  1.00  0.00     0.091 A 
ATOM     69  F   UNL A   1      39.733  28.283  30.979  1.00  0.00    -0.205 F 
ATOM     70  C   UNL A   1      37.628  31.172  30.469  1.00  0.00     0.022 A 
BRANCH  68  71
ATOM     71  S   UNL A   1      38.059  29.895  32.856  1.00  0.00     0.127 S 
ATOM     72  O   UNL A   1      37.194  31.026  33.176  1.00  0.00    -0.237 OA
ATOM     73  O   UNL A   1      37.426  28.580  32.956  1.00  0.00    -0.237 OA
ATOM     74  O   UNL A   1      39.411  29.948  33.397  1.00  0.00    -0.744 OA
ENDBRANCH  68  71
ENDBRANCH  50  64
BRANCH  51  75
ATOM     75  C   UNL A   1      44.670  25.129  33.926  1.00  0.00     0.023 A 
ATOM     76  C   UNL A   1      43.521  24.686  34.611  1.00  0.00     0.012 A 
ATOM     77  C   UNL A   1      45.931  24.834  34.490  1.00  0.00     0.148 A 
ATOM     78  C   UNL A   1      43.624  23.953  35.803  1.00  0.00     0.002 A 
ATOM     79  C   UNL A   1      46.028  24.104  35.673  1.00  0.00     0.091 A 
ATOM     80  F   UNL A   1      47.033  25.197  33.821  1.00  0.00    -0.205 F 
ATOM     81  C   UNL A   1      44.877  23.653  36.328  1.00  0.00     0.022 A 
BRANCH  79  82
ATOM     82  S   UNL A   1      47.611  23.629  36.376  1.00  0.00     0.127 S 
ATOM     83  O   UNL A   1      48.223  24.929  36.646  1.00  0.00    -0.237 OA
ATOM     84  O   UNL A   1      47.209  22.878  37.562  1.00  0.00    -0.237 OA
ATOM     85  O   UNL A   1      48.275  22.844  35.346  1.00  0.00    -0.744 OA
ENDBRANCH  79  82
ENDBRANCH  51  75
BRANCH  63  86
ATOM     86  C   UNL A   1      45.827  28.383  28.725  1.00  0.00     0.023 A 
ATOM     87  C   UNL A   1      46.996  29.119  29.015  1.00  0.00     0.012 A 
ATOM     88  C   UNL A   1      45.951  27.164  28.040  1.00  0.00     0.148 A 
ATOM     89  C   UNL A   1      48.256  28.659  28.621  1.00  0.00     0.002 A 
ATOM     90  C   UNL A   1      47.209  26.687  27.691  1.00  0.00     0.091 A 
ATOM     91  F   UNL A   1      44.833  26.470  27.782  1.00  0.00    -0.205 F 
ATOM     92  C   UNL A   1      48.364  27.434  27.970  1.00  0.00     0.022 A 
BRANCH  90  93
ATOM     93  S   UNL A   1      47.430  25.061  26.966  1.00  0.00     0.127 S 
ATOM     94  O   UNL A   1      46.574  24.231  27.811  1.00  0.00    -0.237 OA
ATOM     95  O   UNL A   1      46.937  25.260  25.602  1.00  0.00    -0.237 OA
ATOM     96  O   UNL A   1      48.856  24.772  27.050  1.00  0.00    -0.744 OA
ENDBRANCH  90  93
ENDBRANCH  63  86
ENDBRANCH  37  38
ENDBRANCH  29  32
ENDBRANCH  27  28
ENDBRANCH  26  27
ENDBRANCH   1  26
TORSDOF 18
ENDMDL
MODEL 3
REMARK VINA RESULT:     -11.2      3.361      7.747
REMARK SMILES COCC[C@@H](C)NC(=O)N1Cc2nc[nH]c2C[C@@H]1C(=O)NCCCNC(=O)c1ccc(-c2c3nc(c(-c4cccc(S(=O)(=O)[O-])c4F)c4ccc([nH]4)c(-c4cccc(S(=O)(=O)[O-])c4F)c4nc(c(-c5cccc(S(=O)(=O)[O-])c5F)c5ccc2[nH]5)C=C4)C=C3)cc1
REMARK SMILES IDX 22 1 21 2 19 3 20 4 18 6 10 7 11 8 12 9 17 10 13 11 16 12
REMARK SMILES IDX 14 13 15 14 8 16 7 17 9 19 5 20 6 21 4 22 3 23 2 24 1 25
REMARK SMILES IDX 23 26 24 27 25 28 26 29 27 31 28 32 29 33 90 34 30 35 89 36
REMARK SMILES IDX 31 37 32 38 33 39 83 40 34 41 88 42 82 43 84 44 35 45 87 46
REMARK SMILES IDX 81 47 80 48 36 50 68 51 48 52 67 53 49 54 52 55 66 56 85 57
REMARK SMILES IDX 50 58 51 59 65 61 86 62 53 63 37 64 38 65 46 66 39 67 41 68
REMARK SMILES IDX 47 69 40 70 42 71 43 72 44 73 45 74 69 75 70 76 78 77 71 78
REMARK SMILES IDX 73 79 79 80 72 81 74 82 75 83 76 84 77 85 54 86 55 87 63 88
REMARK SMILES IDX 56 89 58 90 64 91 57 92 59 93 60 94 61 95 62 96
REMARK H PARENT 21 5 15 15 7 18 25 30 84 49 52 60
REMARK Flexibility Score: inf
ROOT
ATOM      1  C   UNL A   1      34.849  23.206  24.600  1.00  0.00     0.117 C 
ENDROOT
BRANCH   1   2
ATOM      2  N   UNL A   1      34.299  23.788  23.381  1.00  0.00    -0.354 N 
ATOM      3  C   UNL A   1      33.883  25.087  23.190  1.00  0.00     0.243 C 
ATOM      4  O   UNL A   1      34.061  25.594  22.085  1.00  0.00    -0.273 OA
ATOM      5  H   UNL A   1      34.215  23.183  22.609  1.00  0.00     0.163 HD
BRANCH   3   6
ATOM      6  C   UNL A   1      33.364  25.874  24.398  1.00  0.00     0.182 C 
ATOM      7  N   UNL A   1      32.057  25.604  25.087  1.00  0.00    -0.306 N 
ATOM      8  C   UNL A   1      31.728  26.493  26.240  1.00  0.00     0.180 C 
ATOM      9  C   UNL A   1      32.284  27.873  26.043  1.00  0.00     0.081 A 
ATOM     10  C   UNL A   1      33.458  27.344  23.885  1.00  0.00     0.091 C 
ATOM     11  N   UNL A   1      32.143  28.934  26.904  1.00  0.00    -0.240 NA
ATOM     12  C   UNL A   1      33.074  28.239  24.984  1.00  0.00     0.042 A 
ATOM     13  C   UNL A   1      32.816  29.921  26.349  1.00  0.00     0.197 A 
ATOM     14  N   UNL A   1      33.410  29.541  25.176  1.00  0.00    -0.348 N 
ATOM     15  H   UNL A   1      33.970  30.100  24.590  1.00  0.00     0.167 HD
BRANCH   7  16
ATOM     16  C   UNL A   1      31.005  24.888  24.578  1.00  0.00     0.318 C 
ATOM     17  N   UNL A   1      29.895  25.517  24.131  1.00  0.00    -0.335 N 
ATOM     18  H   UNL A   1      29.130  24.913  23.990  1.00  0.00     0.165 HD
ATOM     19  O   UNL A   1      31.078  23.671  24.390  1.00  0.00    -0.249 OA
BRANCH  17  20
ATOM     20  C   UNL A   1      29.598  26.916  23.813  1.00  0.00     0.083 C 
ATOM     21  C   UNL A   1      28.084  27.113  23.766  1.00  0.00     0.031 C 
BRANCH  20  22
ATOM     22  C   UNL A   1      30.262  27.341  22.487  1.00  0.00     0.053 C 
BRANCH  22  23
ATOM     23  C   UNL A   1      30.625  28.832  22.422  1.00  0.00     0.162 C 
BRANCH  23  24
ATOM     24  O   UNL A   1      30.370  29.525  23.651  1.00  0.00    -0.385 OA
ATOM     25  C   UNL A   1      29.337  30.484  23.580  1.00  0.00     0.194 C 
ENDBRANCH  23  24
ENDBRANCH  22  23
ENDBRANCH  20  22
ENDBRANCH  17  20
ENDBRANCH   7  16
ENDBRANCH   3   6
ENDBRANCH   1   2
BRANCH   1  26
ATOM     26  C   UNL A   1      36.367  23.045  24.643  1.00  0.00     0.042 C 
BRANCH  26  27
ATOM     27  C   UNL A   1      36.933  23.024  26.045  1.00  0.00     0.118 C 
BRANCH  27  28
ATOM     28  N   UNL A   1      37.987  22.019  26.229  1.00  0.00    -0.352 N 
ATOM     29  C   UNL A   1      39.346  22.242  26.410  1.00  0.00     0.251 C 
ATOM     30  H   UNL A   1      37.697  21.079  26.225  1.00  0.00     0.163 HD
ATOM     31  O   UNL A   1      40.160  21.359  26.214  1.00  0.00    -0.269 OA
BRANCH  29  32
ATOM     32  C   UNL A   1      39.766  23.579  26.875  1.00  0.00     0.039 A 
ATOM     33  C   UNL A   1      39.081  24.754  26.551  1.00  0.00     0.014 A 
ATOM     34  C   UNL A   1      40.893  23.616  27.688  1.00  0.00     0.014 A 
ATOM     35  C   UNL A   1      39.540  25.956  27.085  1.00  0.00     0.010 A 
ATOM     36  C   UNL A   1      41.162  24.729  28.417  1.00  0.00     0.010 A 
ATOM     37  C   UNL A   1      40.592  25.923  28.011  1.00  0.00    -0.014 A 
BRANCH  37  38
ATOM     38  C   UNL A   1      41.132  27.104  28.656  1.00  0.00     0.031 A 
ATOM     39  C   UNL A   1      42.439  27.531  28.105  1.00  0.00     0.074 A 
ATOM     40  C   UNL A   1      40.344  27.878  29.439  1.00  0.00     0.049 A 
ATOM     41  N   UNL A   1      43.588  27.499  28.694  1.00  0.00    -0.248 NA
ATOM     42  C   UNL A   1      42.515  27.850  26.669  1.00  0.00     0.031 C 
ATOM     43  C   UNL A   1      38.911  27.706  29.742  1.00  0.00     0.029 A 
ATOM     44  N   UNL A   1      40.610  29.085  30.000  1.00  0.00    -0.354 N 
ATOM     45  C   UNL A   1      44.479  28.059  27.781  1.00  0.00     0.074 A 
ATOM     46  C   UNL A   1      43.831  27.993  26.501  1.00  0.00     0.031 C 
ATOM     47  C   UNL A   1      38.398  28.871  30.196  1.00  0.00     0.029 A 
ATOM     48  C   UNL A   1      39.483  29.813  30.376  1.00  0.00     0.049 A 
ATOM     49  H   UNL A   1      41.528  29.418  30.131  1.00  0.00     0.167 HD
ATOM     50  C   UNL A   1      45.532  28.812  28.203  1.00  0.00     0.034 A 
ATOM     51  C   UNL A   1      39.450  31.117  30.754  1.00  0.00     0.034 A 
ATOM     52  C   UNL A   1      45.744  28.649  29.622  1.00  0.00     0.049 A 
ATOM     53  C   UNL A   1      40.830  31.479  31.148  1.00  0.00     0.074 A 
ATOM     54  C   UNL A   1      46.021  27.583  30.453  1.00  0.00     0.029 A 
ATOM     55  N   UNL A   1      45.254  29.647  30.432  1.00  0.00    -0.354 N 
ATOM     56  N   UNL A   1      41.447  30.942  32.164  1.00  0.00    -0.248 NA
ATOM     57  C   UNL A   1      41.687  32.067  30.132  1.00  0.00     0.031 C 
ATOM     58  C   UNL A   1      45.245  27.826  31.627  1.00  0.00     0.029 A 
ATOM     59  C   UNL A   1      44.604  29.058  31.483  1.00  0.00     0.049 A 
ATOM     60  H   UNL A   1      45.353  30.614  30.282  1.00  0.00     0.167 HD
ATOM     61  C   UNL A   1      42.733  30.702  31.698  1.00  0.00     0.074 A 
ATOM     62  C   UNL A   1      42.852  31.511  30.483  1.00  0.00     0.031 C 
ATOM     63  C   UNL A   1      43.463  29.643  32.157  1.00  0.00     0.034 A 
BRANCH  50  64
ATOM     64  C   UNL A   1      46.116  29.996  27.458  1.00  0.00     0.023 A 
ATOM     65  C   UNL A   1      47.513  30.184  27.561  1.00  0.00     0.012 A 
ATOM     66  C   UNL A   1      45.372  31.064  26.904  1.00  0.00     0.148 A 
ATOM     67  C   UNL A   1      48.125  31.389  27.202  1.00  0.00     0.002 A 
ATOM     68  C   UNL A   1      45.993  32.232  26.477  1.00  0.00     0.091 A 
ATOM     69  F   UNL A   1      44.039  31.029  26.900  1.00  0.00    -0.205 F 
ATOM     70  C   UNL A   1      47.365  32.414  26.656  1.00  0.00     0.022 A 
BRANCH  68  71
ATOM     71  S   UNL A   1      45.063  33.578  25.728  1.00  0.00     0.127 S 
ATOM     72  O   UNL A   1      44.278  34.055  26.862  1.00  0.00    -0.237 OA
ATOM     73  O   UNL A   1      46.136  34.473  25.294  1.00  0.00    -0.237 OA
ATOM     74  O   UNL A   1      44.312  32.975  24.635  1.00  0.00    -0.744 OA
ENDBRANCH  68  71
ENDBRANCH  50  64
BRANCH  51  75
ATOM     75  C   UNL A   1      38.404  32.144  30.525  1.00  0.00     0.023 A 
ATOM     76  C   UNL A   1      37.909  32.381  29.227  1.00  0.00     0.012 A 
ATOM     77  C   UNL A   1      37.687  32.687  31.615  1.00  0.00     0.148 A 
ATOM     78  C   UNL A   1      36.728  33.110  29.023  1.00  0.00     0.002 A 
ATOM     79  C   UNL A   1      36.514  33.408  31.407  1.00  0.00     0.091 A 
ATOM     80  F   UNL A   1      38.113  32.420  32.857  1.00  0.00    -0.205 F 
ATOM     81  C   UNL A   1      36.025  33.615  30.112  1.00  0.00     0.022 A 
BRANCH  79  82
ATOM     82  S   UNL A   1      35.525  34.037  32.768  1.00  0.00     0.127 S 
ATOM     83  O   UNL A   1      35.315  32.832  33.569  1.00  0.00    -0.237 OA
ATOM     84  O   UNL A   1      36.416  35.027  33.366  1.00  0.00    -0.237 OA
ATOM     85  O   UNL A   1      34.321  34.580  32.156  1.00  0.00    -0.744 OA
ENDBRANCH  79  82
ENDBRANCH  51  75
BRANCH  63  86
ATOM     86  C   UNL A   1      42.912  28.860  33.329  1.00  0.00     0.023 A 
ATOM     87  C   UNL A   1      41.886  27.899  33.186  1.00  0.00     0.012 A 
ATOM     88  C   UNL A   1      43.578  28.954  34.560  1.00  0.00     0.148 A 
ATOM     89  C   UNL A   1      41.525  27.064  34.247  1.00  0.00     0.002 A 
ATOM     90  C   UNL A   1      43.249  28.091  35.599  1.00  0.00     0.091 A 
ATOM     91  F   UNL A   1      44.559  29.861  34.678  1.00  0.00    -0.205 F 
ATOM     92  C   UNL A   1      42.216  27.151  35.451  1.00  0.00     0.022 A 
BRANCH  90  93
ATOM     93  S   UNL A   1      44.183  28.061  37.130  1.00  0.00     0.127 S 
ATOM     94  O   UNL A   1      45.537  27.788  36.656  1.00  0.00    -0.237 OA
ATOM     95  O   UNL A   1      43.975  29.415  37.646  1.00  0.00    -0.237 OA
ATOM     96  O   UNL A   1      43.585  27.012  37.947  1.00  0.00    -0.744 OA
ENDBRANCH  90  93
ENDBRANCH  63  86
ENDBRANCH  37  38
ENDBRANCH  29  32
ENDBRANCH  27  28
ENDBRANCH  26  27
ENDBRANCH   1  26
TORSDOF 18
ENDMDL
