MODEL 1
REMARK VINA RESULT:     -11.1      0.000      0.000
REMARK SMILES C[C@H]([C@@H](C)O)[N@H+]1CC[C@@](C)(C(=O)NCCCNC(=O)c2ccc(-c3c4nc(c(-c5cccc(S(=O)(=O)[O-])c5F)c5ccc([nH]5)c(-c5cccc(S(=O)(=O)[O-])c5F)c5nc(c(-c6cccc(S(=O)(=O)[O-])c6F)c6ccc3[nH]6)C=C5)C=C4)cc2)C1
REMARK SMILES IDX 15 1 14 2 13 3 11 4 12 5 9 7 6 8 7 9 83 10 8 12 10 13 2 14
REMARK SMILES IDX 1 15 3 16 4 17 5 18 16 20 17 21 18 22 19 24 20 25 21 26
REMARK SMILES IDX 82 27 22 28 81 29 23 30 24 31 25 32 75 33 26 34 80 35 74 36
REMARK SMILES IDX 76 37 27 38 79 39 73 40 72 41 28 43 60 44 40 45 59 46 41 47
REMARK SMILES IDX 44 48 58 49 77 50 42 51 43 52 57 54 78 55 45 56 29 57 30 58
REMARK SMILES IDX 38 59 31 60 33 61 39 62 32 63 34 64 35 65 36 66 37 67 61 68
REMARK SMILES IDX 62 69 70 70 63 71 65 72 71 73 64 74 66 75 67 76 68 77 69 78
REMARK SMILES IDX 46 79 47 80 55 81 48 82 50 83 56 84 49 85 51 86 52 87 53 88
REMARK SMILES IDX 54 89
REMARK H PARENT 13 6 6 11 5 19 17 23 76 42 44 53
REMARK Flexibility Score: inf
ROOT
ATOM      1  C   UNL A   1      31.457  32.361  26.769  1.00  0.00     0.042 C 
ENDROOT
BRANCH   1   2
ATOM      2  C   UNL A   1      31.649  30.959  26.202  1.00  0.00     0.117 C 
BRANCH   2   3
ATOM      3  N   UNL A   1      33.002  30.468  26.411  1.00  0.00    -0.355 N 
ATOM      4  C   UNL A   1      33.503  29.205  26.529  1.00  0.00     0.231 C 
ATOM      5  O   UNL A   1      34.724  29.126  26.683  1.00  0.00    -0.274 OA
ATOM      6  H   UNL A   1      33.680  31.177  26.479  1.00  0.00     0.163 HD
BRANCH   4   7
ATOM      7  C   UNL A   1      32.602  27.959  26.406  1.00  0.00     0.100 C 
ATOM      8  N   UNL A   1      32.328  26.910  24.237  1.00  0.00    -0.330 N 
ATOM      9  C   UNL A   1      33.641  26.552  24.758  1.00  0.00     0.263 C 
ATOM     10  C   UNL A   1      31.806  28.000  25.068  1.00  0.00     0.279 C 
ATOM     11  H   UNL A   1      31.667  26.138  24.326  1.00  0.00     0.348 HD
ATOM     12  C   UNL A   1      33.423  26.668  26.254  1.00  0.00     0.084 C 
ATOM     13  C   UNL A   1      31.636  27.923  27.605  1.00  0.00     0.028 C 
BRANCH   8  14
ATOM     14  C   UNL A   1      32.289  27.070  22.774  1.00  0.00     0.209 C 
ATOM     15  C   UNL A   1      30.877  27.213  22.174  1.00  0.00     0.078 C 
BRANCH  14  16
ATOM     16  C   UNL A   1      33.146  25.988  22.040  1.00  0.00     0.169 C 
ATOM     17  C   UNL A   1      32.606  24.563  22.082  1.00  0.00     0.045 C 
BRANCH  16  18
ATOM     18  O   UNL A   1      33.321  26.335  20.657  1.00  0.00    -0.387 OA
ATOM     19  H   UNL A   1      32.913  25.655  20.098  1.00  0.00     0.211 HD
ENDBRANCH  16  18
ENDBRANCH  14  16
ENDBRANCH   8  14
ENDBRANCH   4   7
ENDBRANCH   2   3
ENDBRANCH   1   2
BRANCH   1  20
ATOM     20  C   UNL A   1      32.755  33.037  27.194  1.00  0.00     0.118 C 
BRANCH  20  21
ATOM     21  N   UNL A   1      32.528  34.310  27.864  1.00  0.00    -0.352 N 
ATOM     22  C   UNL A   1      33.145  34.831  28.977  1.00  0.00     0.251 C 
ATOM     23  H   UNL A   1      31.832  34.880  27.462  1.00  0.00     0.163 HD
ATOM     24  O   UNL A   1      32.688  35.835  29.516  1.00  0.00    -0.269 OA
BRANCH  22  25
ATOM     25  C   UNL A   1      34.346  34.169  29.530  1.00  0.00     0.039 A 
ATOM     26  C   UNL A   1      35.608  34.530  29.051  1.00  0.00     0.014 A 
ATOM     27  C   UNL A   1      34.223  33.198  30.526  1.00  0.00     0.014 A 
ATOM     28  C   UNL A   1      36.752  33.972  29.626  1.00  0.00     0.010 A 
ATOM     29  C   UNL A   1      35.362  32.703  31.150  1.00  0.00     0.010 A 
ATOM     30  C   UNL A   1      36.638  33.082  30.708  1.00  0.00    -0.014 A 
BRANCH  30  31
ATOM     31  C   UNL A   1      37.829  32.529  31.403  1.00  0.00     0.031 A 
ATOM     32  C   UNL A   1      38.587  31.384  30.789  1.00  0.00     0.074 A 
ATOM     33  C   UNL A   1      38.148  32.970  32.637  1.00  0.00     0.049 A 
ATOM     34  N   UNL A   1      39.549  30.662  31.301  1.00  0.00    -0.248 NA
ATOM     35  C   UNL A   1      38.186  30.973  29.433  1.00  0.00     0.031 C 
ATOM     36  C   UNL A   1      37.445  34.027  33.368  1.00  0.00     0.029 A 
ATOM     37  N   UNL A   1      39.121  32.552  33.512  1.00  0.00    -0.354 N 
ATOM     38  C   UNL A   1      39.835  29.685  30.354  1.00  0.00     0.074 A 
ATOM     39  C   UNL A   1      38.926  29.890  29.249  1.00  0.00     0.031 C 
ATOM     40  C   UNL A   1      38.005  34.170  34.580  1.00  0.00     0.029 A 
ATOM     41  C   UNL A   1      39.080  33.195  34.729  1.00  0.00     0.049 A 
ATOM     42  H   UNL A   1      39.784  31.860  33.289  1.00  0.00     0.167 HD
ATOM     43  C   UNL A   1      40.787  28.723  30.390  1.00  0.00     0.034 A 
ATOM     44  C   UNL A   1      39.814  33.006  35.843  1.00  0.00     0.034 A 
ATOM     45  C   UNL A   1      41.726  28.563  31.465  1.00  0.00     0.049 A 
ATOM     46  C   UNL A   1      40.896  31.958  35.838  1.00  0.00     0.074 A 
ATOM     47  C   UNL A   1      42.786  27.679  31.554  1.00  0.00     0.029 A 
ATOM     48  N   UNL A   1      41.722  29.304  32.636  1.00  0.00    -0.354 N 
ATOM     49  N   UNL A   1      41.246  31.141  34.876  1.00  0.00    -0.248 NA
ATOM     50  C   UNL A   1      41.702  31.828  37.060  1.00  0.00     0.031 C 
ATOM     51  C   UNL A   1      43.417  27.877  32.787  1.00  0.00     0.029 A 
ATOM     52  C   UNL A   1      42.759  28.897  33.456  1.00  0.00     0.049 A 
ATOM     53  H   UNL A   1      41.078  30.015  32.852  1.00  0.00     0.167 HD
ATOM     54  C   UNL A   1      42.338  30.428  35.359  1.00  0.00     0.074 A 
ATOM     55  C   UNL A   1      42.599  30.921  36.696  1.00  0.00     0.031 C 
ATOM     56  C   UNL A   1      43.049  29.446  34.756  1.00  0.00     0.034 A 
BRANCH  43  57
ATOM     57  C   UNL A   1      40.899  27.805  29.202  1.00  0.00     0.023 A 
ATOM     58  C   UNL A   1      40.108  26.640  29.149  1.00  0.00     0.012 A 
ATOM     59  C   UNL A   1      41.739  28.121  28.115  1.00  0.00     0.148 A 
ATOM     60  C   UNL A   1      40.173  25.785  28.050  1.00  0.00     0.002 A 
ATOM     61  C   UNL A   1      41.766  27.286  27.004  1.00  0.00     0.091 A 
ATOM     62  F   UNL A   1      42.500  29.221  28.193  1.00  0.00    -0.205 F 
ATOM     63  C   UNL A   1      40.994  26.113  26.974  1.00  0.00     0.022 A 
BRANCH  61  64
ATOM     64  S   UNL A   1      42.731  27.662  25.535  1.00  0.00     0.127 S 
ATOM     65  O   UNL A   1      42.517  26.461  24.728  1.00  0.00    -0.237 OA
ATOM     66  O   UNL A   1      42.066  28.863  25.028  1.00  0.00    -0.237 OA
ATOM     67  O   UNL A   1      44.095  27.873  25.995  1.00  0.00    -0.744 OA
ENDBRANCH  61  64
ENDBRANCH  43  57
BRANCH  44  68
ATOM     68  C   UNL A   1      39.596  33.875  37.035  1.00  0.00     0.023 A 
ATOM     69  C   UNL A   1      40.010  35.221  36.987  1.00  0.00     0.012 A 
ATOM     70  C   UNL A   1      38.960  33.393  38.194  1.00  0.00     0.148 A 
ATOM     71  C   UNL A   1      39.823  36.062  38.084  1.00  0.00     0.002 A 
ATOM     72  C   UNL A   1      38.728  34.252  39.264  1.00  0.00     0.091 A 
ATOM     73  F   UNL A   1      38.584  32.107  38.226  1.00  0.00    -0.205 F 
ATOM     74  C   UNL A   1      39.174  35.582  39.217  1.00  0.00     0.022 A 
BRANCH  72  75
ATOM     75  S   UNL A   1      37.781  33.754  40.707  1.00  0.00     0.127 S 
ATOM     76  O   UNL A   1      36.617  33.117  40.096  1.00  0.00    -0.237 OA
ATOM     77  O   UNL A   1      38.705  32.838  41.376  1.00  0.00    -0.237 OA
ATOM     78  O   UNL A   1      37.520  34.983  41.445  1.00  0.00    -0.744 OA
ENDBRANCH  72  75
ENDBRANCH  44  68
BRANCH  56  79
ATOM     79  C   UNL A   1      44.214  28.857  35.507  1.00  0.00     0.023 A 
ATOM     80  C   UNL A   1      45.493  29.431  35.376  1.00  0.00     0.012 A 
ATOM     81  C   UNL A   1      44.016  27.801  36.419  1.00  0.00     0.148 A 
ATOM     82  C   UNL A   1      46.564  28.950  36.127  1.00  0.00     0.002 A 
ATOM     83  C   UNL A   1      45.077  27.357  37.198  1.00  0.00     0.091 A 
ATOM     84  F   UNL A   1      42.793  27.258  36.514  1.00  0.00    -0.205 F 
ATOM     85  C   UNL A   1      46.354  27.924  37.046  1.00  0.00     0.022 A 
BRANCH  83  86
ATOM     86  S   UNL A   1      44.880  26.109  38.474  1.00  0.00     0.127 S 
ATOM     87  O   UNL A   1      46.186  26.145  39.130  1.00  0.00    -0.237 OA
ATOM     88  O   UNL A   1      43.781  26.654  39.274  1.00  0.00    -0.237 OA
ATOM     89  O   UNL A   1      44.564  24.869  37.780  1.00  0.00    -0.744 OA
ENDBRANCH  83  86
ENDBRANCH  56  79
ENDBRANCH  30  31
ENDBRANCH  22  25
ENDBRANCH  20  21
ENDBRANCH   1  20
TORSDOF 16
ENDMDL
MODEL 2
REMARK VINA RESULT:     -11.0      1.557      2.080
REMARK SMILES C[C@H]([C@@H](C)O)[N@H+]1CC[C@@](C)(C(=O)NCCCNC(=O)c2ccc(-c3c4nc(c(-c5cccc(S(=O)(=O)[O-])c5F)c5ccc([nH]5)c(-c5cccc(S(=O)(=O)[O-])c5F)c5nc(c(-c6cccc(S(=O)(=O)[O-])c6F)c6ccc3[nH]6)C=C5)C=C4)cc2)C1
REMARK SMILES IDX 15 1 14 2 13 3 11 4 12 5 9 7 6 8 7 9 83 10 8 12 10 13 2 14
REMARK SMILES IDX 1 15 3 16 4 17 5 18 16 20 17 21 18 22 19 24 20 25 21 26
REMARK SMILES IDX 82 27 22 28 81 29 23 30 24 31 25 32 75 33 26 34 80 35 74 36
REMARK SMILES IDX 76 37 27 38 79 39 73 40 72 41 28 43 60 44 40 45 59 46 41 47
REMARK SMILES IDX 44 48 58 49 77 50 42 51 43 52 57 54 78 55 45 56 29 57 30 58
REMARK SMILES IDX 38 59 31 60 33 61 39 62 32 63 34 64 35 65 36 66 37 67 61 68
REMARK SMILES IDX 62 69 70 70 63 71 65 72 71 73 64 74 66 75 67 76 68 77 69 78
REMARK SMILES IDX 46 79 47 80 55 81 48 82 50 83 56 84 49 85 51 86 52 87 53 88
REMARK SMILES IDX 54 89
REMARK H PARENT 13 6 6 11 5 19 17 23 76 42 44 53
REMARK Flexibility Score: inf
ROOT
ATOM      1  C   UNL A   1      31.893  31.564  26.602  1.00  0.00     0.042 C 
ENDROOT
BRANCH   1   2
ATOM      2  C   UNL A   1      32.189  30.083  26.395  1.00  0.00     0.117 C 
BRANCH   2   3
ATOM      3  N   UNL A   1      33.046  29.855  25.243  1.00  0.00    -0.355 N 
ATOM      4  C   UNL A   1      32.890  29.077  24.133  1.00  0.00     0.231 C 
ATOM      5  O   UNL A   1      33.813  29.121  23.315  1.00  0.00    -0.274 OA
ATOM      6  H   UNL A   1      33.894  30.354  25.267  1.00  0.00     0.163 HD
BRANCH   4   7
ATOM      7  C   UNL A   1      31.609  28.253  23.892  1.00  0.00     0.100 C 
ATOM      8  N   UNL A   1      29.602  29.385  23.137  1.00  0.00    -0.330 N 
ATOM      9  C   UNL A   1      30.515  29.267  22.008  1.00  0.00     0.263 C 
ATOM     10  C   UNL A   1      30.357  29.058  24.351  1.00  0.00     0.279 C 
ATOM     11  H   UNL A   1      28.844  28.705  23.077  1.00  0.00     0.348 HD
ATOM     12  C   UNL A   1      31.330  28.048  22.394  1.00  0.00     0.084 C 
ATOM     13  C   UNL A   1      31.713  26.930  24.673  1.00  0.00     0.028 C 
BRANCH   8  14
ATOM     14  C   UNL A   1      28.798  30.619  23.128  1.00  0.00     0.209 C 
ATOM     15  C   UNL A   1      27.281  30.405  23.291  1.00  0.00     0.078 C 
BRANCH  14  16
ATOM     16  C   UNL A   1      29.147  31.541  21.915  1.00  0.00     0.169 C 
ATOM     17  C   UNL A   1      28.045  31.732  20.879  1.00  0.00     0.045 C 
BRANCH  16  18
ATOM     18  O   UNL A   1      29.534  32.847  22.369  1.00  0.00    -0.387 OA
ATOM     19  H   UNL A   1      29.649  32.835  23.332  1.00  0.00     0.211 HD
ENDBRANCH  16  18
ENDBRANCH  14  16
ENDBRANCH   8  14
ENDBRANCH   4   7
ENDBRANCH   2   3
ENDBRANCH   1   2
BRANCH   1  20
ATOM     20  C   UNL A   1      33.036  32.336  27.250  1.00  0.00     0.118 C 
BRANCH  20  21
ATOM     21  N   UNL A   1      32.667  33.706  27.581  1.00  0.00    -0.352 N 
ATOM     22  C   UNL A   1      33.135  34.515  28.588  1.00  0.00     0.251 C 
ATOM     23  H   UNL A   1      31.983  34.111  26.999  1.00  0.00     0.163 HD
ATOM     24  O   UNL A   1      32.567  35.575  28.837  1.00  0.00    -0.269 OA
BRANCH  22  25
ATOM     25  C   UNL A   1      34.311  34.096  29.381  1.00  0.00     0.039 A 
ATOM     26  C   UNL A   1      34.117  33.422  30.589  1.00  0.00     0.014 A 
ATOM     27  C   UNL A   1      35.604  34.364  28.925  1.00  0.00     0.014 A 
ATOM     28  C   UNL A   1      35.221  32.949  31.303  1.00  0.00     0.010 A 
ATOM     29  C   UNL A   1      36.696  33.824  29.595  1.00  0.00     0.010 A 
ATOM     30  C   UNL A   1      36.518  33.113  30.790  1.00  0.00    -0.014 A 
BRANCH  30  31
ATOM     31  C   UNL A   1      37.713  32.553  31.473  1.00  0.00     0.031 A 
ATOM     32  C   UNL A   1      38.474  31.422  30.837  1.00  0.00     0.074 A 
ATOM     33  C   UNL A   1      38.033  32.974  32.713  1.00  0.00     0.049 A 
ATOM     34  N   UNL A   1      39.441  30.695  31.334  1.00  0.00    -0.248 NA
ATOM     35  C   UNL A   1      38.071  31.032  29.475  1.00  0.00     0.031 C 
ATOM     36  C   UNL A   1      37.329  34.015  33.464  1.00  0.00     0.029 A 
ATOM     37  N   UNL A   1      39.011  32.545  33.578  1.00  0.00    -0.354 N 
ATOM     38  C   UNL A   1      39.728  29.736  30.370  1.00  0.00     0.074 A 
ATOM     39  C   UNL A   1      38.815  29.955  29.271  1.00  0.00     0.031 C 
ATOM     40  C   UNL A   1      37.891  34.140  34.677  1.00  0.00     0.029 A 
ATOM     41  C   UNL A   1      38.971  33.167  34.806  1.00  0.00     0.049 A 
ATOM     42  H   UNL A   1      39.677  31.860  33.342  1.00  0.00     0.167 HD
ATOM     43  C   UNL A   1      40.684  28.777  30.387  1.00  0.00     0.034 A 
ATOM     44  C   UNL A   1      39.709  32.962  35.915  1.00  0.00     0.034 A 
ATOM     45  C   UNL A   1      41.628  28.604  31.456  1.00  0.00     0.049 A 
ATOM     46  C   UNL A   1      40.795  31.920  35.889  1.00  0.00     0.074 A 
ATOM     47  C   UNL A   1      42.692  27.722  31.528  1.00  0.00     0.029 A 
ATOM     48  N   UNL A   1      41.624  29.325  32.640  1.00  0.00    -0.354 N 
ATOM     49  N   UNL A   1      41.146  31.121  34.912  1.00  0.00    -0.248 NA
ATOM     50  C   UNL A   1      41.605  31.772  37.107  1.00  0.00     0.031 C 
ATOM     51  C   UNL A   1      43.325  27.902  32.761  1.00  0.00     0.029 A 
ATOM     52  C   UNL A   1      42.665  28.908  33.449  1.00  0.00     0.049 A 
ATOM     53  H   UNL A   1      40.977  30.029  32.869  1.00  0.00     0.167 HD
ATOM     54  C   UNL A   1      42.242  30.405  35.380  1.00  0.00     0.074 A 
ATOM     55  C   UNL A   1      42.505  30.876  36.724  1.00  0.00     0.031 C 
ATOM     56  C   UNL A   1      42.957  29.436  34.758  1.00  0.00     0.034 A 
BRANCH  43  57
ATOM     57  C   UNL A   1      40.798  27.881  29.183  1.00  0.00     0.023 A 
ATOM     58  C   UNL A   1      40.015  26.710  29.114  1.00  0.00     0.012 A 
ATOM     59  C   UNL A   1      41.629  28.221  28.097  1.00  0.00     0.148 A 
ATOM     60  C   UNL A   1      40.081  25.875  28.001  1.00  0.00     0.002 A 
ATOM     61  C   UNL A   1      41.657  27.405  26.972  1.00  0.00     0.091 A 
ATOM     62  F   UNL A   1      42.382  29.326  28.189  1.00  0.00    -0.205 F 
ATOM     63  C   UNL A   1      40.893  26.226  26.926  1.00  0.00     0.022 A 
BRANCH  61  64
ATOM     64  S   UNL A   1      42.610  27.813  25.505  1.00  0.00     0.127 S 
ATOM     65  O   UNL A   1      42.430  26.610  24.692  1.00  0.00    -0.237 OA
ATOM     66  O   UNL A   1      41.912  28.998  25.002  1.00  0.00    -0.237 OA
ATOM     67  O   UNL A   1      43.969  28.060  25.965  1.00  0.00    -0.744 OA
ENDBRANCH  61  64
ENDBRANCH  43  57
BRANCH  44  68
ATOM     68  C   UNL A   1      39.490  33.810  37.121  1.00  0.00     0.023 A 
ATOM     69  C   UNL A   1      39.931  35.149  37.108  1.00  0.00     0.012 A 
ATOM     70  C   UNL A   1      38.829  33.317  38.261  1.00  0.00     0.148 A 
ATOM     71  C   UNL A   1      39.744  35.970  38.221  1.00  0.00     0.002 A 
ATOM     72  C   UNL A   1      38.598  34.157  39.346  1.00  0.00     0.091 A 
ATOM     73  F   UNL A   1      38.428  32.037  38.260  1.00  0.00    -0.205 F 
ATOM     74  C   UNL A   1      39.070  35.478  39.334  1.00  0.00     0.022 A 
BRANCH  72  75
ATOM     75  S   UNL A   1      37.621  33.647  40.765  1.00  0.00     0.127 S 
ATOM     76  O   UNL A   1      36.434  33.085  40.124  1.00  0.00    -0.237 OA
ATOM     77  O   UNL A   1      38.500  32.667  41.403  1.00  0.00    -0.237 OA
ATOM     78  O   UNL A   1      37.409  34.858  41.548  1.00  0.00    -0.744 OA
ENDBRANCH  72  75
ENDBRANCH  44  68
BRANCH  56  79
ATOM     79  C   UNL A   1      44.126  28.840  35.495  1.00  0.00     0.023 A 
ATOM     80  C   UNL A   1      45.405  29.411  35.357  1.00  0.00     0.012 A 
ATOM     81  C   UNL A   1      43.932  27.779  36.403  1.00  0.00     0.148 A 
ATOM     82  C   UNL A   1      46.481  28.922  36.096  1.00  0.00     0.002 A 
ATOM     83  C   UNL A   1      44.999  27.328  37.171  1.00  0.00     0.091 A 
ATOM     84  F   UNL A   1      42.709  27.239  36.506  1.00  0.00    -0.205 F 
ATOM     85  C   UNL A   1      46.276  27.892  37.011  1.00  0.00     0.022 A 
BRANCH  83  86
ATOM     86  S   UNL A   1      44.809  26.074  38.442  1.00  0.00     0.127 S 
ATOM     87  O   UNL A   1      46.167  25.982  38.975  1.00  0.00    -0.237 OA
ATOM     88  O   UNL A   1      43.839  26.693  39.347  1.00  0.00    -0.237 OA
ATOM     89  O   UNL A   1      44.324  24.880  37.762  1.00  0.00    -0.744 OA
ENDBRANCH  83  86
ENDBRANCH  56  79
ENDBRANCH  30  31
ENDBRANCH  22  25
ENDBRANCH  20  21
ENDBRANCH   1  20
TORSDOF 16
ENDMDL
MODEL 3
REMARK VINA RESULT:     -11.0      3.081      4.012
REMARK SMILES C[C@H]([C@@H](C)O)[N@H+]1CC[C@@](C)(C(=O)NCCCNC(=O)c2ccc(-c3c4nc(c(-c5cccc(S(=O)(=O)[O-])c5F)c5ccc([nH]5)c(-c5cccc(S(=O)(=O)[O-])c5F)c5nc(c(-c6cccc(S(=O)(=O)[O-])c6F)c6ccc3[nH]6)C=C5)C=C4)cc2)C1
REMARK SMILES IDX 15 1 14 2 13 3 11 4 12 5 9 7 6 8 7 9 83 10 8 12 10 13 2 14
REMARK SMILES IDX 1 15 3 16 4 17 5 18 16 20 17 21 18 22 19 24 20 25 21 26
REMARK SMILES IDX 82 27 22 28 81 29 23 30 24 31 25 32 75 33 26 34 80 35 74 36
REMARK SMILES IDX 76 37 27 38 79 39 73 40 72 41 28 43 60 44 40 45 59 46 41 47
REMARK SMILES IDX 44 48 58 49 77 50 42 51 43 52 57 54 78 55 45 56 29 57 30 58
REMARK SMILES IDX 38 59 31 60 33 61 39 62 32 63 34 64 35 65 36 66 37 67 61 68
REMARK SMILES IDX 62 69 70 70 63 71 65 72 71 73 64 74 66 75 67 76 68 77 69 78
REMARK SMILES IDX 46 79 47 80 55 81 48 82 50 83 56 84 49 85 51 86 52 87 53 88
REMARK SMILES IDX 54 89
REMARK H PARENT 13 6 6 11 5 19 17 23 76 42 44 53
REMARK Flexibility Score: inf
ROOT
ATOM      1  C   UNL A   1      32.039  28.156  25.782  1.00  0.00     0.042 C 
ENDROOT
BRANCH   1   2
ATOM      2  C   UNL A   1      32.658  26.975  26.521  1.00  0.00     0.117 C 
BRANCH   2   3
ATOM      3  N   UNL A   1      33.653  26.289  25.714  1.00  0.00    -0.355 N 
ATOM      4  C   UNL A   1      33.653  25.063  25.118  1.00  0.00     0.231 C 
ATOM      5  O   UNL A   1      34.667  24.780  24.474  1.00  0.00    -0.274 OA
ATOM      6  H   UNL A   1      34.480  26.804  25.572  1.00  0.00     0.163 HD
BRANCH   4   7
ATOM      7  C   UNL A   1      32.430  24.125  25.190  1.00  0.00     0.100 C 
ATOM      8  N   UNL A   1      32.754  21.810  25.837  1.00  0.00    -0.330 N 
ATOM      9  C   UNL A   1      32.844  22.639  27.032  1.00  0.00     0.263 C 
ATOM     10  C   UNL A   1      32.810  22.705  24.676  1.00  0.00     0.279 C 
ATOM     11  H   UNL A   1      31.858  21.326  25.784  1.00  0.00     0.348 HD
ATOM     12  C   UNL A   1      32.007  23.841  26.640  1.00  0.00     0.084 C 
ATOM     13  C   UNL A   1      31.295  24.720  24.336  1.00  0.00     0.028 C 
BRANCH   8  14
ATOM     14  C   UNL A   1      33.642  20.637  25.855  1.00  0.00     0.209 C 
ATOM     15  C   UNL A   1      34.966  20.814  25.086  1.00  0.00     0.078 C 
BRANCH  14  16
ATOM     16  C   UNL A   1      32.892  19.323  25.462  1.00  0.00     0.169 C 
ATOM     17  C   UNL A   1      33.502  18.516  24.321  1.00  0.00     0.045 C 
BRANCH  16  18
ATOM     18  O   UNL A   1      32.785  18.445  26.594  1.00  0.00    -0.387 OA
ATOM     19  H   UNL A   1      32.891  17.526  26.301  1.00  0.00     0.211 HD
ENDBRANCH  16  18
ENDBRANCH  14  16
ENDBRANCH   8  14
ENDBRANCH   4   7
ENDBRANCH   2   3
ENDBRANCH   1   2
BRANCH   1  20
ATOM     20  C   UNL A   1      33.012  29.300  25.526  1.00  0.00     0.118 C 
BRANCH  20  21
ATOM     21  N   UNL A   1      32.520  30.575  26.030  1.00  0.00    -0.352 N 
ATOM     22  C   UNL A   1      33.029  31.373  27.027  1.00  0.00     0.251 C 
ATOM     23  H   UNL A   1      31.705  30.915  25.593  1.00  0.00     0.163 HD
ATOM     24  O   UNL A   1      32.370  32.319  27.451  1.00  0.00    -0.269 OA
BRANCH  22  25
ATOM     25  C   UNL A   1      34.360  31.077  27.598  1.00  0.00     0.039 A 
ATOM     26  C   UNL A   1      35.298  32.106  27.715  1.00  0.00     0.014 A 
ATOM     27  C   UNL A   1      34.676  29.785  28.025  1.00  0.00     0.014 A 
ATOM     28  C   UNL A   1      36.528  31.855  28.330  1.00  0.00     0.010 A 
ATOM     29  C   UNL A   1      35.865  29.557  28.707  1.00  0.00     0.010 A 
ATOM     30  C   UNL A   1      36.805  30.586  28.866  1.00  0.00    -0.014 A 
BRANCH  30  31
ATOM     31  C   UNL A   1      38.063  30.298  29.601  1.00  0.00     0.031 A 
ATOM     32  C   UNL A   1      39.059  29.329  29.024  1.00  0.00     0.074 A 
ATOM     33  C   UNL A   1      38.248  30.805  30.837  1.00  0.00     0.049 A 
ATOM     34  N   UNL A   1      40.135  28.827  29.572  1.00  0.00    -0.248 NA
ATOM     35  C   UNL A   1      38.791  28.833  27.664  1.00  0.00     0.031 C 
ATOM     36  C   UNL A   1      37.321  31.700  31.533  1.00  0.00     0.029 A 
ATOM     37  N   UNL A   1      39.260  30.606  31.743  1.00  0.00    -0.354 N 
ATOM     38  C   UNL A   1      40.643  27.922  28.648  1.00  0.00     0.074 A 
ATOM     39  C   UNL A   1      39.745  27.924  27.516  1.00  0.00     0.031 C 
ATOM     40  C   UNL A   1      37.803  31.967  32.758  1.00  0.00     0.029 A 
ATOM     41  C   UNL A   1      39.052  31.236  32.949  1.00  0.00     0.049 A 
ATOM     42  H   UNL A   1      40.059  30.064  31.548  1.00  0.00     0.167 HD
ATOM     43  C   UNL A   1      41.772  27.178  28.723  1.00  0.00     0.034 A 
ATOM     44  C   UNL A   1      39.776  31.213  34.086  1.00  0.00     0.034 A 
ATOM     45  C   UNL A   1      42.693  27.226  29.825  1.00  0.00     0.049 A 
ATOM     46  C   UNL A   1      41.050  30.413  34.125  1.00  0.00     0.074 A 
ATOM     47  C   UNL A   1      43.910  26.581  29.956  1.00  0.00     0.029 A 
ATOM     48  N   UNL A   1      42.501  27.960  30.985  1.00  0.00    -0.354 N 
ATOM     49  N   UNL A   1      41.590  29.677  33.184  1.00  0.00    -0.248 NA
ATOM     50  C   UNL A   1      41.830  30.462  35.370  1.00  0.00     0.031 C 
ATOM     51  C   UNL A   1      44.449  26.916  31.201  1.00  0.00     0.029 A 
ATOM     52  C   UNL A   1      43.576  27.783  31.837  1.00  0.00     0.049 A 
ATOM     53  H   UNL A   1      41.718  28.524  31.172  1.00  0.00     0.167 HD
ATOM     54  C   UNL A   1      42.791  29.210  33.707  1.00  0.00     0.074 A 
ATOM     55  C   UNL A   1      42.905  29.758  35.042  1.00  0.00     0.031 C 
ATOM     56  C   UNL A   1      43.708  28.391  33.137  1.00  0.00     0.034 A 
BRANCH  43  57
ATOM     57  C   UNL A   1      42.107  26.293  27.552  1.00  0.00     0.023 A 
ATOM     58  C   UNL A   1      42.798  26.835  26.449  1.00  0.00     0.012 A 
ATOM     59  C   UNL A   1      41.792  24.920  27.563  1.00  0.00     0.148 A 
ATOM     60  C   UNL A   1      43.142  26.034  25.362  1.00  0.00     0.002 A 
ATOM     61  C   UNL A   1      42.177  24.119  26.494  1.00  0.00     0.091 A 
ATOM     62  F   UNL A   1      41.116  24.427  28.610  1.00  0.00    -0.205 F 
ATOM     63  C   UNL A   1      42.841  24.675  25.388  1.00  0.00     0.022 A 
BRANCH  61  64
ATOM     64  S   UNL A   1      41.906  22.342  26.470  1.00  0.00     0.127 S 
ATOM     65  O   UNL A   1      40.477  22.267  26.167  1.00  0.00    -0.237 OA
ATOM     66  O   UNL A   1      42.782  21.911  25.380  1.00  0.00    -0.237 OA
ATOM     67  O   UNL A   1      42.293  21.860  27.787  1.00  0.00    -0.744 OA
ENDBRANCH  61  64
ENDBRANCH  43  57
BRANCH  44  68
ATOM     68  C   UNL A   1      39.348  32.029  35.258  1.00  0.00     0.023 A 
ATOM     69  C   UNL A   1      38.502  31.449  36.224  1.00  0.00     0.012 A 
ATOM     70  C   UNL A   1      39.791  33.353  35.438  1.00  0.00     0.148 A 
ATOM     71  C   UNL A   1      38.080  32.185  37.333  1.00  0.00     0.002 A 
ATOM     72  C   UNL A   1      39.410  34.061  36.573  1.00  0.00     0.091 A 
ATOM     73  F   UNL A   1      40.585  33.891  34.502  1.00  0.00    -0.205 F 
ATOM     74  C   UNL A   1      38.542  33.485  37.513  1.00  0.00     0.022 A 
BRANCH  72  75
ATOM     75  S   UNL A   1      40.064  35.691  36.952  1.00  0.00     0.127 S 
ATOM     76  O   UNL A   1      41.499  35.428  37.028  1.00  0.00    -0.237 OA
ATOM     77  O   UNL A   1      39.641  36.467  35.786  1.00  0.00    -0.237 OA
ATOM     78  O   UNL A   1      39.422  36.089  38.198  1.00  0.00    -0.744 OA
ENDBRANCH  72  75
ENDBRANCH  44  68
BRANCH  56  79
ATOM     79  C   UNL A   1      44.947  28.063  33.927  1.00  0.00     0.023 A 
ATOM     80  C   UNL A   1      46.052  28.934  33.888  1.00  0.00     0.012 A 
ATOM     81  C   UNL A   1      44.971  26.946  34.787  1.00  0.00     0.148 A 
ATOM     82  C   UNL A   1      47.174  28.687  34.678  1.00  0.00     0.002 A 
ATOM     83  C   UNL A   1      46.073  26.732  35.605  1.00  0.00     0.091 A 
ATOM     84  F   UNL A   1      43.914  26.121  34.794  1.00  0.00    -0.205 F 
ATOM     85  C   UNL A   1      47.179  27.597  35.545  1.00  0.00     0.022 A 
BRANCH  83  86
ATOM     86  S   UNL A   1      46.129  25.412  36.820  1.00  0.00     0.127 S 
ATOM     87  O   UNL A   1      45.003  25.756  37.687  1.00  0.00    -0.237 OA
ATOM     88  O   UNL A   1      45.922  24.221  35.995  1.00  0.00    -0.237 OA
ATOM     89  O   UNL A   1      47.443  25.493  37.444  1.00  0.00    -0.744 OA
ENDBRANCH  83  86
ENDBRANCH  56  79
ENDBRANCH  30  31
ENDBRANCH  22  25
ENDBRANCH  20  21
ENDBRANCH   1  20
TORSDOF 16
ENDMDL
