MODEL 1
REMARK VINA RESULT:     -14.1      0.000      0.000
REMARK SMILES Cc1c(C[NH2+]C2CCCCC2)c(C(=O)NCCCNC(=O)c2ccc(-c3c4nc(c(-c5cccc(S(=O)(=O)[O-])c5F)c5ccc([nH]5)c(-c5cccc(S(=O)(=O)[O-])c5F)c5nc(c(-c6cccc(S(=O)(=O)[O-])c6F)c6ccc3[nH]6)C=C5)C=C4)cc2)c(C)n1Cc1ccccc1
REMARK SMILES IDX 17 1 16 2 15 3 13 4 14 5 12 7 1 8 2 9 3 10 87 11 85 12 86 13
REMARK SMILES IDX 4 14 5 15 6 18 7 19 11 20 8 21 10 22 9 23 88 24 89 25 90 26
REMARK SMILES IDX 94 27 91 28 93 29 92 30 18 31 19 32 20 33 21 35 22 36 23 37
REMARK SMILES IDX 84 38 24 39 83 40 25 41 26 42 27 43 77 44 28 45 82 46 76 47
REMARK SMILES IDX 78 48 29 49 81 50 75 51 74 52 30 54 62 55 42 56 61 57 43 58
REMARK SMILES IDX 46 59 60 60 79 61 44 62 45 63 59 65 80 66 47 67 31 68 32 69
REMARK SMILES IDX 40 70 33 71 35 72 41 73 34 74 36 75 37 76 38 77 39 78 63 79
REMARK SMILES IDX 64 80 72 81 65 82 67 83 73 84 66 85 68 86 69 87 70 88 71 89
REMARK SMILES IDX 48 90 49 91 57 92 50 93 52 94 58 95 51 96 53 97 54 98 55 99
REMARK SMILES IDX 56 100
REMARK H PARENT 15 6 5 16 5 17 19 34 78 53 46 64
REMARK Flexibility Score: inf
ROOT
ATOM      1  C   UNL A   1      38.865  21.345  25.743  1.00  0.00     0.042 C 
ENDROOT
BRANCH   1   2
ATOM      2  C   UNL A   1      37.942  22.560  25.626  1.00  0.00     0.118 C 
BRANCH   2   3
ATOM      3  N   UNL A   1      37.419  22.775  24.293  1.00  0.00    -0.352 N 
ATOM      4  C   UNL A   1      36.234  23.116  23.694  1.00  0.00     0.253 C 
ATOM      5  O   UNL A   1      36.321  23.098  22.462  1.00  0.00    -0.269 OA
ATOM      6  H   UNL A   1      38.120  22.634  23.617  1.00  0.00     0.163 HD
BRANCH   4   7
ATOM      7  C   UNL A   1      34.936  23.377  24.360  1.00  0.00     0.069 A 
ATOM      8  C   UNL A   1      32.385  22.747  27.075  1.00  0.00     0.065 C 
ATOM      9  C   UNL A   1      33.292  23.199  25.976  1.00  0.00     0.025 A 
ATOM     10  C   UNL A   1      34.452  22.586  25.499  1.00  0.00     0.040 A 
ATOM     11  N   UNL A   1      33.103  24.345  25.222  1.00  0.00    -0.343 N 
ATOM     12  C   UNL A   1      33.846  24.201  24.051  1.00  0.00     0.028 A 
ATOM     13  C   UNL A   1      33.382  24.803  22.771  1.00  0.00     0.065 C 
BRANCH  10  14
ATOM     14  C   UNL A   1      35.103  21.340  26.087  1.00  0.00     0.300 C 
BRANCH  14  15
ATOM     15  N   UNL A   1      34.173  20.203  26.043  1.00  0.00    -0.340 N 
ATOM     16  H   UNL A   1      33.277  20.507  26.425  1.00  0.00     0.346 HD
ATOM     17  H   UNL A   1      34.596  19.453  26.588  1.00  0.00     0.346 HD
BRANCH  15  18
ATOM     18  C   UNL A   1      33.944  19.671  24.685  1.00  0.00     0.182 C 
ATOM     19  C   UNL A   1      34.164  18.143  24.704  1.00  0.00     0.065 C 
ATOM     20  C   UNL A   1      32.538  19.979  24.129  1.00  0.00     0.065 C 
ATOM     21  C   UNL A   1      33.917  17.498  23.337  1.00  0.00     0.006 C 
ATOM     22  C   UNL A   1      32.298  19.332  22.762  1.00  0.00     0.006 C 
ATOM     23  C   UNL A   1      32.531  17.827  22.795  1.00  0.00     0.000 C 
ENDBRANCH  15  18
ENDBRANCH  14  15
ENDBRANCH  10  14
BRANCH  11  24
ATOM     24  C   UNL A   1      32.099  25.396  25.476  1.00  0.00     0.157 C 
BRANCH  24  25
ATOM     25  C   UNL A   1      32.603  26.653  26.170  1.00  0.00    -0.028 A 
ATOM     26  C   UNL A   1      31.693  27.508  26.818  1.00  0.00     0.005 A 
ATOM     27  C   UNL A   1      33.936  27.082  26.082  1.00  0.00     0.005 A 
ATOM     28  C   UNL A   1      32.106  28.738  27.351  1.00  0.00     0.000 A 
ATOM     29  C   UNL A   1      34.347  28.313  26.605  1.00  0.00     0.000 A 
ATOM     30  C   UNL A   1      33.432  29.143  27.239  1.00  0.00     0.000 A 
ENDBRANCH  24  25
ENDBRANCH  11  24
ENDBRANCH   4   7
ENDBRANCH   2   3
ENDBRANCH   1   2
BRANCH   1  31
ATOM     31  C   UNL A   1      39.992  21.499  26.785  1.00  0.00     0.118 C 
BRANCH  31  32
ATOM     32  N   UNL A   1      41.243  21.970  26.234  1.00  0.00    -0.352 N 
ATOM     33  C   UNL A   1      41.744  23.260  26.238  1.00  0.00     0.251 C 
ATOM     34  H   UNL A   1      41.808  21.288  25.801  1.00  0.00     0.163 HD
ATOM     35  O   UNL A   1      42.715  23.462  25.506  1.00  0.00    -0.269 OA
BRANCH  33  36
ATOM     36  C   UNL A   1      41.034  24.412  26.917  1.00  0.00     0.039 A 
ATOM     37  C   UNL A   1      40.885  25.530  26.137  1.00  0.00     0.014 A 
ATOM     38  C   UNL A   1      40.567  24.548  28.242  1.00  0.00     0.014 A 
ATOM     39  C   UNL A   1      40.222  26.676  26.647  1.00  0.00     0.010 A 
ATOM     40  C   UNL A   1      39.987  25.809  28.789  1.00  0.00     0.010 A 
ATOM     41  C   UNL A   1      39.784  26.957  28.006  1.00  0.00    -0.014 A 
BRANCH  41  42
ATOM     42  C   UNL A   1      39.381  28.569  28.365  1.00  0.00     0.031 A 
ATOM     43  C   UNL A   1      40.723  29.154  28.591  1.00  0.00     0.074 A 
ATOM     44  C   UNL A   1      38.408  29.522  28.758  1.00  0.00     0.049 A 
ATOM     45  N   UNL A   1      41.384  28.611  29.565  1.00  0.00    -0.248 NA
ATOM     46  C   UNL A   1      41.564  29.857  27.619  1.00  0.00     0.031 C 
ATOM     47  C   UNL A   1      36.996  29.312  29.125  1.00  0.00     0.029 A 
ATOM     48  N   UNL A   1      38.470  30.967  28.982  1.00  0.00    -0.354 N 
ATOM     49  C   UNL A   1      42.665  29.046  29.514  1.00  0.00     0.074 A 
ATOM     50  C   UNL A   1      42.764  29.686  28.202  1.00  0.00     0.031 C 
ATOM     51  C   UNL A   1      36.325  30.490  29.339  1.00  0.00     0.029 A 
ATOM     52  C   UNL A   1      37.200  31.662  29.205  1.00  0.00     0.049 A 
ATOM     53  H   UNL A   1      39.327  31.451  28.982  1.00  0.00     0.167 HD
ATOM     54  C   UNL A   1      43.143  29.385  30.741  1.00  0.00     0.034 A 
ATOM     55  C   UNL A   1      36.881  33.027  29.378  1.00  0.00     0.034 A 
ATOM     56  C   UNL A   1      43.059  30.809  30.906  1.00  0.00     0.049 A 
ATOM     57  C   UNL A   1      38.084  33.626  29.968  1.00  0.00     0.074 A 
ATOM     58  C   UNL A   1      43.294  31.853  30.024  1.00  0.00     0.029 A 
ATOM     59  N   UNL A   1      42.155  31.268  31.833  1.00  0.00    -0.354 N 
ATOM     60  N   UNL A   1      38.279  33.567  31.251  1.00  0.00    -0.248 NA
ATOM     61  C   UNL A   1      39.030  34.450  29.230  1.00  0.00     0.031 C 
ATOM     62  C   UNL A   1      42.135  32.651  30.115  1.00  0.00     0.029 A 
ATOM     63  C   UNL A   1      41.516  32.384  31.325  1.00  0.00     0.049 A 
ATOM     64  H   UNL A   1      41.990  30.867  32.717  1.00  0.00     0.167 HD
ATOM     65  C   UNL A   1      39.608  33.807  31.357  1.00  0.00     0.074 A 
ATOM     66  C   UNL A   1      39.941  34.612  30.194  1.00  0.00     0.031 C 
ATOM     67  C   UNL A   1      40.322  32.841  31.981  1.00  0.00     0.034 A 
BRANCH  54  68
ATOM     68  C   UNL A   1      42.838  28.300  31.788  1.00  0.00     0.023 A 
ATOM     69  C   UNL A   1      41.912  28.652  32.784  1.00  0.00     0.012 A 
ATOM     70  C   UNL A   1      43.634  27.130  32.002  1.00  0.00     0.148 A 
ATOM     71  C   UNL A   1      41.833  27.925  33.979  1.00  0.00     0.002 A 
ATOM     72  C   UNL A   1      43.644  26.497  33.245  1.00  0.00     0.091 A 
ATOM     73  F   UNL A   1      44.403  26.664  31.002  1.00  0.00    -0.205 F 
ATOM     74  C   UNL A   1      42.727  26.884  34.228  1.00  0.00     0.022 A 
BRANCH  72  75
ATOM     75  S   UNL A   1      44.950  25.349  33.755  1.00  0.00     0.127 S 
ATOM     76  O   UNL A   1      44.571  24.107  33.078  1.00  0.00    -0.237 OA
ATOM     77  O   UNL A   1      46.156  25.970  33.231  1.00  0.00    -0.237 OA
ATOM     78  O   UNL A   1      44.871  25.255  35.219  1.00  0.00    -0.744 OA
ENDBRANCH  72  75
ENDBRANCH  54  68
BRANCH  55  79
ATOM     79  C   UNL A   1      35.761  34.170  29.495  1.00  0.00     0.023 A 
ATOM     80  C   UNL A   1      34.919  34.447  28.347  1.00  0.00     0.012 A 
ATOM     81  C   UNL A   1      35.184  34.579  30.721  1.00  0.00     0.148 A 
ATOM     82  C   UNL A   1      33.597  34.941  28.410  1.00  0.00     0.002 A 
ATOM     83  C   UNL A   1      33.858  35.113  30.778  1.00  0.00     0.091 A 
ATOM     84  F   UNL A   1      35.876  34.362  31.845  1.00  0.00    -0.205 F 
ATOM     85  C   UNL A   1      33.058  35.261  29.634  1.00  0.00     0.022 A 
BRANCH  83  86
ATOM     86  S   UNL A   1      33.010  35.552  32.316  1.00  0.00     0.127 S 
ATOM     87  O   UNL A   1      32.713  34.245  32.907  1.00  0.00    -0.237 OA
ATOM     88  O   UNL A   1      34.041  36.311  33.024  1.00  0.00    -0.237 OA
ATOM     89  O   UNL A   1      31.837  36.310  31.907  1.00  0.00    -0.744 OA
ENDBRANCH  83  86
ENDBRANCH  55  79
BRANCH  67  90
ATOM     90  C   UNL A   1      39.695  32.143  33.176  1.00  0.00     0.023 A 
ATOM     91  C   UNL A   1      39.001  30.912  33.132  1.00  0.00     0.012 A 
ATOM     92  C   UNL A   1      39.833  32.761  34.428  1.00  0.00     0.148 A 
ATOM     93  C   UNL A   1      38.434  30.346  34.280  1.00  0.00     0.002 A 
ATOM     94  C   UNL A   1      39.341  32.161  35.580  1.00  0.00     0.091 A 
ATOM     95  F   UNL A   1      40.459  33.948  34.480  1.00  0.00    -0.205 F 
ATOM     96  C   UNL A   1      38.622  30.962  35.512  1.00  0.00     0.022 A 
BRANCH  94  97
ATOM     97  S   UNL A   1      39.694  32.888  37.178  1.00  0.00     0.127 S 
ATOM     98  O   UNL A   1      39.117  34.224  37.037  1.00  0.00    -0.237 OA
ATOM     99  O   UNL A   1      38.988  32.016  38.113  1.00  0.00    -0.237 OA
ATOM    100  O   UNL A   1      41.149  32.839  37.294  1.00  0.00    -0.744 OA
ENDBRANCH  94  97
ENDBRANCH  67  90
ENDBRANCH  41  42
ENDBRANCH  33  36
ENDBRANCH  31  32
ENDBRANCH   1  31
TORSDOF 18
ENDMDL
MODEL 2
REMARK VINA RESULT:     -13.8      4.150     10.513
REMARK SMILES Cc1c(C[NH2+]C2CCCCC2)c(C(=O)NCCCNC(=O)c2ccc(-c3c4nc(c(-c5cccc(S(=O)(=O)[O-])c5F)c5ccc([nH]5)c(-c5cccc(S(=O)(=O)[O-])c5F)c5nc(c(-c6cccc(S(=O)(=O)[O-])c6F)c6ccc3[nH]6)C=C5)C=C4)cc2)c(C)n1Cc1ccccc1
REMARK SMILES IDX 17 1 16 2 15 3 13 4 14 5 12 7 1 8 2 9 3 10 87 11 85 12 86 13
REMARK SMILES IDX 4 14 5 15 6 18 7 19 11 20 8 21 10 22 9 23 88 24 89 25 90 26
REMARK SMILES IDX 94 27 91 28 93 29 92 30 18 31 19 32 20 33 21 35 22 36 23 37
REMARK SMILES IDX 84 38 24 39 83 40 25 41 26 42 27 43 77 44 28 45 82 46 76 47
REMARK SMILES IDX 78 48 29 49 81 50 75 51 74 52 30 54 62 55 42 56 61 57 43 58
REMARK SMILES IDX 46 59 60 60 79 61 44 62 45 63 59 65 80 66 47 67 31 68 32 69
REMARK SMILES IDX 40 70 33 71 35 72 41 73 34 74 36 75 37 76 38 77 39 78 63 79
REMARK SMILES IDX 64 80 72 81 65 82 67 83 73 84 66 85 68 86 69 87 70 88 71 89
REMARK SMILES IDX 48 90 49 91 57 92 50 93 52 94 58 95 51 96 53 97 54 98 55 99
REMARK SMILES IDX 56 100
REMARK H PARENT 15 6 5 16 5 17 19 34 78 53 46 64
REMARK Flexibility Score: inf
ROOT
ATOM      1  C   UNL A   1      32.420  29.252  26.892  1.00  0.00     0.042 C 
ENDROOT
BRANCH   1   2
ATOM      2  C   UNL A   1      32.464  27.786  27.329  1.00  0.00     0.118 C 
BRANCH   2   3
ATOM      3  N   UNL A   1      31.247  27.054  27.052  1.00  0.00    -0.352 N 
ATOM      4  C   UNL A   1      30.761  26.178  26.115  1.00  0.00     0.253 C 
ATOM      5  O   UNL A   1      29.578  25.891  26.325  1.00  0.00    -0.269 OA
ATOM      6  H   UNL A   1      30.565  27.238  27.738  1.00  0.00     0.163 HD
BRANCH   4   7
ATOM      7  C   UNL A   1      31.462  25.677  24.909  1.00  0.00     0.069 A 
ATOM      8  C   UNL A   1      33.197  26.198  21.593  1.00  0.00     0.065 C 
ATOM      9  C   UNL A   1      32.621  25.793  22.912  1.00  0.00     0.025 A 
ATOM     10  C   UNL A   1      31.845  26.550  23.791  1.00  0.00     0.040 A 
ATOM     11  N   UNL A   1      32.772  24.540  23.483  1.00  0.00    -0.343 N 
ATOM     12  C   UNL A   1      31.765  24.394  24.437  1.00  0.00     0.028 A 
ATOM     13  C   UNL A   1      31.167  23.060  24.720  1.00  0.00     0.065 C 
BRANCH  10  14
ATOM     14  C   UNL A   1      31.497  28.024  23.623  1.00  0.00     0.300 C 
BRANCH  14  15
ATOM     15  N   UNL A   1      30.494  28.198  22.563  1.00  0.00    -0.340 N 
ATOM     16  H   UNL A   1      29.771  27.490  22.685  1.00  0.00     0.346 HD
ATOM     17  H   UNL A   1      30.985  28.107  21.674  1.00  0.00     0.346 HD
BRANCH  15  18
ATOM     18  C   UNL A   1      29.849  29.527  22.563  1.00  0.00     0.182 C 
ATOM     19  C   UNL A   1      28.378  29.367  22.121  1.00  0.00     0.065 C 
ATOM     20  C   UNL A   1      29.898  30.238  23.930  1.00  0.00     0.065 C 
ATOM     21  C   UNL A   1      27.618  30.697  22.121  1.00  0.00     0.006 C 
ATOM     22  C   UNL A   1      29.138  31.567  23.922  1.00  0.00     0.006 C 
ATOM     23  C   UNL A   1      27.692  31.394  23.474  1.00  0.00     0.000 C 
ENDBRANCH  15  18
ENDBRANCH  14  15
ENDBRANCH  10  14
BRANCH  11  24
ATOM     24  C   UNL A   1      33.651  23.462  22.993  1.00  0.00     0.157 C 
BRANCH  24  25
ATOM     25  C   UNL A   1      34.852  23.126  23.866  1.00  0.00    -0.028 A 
ATOM     26  C   UNL A   1      35.128  21.785  24.192  1.00  0.00     0.005 A 
ATOM     27  C   UNL A   1      35.636  24.111  24.486  1.00  0.00     0.005 A 
ATOM     28  C   UNL A   1      36.144  21.453  25.099  1.00  0.00     0.000 A 
ATOM     29  C   UNL A   1      36.644  23.781  25.398  1.00  0.00     0.000 A 
ATOM     30  C   UNL A   1      36.898  22.452  25.707  1.00  0.00     0.000 A 
ENDBRANCH  24  25
ENDBRANCH  11  24
ENDBRANCH   4   7
ENDBRANCH   2   3
ENDBRANCH   1   2
BRANCH   1  31
ATOM     31  C   UNL A   1      33.783  29.830  26.461  1.00  0.00     0.118 C 
BRANCH  31  32
ATOM     32  N   UNL A   1      34.020  31.182  26.920  1.00  0.00    -0.352 N 
ATOM     33  C   UNL A   1      35.026  31.633  27.755  1.00  0.00     0.251 C 
ATOM     34  H   UNL A   1      33.386  31.864  26.599  1.00  0.00     0.163 HD
ATOM     35  O   UNL A   1      34.888  32.778  28.193  1.00  0.00    -0.269 OA
BRANCH  33  36
ATOM     36  C   UNL A   1      36.120  30.729  28.285  1.00  0.00     0.039 A 
ATOM     37  C   UNL A   1      36.905  30.156  27.318  1.00  0.00     0.014 A 
ATOM     38  C   UNL A   1      36.413  30.324  29.605  1.00  0.00     0.014 A 
ATOM     39  C   UNL A   1      37.977  29.300  27.680  1.00  0.00     0.010 A 
ATOM     40  C   UNL A   1      37.467  29.324  29.946  1.00  0.00     0.010 A 
ATOM     41  C   UNL A   1      38.314  28.750  28.985  1.00  0.00    -0.014 A 
BRANCH  41  42
ATOM     42  C   UNL A   1      39.414  27.454  29.010  1.00  0.00     0.031 A 
ATOM     43  C   UNL A   1      40.339  27.886  30.083  1.00  0.00     0.074 A 
ATOM     44  C   UNL A   1      39.973  26.321  28.369  1.00  0.00     0.049 A 
ATOM     45  N   UNL A   1      40.946  29.006  29.845  1.00  0.00    -0.248 NA
ATOM     46  C   UNL A   1      40.288  27.526  31.502  1.00  0.00     0.031 C 
ATOM     47  C   UNL A   1      39.690  25.776  27.029  1.00  0.00     0.029 A 
ATOM     48  N   UNL A   1      41.015  25.372  28.765  1.00  0.00    -0.354 N 
ATOM     49  C   UNL A   1      41.557  29.418  30.980  1.00  0.00     0.074 A 
ATOM     50  C   UNL A   1      40.989  28.553  32.015  1.00  0.00     0.031 C 
ATOM     51  C   UNL A   1      40.343  24.592  26.791  1.00  0.00     0.029 A 
ATOM     52  C   UNL A   1      41.205  24.196  27.912  1.00  0.00     0.049 A 
ATOM     53  H   UNL A   1      41.565  25.517  29.568  1.00  0.00     0.167 HD
ATOM     54  C   UNL A   1      42.818  29.870  30.751  1.00  0.00     0.034 A 
ATOM     55  C   UNL A   1      42.046  23.066  28.024  1.00  0.00     0.034 A 
ATOM     56  C   UNL A   1      43.759  28.832  31.064  1.00  0.00     0.049 A 
ATOM     57  C   UNL A   1      43.208  23.532  28.789  1.00  0.00     0.074 A 
ATOM     58  C   UNL A   1      43.792  27.898  32.089  1.00  0.00     0.029 A 
ATOM     59  N   UNL A   1      44.446  28.286  30.007  1.00  0.00    -0.354 N 
ATOM     60  N   UNL A   1      44.189  24.131  28.184  1.00  0.00    -0.248 NA
ATOM     61  C   UNL A   1      43.435  23.226  30.194  1.00  0.00     0.031 C 
ATOM     62  C   UNL A   1      43.979  26.666  31.429  1.00  0.00     0.029 A 
ATOM     63  C   UNL A   1      44.533  26.918  30.184  1.00  0.00     0.049 A 
ATOM     64  H   UNL A   1      44.816  28.788  29.245  1.00  0.00     0.167 HD
ATOM     65  C   UNL A   1      44.816  24.768  29.201  1.00  0.00     0.074 A 
ATOM     66  C   UNL A   1      44.529  23.971  30.381  1.00  0.00     0.031 C 
ATOM     67  C   UNL A   1      44.927  26.110  29.064  1.00  0.00     0.034 A 
BRANCH  54  68
ATOM     68  C   UNL A   1      42.862  30.850  29.566  1.00  0.00     0.023 A 
ATOM     69  C   UNL A   1      43.432  30.355  28.381  1.00  0.00     0.012 A 
ATOM     70  C   UNL A   1      42.673  32.265  29.673  1.00  0.00     0.148 A 
ATOM     71  C   UNL A   1      43.872  31.227  27.377  1.00  0.00     0.002 A 
ATOM     72  C   UNL A   1      43.235  33.129  28.733  1.00  0.00     0.091 A 
ATOM     73  F   UNL A   1      41.976  32.760  30.710  1.00  0.00    -0.205 F 
ATOM     74  C   UNL A   1      43.819  32.607  27.573  1.00  0.00     0.022 A 
BRANCH  72  75
ATOM     75  S   UNL A   1      43.473  34.898  29.039  1.00  0.00     0.127 S 
ATOM     76  O   UNL A   1      44.297  35.315  27.903  1.00  0.00    -0.237 OA
ATOM     77  O   UNL A   1      42.116  35.421  29.016  1.00  0.00    -0.237 OA
ATOM     78  O   UNL A   1      44.171  35.006  30.328  1.00  0.00    -0.744 OA
ENDBRANCH  72  75
ENDBRANCH  54  68
BRANCH  55  79
ATOM     79  C   UNL A   1      42.467  21.612  27.493  1.00  0.00     0.023 A 
ATOM     80  C   UNL A   1      41.466  20.563  27.451  1.00  0.00     0.012 A 
ATOM     81  C   UNL A   1      43.551  21.384  26.612  1.00  0.00     0.148 A 
ATOM     82  C   UNL A   1      41.461  19.481  26.542  1.00  0.00     0.002 A 
ATOM     83  C   UNL A   1      43.560  20.268  25.716  1.00  0.00     0.091 A 
ATOM     84  F   UNL A   1      44.527  22.297  26.566  1.00  0.00    -0.205 F 
ATOM     85  C   UNL A   1      42.505  19.343  25.659  1.00  0.00     0.022 A 
BRANCH  83  86
ATOM     86  S   UNL A   1      44.852  19.971  24.483  1.00  0.00     0.127 S 
ATOM     87  O   UNL A   1      44.680  21.093  23.557  1.00  0.00    -0.237 OA
ATOM     88  O   UNL A   1      46.066  20.043  25.294  1.00  0.00    -0.237 OA
ATOM     89  O   UNL A   1      44.549  18.666  23.914  1.00  0.00    -0.744 OA
ENDBRANCH  83  86
ENDBRANCH  55  79
BRANCH  67  90
ATOM     90  C   UNL A   1      45.213  26.668  27.679  1.00  0.00     0.023 A 
ATOM     91  C   UNL A   1      44.238  27.146  26.774  1.00  0.00     0.012 A 
ATOM     92  C   UNL A   1      46.555  26.731  27.275  1.00  0.00     0.148 A 
ATOM     93  C   UNL A   1      44.585  27.627  25.506  1.00  0.00     0.002 A 
ATOM     94  C   UNL A   1      46.907  27.282  26.049  1.00  0.00     0.091 A 
ATOM     95  F   UNL A   1      47.489  26.248  28.110  1.00  0.00    -0.205 F 
ATOM     96  C   UNL A   1      45.926  27.714  25.150  1.00  0.00     0.022 A 
BRANCH  94  97
ATOM     97  S   UNL A   1      48.636  27.512  25.645  1.00  0.00     0.127 S 
ATOM     98  O   UNL A   1      48.561  28.081  24.301  1.00  0.00    -0.237 OA
ATOM     99  O   UNL A   1      49.106  28.437  26.672  1.00  0.00    -0.237 OA
ATOM    100  O   UNL A   1      49.218  26.175  25.731  1.00  0.00    -0.744 OA
ENDBRANCH  94  97
ENDBRANCH  67  90
ENDBRANCH  41  42
ENDBRANCH  33  36
ENDBRANCH  31  32
ENDBRANCH   1  31
TORSDOF 18
ENDMDL
MODEL 3
REMARK VINA RESULT:     -12.9      1.395      1.887
REMARK SMILES Cc1c(C[NH2+]C2CCCCC2)c(C(=O)NCCCNC(=O)c2ccc(-c3c4nc(c(-c5cccc(S(=O)(=O)[O-])c5F)c5ccc([nH]5)c(-c5cccc(S(=O)(=O)[O-])c5F)c5nc(c(-c6cccc(S(=O)(=O)[O-])c6F)c6ccc3[nH]6)C=C5)C=C4)cc2)c(C)n1Cc1ccccc1
REMARK SMILES IDX 17 1 16 2 15 3 13 4 14 5 12 7 1 8 2 9 3 10 87 11 85 12 86 13
REMARK SMILES IDX 4 14 5 15 6 18 7 19 11 20 8 21 10 22 9 23 88 24 89 25 90 26
REMARK SMILES IDX 94 27 91 28 93 29 92 30 18 31 19 32 20 33 21 35 22 36 23 37
REMARK SMILES IDX 84 38 24 39 83 40 25 41 26 42 27 43 77 44 28 45 82 46 76 47
REMARK SMILES IDX 78 48 29 49 81 50 75 51 74 52 30 54 62 55 42 56 61 57 43 58
REMARK SMILES IDX 46 59 60 60 79 61 44 62 45 63 59 65 80 66 47 67 31 68 32 69
REMARK SMILES IDX 40 70 33 71 35 72 41 73 34 74 36 75 37 76 38 77 39 78 63 79
REMARK SMILES IDX 64 80 72 81 65 82 67 83 73 84 66 85 68 86 69 87 70 88 71 89
REMARK SMILES IDX 48 90 49 91 57 92 50 93 52 94 58 95 51 96 53 97 54 98 55 99
REMARK SMILES IDX 56 100
REMARK H PARENT 15 6 5 16 5 17 19 34 78 53 46 64
REMARK Flexibility Score: inf
ROOT
ATOM      1  C   UNL A   1      38.250  21.857  25.371  1.00  0.00     0.042 C 
ENDROOT
BRANCH   1   2
ATOM      2  C   UNL A   1      37.458  23.156  25.532  1.00  0.00     0.118 C 
BRANCH   2   3
ATOM      3  N   UNL A   1      36.261  23.019  26.334  1.00  0.00    -0.352 N 
ATOM      4  C   UNL A   1      34.906  22.910  26.154  1.00  0.00     0.253 C 
ATOM      5  O   UNL A   1      34.301  22.880  27.231  1.00  0.00    -0.269 OA
ATOM      6  H   UNL A   1      36.485  22.998  27.293  1.00  0.00     0.163 HD
BRANCH   4   7
ATOM      7  C   UNL A   1      34.168  22.934  24.869  1.00  0.00     0.069 A 
ATOM      8  C   UNL A   1      31.987  21.324  22.237  1.00  0.00     0.065 C 
ATOM      9  C   UNL A   1      32.778  22.159  23.191  1.00  0.00     0.025 A 
ATOM     10  C   UNL A   1      33.506  21.747  24.310  1.00  0.00     0.040 A 
ATOM     11  N   UNL A   1      32.922  23.533  23.100  1.00  0.00    -0.343 N 
ATOM     12  C   UNL A   1      34.045  23.885  23.849  1.00  0.00     0.028 A 
ATOM     13  C   UNL A   1      34.900  25.037  23.450  1.00  0.00     0.065 C 
BRANCH  10  14
ATOM     14  C   UNL A   1      33.563  20.327  24.857  1.00  0.00     0.300 C 
BRANCH  14  15
ATOM     15  N   UNL A   1      32.361  19.576  24.469  1.00  0.00    -0.340 N 
ATOM     16  H   UNL A   1      32.073  19.888  23.541  1.00  0.00     0.346 HD
ATOM     17  H   UNL A   1      31.655  19.760  25.180  1.00  0.00     0.346 HD
BRANCH  15  18
ATOM     18  C   UNL A   1      32.557  18.113  24.427  1.00  0.00     0.182 C 
ATOM     19  C   UNL A   1      33.863  17.806  23.662  1.00  0.00     0.065 C 
ATOM     20  C   UNL A   1      32.614  17.457  25.822  1.00  0.00     0.065 C 
ATOM     21  C   UNL A   1      34.164  16.305  23.595  1.00  0.00     0.006 C 
ATOM     22  C   UNL A   1      32.915  15.957  25.747  1.00  0.00     0.006 C 
ATOM     23  C   UNL A   1      34.199  15.671  24.980  1.00  0.00     0.000 C 
ENDBRANCH  15  18
ENDBRANCH  14  15
ENDBRANCH  10  14
BRANCH  11  24
ATOM     24  C   UNL A   1      32.196  24.423  22.174  1.00  0.00     0.157 C 
BRANCH  24  25
ATOM     25  C   UNL A   1      31.388  25.543  22.813  1.00  0.00    -0.028 A 
ATOM     26  C   UNL A   1      30.313  25.233  23.666  1.00  0.00     0.005 A 
ATOM     27  C   UNL A   1      31.578  26.894  22.486  1.00  0.00     0.005 A 
ATOM     28  C   UNL A   1      29.469  26.235  24.164  1.00  0.00     0.000 A 
ATOM     29  C   UNL A   1      30.731  27.894  22.975  1.00  0.00     0.000 A 
ATOM     30  C   UNL A   1      29.674  27.566  23.813  1.00  0.00     0.000 A 
ENDBRANCH  24  25
ENDBRANCH  11  24
ENDBRANCH   4   7
ENDBRANCH   2   3
ENDBRANCH   1   2
BRANCH   1  31
ATOM     31  C   UNL A   1      39.336  21.636  26.443  1.00  0.00     0.118 C 
BRANCH  31  32
ATOM     32  N   UNL A   1      40.682  21.894  25.978  1.00  0.00    -0.352 N 
ATOM     33  C   UNL A   1      41.439  23.038  26.154  1.00  0.00     0.251 C 
ATOM     34  H   UNL A   1      41.112  21.164  25.474  1.00  0.00     0.163 HD
ATOM     35  O   UNL A   1      42.463  23.116  25.471  1.00  0.00    -0.269 OA
BRANCH  33  36
ATOM     36  C   UNL A   1      40.955  24.226  26.960  1.00  0.00     0.039 A 
ATOM     37  C   UNL A   1      40.330  25.198  26.222  1.00  0.00     0.014 A 
ATOM     38  C   UNL A   1      41.108  24.527  28.330  1.00  0.00     0.014 A 
ATOM     39  C   UNL A   1      39.813  26.357  26.857  1.00  0.00     0.010 A 
ATOM     40  C   UNL A   1      40.665  25.811  28.948  1.00  0.00     0.010 A 
ATOM     41  C   UNL A   1      39.987  26.809  28.230  1.00  0.00    -0.014 A 
BRANCH  41  42
ATOM     42  C   UNL A   1      39.573  28.423  28.565  1.00  0.00     0.031 A 
ATOM     43  C   UNL A   1      40.905  29.006  28.846  1.00  0.00     0.074 A 
ATOM     44  C   UNL A   1      38.586  29.379  28.912  1.00  0.00     0.049 A 
ATOM     45  N   UNL A   1      41.523  28.466  29.850  1.00  0.00    -0.248 NA
ATOM     46  C   UNL A   1      41.788  29.703  27.908  1.00  0.00     0.031 C 
ATOM     47  C   UNL A   1      37.159  29.173  29.220  1.00  0.00     0.029 A 
ATOM     48  N   UNL A   1      38.641  30.825  29.133  1.00  0.00    -0.354 N 
ATOM     49  C   UNL A   1      42.806  28.898  29.852  1.00  0.00     0.074 A 
ATOM     50  C   UNL A   1      42.962  29.533  28.543  1.00  0.00     0.031 C 
ATOM     51  C   UNL A   1      36.482  30.353  29.400  1.00  0.00     0.029 A 
ATOM     52  C   UNL A   1      37.364  31.524  29.299  1.00  0.00     0.049 A 
ATOM     53  H   UNL A   1      39.498  31.307  29.168  1.00  0.00     0.167 HD
ATOM     54  C   UNL A   1      43.231  29.242  31.096  1.00  0.00     0.034 A 
ATOM     55  C   UNL A   1      37.041  32.890  29.453  1.00  0.00     0.034 A 
ATOM     56  C   UNL A   1      43.143  30.666  31.251  1.00  0.00     0.049 A 
ATOM     57  C   UNL A   1      38.219  33.489  30.091  1.00  0.00     0.074 A 
ATOM     58  C   UNL A   1      43.418  31.706  30.376  1.00  0.00     0.029 A 
ATOM     59  N   UNL A   1      42.202  31.131  32.137  1.00  0.00    -0.354 N 
ATOM     60  N   UNL A   1      38.359  33.435  31.382  1.00  0.00    -0.248 NA
ATOM     61  C   UNL A   1      39.198  34.308  29.391  1.00  0.00     0.031 C 
ATOM     62  C   UNL A   1      42.258  32.507  30.415  1.00  0.00     0.029 A 
ATOM     63  C   UNL A   1      41.587  32.246  31.599  1.00  0.00     0.049 A 
ATOM     64  H   UNL A   1      41.998  30.733  33.015  1.00  0.00     0.167 HD
ATOM     65  C   UNL A   1      39.682  33.672  31.544  1.00  0.00     0.074 A 
ATOM     66  C   UNL A   1      40.066  34.472  30.393  1.00  0.00     0.031 C 
ATOM     67  C   UNL A   1      40.368  32.708  32.201  1.00  0.00     0.034 A 
BRANCH  54  68
ATOM     68  C   UNL A   1      42.880  28.161  32.133  1.00  0.00     0.023 A 
ATOM     69  C   UNL A   1      41.875  28.499  33.055  1.00  0.00     0.012 A 
ATOM     70  C   UNL A   1      43.689  27.016  32.421  1.00  0.00     0.148 A 
ATOM     71  C   UNL A   1      41.728  27.785  34.251  1.00  0.00     0.002 A 
ATOM     72  C   UNL A   1      43.625  26.399  33.670  1.00  0.00     0.091 A 
ATOM     73  F   UNL A   1      44.541  26.559  31.487  1.00  0.00    -0.205 F 
ATOM     74  C   UNL A   1      42.629  26.772  34.579  1.00  0.00     0.022 A 
BRANCH  72  75
ATOM     75  S   UNL A   1      44.920  25.294  34.290  1.00  0.00     0.127 S 
ATOM     76  O   UNL A   1      45.183  25.824  35.630  1.00  0.00    -0.237 OA
ATOM     77  O   UNL A   1      44.274  23.991  34.280  1.00  0.00    -0.237 OA
ATOM     78  O   UNL A   1      46.063  25.441  33.378  1.00  0.00    -0.744 OA
ENDBRANCH  72  75
ENDBRANCH  54  68
BRANCH  55  79
ATOM     79  C   UNL A   1      35.919  34.035  29.517  1.00  0.00     0.023 A 
ATOM     80  C   UNL A   1      35.114  34.295  28.339  1.00  0.00     0.012 A 
ATOM     81  C   UNL A   1      35.305  34.464  30.718  1.00  0.00     0.148 A 
ATOM     82  C   UNL A   1      33.791  34.792  28.354  1.00  0.00     0.002 A 
ATOM     83  C   UNL A   1      33.979  35.000  30.727  1.00  0.00     0.091 A 
ATOM     84  F   UNL A   1      35.962  34.263  31.867  1.00  0.00    -0.205 F 
ATOM     85  C   UNL A   1      33.215  35.131  29.556  1.00  0.00     0.022 A 
BRANCH  83  86
ATOM     86  S   UNL A   1      33.084  35.464  32.230  1.00  0.00     0.127 S 
ATOM     87  O   UNL A   1      32.924  34.181  32.921  1.00  0.00    -0.237 OA
ATOM     88  O   UNL A   1      34.027  36.378  32.873  1.00  0.00    -0.237 OA
ATOM     89  O   UNL A   1      31.839  36.061  31.770  1.00  0.00    -0.744 OA
ENDBRANCH  83  86
ENDBRANCH  55  79
BRANCH  67  90
ATOM     90  C   UNL A   1      39.688  32.016  33.371  1.00  0.00     0.023 A 
ATOM     91  C   UNL A   1      38.948  30.814  33.292  1.00  0.00     0.012 A 
ATOM     92  C   UNL A   1      39.824  32.608  34.636  1.00  0.00     0.148 A 
ATOM     93  C   UNL A   1      38.336  30.252  34.418  1.00  0.00     0.002 A 
ATOM     94  C   UNL A   1      39.284  32.009  35.767  1.00  0.00     0.091 A 
ATOM     95  F   UNL A   1      40.495  33.768  34.721  1.00  0.00    -0.205 F 
ATOM     96  C   UNL A   1      38.522  30.841  35.664  1.00  0.00     0.022 A 
BRANCH  94  97
ATOM     97  S   UNL A   1      39.632  32.695  37.384  1.00  0.00     0.127 S 
ATOM     98  O   UNL A   1      38.630  32.033  38.217  1.00  0.00    -0.237 OA
ATOM     99  O   UNL A   1      41.008  32.280  37.642  1.00  0.00    -0.237 OA
ATOM    100  O   UNL A   1      39.462  34.137  37.220  1.00  0.00    -0.744 OA
ENDBRANCH  94  97
ENDBRANCH  67  90
ENDBRANCH  41  42
ENDBRANCH  33  36
ENDBRANCH  31  32
ENDBRANCH   1  31
TORSDOF 18
ENDMDL
