MODEL 1
REMARK VINA RESULT:      -9.5      0.000      0.000
REMARK SMILES O=C(CSc1ccc(Cl)cc1)Nc1ccc(C(=O)NCCCNC(=O)c2ccc(-c3c4nc(c(-c5cccc(S(=O)(=O)[O-])c5F)c5ccc([nH]5)c(-c5cccc(S(=O)(=O)[O-])c5F)c5nc(c(-c6cccc(S(=O)(=O)[O-])c6F)c6ccc3[nH]6)C=C5)C=C4)cc2)cc1
REMARK SMILES IDX 20 1 19 2 17 3 18 4 16 6 13 7 14 8 90 9 15 10 89 11 12 12
REMARK SMILES IDX 1 13 2 14 3 16 4 17 5 18 6 19 11 20 7 21 10 22 8 23 9 24
REMARK SMILES IDX 21 25 22 26 23 27 24 28 25 30 26 31 27 32 88 33 28 34 87 35
REMARK SMILES IDX 29 36 30 37 31 38 81 39 32 40 86 41 80 42 82 43 33 44 85 45
REMARK SMILES IDX 79 46 78 47 34 49 66 50 46 51 65 52 47 53 50 54 64 55 83 56
REMARK SMILES IDX 48 57 49 58 63 60 84 61 51 62 35 63 36 64 44 65 37 66 39 67
REMARK SMILES IDX 45 68 38 69 40 70 41 71 42 72 43 73 67 74 68 75 76 76 69 77
REMARK SMILES IDX 71 78 77 79 70 80 72 81 73 82 74 83 75 84 52 85 53 86 61 87
REMARK SMILES IDX 54 88 56 89 62 90 55 91 57 92 58 93 59 94 60 95
REMARK H PARENT 19 5 12 15 23 29 82 48 50 59
REMARK Flexibility Score: inf
ROOT
ATOM      1  C   UNL A   1      34.254  34.657  30.087  1.00  0.00     0.118 C 
ENDROOT
BRANCH   1   2
ATOM      2  N   UNL A   1      34.426  33.505  30.955  1.00  0.00    -0.352 N 
ATOM      3  C   UNL A   1      35.544  32.906  31.478  1.00  0.00     0.251 C 
ATOM      4  O   UNL A   1      35.379  31.977  32.270  1.00  0.00    -0.269 OA
ATOM      5  H   UNL A   1      33.582  33.074  31.217  1.00  0.00     0.163 HD
BRANCH   3   6
ATOM      6  C   UNL A   1      36.931  33.369  31.188  1.00  0.00     0.039 A 
ATOM      7  C   UNL A   1      39.607  34.012  30.575  1.00  0.00     0.041 A 
ATOM      8  C   UNL A   1      38.834  33.289  29.666  1.00  0.00     0.027 A 
ATOM      9  C   UNL A   1      39.009  34.493  31.739  1.00  0.00     0.027 A 
ATOM     10  C   UNL A   1      37.513  32.951  29.981  1.00  0.00     0.016 A 
ATOM     11  C   UNL A   1      37.671  34.205  32.022  1.00  0.00     0.016 A 
BRANCH   7  12
ATOM     12  N   UNL A   1      40.957  34.254  30.268  1.00  0.00    -0.325 N 
ATOM     13  O   UNL A   1      40.712  35.686  28.454  1.00  0.00    -0.274 OA
ATOM     14  C   UNL A   1      41.416  35.004  29.199  1.00  0.00     0.234 C 
ATOM     15  H   UNL A   1      41.633  33.858  30.864  1.00  0.00     0.169 HD
BRANCH  14  16
ATOM     16  C   UNL A   1      42.907  34.897  28.937  1.00  0.00     0.175 C 
BRANCH  16  17
ATOM     17  S   UNL A   1      43.810  33.898  30.165  1.00  0.00    -0.116 SA
BRANCH  17  18
ATOM     18  C   UNL A   1      43.871  32.268  29.436  1.00  0.00     0.008 A 
ATOM     19  C   UNL A   1      44.013  32.214  28.042  1.00  0.00     0.016 A 
ATOM     20  C   UNL A   1      43.821  31.067  30.153  1.00  0.00     0.016 A 
ATOM     21  C   UNL A   1      44.087  30.989  27.374  1.00  0.00     0.021 A 
ATOM     22  C   UNL A   1      43.895  29.839  29.485  1.00  0.00     0.021 A 
ATOM     23  C   UNL A   1      44.026  29.804  28.099  1.00  0.00     0.041 A 
ATOM     24  Cl  UNL A   1      44.125  28.295  27.281  1.00  0.00    -0.084 Cl
ENDBRANCH  17  18
ENDBRANCH  16  17
ENDBRANCH  14  16
ENDBRANCH   7  12
ENDBRANCH   3   6
ENDBRANCH   1   2
BRANCH   1  25
ATOM     25  C   UNL A   1      33.864  34.234  28.670  1.00  0.00     0.042 C 
BRANCH  25  26
ATOM     26  C   UNL A   1      34.749  33.129  28.101  1.00  0.00     0.118 C 
BRANCH  26  27
ATOM     27  N   UNL A   1      33.975  31.957  27.719  1.00  0.00    -0.352 N 
ATOM     28  C   UNL A   1      34.343  30.640  27.635  1.00  0.00     0.251 C 
ATOM     29  H   UNL A   1      33.036  32.141  27.483  1.00  0.00     0.163 HD
ATOM     30  O   UNL A   1      33.581  29.848  27.084  1.00  0.00    -0.269 OA
BRANCH  28  31
ATOM     31  C   UNL A   1      35.628  30.161  28.193  1.00  0.00     0.039 A 
ATOM     32  C   UNL A   1      36.756  30.172  27.365  1.00  0.00     0.014 A 
ATOM     33  C   UNL A   1      35.722  29.638  29.485  1.00  0.00     0.014 A 
ATOM     34  C   UNL A   1      37.974  29.681  27.839  1.00  0.00     0.010 A 
ATOM     35  C   UNL A   1      36.954  29.218  29.982  1.00  0.00     0.010 A 
ATOM     36  C   UNL A   1      38.088  29.212  29.157  1.00  0.00    -0.014 A 
BRANCH  36  37
ATOM     37  C   UNL A   1      39.384  28.703  29.673  1.00  0.00     0.031 A 
ATOM     38  C   UNL A   1      40.007  29.302  30.905  1.00  0.00     0.074 A 
ATOM     39  C   UNL A   1      40.029  27.731  28.999  1.00  0.00     0.049 A 
ATOM     40  N   UNL A   1      41.114  28.966  31.516  1.00  0.00    -0.248 NA
ATOM     41  C   UNL A   1      39.311  30.447  31.516  1.00  0.00     0.031 C 
ATOM     42  C   UNL A   1      39.568  27.125  27.749  1.00  0.00     0.029 A 
ATOM     43  N   UNL A   1      41.211  27.090  29.264  1.00  0.00    -0.354 N 
ATOM     44  C   UNL A   1      41.266  29.874  32.557  1.00  0.00     0.074 A 
ATOM     45  C   UNL A   1      40.159  30.801  32.471  1.00  0.00     0.031 C 
ATOM     46  C   UNL A   1      40.444  26.182  27.368  1.00  0.00     0.029 A 
ATOM     47  C   UNL A   1      41.537  26.130  28.334  1.00  0.00     0.049 A 
ATOM     48  H   UNL A   1      41.774  27.295  30.045  1.00  0.00     0.167 HD
ATOM     49  C   UNL A   1      42.220  29.915  33.519  1.00  0.00     0.034 A 
ATOM     50  C   UNL A   1      42.589  25.291  28.275  1.00  0.00     0.034 A 
ATOM     51  C   UNL A   1      43.293  28.963  33.625  1.00  0.00     0.049 A 
ATOM     52  C   UNL A   1      43.609  25.320  29.380  1.00  0.00     0.074 A 
ATOM     53  C   UNL A   1      44.253  28.853  34.615  1.00  0.00     0.029 A 
ATOM     54  N   UNL A   1      43.554  27.961  32.702  1.00  0.00    -0.354 N 
ATOM     55  N   UNL A   1      43.641  26.073  30.454  1.00  0.00    -0.248 NA
ATOM     56  C   UNL A   1      44.715  24.357  29.287  1.00  0.00     0.031 C 
ATOM     57  C   UNL A   1      45.108  27.796  34.277  1.00  0.00     0.029 A 
ATOM     58  C   UNL A   1      44.666  27.234  33.090  1.00  0.00     0.049 A 
ATOM     59  H   UNL A   1      43.024  27.792  31.889  1.00  0.00     0.167 HD
ATOM     60  C   UNL A   1      44.747  25.650  31.182  1.00  0.00     0.074 A 
ATOM     61  C   UNL A   1      45.349  24.564  30.434  1.00  0.00     0.031 C 
ATOM     62  C   UNL A   1      45.226  26.125  32.360  1.00  0.00     0.034 A 
BRANCH  49  63
ATOM     63  C   UNL A   1      42.109  30.999  34.562  1.00  0.00     0.023 A 
ATOM     64  C   UNL A   1      41.495  30.713  35.800  1.00  0.00     0.012 A 
ATOM     65  C   UNL A   1      42.629  32.288  34.335  1.00  0.00     0.148 A 
ATOM     66  C   UNL A   1      41.353  31.703  36.772  1.00  0.00     0.002 A 
ATOM     67  C   UNL A   1      42.525  33.257  35.328  1.00  0.00     0.091 A 
ATOM     68  F   UNL A   1      43.190  32.555  33.147  1.00  0.00    -0.205 F 
ATOM     69  C   UNL A   1      41.875  32.971  36.540  1.00  0.00     0.022 A 
BRANCH  67  70
ATOM     70  S   UNL A   1      43.241  34.896  35.148  1.00  0.00     0.127 S 
ATOM     71  O   UNL A   1      42.469  35.435  34.030  1.00  0.00    -0.237 OA
ATOM     72  O   UNL A   1      42.947  35.510  36.443  1.00  0.00    -0.237 OA
ATOM     73  O   UNL A   1      44.659  34.681  34.894  1.00  0.00    -0.744 OA
ENDBRANCH  67  70
ENDBRANCH  49  63
BRANCH  50  74
ATOM     74  C   UNL A   1      42.661  24.280  27.184  1.00  0.00     0.023 A 
ATOM     75  C   UNL A   1      43.413  24.573  26.028  1.00  0.00     0.012 A 
ATOM     76  C   UNL A   1      42.052  23.015  27.306  1.00  0.00     0.148 A 
ATOM     77  C   UNL A   1      43.542  23.633  25.007  1.00  0.00     0.002 A 
ATOM     78  C   UNL A   1      42.228  22.064  26.307  1.00  0.00     0.091 A 
ATOM     79  F   UNL A   1      41.338  22.760  28.411  1.00  0.00    -0.205 F 
ATOM     80  C   UNL A   1      42.961  22.376  25.150  1.00  0.00     0.022 A 
BRANCH  78  81
ATOM     81  S   UNL A   1      41.628  20.378  26.457  1.00  0.00     0.127 S 
ATOM     82  O   UNL A   1      42.132  19.995  27.773  1.00  0.00    -0.237 OA
ATOM     83  O   UNL A   1      40.180  20.568  26.381  1.00  0.00    -0.237 OA
ATOM     84  O   UNL A   1      42.201  19.654  25.329  1.00  0.00    -0.744 OA
ENDBRANCH  78  81
ENDBRANCH  50  74
BRANCH  62  85
ATOM     85  C   UNL A   1      46.448  25.459  32.936  1.00  0.00     0.023 A 
ATOM     86  C   UNL A   1      47.722  26.013  32.705  1.00  0.00     0.012 A 
ATOM     87  C   UNL A   1      46.325  24.328  33.769  1.00  0.00     0.148 A 
ATOM     88  C   UNL A   1      48.859  25.435  33.270  1.00  0.00     0.002 A 
ATOM     89  C   UNL A   1      47.457  23.787  34.366  1.00  0.00     0.091 A 
ATOM     90  F   UNL A   1      45.107  23.803  33.959  1.00  0.00    -0.205 F 
ATOM     91  C   UNL A   1      48.725  24.332  34.109  1.00  0.00     0.022 A 
BRANCH  89  92
ATOM     92  S   UNL A   1      47.367  22.428  35.538  1.00  0.00     0.127 S 
ATOM     93  O   UNL A   1      48.774  22.247  35.893  1.00  0.00    -0.237 OA
ATOM     94  O   UNL A   1      46.537  22.990  36.605  1.00  0.00    -0.237 OA
ATOM     95  O   UNL A   1      46.754  21.319  34.819  1.00  0.00    -0.744 OA
ENDBRANCH  89  92
ENDBRANCH  62  85
ENDBRANCH  36  37
ENDBRANCH  28  31
ENDBRANCH  26  27
ENDBRANCH  25  26
ENDBRANCH   1  25
TORSDOF 17
ENDMDL
MODEL 2
REMARK VINA RESULT:      -9.3      4.654      7.658
REMARK SMILES O=C(CSc1ccc(Cl)cc1)Nc1ccc(C(=O)NCCCNC(=O)c2ccc(-c3c4nc(c(-c5cccc(S(=O)(=O)[O-])c5F)c5ccc([nH]5)c(-c5cccc(S(=O)(=O)[O-])c5F)c5nc(c(-c6cccc(S(=O)(=O)[O-])c6F)c6ccc3[nH]6)C=C5)C=C4)cc2)cc1
REMARK SMILES IDX 20 1 19 2 17 3 18 4 16 6 13 7 14 8 90 9 15 10 89 11 12 12
REMARK SMILES IDX 1 13 2 14 3 16 4 17 5 18 6 19 11 20 7 21 10 22 8 23 9 24
REMARK SMILES IDX 21 25 22 26 23 27 24 28 25 30 26 31 27 32 88 33 28 34 87 35
REMARK SMILES IDX 29 36 30 37 31 38 81 39 32 40 86 41 80 42 82 43 33 44 85 45
REMARK SMILES IDX 79 46 78 47 34 49 66 50 46 51 65 52 47 53 50 54 64 55 83 56
REMARK SMILES IDX 48 57 49 58 63 60 84 61 51 62 35 63 36 64 44 65 37 66 39 67
REMARK SMILES IDX 45 68 38 69 40 70 41 71 42 72 43 73 67 74 68 75 76 76 69 77
REMARK SMILES IDX 71 78 77 79 70 80 72 81 73 82 74 83 75 84 52 85 53 86 61 87
REMARK SMILES IDX 54 88 56 89 62 90 55 91 57 92 58 93 59 94 60 95
REMARK H PARENT 19 5 12 15 23 29 82 48 50 59
REMARK Flexibility Score: inf
ROOT
ATOM      1  C   UNL A   1      31.307  30.860  25.792  1.00  0.00     0.118 C 
ENDROOT
BRANCH   1   2
ATOM      2  N   UNL A   1      30.421  30.786  24.643  1.00  0.00    -0.352 N 
ATOM      3  C   UNL A   1      30.271  29.845  23.656  1.00  0.00     0.251 C 
ATOM      4  O   UNL A   1      29.361  30.008  22.842  1.00  0.00    -0.269 OA
ATOM      5  H   UNL A   1      29.814  31.556  24.556  1.00  0.00     0.163 HD
BRANCH   3   6
ATOM      6  C   UNL A   1      31.105  28.613  23.568  1.00  0.00     0.039 A 
ATOM      7  C   UNL A   1      32.600  26.223  23.627  1.00  0.00     0.041 A 
ATOM      8  C   UNL A   1      31.242  26.208  23.946  1.00  0.00     0.027 A 
ATOM      9  C   UNL A   1      33.178  27.412  23.185  1.00  0.00     0.027 A 
ATOM     10  C   UNL A   1      30.507  27.399  23.939  1.00  0.00     0.016 A 
ATOM     11  C   UNL A   1      32.425  28.588  23.120  1.00  0.00     0.016 A 
BRANCH   7  12
ATOM     12  N   UNL A   1      33.330  25.027  23.734  1.00  0.00    -0.325 N 
ATOM     13  O   UNL A   1      33.455  24.422  21.494  1.00  0.00    -0.274 OA
ATOM     14  C   UNL A   1      33.642  24.178  22.685  1.00  0.00     0.234 C 
ATOM     15  H   UNL A   1      33.646  24.771  24.630  1.00  0.00     0.169 HD
BRANCH  14  16
ATOM     16  C   UNL A   1      34.206  22.832  23.099  1.00  0.00     0.175 C 
BRANCH  16  17
ATOM     17  S   UNL A   1      33.703  22.293  24.767  1.00  0.00    -0.116 SA
BRANCH  17  18
ATOM     18  C   UNL A   1      33.644  20.512  24.646  1.00  0.00     0.008 A 
ATOM     19  C   UNL A   1      34.875  19.842  24.701  1.00  0.00     0.016 A 
ATOM     20  C   UNL A   1      32.472  19.755  24.538  1.00  0.00     0.016 A 
ATOM     21  C   UNL A   1      34.939  18.448  24.632  1.00  0.00     0.021 A 
ATOM     22  C   UNL A   1      32.535  18.357  24.468  1.00  0.00     0.021 A 
ATOM     23  C   UNL A   1      33.767  17.710  24.514  1.00  0.00     0.041 A 
ATOM     24  Cl  UNL A   1      33.841  15.994  24.436  1.00  0.00    -0.084 Cl
ENDBRANCH  17  18
ENDBRANCH  16  17
ENDBRANCH  14  16
ENDBRANCH   7  12
ENDBRANCH   3   6
ENDBRANCH   1   2
BRANCH   1  25
ATOM     25  C   UNL A   1      31.326  32.267  26.391  1.00  0.00     0.042 C 
BRANCH  25  26
ATOM     26  C   UNL A   1      32.644  32.616  27.077  1.00  0.00     0.118 C 
BRANCH  26  27
ATOM     27  N   UNL A   1      32.603  33.937  27.687  1.00  0.00    -0.352 N 
ATOM     28  C   UNL A   1      33.350  34.465  28.708  1.00  0.00     0.251 C 
ATOM     29  H   UNL A   1      31.932  34.548  27.305  1.00  0.00     0.163 HD
ATOM     30  O   UNL A   1      32.999  35.533  29.204  1.00  0.00    -0.269 OA
BRANCH  28  31
ATOM     31  C   UNL A   1      34.559  33.777  29.215  1.00  0.00     0.039 A 
ATOM     32  C   UNL A   1      34.393  32.718  30.113  1.00  0.00     0.014 A 
ATOM     33  C   UNL A   1      35.846  34.204  28.878  1.00  0.00     0.014 A 
ATOM     34  C   UNL A   1      35.510  32.077  30.652  1.00  0.00     0.010 A 
ATOM     35  C   UNL A   1      36.959  33.517  29.357  1.00  0.00     0.010 A 
ATOM     36  C   UNL A   1      36.805  32.462  30.268  1.00  0.00    -0.014 A 
BRANCH  36  37
ATOM     37  C   UNL A   1      37.998  31.776  30.825  1.00  0.00     0.031 A 
ATOM     38  C   UNL A   1      38.528  32.142  32.185  1.00  0.00     0.074 A 
ATOM     39  C   UNL A   1      38.639  30.854  30.081  1.00  0.00     0.049 A 
ATOM     40  N   UNL A   1      39.535  31.630  32.843  1.00  0.00    -0.248 NA
ATOM     41  C   UNL A   1      37.855  33.248  32.888  1.00  0.00     0.031 C 
ATOM     42  C   UNL A   1      38.271  30.469  28.717  1.00  0.00     0.029 A 
ATOM     43  N   UNL A   1      39.736  30.081  30.360  1.00  0.00    -0.354 N 
ATOM     44  C   UNL A   1      39.640  32.369  34.016  1.00  0.00     0.074 A 
ATOM     45  C   UNL A   1      38.620  33.391  33.961  1.00  0.00     0.031 C 
ATOM     46  C   UNL A   1      39.112  29.515  28.288  1.00  0.00     0.029 A 
ATOM     47  C   UNL A   1      40.089  29.235  29.336  1.00  0.00     0.049 A 
ATOM     48  H   UNL A   1      40.225  30.127  31.213  1.00  0.00     0.167 HD
ATOM     49  C   UNL A   1      40.487  32.193  35.060  1.00  0.00     0.034 A 
ATOM     50  C   UNL A   1      41.078  28.324  29.255  1.00  0.00     0.034 A 
ATOM     51  C   UNL A   1      41.471  31.145  35.128  1.00  0.00     0.049 A 
ATOM     52  C   UNL A   1      41.973  28.110  30.445  1.00  0.00     0.074 A 
ATOM     53  C   UNL A   1      42.308  30.816  36.177  1.00  0.00     0.029 A 
ATOM     54  N   UNL A   1      41.755  30.262  34.097  1.00  0.00    -0.354 N 
ATOM     55  N   UNL A   1      41.945  28.702  31.615  1.00  0.00    -0.248 NA
ATOM     56  C   UNL A   1      43.010  27.077  30.317  1.00  0.00     0.031 C 
ATOM     57  C   UNL A   1      43.116  29.746  35.772  1.00  0.00     0.029 A 
ATOM     58  C   UNL A   1      42.763  29.394  34.479  1.00  0.00     0.049 A 
ATOM     59  H   UNL A   1      41.304  30.253  33.221  1.00  0.00     0.167 HD
ATOM     60  C   UNL A   1      42.933  28.088  32.376  1.00  0.00     0.074 A 
ATOM     61  C   UNL A   1      43.530  27.067  31.538  1.00  0.00     0.031 C 
ATOM     62  C   UNL A   1      43.316  28.352  33.651  1.00  0.00     0.034 A 
BRANCH  49  63
ATOM     63  C   UNL A   1      40.344  33.127  36.235  1.00  0.00     0.023 A 
ATOM     64  C   UNL A   1      40.927  34.411  36.179  1.00  0.00     0.012 A 
ATOM     65  C   UNL A   1      39.619  32.752  37.383  1.00  0.00     0.148 A 
ATOM     66  C   UNL A   1      40.835  35.284  37.262  1.00  0.00     0.002 A 
ATOM     67  C   UNL A   1      39.491  33.647  38.440  1.00  0.00     0.091 A 
ATOM     68  F   UNL A   1      39.089  31.522  37.435  1.00  0.00    -0.205 F 
ATOM     69  C   UNL A   1      40.110  34.907  38.388  1.00  0.00     0.022 A 
BRANCH  67  70
ATOM     70  S   UNL A   1      38.509  33.275  39.899  1.00  0.00     0.127 S 
ATOM     71  O   UNL A   1      37.212  32.951  39.308  1.00  0.00    -0.237 OA
ATOM     72  O   UNL A   1      39.220  32.133  40.473  1.00  0.00    -0.237 OA
ATOM     73  O   UNL A   1      38.549  34.479  40.718  1.00  0.00    -0.744 OA
ENDBRANCH  67  70
ENDBRANCH  49  63
BRANCH  50  74
ATOM     74  C   UNL A   1      41.192  27.470  28.039  1.00  0.00     0.023 A 
ATOM     75  C   UNL A   1      41.816  27.997  26.890  1.00  0.00     0.012 A 
ATOM     76  C   UNL A   1      40.753  26.132  28.031  1.00  0.00     0.148 A 
ATOM     77  C   UNL A   1      41.983  27.213  25.750  1.00  0.00     0.002 A 
ATOM     78  C   UNL A   1      40.970  25.340  26.909  1.00  0.00     0.091 A 
ATOM     79  F   UNL A   1      40.157  25.653  29.132  1.00  0.00    -0.205 F 
ATOM     80  C   UNL A   1      41.571  25.883  25.762  1.00  0.00     0.022 A 
BRANCH  78  81
ATOM     81  S   UNL A   1      40.592  23.585  26.872  1.00  0.00     0.127 S 
ATOM     82  O   UNL A   1      39.163  23.592  26.570  1.00  0.00    -0.237 OA
ATOM     83  O   UNL A   1      41.450  23.116  25.786  1.00  0.00    -0.237 OA
ATOM     84  O   UNL A   1      40.953  23.076  28.189  1.00  0.00    -0.744 OA
ENDBRANCH  78  81
ENDBRANCH  50  74
BRANCH  62  85
ATOM     85  C   UNL A   1      44.418  27.508  34.237  1.00  0.00     0.023 A 
ATOM     86  C   UNL A   1      45.759  27.919  34.106  1.00  0.00     0.012 A 
ATOM     87  C   UNL A   1      44.118  26.351  34.982  1.00  0.00     0.148 A 
ATOM     88  C   UNL A   1      46.788  27.174  34.684  1.00  0.00     0.002 A 
ATOM     89  C   UNL A   1      45.144  25.641  35.594  1.00  0.00     0.091 A 
ATOM     90  F   UNL A   1      42.837  25.964  35.077  1.00  0.00    -0.205 F 
ATOM     91  C   UNL A   1      46.479  26.044  35.437  1.00  0.00     0.022 A 
BRANCH  89  92
ATOM     92  S   UNL A   1      44.831  24.231  36.663  1.00  0.00     0.127 S 
ATOM     93  O   UNL A   1      44.004  24.829  37.711  1.00  0.00    -0.237 OA
ATOM     94  O   UNL A   1      44.116  23.316  35.772  1.00  0.00    -0.237 OA
ATOM     95  O   UNL A   1      46.139  23.755  37.092  1.00  0.00    -0.744 OA
ENDBRANCH  89  92
ENDBRANCH  62  85
ENDBRANCH  36  37
ENDBRANCH  28  31
ENDBRANCH  26  27
ENDBRANCH  25  26
ENDBRANCH   1  25
TORSDOF 17
ENDMDL
MODEL 3
REMARK VINA RESULT:      -9.2      5.060     10.894
REMARK SMILES O=C(CSc1ccc(Cl)cc1)Nc1ccc(C(=O)NCCCNC(=O)c2ccc(-c3c4nc(c(-c5cccc(S(=O)(=O)[O-])c5F)c5ccc([nH]5)c(-c5cccc(S(=O)(=O)[O-])c5F)c5nc(c(-c6cccc(S(=O)(=O)[O-])c6F)c6ccc3[nH]6)C=C5)C=C4)cc2)cc1
REMARK SMILES IDX 20 1 19 2 17 3 18 4 16 6 13 7 14 8 90 9 15 10 89 11 12 12
REMARK SMILES IDX 1 13 2 14 3 16 4 17 5 18 6 19 11 20 7 21 10 22 8 23 9 24
REMARK SMILES IDX 21 25 22 26 23 27 24 28 25 30 26 31 27 32 88 33 28 34 87 35
REMARK SMILES IDX 29 36 30 37 31 38 81 39 32 40 86 41 80 42 82 43 33 44 85 45
REMARK SMILES IDX 79 46 78 47 34 49 66 50 46 51 65 52 47 53 50 54 64 55 83 56
REMARK SMILES IDX 48 57 49 58 63 60 84 61 51 62 35 63 36 64 44 65 37 66 39 67
REMARK SMILES IDX 45 68 38 69 40 70 41 71 42 72 43 73 67 74 68 75 76 76 69 77
REMARK SMILES IDX 71 78 77 79 70 80 72 81 73 82 74 83 75 84 52 85 53 86 61 87
REMARK SMILES IDX 54 88 56 89 62 90 55 91 57 92 58 93 59 94 60 95
REMARK H PARENT 19 5 12 15 23 29 82 48 50 59
REMARK Flexibility Score: inf
ROOT
ATOM      1  C   UNL A   1      31.053  30.480  25.253  1.00  0.00     0.118 C 
ENDROOT
BRANCH   1   2
ATOM      2  N   UNL A   1      30.238  30.510  24.051  1.00  0.00    -0.352 N 
ATOM      3  C   UNL A   1      29.880  29.533  23.157  1.00  0.00     0.251 C 
ATOM      4  O   UNL A   1      29.091  29.837  22.261  1.00  0.00    -0.269 OA
ATOM      5  H   UNL A   1      29.875  31.400  23.837  1.00  0.00     0.163 HD
BRANCH   3   6
ATOM      6  C   UNL A   1      30.341  28.120  23.263  1.00  0.00     0.039 A 
ATOM      7  C   UNL A   1      31.160  25.458  23.705  1.00  0.00     0.041 A 
ATOM      8  C   UNL A   1      29.923  25.898  24.178  1.00  0.00     0.027 A 
ATOM      9  C   UNL A   1      31.934  26.321  22.930  1.00  0.00     0.027 A 
ATOM     10  C   UNL A   1      29.528  27.226  23.977  1.00  0.00     0.016 A 
ATOM     11  C   UNL A   1      31.508  27.628  22.680  1.00  0.00     0.016 A 
BRANCH   7  12
ATOM     12  N   UNL A   1      31.567  24.146  24.003  1.00  0.00    -0.325 N 
ATOM     13  O   UNL A   1      32.534  24.483  26.089  1.00  0.00    -0.274 OA
ATOM     14  C   UNL A   1      32.282  23.762  25.125  1.00  0.00     0.234 C 
ATOM     15  H   UNL A   1      31.322  23.442  23.361  1.00  0.00     0.169 HD
BRANCH  14  16
ATOM     16  C   UNL A   1      32.821  22.344  25.083  1.00  0.00     0.175 C 
BRANCH  16  17
ATOM     17  S   UNL A   1      32.464  21.455  23.532  1.00  0.00    -0.116 SA
BRANCH  17  18
ATOM     18  C   UNL A   1      32.662  19.734  23.965  1.00  0.00     0.008 A 
ATOM     19  C   UNL A   1      32.660  19.431  25.334  1.00  0.00     0.016 A 
ATOM     20  C   UNL A   1      32.782  18.685  23.046  1.00  0.00     0.016 A 
ATOM     21  C   UNL A   1      32.793  18.113  25.780  1.00  0.00     0.021 A 
ATOM     22  C   UNL A   1      32.916  17.364  23.491  1.00  0.00     0.021 A 
ATOM     23  C   UNL A   1      32.922  17.084  24.855  1.00  0.00     0.041 A 
ATOM     24  Cl  UNL A   1      33.077  15.460  25.399  1.00  0.00    -0.084 Cl
ENDBRANCH  17  18
ENDBRANCH  16  17
ENDBRANCH  14  16
ENDBRANCH   7  12
ENDBRANCH   3   6
ENDBRANCH   1   2
BRANCH   1  25
ATOM     25  C   UNL A   1      30.970  31.802  26.016  1.00  0.00     0.042 C 
BRANCH  25  26
ATOM     26  C   UNL A   1      32.201  32.088  26.872  1.00  0.00     0.118 C 
BRANCH  26  27
ATOM     27  N   UNL A   1      32.324  33.503  27.188  1.00  0.00    -0.352 N 
ATOM     28  C   UNL A   1      33.148  34.144  28.076  1.00  0.00     0.251 C 
ATOM     29  H   UNL A   1      31.719  34.093  26.683  1.00  0.00     0.163 HD
ATOM     30  O   UNL A   1      32.932  35.327  28.333  1.00  0.00    -0.269 OA
BRANCH  28  31
ATOM     31  C   UNL A   1      34.281  33.443  28.722  1.00  0.00     0.039 A 
ATOM     32  C   UNL A   1      34.040  32.745  29.909  1.00  0.00     0.014 A 
ATOM     33  C   UNL A   1      35.582  33.525  28.217  1.00  0.00     0.014 A 
ATOM     34  C   UNL A   1      35.093  32.113  30.574  1.00  0.00     0.010 A 
ATOM     35  C   UNL A   1      36.618  32.832  28.841  1.00  0.00     0.010 A 
ATOM     36  C   UNL A   1      36.391  32.140  30.038  1.00  0.00    -0.014 A 
BRANCH  36  37
ATOM     37  C   UNL A   1      37.512  31.458  30.732  1.00  0.00     0.031 A 
ATOM     38  C   UNL A   1      38.330  30.413  30.022  1.00  0.00     0.074 A 
ATOM     39  C   UNL A   1      37.764  31.744  32.024  1.00  0.00     0.049 A 
ATOM     40  N   UNL A   1      39.363  29.738  30.457  1.00  0.00    -0.248 NA
ATOM     41  C   UNL A   1      37.918  30.058  28.654  1.00  0.00     0.031 C 
ATOM     42  C   UNL A   1      36.992  32.679  32.845  1.00  0.00     0.029 A 
ATOM     43  N   UNL A   1      38.729  31.273  32.875  1.00  0.00    -0.354 N 
ATOM     44  C   UNL A   1      39.701  28.858  29.436  1.00  0.00     0.074 A 
ATOM     45  C   UNL A   1      38.739  29.056  28.374  1.00  0.00     0.031 C 
ATOM     46  C   UNL A   1      37.529  32.732  34.073  1.00  0.00     0.029 A 
ATOM     47  C   UNL A   1      38.669  31.822  34.135  1.00  0.00     0.049 A 
ATOM     48  H   UNL A   1      39.402  30.605  32.611  1.00  0.00     0.167 HD
ATOM     49  C   UNL A   1      40.738  27.987  29.371  1.00  0.00     0.034 A 
ATOM     50  C   UNL A   1      39.454  31.627  35.212  1.00  0.00     0.034 A 
ATOM     51  C   UNL A   1      41.718  27.828  30.412  1.00  0.00     0.049 A 
ATOM     52  C   UNL A   1      40.629  30.695  35.101  1.00  0.00     0.074 A 
ATOM     53  C   UNL A   1      42.861  27.050  30.408  1.00  0.00     0.029 A 
ATOM     54  N   UNL A   1      41.664  28.452  31.649  1.00  0.00    -0.354 N 
ATOM     55  N   UNL A   1      41.036  30.001  34.065  1.00  0.00    -0.248 NA
ATOM     56  C   UNL A   1      41.475  30.549  36.294  1.00  0.00     0.031 C 
ATOM     57  C   UNL A   1      43.487  27.187  31.653  1.00  0.00     0.029 A 
ATOM     58  C   UNL A   1      42.746  28.069  32.423  1.00  0.00     0.049 A 
ATOM     59  H   UNL A   1      40.958  29.077  31.935  1.00  0.00     0.167 HD
ATOM     60  C   UNL A   1      42.205  29.366  34.468  1.00  0.00     0.074 A 
ATOM     61  C   UNL A   1      42.449  29.772  35.838  1.00  0.00     0.031 C 
ATOM     62  C   UNL A   1      43.001  28.518  33.769  1.00  0.00     0.034 A 
BRANCH  49  63
ATOM     63  C   UNL A   1      40.891  27.181  28.105  1.00  0.00     0.023 A 
ATOM     64  C   UNL A   1      41.432  27.789  26.953  1.00  0.00     0.012 A 
ATOM     65  C   UNL A   1      40.524  25.822  28.056  1.00  0.00     0.148 A 
ATOM     66  C   UNL A   1      41.557  27.076  25.761  1.00  0.00     0.002 A 
ATOM     67  C   UNL A   1      40.696  25.105  26.877  1.00  0.00     0.091 A 
ATOM     68  F   UNL A   1      39.990  25.260  29.150  1.00  0.00    -0.205 F 
ATOM     69  C   UNL A   1      41.198  25.733  25.725  1.00  0.00     0.022 A 
BRANCH  67  70
ATOM     70  S   UNL A   1      40.335  23.348  26.761  1.00  0.00     0.127 S 
ATOM     71  O   UNL A   1      38.912  23.358  26.431  1.00  0.00    -0.237 OA
ATOM     72  O   UNL A   1      41.210  22.920  25.669  1.00  0.00    -0.237 OA
ATOM     73  O   UNL A   1      40.681  22.788  28.060  1.00  0.00    -0.744 OA
ENDBRANCH  67  70
ENDBRANCH  49  63
BRANCH  50  74
ATOM     74  C   UNL A   1      39.212  32.422  36.449  1.00  0.00     0.023 A 
ATOM     75  C   UNL A   1      39.804  33.695  36.570  1.00  0.00     0.012 A 
ATOM     76  C   UNL A   1      38.355  31.962  37.468  1.00  0.00     0.148 A 
ATOM     77  C   UNL A   1      39.563  34.488  37.691  1.00  0.00     0.002 A 
ATOM     78  C   UNL A   1      38.078  32.779  38.558  1.00  0.00     0.091 A 
ATOM     79  F   UNL A   1      37.807  30.746  37.335  1.00  0.00    -0.205 F 
ATOM     80  C   UNL A   1      38.692  34.036  38.679  1.00  0.00     0.022 A 
BRANCH  78  81
ATOM     81  S   UNL A   1      36.874  32.341  39.817  1.00  0.00     0.127 S 
ATOM     82  O   UNL A   1      37.388  31.058  40.291  1.00  0.00    -0.237 OA
ATOM     83  O   UNL A   1      37.012  33.448  40.762  1.00  0.00    -0.237 OA
ATOM     84  O   UNL A   1      35.588  32.289  39.133  1.00  0.00    -0.744 OA
ENDBRANCH  78  81
ENDBRANCH  50  74
BRANCH  62  85
ATOM     85  C   UNL A   1      44.230  27.986  34.458  1.00  0.00     0.023 A 
ATOM     86  C   UNL A   1      45.368  28.805  34.593  1.00  0.00     0.012 A 
ATOM     87  C   UNL A   1      44.229  26.702  35.040  1.00  0.00     0.148 A 
ATOM     88  C   UNL A   1      46.497  28.345  35.270  1.00  0.00     0.002 A 
ATOM     89  C   UNL A   1      45.340  26.269  35.754  1.00  0.00     0.091 A 
ATOM     90  F   UNL A   1      43.145  25.929  34.882  1.00  0.00    -0.205 F 
ATOM     91  C   UNL A   1      46.478  27.084  35.861  1.00  0.00     0.022 A 
BRANCH  89  92
ATOM     92  S   UNL A   1      45.366  24.699  36.629  1.00  0.00     0.127 S 
ATOM     93  O   UNL A   1      44.993  23.762  35.571  1.00  0.00    -0.237 OA
ATOM     94  O   UNL A   1      46.761  24.607  37.062  1.00  0.00    -0.237 OA
ATOM     95  O   UNL A   1      44.406  24.831  37.717  1.00  0.00    -0.744 OA
ENDBRANCH  89  92
ENDBRANCH  62  85
ENDBRANCH  36  37
ENDBRANCH  28  31
ENDBRANCH  26  27
ENDBRANCH  25  26
ENDBRANCH   1  25
TORSDOF 17
ENDMDL
