MODEL 1
REMARK VINA RESULT:     -12.2      0.000      0.000
REMARK SMILES O=C(NCCCNC(=O)[C@H]1C[C@H]2CCCC[C@@H]2[N@@H+]1CCn1ccnc1)c1ccc(-c2c3nc(c(-c4cccc(S(=O)(=O)[O-])c4F)c4ccc([nH]4)c(-c4cccc(S(=O)(=O)[O-])c4F)c4nc(c(-c5cccc(S(=O)(=O)[O-])c5F)c5ccc2[nH]5)C=C4)C=C3)cc1
REMARK SMILES IDX 5 1 4 2 3 3 1 4 2 5 26 7 27 8 88 9 28 10 87 11 29 12 30 13
REMARK SMILES IDX 31 14 81 15 32 16 86 17 80 18 82 19 33 20 85 21 79 22 78 23
REMARK SMILES IDX 34 25 66 26 46 27 65 28 47 29 50 30 64 31 83 32 48 33 49 34
REMARK SMILES IDX 63 36 84 37 51 38 35 39 36 40 44 41 37 42 39 43 45 44 38 45
REMARK SMILES IDX 40 46 41 47 42 48 43 49 67 50 68 51 76 52 69 53 71 54 77 55
REMARK SMILES IDX 70 56 72 57 73 58 74 59 75 60 52 61 53 62 61 63 54 64 56 65
REMARK SMILES IDX 62 66 55 67 57 68 58 69 59 70 60 71 6 72 7 73 8 74 9 76
REMARK SMILES IDX 10 77 11 78 18 79 12 80 17 81 13 83 16 84 14 85 15 86 19 87
REMARK SMILES IDX 20 88 21 89 22 90 25 91 23 92 24 93
REMARK H PARENT 3 6 82 24 50 35 7 75 18 82
REMARK Flexibility Score: inf
ROOT
ATOM      1  C   UNL A   1      31.934  28.573  27.028  1.00  0.00     0.042 C 
ENDROOT
BRANCH   1   2
ATOM      2  C   UNL A   1      32.917  29.577  26.446  1.00  0.00     0.118 C 
BRANCH   2   3
ATOM      3  N   UNL A   1      32.997  30.829  27.166  1.00  0.00    -0.352 N 
ATOM      4  O   UNL A   1      33.681  32.662  28.167  1.00  0.00    -0.269 OA
ATOM      5  C   UNL A   1      33.999  31.539  27.767  1.00  0.00     0.251 C 
ATOM      6  H   UNL A   1      32.123  31.275  27.242  1.00  0.00     0.163 HD
BRANCH   5   7
ATOM      7  C   UNL A   1      35.373  31.036  28.034  1.00  0.00     0.039 A 
ATOM      8  C   UNL A   1      35.763  29.695  28.070  1.00  0.00     0.014 A 
ATOM      9  C   UNL A   1      36.332  32.024  28.321  1.00  0.00     0.014 A 
ATOM     10  C   UNL A   1      37.037  29.340  28.509  1.00  0.00     0.010 A 
ATOM     11  C   UNL A   1      37.613  31.680  28.725  1.00  0.00     0.010 A 
ATOM     12  C   UNL A   1      37.946  30.335  28.865  1.00  0.00    -0.014 A 
BRANCH  12  13
ATOM     13  C   UNL A   1      39.311  29.950  29.217  1.00  0.00     0.031 A 
ATOM     14  C   UNL A   1      39.686  30.242  30.636  1.00  0.00     0.074 A 
ATOM     15  C   UNL A   1      40.064  29.205  28.380  1.00  0.00     0.049 A 
ATOM     16  N   UNL A   1      40.725  30.867  31.093  1.00  0.00    -0.248 NA
ATOM     17  C   UNL A   1      38.705  29.889  31.680  1.00  0.00     0.031 C 
ATOM     18  C   UNL A   1      39.648  28.632  27.093  1.00  0.00     0.029 A 
ATOM     19  N   UNL A   1      41.293  28.647  28.577  1.00  0.00    -0.354 N 
ATOM     20  C   UNL A   1      40.631  30.785  32.487  1.00  0.00     0.074 A 
ATOM     21  C   UNL A   1      39.297  30.344  32.782  1.00  0.00     0.031 C 
ATOM     22  C   UNL A   1      40.471  27.609  26.777  1.00  0.00     0.029 A 
ATOM     23  C   UNL A   1      41.530  27.536  27.767  1.00  0.00     0.049 A 
ATOM     24  H   UNL A   1      41.948  28.993  29.227  1.00  0.00     0.167 HD
ATOM     25  C   UNL A   1      41.732  30.844  33.289  1.00  0.00     0.034 A 
ATOM     26  C   UNL A   1      42.452  26.560  27.965  1.00  0.00     0.034 A 
ATOM     27  C   UNL A   1      42.840  31.464  32.617  1.00  0.00     0.049 A 
ATOM     28  C   UNL A   1      43.454  27.079  28.921  1.00  0.00     0.074 A 
ATOM     29  C   UNL A   1      43.077  32.700  32.050  1.00  0.00     0.029 A 
ATOM     30  N   UNL A   1      43.828  30.639  32.144  1.00  0.00    -0.354 N 
ATOM     31  N   UNL A   1      44.261  28.067  28.655  1.00  0.00    -0.248 NA
ATOM     32  C   UNL A   1      43.257  26.788  30.331  1.00  0.00     0.031 C 
ATOM     33  C   UNL A   1      43.877  32.425  30.903  1.00  0.00     0.029 A 
ATOM     34  C   UNL A   1      44.126  31.051  30.876  1.00  0.00     0.049 A 
ATOM     35  H   UNL A   1      44.245  29.890  32.628  1.00  0.00     0.167 HD
ATOM     36  C   UNL A   1      44.305  28.799  29.833  1.00  0.00     0.074 A 
ATOM     37  C   UNL A   1      43.752  27.912  30.855  1.00  0.00     0.031 C 
ATOM     38  C   UNL A   1      44.506  30.150  29.813  1.00  0.00     0.034 A 
BRANCH  25  39
ATOM     39  C   UNL A   1      41.942  29.988  34.527  1.00  0.00     0.023 A 
ATOM     40  C   UNL A   1      42.581  30.603  35.631  1.00  0.00     0.012 A 
ATOM     41  C   UNL A   1      41.843  28.577  34.560  1.00  0.00     0.148 A 
ATOM     42  C   UNL A   1      43.177  29.852  36.651  1.00  0.00     0.002 A 
ATOM     43  C   UNL A   1      42.379  27.838  35.609  1.00  0.00     0.091 A 
ATOM     44  F   UNL A   1      41.340  27.912  33.518  1.00  0.00    -0.205 F 
ATOM     45  C   UNL A   1      43.081  28.467  36.638  1.00  0.00     0.022 A 
BRANCH  43  46
ATOM     46  S   UNL A   1      42.255  26.045  35.657  1.00  0.00     0.127 S 
ATOM     47  O   UNL A   1      43.035  25.669  34.483  1.00  0.00    -0.237 OA
ATOM     48  O   UNL A   1      42.879  25.737  36.943  1.00  0.00    -0.237 OA
ATOM     49  O   UNL A   1      40.828  25.751  35.603  1.00  0.00    -0.744 OA
ENDBRANCH  43  46
ENDBRANCH  25  39
BRANCH  26  50
ATOM     50  C   UNL A   1      42.357  25.113  27.648  1.00  0.00     0.023 A 
ATOM     51  C   UNL A   1      41.173  24.403  27.935  1.00  0.00     0.012 A 
ATOM     52  C   UNL A   1      43.322  24.489  26.826  1.00  0.00     0.148 A 
ATOM     53  C   UNL A   1      40.954  23.123  27.408  1.00  0.00     0.002 A 
ATOM     54  C   UNL A   1      43.107  23.213  26.317  1.00  0.00     0.091 A 
ATOM     55  F   UNL A   1      44.408  25.185  26.466  1.00  0.00    -0.205 F 
ATOM     56  C   UNL A   1      41.918  22.529  26.596  1.00  0.00     0.022 A 
BRANCH  54  57
ATOM     57  S   UNL A   1      44.301  22.392  25.252  1.00  0.00     0.127 S 
ATOM     58  O   UNL A   1      44.361  23.301  24.109  1.00  0.00    -0.237 OA
ATOM     59  O   UNL A   1      45.494  22.377  26.089  1.00  0.00    -0.237 OA
ATOM     60  O   UNL A   1      43.725  21.085  24.945  1.00  0.00    -0.744 OA
ENDBRANCH  54  57
ENDBRANCH  26  50
BRANCH  38  61
ATOM     61  C   UNL A   1      44.900  30.793  28.510  1.00  0.00     0.023 A 
ATOM     62  C   UNL A   1      43.945  31.264  27.583  1.00  0.00     0.012 A 
ATOM     63  C   UNL A   1      46.253  31.105  28.308  1.00  0.00     0.148 A 
ATOM     64  C   UNL A   1      44.336  32.013  26.471  1.00  0.00     0.002 A 
ATOM     65  C   UNL A   1      46.633  31.890  27.229  1.00  0.00     0.091 A 
ATOM     66  F   UNL A   1      47.145  30.657  29.205  1.00  0.00    -0.205 F 
ATOM     67  C   UNL A   1      45.679  32.339  26.301  1.00  0.00     0.022 A 
BRANCH  65  68
ATOM     68  S   UNL A   1      48.324  32.456  27.030  1.00  0.00     0.127 S 
ATOM     69  O   UNL A   1      48.579  33.108  28.314  1.00  0.00    -0.237 OA
ATOM     70  O   UNL A   1      49.051  31.203  26.823  1.00  0.00    -0.237 OA
ATOM     71  O   UNL A   1      48.318  33.340  25.870  1.00  0.00    -0.744 OA
ENDBRANCH  65  68
ENDBRANCH  38  61
ENDBRANCH  12  13
ENDBRANCH   5   7
ENDBRANCH   2   3
ENDBRANCH   1   2
BRANCH   1  72
ATOM     72  C   UNL A   1      31.409  27.550  26.032  1.00  0.00     0.118 C 
BRANCH  72  73
ATOM     73  N   UNL A   1      31.035  26.272  26.607  1.00  0.00    -0.351 N 
ATOM     74  C   UNL A   1      31.586  25.027  26.524  1.00  0.00     0.278 C 
ATOM     75  H   UNL A   1      30.226  26.311  27.167  1.00  0.00     0.163 HD
ATOM     76  O   UNL A   1      31.101  24.174  27.286  1.00  0.00    -0.268 OA
BRANCH  74  77
ATOM     77  C   UNL A   1      32.725  24.608  25.551  1.00  0.00     0.274 C 
ATOM     78  C   UNL A   1      33.803  23.708  26.156  1.00  0.00     0.085 C 
ATOM     79  N   UNL A   1      32.204  23.921  24.327  1.00  0.00    -0.321 N 
ATOM     80  C   UNL A   1      33.801  22.478  25.262  1.00  0.00     0.054 C 
ATOM     81  C   UNL A   1      32.461  22.495  24.540  1.00  0.00     0.188 C 
ATOM     82  H   UNL A   1      31.201  24.070  24.213  1.00  0.00     0.349 HD
ATOM     83  C   UNL A   1      34.106  21.131  25.887  1.00  0.00     0.010 C 
ATOM     84  C   UNL A   1      32.380  21.453  23.432  1.00  0.00     0.065 C 
ATOM     85  C   UNL A   1      34.084  20.065  24.789  1.00  0.00     0.001 C 
ATOM     86  C   UNL A   1      32.789  20.070  23.963  1.00  0.00     0.006 C 
BRANCH  79  87
ATOM     87  C   UNL A   1      32.648  24.499  23.044  1.00  0.00     0.285 C 
BRANCH  87  88
ATOM     88  C   UNL A   1      33.239  25.931  22.898  1.00  0.00     0.184 C 
BRANCH  88  89
ATOM     89  N   UNL A   1      32.330  27.027  22.637  1.00  0.00    -0.332 N 
ATOM     90  C   UNL A   1      32.569  28.365  22.791  1.00  0.00     0.107 A 
ATOM     91  C   UNL A   1      31.058  26.904  22.146  1.00  0.00     0.199 A 
ATOM     92  C   UNL A   1      31.351  28.970  22.579  1.00  0.00     0.130 A 
ATOM     93  N   UNL A   1      30.429  28.056  22.143  1.00  0.00    -0.245 NA
ENDBRANCH  88  89
ENDBRANCH  87  88
ENDBRANCH  79  87
ENDBRANCH  74  77
ENDBRANCH  72  73
ENDBRANCH   1  72
TORSDOF 16
ENDMDL
MODEL 2
REMARK VINA RESULT:     -12.1      3.439      7.759
REMARK SMILES O=C(NCCCNC(=O)[C@H]1C[C@H]2CCCC[C@@H]2[N@@H+]1CCn1ccnc1)c1ccc(-c2c3nc(c(-c4cccc(S(=O)(=O)[O-])c4F)c4ccc([nH]4)c(-c4cccc(S(=O)(=O)[O-])c4F)c4nc(c(-c5cccc(S(=O)(=O)[O-])c5F)c5ccc2[nH]5)C=C4)C=C3)cc1
REMARK SMILES IDX 5 1 4 2 3 3 1 4 2 5 26 7 27 8 88 9 28 10 87 11 29 12 30 13
REMARK SMILES IDX 31 14 81 15 32 16 86 17 80 18 82 19 33 20 85 21 79 22 78 23
REMARK SMILES IDX 34 25 66 26 46 27 65 28 47 29 50 30 64 31 83 32 48 33 49 34
REMARK SMILES IDX 63 36 84 37 51 38 35 39 36 40 44 41 37 42 39 43 45 44 38 45
REMARK SMILES IDX 40 46 41 47 42 48 43 49 67 50 68 51 76 52 69 53 71 54 77 55
REMARK SMILES IDX 70 56 72 57 73 58 74 59 75 60 52 61 53 62 61 63 54 64 56 65
REMARK SMILES IDX 62 66 55 67 57 68 58 69 59 70 60 71 6 72 7 73 8 74 9 76
REMARK SMILES IDX 10 77 11 78 18 79 12 80 17 81 13 83 16 84 14 85 15 86 19 87
REMARK SMILES IDX 20 88 21 89 22 90 25 91 23 92 24 93
REMARK H PARENT 3 6 82 24 50 35 7 75 18 82
REMARK Flexibility Score: inf
ROOT
ATOM      1  C   UNL A   1      38.173  20.020  24.664  1.00  0.00     0.042 C 
ENDROOT
BRANCH   1   2
ATOM      2  C   UNL A   1      38.721  19.156  25.789  1.00  0.00     0.118 C 
BRANCH   2   3
ATOM      3  N   UNL A   1      40.095  18.738  25.613  1.00  0.00    -0.352 N 
ATOM      4  O   UNL A   1      42.276  18.508  25.746  1.00  0.00    -0.269 OA
ATOM      5  C   UNL A   1      41.314  19.250  25.959  1.00  0.00     0.251 C 
ATOM      6  H   UNL A   1      40.169  17.884  25.131  1.00  0.00     0.163 HD
BRANCH   5   7
ATOM      7  C   UNL A   1      41.558  20.623  26.479  1.00  0.00     0.039 A 
ATOM      8  C   UNL A   1      42.291  21.625  25.839  1.00  0.00     0.014 A 
ATOM      9  C   UNL A   1      41.033  20.885  27.757  1.00  0.00     0.014 A 
ATOM     10  C   UNL A   1      42.605  22.808  26.504  1.00  0.00     0.010 A 
ATOM     11  C   UNL A   1      41.311  22.075  28.413  1.00  0.00     0.010 A 
ATOM     12  C   UNL A   1      42.139  23.014  27.802  1.00  0.00    -0.014 A 
BRANCH  12  13
ATOM     13  C   UNL A   1      42.384  24.304  28.443  1.00  0.00     0.031 A 
ATOM     14  C   UNL A   1      41.336  25.336  28.168  1.00  0.00     0.074 A 
ATOM     15  C   UNL A   1      43.359  24.450  29.366  1.00  0.00     0.049 A 
ATOM     16  N   UNL A   1      41.480  26.554  27.751  1.00  0.00    -0.248 NA
ATOM     17  C   UNL A   1      39.927  24.908  28.262  1.00  0.00     0.031 C 
ATOM     18  C   UNL A   1      44.233  23.399  29.900  1.00  0.00     0.029 A 
ATOM     19  N   UNL A   1      43.656  25.523  30.155  1.00  0.00    -0.354 N 
ATOM     20  C   UNL A   1      40.194  27.106  27.746  1.00  0.00     0.074 A 
ATOM     21  C   UNL A   1      39.278  26.009  27.888  1.00  0.00     0.031 C 
ATOM     22  C   UNL A   1      44.741  23.804  31.084  1.00  0.00     0.029 A 
ATOM     23  C   UNL A   1      44.327  25.174  31.327  1.00  0.00     0.049 A 
ATOM     24  H   UNL A   1      43.421  26.450  29.921  1.00  0.00     0.167 HD
ATOM     25  C   UNL A   1      39.983  28.446  27.878  1.00  0.00     0.034 A 
ATOM     26  C   UNL A   1      44.430  25.911  32.462  1.00  0.00     0.034 A 
ATOM     27  C   UNL A   1      41.157  29.200  27.532  1.00  0.00     0.049 A 
ATOM     28  C   UNL A   1      44.102  27.311  32.117  1.00  0.00     0.074 A 
ATOM     29  C   UNL A   1      41.933  29.343  26.399  1.00  0.00     0.029 A 
ATOM     30  N   UNL A   1      41.903  29.708  28.564  1.00  0.00    -0.354 N 
ATOM     31  N   UNL A   1      44.832  28.050  31.330  1.00  0.00    -0.248 NA
ATOM     32  C   UNL A   1      42.727  27.747  32.295  1.00  0.00     0.031 C 
ATOM     33  C   UNL A   1      43.266  29.463  26.887  1.00  0.00     0.029 A 
ATOM     34  C   UNL A   1      43.214  29.446  28.282  1.00  0.00     0.049 A 
ATOM     35  H   UNL A   1      41.558  30.174  29.360  1.00  0.00     0.167 HD
ATOM     36  C   UNL A   1      43.909  28.753  30.568  1.00  0.00     0.074 A 
ATOM     37  C   UNL A   1      42.638  28.603  31.274  1.00  0.00     0.031 C 
ATOM     38  C   UNL A   1      44.200  29.138  29.291  1.00  0.00     0.034 A 
BRANCH  25  39
ATOM     39  C   UNL A   1      38.865  29.065  28.700  1.00  0.00     0.023 A 
ATOM     40  C   UNL A   1      38.074  30.053  28.065  1.00  0.00     0.012 A 
ATOM     41  C   UNL A   1      38.750  28.971  30.107  1.00  0.00     0.148 A 
ATOM     42  C   UNL A   1      37.298  30.960  28.797  1.00  0.00     0.002 A 
ATOM     43  C   UNL A   1      37.925  29.831  30.824  1.00  0.00     0.091 A 
ATOM     44  F   UNL A   1      39.528  28.131  30.793  1.00  0.00    -0.205 F 
ATOM     45  C   UNL A   1      37.227  30.852  30.180  1.00  0.00     0.022 A 
BRANCH  43  46
ATOM     46  S   UNL A   1      37.773  29.715  32.613  1.00  0.00     0.127 S 
ATOM     47  O   UNL A   1      39.104  30.130  33.044  1.00  0.00    -0.237 OA
ATOM     48  O   UNL A   1      36.704  30.675  32.884  1.00  0.00    -0.237 OA
ATOM     49  O   UNL A   1      37.411  28.329  32.884  1.00  0.00    -0.744 OA
ENDBRANCH  43  46
ENDBRANCH  25  39
BRANCH  26  50
ATOM     50  C   UNL A   1      44.471  25.448  33.872  1.00  0.00     0.023 A 
ATOM     51  C   UNL A   1      43.479  24.571  34.356  1.00  0.00     0.012 A 
ATOM     52  C   UNL A   1      45.622  25.649  34.665  1.00  0.00     0.148 A 
ATOM     53  C   UNL A   1      43.637  23.908  35.581  1.00  0.00     0.002 A 
ATOM     54  C   UNL A   1      45.768  25.001  35.887  1.00  0.00     0.091 A 
ATOM     55  F   UNL A   1      46.617  26.403  34.178  1.00  0.00    -0.205 F 
ATOM     56  C   UNL A   1      44.783  24.119  36.344  1.00  0.00     0.022 A 
BRANCH  54  57
ATOM     57  S   UNL A   1      47.227  25.217  36.918  1.00  0.00     0.127 S 
ATOM     58  O   UNL A   1      46.913  24.368  38.066  1.00  0.00    -0.237 OA
ATOM     59  O   UNL A   1      48.287  24.713  36.053  1.00  0.00    -0.237 OA
ATOM     60  O   UNL A   1      47.285  26.643  37.228  1.00  0.00    -0.744 OA
ENDBRANCH  54  57
ENDBRANCH  26  50
BRANCH  38  61
ATOM     61  C   UNL A   1      45.617  28.980  28.805  1.00  0.00     0.023 A 
ATOM     62  C   UNL A   1      46.625  29.923  29.100  1.00  0.00     0.012 A 
ATOM     63  C   UNL A   1      45.980  27.762  28.209  1.00  0.00     0.148 A 
ATOM     64  C   UNL A   1      47.962  29.663  28.790  1.00  0.00     0.002 A 
ATOM     65  C   UNL A   1      47.315  27.487  27.947  1.00  0.00     0.091 A 
ATOM     66  F   UNL A   1      45.010  26.874  27.945  1.00  0.00    -0.205 F 
ATOM     67  C   UNL A   1      48.310  28.438  28.226  1.00  0.00     0.022 A 
BRANCH  65  68
ATOM     68  S   UNL A   1      47.840  25.879  27.349  1.00  0.00     0.127 S 
ATOM     69  O   UNL A   1      47.269  25.853  26.004  1.00  0.00    -0.237 OA
ATOM     70  O   UNL A   1      49.299  25.990  27.395  1.00  0.00    -0.237 OA
ATOM     71  O   UNL A   1      47.289  24.903  28.282  1.00  0.00    -0.744 OA
ENDBRANCH  65  68
ENDBRANCH  38  61
ENDBRANCH  12  13
ENDBRANCH   5   7
ENDBRANCH   2   3
ENDBRANCH   1   2
BRANCH   1  72
ATOM     72  C   UNL A   1      37.493  21.301  25.122  1.00  0.00     0.118 C 
BRANCH  72  73
ATOM     73  N   UNL A   1      36.952  22.123  24.056  1.00  0.00    -0.351 N 
ATOM     74  C   UNL A   1      35.732  22.703  23.867  1.00  0.00     0.278 C 
ATOM     75  H   UNL A   1      37.590  22.295  23.327  1.00  0.00     0.163 HD
ATOM     76  O   UNL A   1      35.656  23.490  22.910  1.00  0.00    -0.268 OA
BRANCH  74  77
ATOM     77  C   UNL A   1      34.463  22.434  24.726  1.00  0.00     0.274 C 
ATOM     78  C   UNL A   1      34.078  23.555  25.693  1.00  0.00     0.085 C 
ATOM     79  N   UNL A   1      33.260  22.136  23.885  1.00  0.00    -0.321 N 
ATOM     80  C   UNL A   1      32.651  23.904  25.303  1.00  0.00     0.054 C 
ATOM     81  C   UNL A   1      32.465  23.366  23.891  1.00  0.00     0.188 C 
ATOM     82  H   UNL A   1      33.522  21.907  22.926  1.00  0.00     0.349 HD
ATOM     83  C   UNL A   1      32.199  25.345  25.439  1.00  0.00     0.010 C 
ATOM     84  C   UNL A   1      31.017  23.432  23.426  1.00  0.00     0.065 C 
ATOM     85  C   UNL A   1      30.727  25.436  25.027  1.00  0.00     0.001 C 
ATOM     86  C   UNL A   1      30.445  24.842  23.639  1.00  0.00     0.006 C 
BRANCH  79  87
ATOM     87  C   UNL A   1      32.558  20.881  24.214  1.00  0.00     0.285 C 
BRANCH  87  88
ATOM     88  C   UNL A   1      32.972  19.937  25.380  1.00  0.00     0.184 C 
BRANCH  88  89
ATOM     89  N   UNL A   1      33.241  18.547  25.078  1.00  0.00    -0.332 N 
ATOM     90  C   UNL A   1      32.471  17.460  25.390  1.00  0.00     0.107 A 
ATOM     91  C   UNL A   1      34.323  18.082  24.379  1.00  0.00     0.199 A 
ATOM     92  C   UNL A   1      33.238  16.371  25.041  1.00  0.00     0.130 A 
ATOM     93  N   UNL A   1      34.369  16.770  24.381  1.00  0.00    -0.245 NA
ENDBRANCH  88  89
ENDBRANCH  87  88
ENDBRANCH  79  87
ENDBRANCH  74  77
ENDBRANCH  72  73
ENDBRANCH   1  72
TORSDOF 16
ENDMDL
MODEL 3
REMARK VINA RESULT:     -12.1      2.423      3.238
REMARK SMILES O=C(NCCCNC(=O)[C@H]1C[C@H]2CCCC[C@@H]2[N@@H+]1CCn1ccnc1)c1ccc(-c2c3nc(c(-c4cccc(S(=O)(=O)[O-])c4F)c4ccc([nH]4)c(-c4cccc(S(=O)(=O)[O-])c4F)c4nc(c(-c5cccc(S(=O)(=O)[O-])c5F)c5ccc2[nH]5)C=C4)C=C3)cc1
REMARK SMILES IDX 5 1 4 2 3 3 1 4 2 5 26 7 27 8 88 9 28 10 87 11 29 12 30 13
REMARK SMILES IDX 31 14 81 15 32 16 86 17 80 18 82 19 33 20 85 21 79 22 78 23
REMARK SMILES IDX 34 25 66 26 46 27 65 28 47 29 50 30 64 31 83 32 48 33 49 34
REMARK SMILES IDX 63 36 84 37 51 38 35 39 36 40 44 41 37 42 39 43 45 44 38 45
REMARK SMILES IDX 40 46 41 47 42 48 43 49 67 50 68 51 76 52 69 53 71 54 77 55
REMARK SMILES IDX 70 56 72 57 73 58 74 59 75 60 52 61 53 62 61 63 54 64 56 65
REMARK SMILES IDX 62 66 55 67 57 68 58 69 59 70 60 71 6 72 7 73 8 74 9 76
REMARK SMILES IDX 10 77 11 78 18 79 12 80 17 81 13 83 16 84 14 85 15 86 19 87
REMARK SMILES IDX 20 88 21 89 22 90 25 91 23 92 24 93
REMARK H PARENT 3 6 82 24 50 35 7 75 18 82
REMARK Flexibility Score: inf
ROOT
ATOM      1  C   UNL A   1      32.696  29.830  26.936  1.00  0.00     0.042 C 
ENDROOT
BRANCH   1   2
ATOM      2  C   UNL A   1      34.157  30.163  27.199  1.00  0.00     0.118 C 
BRANCH   2   3
ATOM      3  N   UNL A   1      34.375  31.122  28.259  1.00  0.00    -0.352 N 
ATOM      4  O   UNL A   1      35.259  32.475  29.749  1.00  0.00    -0.269 OA
ATOM      5  C   UNL A   1      35.445  31.493  29.024  1.00  0.00     0.251 C 
ATOM      6  H   UNL A   1      33.561  31.627  28.482  1.00  0.00     0.163 HD
BRANCH   5   7
ATOM      7  C   UNL A   1      36.744  30.772  29.101  1.00  0.00     0.039 A 
ATOM      8  C   UNL A   1      36.920  29.388  29.021  1.00  0.00     0.014 A 
ATOM      9  C   UNL A   1      37.872  31.582  29.325  1.00  0.00     0.014 A 
ATOM     10  C   UNL A   1      38.162  28.816  29.287  1.00  0.00     0.010 A 
ATOM     11  C   UNL A   1      39.119  31.022  29.556  1.00  0.00     0.010 A 
ATOM     12  C   UNL A   1      39.250  29.635  29.585  1.00  0.00    -0.014 A 
BRANCH  12  13
ATOM     13  C   UNL A   1      40.567  29.026  29.753  1.00  0.00     0.031 A 
ATOM     14  C   UNL A   1      40.959  28.791  31.178  1.00  0.00     0.074 A 
ATOM     15  C   UNL A   1      41.248  28.534  28.696  1.00  0.00     0.049 A 
ATOM     16  N   UNL A   1      42.051  29.125  31.789  1.00  0.00    -0.248 NA
ATOM     17  C   UNL A   1      39.940  28.207  32.071  1.00  0.00     0.031 C 
ATOM     18  C   UNL A   1      40.786  28.465  27.304  1.00  0.00     0.029 A 
ATOM     19  N   UNL A   1      42.414  27.827  28.665  1.00  0.00    -0.354 N 
ATOM     20  C   UNL A   1      41.940  28.593  33.079  1.00  0.00     0.074 A 
ATOM     21  C   UNL A   1      40.567  28.209  33.245  1.00  0.00     0.031 C 
ATOM     22  C   UNL A   1      41.506  27.532  26.644  1.00  0.00     0.029 A 
ATOM     23  C   UNL A   1      42.545  27.032  27.526  1.00  0.00     0.049 A 
ATOM     24  H   UNL A   1      43.095  27.872  29.375  1.00  0.00     0.167 HD
ATOM     25  C   UNL A   1      43.035  28.275  33.825  1.00  0.00     0.034 A 
ATOM     26  C   UNL A   1      43.365  25.962  27.363  1.00  0.00     0.034 A 
ATOM     27  C   UNL A   1      44.205  28.974  33.368  1.00  0.00     0.049 A 
ATOM     28  C   UNL A   1      44.406  26.034  28.411  1.00  0.00     0.074 A 
ATOM     29  C   UNL A   1      44.568  30.300  33.238  1.00  0.00     0.029 A 
ATOM     30  N   UNL A   1      45.109  28.263  32.623  1.00  0.00    -0.354 N 
ATOM     31  N   UNL A   1      45.309  26.972  28.467  1.00  0.00    -0.248 NA
ATOM     32  C   UNL A   1      44.172  25.310  29.648  1.00  0.00     0.031 C 
ATOM     33  C   UNL A   1      45.345  30.347  32.044  1.00  0.00     0.029 A 
ATOM     34  C   UNL A   1      45.456  29.044  31.556  1.00  0.00     0.049 A 
ATOM     35  H   UNL A   1      45.446  27.358  32.819  1.00  0.00     0.167 HD
ATOM     36  C   UNL A   1      45.417  27.262  29.819  1.00  0.00     0.074 A 
ATOM     37  C   UNL A   1      44.772  26.142  30.503  1.00  0.00     0.031 C 
ATOM     38  C   UNL A   1      45.752  28.516  30.245  1.00  0.00     0.034 A 
BRANCH  25  39
ATOM     39  C   UNL A   1      43.151  27.040  34.703  1.00  0.00     0.023 A 
ATOM     40  C   UNL A   1      43.203  27.249  36.102  1.00  0.00     0.012 A 
ATOM     41  C   UNL A   1      43.521  25.754  34.242  1.00  0.00     0.148 A 
ATOM     42  C   UNL A   1      43.693  26.273  36.977  1.00  0.00     0.002 A 
ATOM     43  C   UNL A   1      43.945  24.764  35.123  1.00  0.00     0.091 A 
ATOM     44  F   UNL A   1      43.590  25.500  32.934  1.00  0.00    -0.205 F 
ATOM     45  C   UNL A   1      44.070  25.030  36.487  1.00  0.00     0.022 A 
BRANCH  43  46
ATOM     46  S   UNL A   1      44.413  23.127  34.544  1.00  0.00     0.127 S 
ATOM     47  O   UNL A   1      43.223  22.733  33.797  1.00  0.00    -0.237 OA
ATOM     48  O   UNL A   1      45.589  23.426  33.727  1.00  0.00    -0.237 OA
ATOM     49  O   UNL A   1      44.704  22.356  35.746  1.00  0.00    -0.744 OA
ENDBRANCH  43  46
ENDBRANCH  25  39
BRANCH  26  50
ATOM     50  C   UNL A   1      43.128  24.719  26.586  1.00  0.00     0.023 A 
ATOM     51  C   UNL A   1      44.114  24.242  25.699  1.00  0.00     0.012 A 
ATOM     52  C   UNL A   1      42.055  23.859  26.909  1.00  0.00     0.148 A 
ATOM     53  C   UNL A   1      44.040  22.948  25.166  1.00  0.00     0.002 A 
ATOM     54  C   UNL A   1      41.977  22.582  26.366  1.00  0.00     0.091 A 
ATOM     55  F   UNL A   1      41.161  24.259  27.823  1.00  0.00    -0.205 F 
ATOM     56  C   UNL A   1      42.974  22.116  25.502  1.00  0.00     0.022 A 
BRANCH  54  57
ATOM     57  S   UNL A   1      40.637  21.450  26.767  1.00  0.00     0.127 S 
ATOM     58  O   UNL A   1      40.752  21.349  28.221  1.00  0.00    -0.237 OA
ATOM     59  O   UNL A   1      39.470  22.181  26.291  1.00  0.00    -0.237 OA
ATOM     60  O   UNL A   1      40.941  20.210  26.057  1.00  0.00    -0.744 OA
ENDBRANCH  54  57
ENDBRANCH  26  50
BRANCH  38  61
ATOM     61  C   UNL A   1      46.217  29.515  29.219  1.00  0.00     0.023 A 
ATOM     62  C   UNL A   1      47.552  29.561  28.762  1.00  0.00     0.012 A 
ATOM     63  C   UNL A   1      45.248  30.288  28.561  1.00  0.00     0.148 A 
ATOM     64  C   UNL A   1      47.913  30.374  27.685  1.00  0.00     0.002 A 
ATOM     65  C   UNL A   1      45.600  31.059  27.462  1.00  0.00     0.091 A 
ATOM     66  F   UNL A   1      43.983  30.224  29.003  1.00  0.00    -0.205 F 
ATOM     67  C   UNL A   1      46.934  31.113  27.025  1.00  0.00     0.022 A 
BRANCH  65  68
ATOM     68  S   UNL A   1      44.366  31.924  26.489  1.00  0.00     0.127 S 
ATOM     69  O   UNL A   1      43.913  32.955  27.420  1.00  0.00    -0.237 OA
ATOM     70  O   UNL A   1      45.151  32.419  25.357  1.00  0.00    -0.237 OA
ATOM     71  O   UNL A   1      43.367  30.924  26.127  1.00  0.00    -0.744 OA
ENDBRANCH  65  68
ENDBRANCH  38  61
ENDBRANCH  12  13
ENDBRANCH   5   7
ENDBRANCH   2   3
ENDBRANCH   1   2
BRANCH   1  72
ATOM     72  C   UNL A   1      32.285  29.894  25.473  1.00  0.00     0.118 C 
BRANCH  72  73
ATOM     73  N   UNL A   1      33.346  29.608  24.526  1.00  0.00    -0.351 N 
ATOM     74  C   UNL A   1      33.436  28.742  23.476  1.00  0.00     0.278 C 
ATOM     75  H   UNL A   1      34.159  30.144  24.668  1.00  0.00     0.163 HD
ATOM     76  O   UNL A   1      34.442  28.871  22.759  1.00  0.00    -0.268 OA
BRANCH  74  77
ATOM     77  C   UNL A   1      32.410  27.620  23.141  1.00  0.00     0.274 C 
ATOM     78  C   UNL A   1      32.937  26.500  22.243  1.00  0.00     0.085 C 
ATOM     79  N   UNL A   1      31.847  26.979  24.371  1.00  0.00    -0.321 N 
ATOM     80  C   UNL A   1      32.705  25.236  23.056  1.00  0.00     0.054 C 
ATOM     81  C   UNL A   1      32.543  25.697  24.498  1.00  0.00     0.188 C 
ATOM     82  H   UNL A   1      32.025  27.544  25.202  1.00  0.00     0.349 HD
ATOM     83  C   UNL A   1      33.698  24.099  22.919  1.00  0.00     0.010 C 
ATOM     84  C   UNL A   1      32.079  24.578  25.421  1.00  0.00     0.065 C 
ATOM     85  C   UNL A   1      33.232  22.935  23.797  1.00  0.00     0.001 C 
ATOM     86  C   UNL A   1      32.972  23.339  25.256  1.00  0.00     0.006 C 
BRANCH  79  87
ATOM     87  C   UNL A   1      30.373  26.955  24.449  1.00  0.00     0.285 C 
BRANCH  87  88
ATOM     88  C   UNL A   1      29.438  27.250  23.242  1.00  0.00     0.184 C 
BRANCH  88  89
ATOM     89  N   UNL A   1      28.783  28.540  23.177  1.00  0.00    -0.332 N 
ATOM     90  C   UNL A   1      29.369  29.775  23.155  1.00  0.00     0.107 A 
ATOM     91  C   UNL A   1      27.431  28.739  23.089  1.00  0.00     0.199 A 
ATOM     92  C   UNL A   1      28.325  30.665  23.264  1.00  0.00     0.130 A 
ATOM     93  N   UNL A   1      27.125  30.012  23.185  1.00  0.00    -0.245 NA
ENDBRANCH  88  89
ENDBRANCH  87  88
ENDBRANCH  79  87
ENDBRANCH  74  77
ENDBRANCH  72  73
ENDBRANCH   1  72
TORSDOF 16
ENDMDL
