MODEL 1
REMARK VINA RESULT:     -11.8      0.000      0.000
REMARK SMILES CC(C)(C)CN1C(=O)CC[C@@H](C(=O)NCCCNC(=O)c2ccc(-c3c4nc(c(-c5cccc(S(=O)(=O)[O-])c5F)c5ccc([nH]5)c(-c5cccc(S(=O)(=O)[O-])c5F)c5nc(c(-c6cccc(S(=O)(=O)[O-])c6F)c6ccc3[nH]6)C=C5)C=C4)cc2)[C@H]1c1cccc2c1OCO2
REMARK SMILES IDX 16 1 15 2 14 3 12 4 13 5 11 7 6 8 7 9 84 10 8 11 9 12 10 13
REMARK SMILES IDX 5 14 2 15 1 16 3 17 4 18 85 19 86 20 90 21 87 22 89 23 91 24
REMARK SMILES IDX 88 25 93 26 92 27 17 28 18 29 19 30 20 32 21 33 22 34 83 35
REMARK SMILES IDX 23 36 82 37 24 38 25 39 26 40 76 41 27 42 81 43 75 44 77 45
REMARK SMILES IDX 28 46 80 47 74 48 73 49 29 51 61 52 41 53 60 54 42 55 45 56
REMARK SMILES IDX 59 57 78 58 43 59 44 60 58 62 79 63 46 64 30 65 31 66 39 67
REMARK SMILES IDX 32 68 34 69 40 70 33 71 35 72 36 73 37 74 38 75 62 76 63 77
REMARK SMILES IDX 71 78 64 79 66 80 72 81 65 82 67 83 68 84 69 85 70 86 47 87
REMARK SMILES IDX 48 88 56 89 49 90 51 91 57 92 50 93 52 94 53 95 54 96 55 97
REMARK H PARENT 14 6 18 31 77 50 45 61
REMARK Flexibility Score: inf
ROOT
ATOM      1  C   UNL A   1      33.596  28.567  27.145  1.00  0.00     0.042 C 
ENDROOT
BRANCH   1   2
ATOM      2  C   UNL A   1      32.075  28.365  27.220  1.00  0.00     0.117 C 
BRANCH   2   3
ATOM      3  N   UNL A   1      31.415  28.117  25.952  1.00  0.00    -0.356 N 
ATOM      4  C   UNL A   1      31.849  27.549  24.799  1.00  0.00     0.225 C 
ATOM      5  O   UNL A   1      31.056  27.586  23.856  1.00  0.00    -0.275 OA
ATOM      6  H   UNL A   1      30.477  28.417  25.924  1.00  0.00     0.163 HD
BRANCH   4   7
ATOM      7  C   UNL A   1      33.239  26.916  24.683  1.00  0.00     0.106 C 
ATOM      8  N   UNL A   1      33.064  24.924  23.021  1.00  0.00    -0.334 N 
ATOM      9  C   UNL A   1      33.262  25.815  21.948  1.00  0.00     0.223 C 
ATOM     10  C   UNL A   1      33.270  25.379  24.438  1.00  0.00     0.132 C 
ATOM     11  O   UNL A   1      33.242  25.443  20.769  1.00  0.00    -0.275 OA
ATOM     12  C   UNL A   1      33.516  27.280  22.210  1.00  0.00     0.101 C 
ATOM     13  C   UNL A   1      34.041  27.612  23.589  1.00  0.00     0.026 C 
BRANCH   8  14
ATOM     14  C   UNL A   1      33.199  23.505  22.556  1.00  0.00     0.126 C 
BRANCH  14  15
ATOM     15  C   UNL A   1      32.263  22.287  22.843  1.00  0.00    -0.021 C 
ATOM     16  C   UNL A   1      32.865  21.324  23.882  1.00  0.00     0.012 C 
ATOM     17  C   UNL A   1      32.155  21.453  21.533  1.00  0.00     0.012 C 
ATOM     18  C   UNL A   1      30.809  22.707  23.125  1.00  0.00     0.012 C 
ENDBRANCH  14  15
ENDBRANCH   8  14
BRANCH  10  19
ATOM     19  C   UNL A   1      32.390  24.691  25.455  1.00  0.00     0.021 A 
ATOM     20  C   UNL A   1      31.010  24.922  25.493  1.00  0.00     0.010 A 
ATOM     21  C   UNL A   1      32.898  23.817  26.409  1.00  0.00     0.171 A 
ATOM     22  C   UNL A   1      30.182  24.177  26.348  1.00  0.00     0.004 A 
ATOM     23  C   UNL A   1      32.084  23.116  27.270  1.00  0.00     0.166 A 
ATOM     24  O   UNL A   1      34.215  23.513  26.601  1.00  0.00    -0.453 OA
ATOM     25  C   UNL A   1      30.718  23.261  27.252  1.00  0.00     0.050 A 
ATOM     26  O   UNL A   1      32.776  22.281  28.088  1.00  0.00    -0.454 OA
ATOM     27  C   UNL A   1      34.120  22.498  27.626  1.00  0.00     0.468 C 
ENDBRANCH  10  19
ENDBRANCH   4   7
ENDBRANCH   2   3
ENDBRANCH   1   2
BRANCH   1  28
ATOM     28  C   UNL A   1      34.107  29.802  26.405  1.00  0.00     0.118 C 
BRANCH  28  29
ATOM     29  N   UNL A   1      34.016  31.045  27.176  1.00  0.00    -0.352 N 
ATOM     30  C   UNL A   1      34.699  31.493  28.290  1.00  0.00     0.251 C 
ATOM     31  H   UNL A   1      33.342  31.679  26.838  1.00  0.00     0.163 HD
ATOM     32  O   UNL A   1      34.333  32.505  28.885  1.00  0.00    -0.269 OA
BRANCH  30  33
ATOM     33  C   UNL A   1      35.889  30.776  28.779  1.00  0.00     0.039 A 
ATOM     34  C   UNL A   1      35.787  29.797  29.774  1.00  0.00     0.014 A 
ATOM     35  C   UNL A   1      37.135  31.133  28.284  1.00  0.00     0.014 A 
ATOM     36  C   UNL A   1      36.943  29.154  30.228  1.00  0.00     0.010 A 
ATOM     37  C   UNL A   1      38.243  30.376  28.596  1.00  0.00     0.010 A 
ATOM     38  C   UNL A   1      38.179  29.428  29.622  1.00  0.00    -0.014 A 
BRANCH  38  39
ATOM     39  C   UNL A   1      39.460  28.831  30.067  1.00  0.00     0.031 A 
ATOM     40  C   UNL A   1      40.219  29.491  31.195  1.00  0.00     0.074 A 
ATOM     41  C   UNL A   1      40.012  27.828  29.361  1.00  0.00     0.049 A 
ATOM     42  N   UNL A   1      41.441  29.283  31.604  1.00  0.00    -0.248 NA
ATOM     43  C   UNL A   1      39.536  30.591  31.904  1.00  0.00     0.031 C 
ATOM     44  C   UNL A   1      39.420  27.193  28.182  1.00  0.00     0.029 A 
ATOM     45  N   UNL A   1      41.221  27.200  29.508  1.00  0.00    -0.354 N 
ATOM     46  C   UNL A   1      41.697  30.275  32.544  1.00  0.00     0.074 A 
ATOM     47  C   UNL A   1      40.528  31.120  32.602  1.00  0.00     0.031 C 
ATOM     48  C   UNL A   1      40.266  26.260  27.716  1.00  0.00     0.029 A 
ATOM     49  C   UNL A   1      41.469  26.257  28.540  1.00  0.00     0.049 A 
ATOM     50  H   UNL A   1      41.850  27.404  30.237  1.00  0.00     0.167 HD
ATOM     51  C   UNL A   1      42.793  30.447  33.322  1.00  0.00     0.034 A 
ATOM     52  C   UNL A   1      42.553  25.482  28.339  1.00  0.00     0.034 A 
ATOM     53  C   UNL A   1      43.904  29.537  33.318  1.00  0.00     0.049 A 
ATOM     54  C   UNL A   1      43.697  25.588  29.307  1.00  0.00     0.074 A 
ATOM     55  C   UNL A   1      45.004  29.512  34.154  1.00  0.00     0.029 A 
ATOM     56  N   UNL A   1      44.046  28.478  32.432  1.00  0.00    -0.354 N 
ATOM     57  N   UNL A   1      43.860  26.429  30.302  1.00  0.00    -0.248 NA
ATOM     58  C   UNL A   1      44.782  24.611  29.161  1.00  0.00     0.031 C 
ATOM     59  C   UNL A   1      45.825  28.451  33.756  1.00  0.00     0.029 A 
ATOM     60  C   UNL A   1      45.217  27.793  32.697  1.00  0.00     0.049 A 
ATOM     61  H   UNL A   1      43.408  28.249  31.719  1.00  0.00     0.167 HD
ATOM     62  C   UNL A   1      45.046  26.058  30.925  1.00  0.00     0.074 A 
ATOM     63  C   UNL A   1      45.547  24.905  30.203  1.00  0.00     0.031 C 
ATOM     64  C   UNL A   1      45.669  26.622  31.989  1.00  0.00     0.034 A 
BRANCH  51  65
ATOM     65  C   UNL A   1      42.808  31.624  34.267  1.00  0.00     0.023 A 
ATOM     66  C   UNL A   1      43.348  32.860  33.851  1.00  0.00     0.012 A 
ATOM     67  C   UNL A   1      42.277  31.513  35.567  1.00  0.00     0.148 A 
ATOM     68  C   UNL A   1      43.420  33.942  34.728  1.00  0.00     0.002 A 
ATOM     69  C   UNL A   1      42.298  32.614  36.417  1.00  0.00     0.091 A 
ATOM     70  F   UNL A   1      41.786  30.330  35.960  1.00  0.00    -0.205 F 
ATOM     71  C   UNL A   1      42.886  33.822  36.007  1.00  0.00     0.022 A 
BRANCH  69  72
ATOM     72  S   UNL A   1      41.552  32.588  38.051  1.00  0.00     0.127 S 
ATOM     73  O   UNL A   1      41.753  33.969  38.489  1.00  0.00    -0.237 OA
ATOM     74  O   UNL A   1      40.162  32.241  37.750  1.00  0.00    -0.237 OA
ATOM     75  O   UNL A   1      42.278  31.578  38.807  1.00  0.00    -0.744 OA
ENDBRANCH  69  72
ENDBRANCH  51  65
BRANCH  52  76
ATOM     76  C   UNL A   1      42.544  24.482  27.237  1.00  0.00     0.023 A 
ATOM     77  C   UNL A   1      43.213  24.776  26.033  1.00  0.00     0.012 A 
ATOM     78  C   UNL A   1      41.954  23.215  27.403  1.00  0.00     0.148 A 
ATOM     79  C   UNL A   1      43.273  23.837  25.004  1.00  0.00     0.002 A 
ATOM     80  C   UNL A   1      42.065  22.263  26.397  1.00  0.00     0.091 A 
ATOM     81  F   UNL A   1      41.324  22.955  28.557  1.00  0.00    -0.205 F 
ATOM     82  C   UNL A   1      42.710  22.577  25.189  1.00  0.00     0.022 A 
BRANCH  80  83
ATOM     83  S   UNL A   1      41.499  20.569  26.598  1.00  0.00     0.127 S 
ATOM     84  O   UNL A   1      42.094  20.203  27.879  1.00  0.00    -0.237 OA
ATOM     85  O   UNL A   1      40.047  20.738  26.616  1.00  0.00    -0.237 OA
ATOM     86  O   UNL A   1      42.004  19.844  25.438  1.00  0.00    -0.744 OA
ENDBRANCH  80  83
ENDBRANCH  52  76
BRANCH  64  87
ATOM     87  C   UNL A   1      46.938  25.973  32.471  1.00  0.00     0.023 A 
ATOM     88  C   UNL A   1      48.185  26.400  31.973  1.00  0.00     0.012 A 
ATOM     89  C   UNL A   1      46.892  24.977  33.465  1.00  0.00     0.148 A 
ATOM     90  C   UNL A   1      49.365  25.813  32.428  1.00  0.00     0.002 A 
ATOM     91  C   UNL A   1      48.075  24.439  33.954  1.00  0.00     0.091 A 
ATOM     92  F   UNL A   1      45.695  24.571  33.912  1.00  0.00    -0.205 F 
ATOM     93  C   UNL A   1      49.311  24.843  33.425  1.00  0.00     0.022 A 
BRANCH  91  94
ATOM     94  S   UNL A   1      48.098  23.263  35.311  1.00  0.00     0.127 S 
ATOM     95  O   UNL A   1      47.544  24.059  36.405  1.00  0.00    -0.237 OA
ATOM     96  O   UNL A   1      47.216  22.203  34.821  1.00  0.00    -0.237 OA
ATOM     97  O   UNL A   1      49.489  22.862  35.468  1.00  0.00    -0.744 OA
ENDBRANCH  91  94
ENDBRANCH  64  87
ENDBRANCH  38  39
ENDBRANCH  30  33
ENDBRANCH  28  29
ENDBRANCH   1  28
TORSDOF 16
ENDMDL
MODEL 2
REMARK VINA RESULT:     -11.6      5.226      8.547
REMARK SMILES CC(C)(C)CN1C(=O)CC[C@@H](C(=O)NCCCNC(=O)c2ccc(-c3c4nc(c(-c5cccc(S(=O)(=O)[O-])c5F)c5ccc([nH]5)c(-c5cccc(S(=O)(=O)[O-])c5F)c5nc(c(-c6cccc(S(=O)(=O)[O-])c6F)c6ccc3[nH]6)C=C5)C=C4)cc2)[C@H]1c1cccc2c1OCO2
REMARK SMILES IDX 16 1 15 2 14 3 12 4 13 5 11 7 6 8 7 9 84 10 8 11 9 12 10 13
REMARK SMILES IDX 5 14 2 15 1 16 3 17 4 18 85 19 86 20 90 21 87 22 89 23 91 24
REMARK SMILES IDX 88 25 93 26 92 27 17 28 18 29 19 30 20 32 21 33 22 34 83 35
REMARK SMILES IDX 23 36 82 37 24 38 25 39 26 40 76 41 27 42 81 43 75 44 77 45
REMARK SMILES IDX 28 46 80 47 74 48 73 49 29 51 61 52 41 53 60 54 42 55 45 56
REMARK SMILES IDX 59 57 78 58 43 59 44 60 58 62 79 63 46 64 30 65 31 66 39 67
REMARK SMILES IDX 32 68 34 69 40 70 33 71 35 72 36 73 37 74 38 75 62 76 63 77
REMARK SMILES IDX 71 78 64 79 66 80 72 81 65 82 67 83 68 84 69 85 70 86 47 87
REMARK SMILES IDX 48 88 56 89 49 90 51 91 57 92 50 93 52 94 53 95 54 96 55 97
REMARK H PARENT 14 6 18 31 77 50 45 61
REMARK Flexibility Score: inf
ROOT
ATOM      1  C   UNL A   1      37.764  20.659  24.624  1.00  0.00     0.042 C 
ENDROOT
BRANCH   1   2
ATOM      2  C   UNL A   1      37.016  21.956  24.279  1.00  0.00     0.117 C 
BRANCH   2   3
ATOM      3  N   UNL A   1      35.602  21.804  23.996  1.00  0.00    -0.356 N 
ATOM      4  C   UNL A   1      34.502  22.404  24.518  1.00  0.00     0.225 C 
ATOM      5  O   UNL A   1      33.419  21.966  24.124  1.00  0.00    -0.275 OA
ATOM      6  H   UNL A   1      35.402  21.142  23.293  1.00  0.00     0.163 HD
BRANCH   4   7
ATOM      7  C   UNL A   1      34.610  23.543  25.537  1.00  0.00     0.106 C 
ATOM      8  N   UNL A   1      32.205  24.411  26.009  1.00  0.00    -0.334 N 
ATOM      9  C   UNL A   1      32.045  23.408  26.985  1.00  0.00     0.223 C 
ATOM     10  C   UNL A   1      33.554  24.679  25.404  1.00  0.00     0.132 C 
ATOM     11  O   UNL A   1      30.987  23.254  27.607  1.00  0.00    -0.275 OA
ATOM     12  C   UNL A   1      33.185  22.474  27.313  1.00  0.00     0.101 C 
ATOM     13  C   UNL A   1      34.564  22.982  26.954  1.00  0.00     0.026 C 
BRANCH   8  14
ATOM     14  C   UNL A   1      31.104  25.423  26.112  1.00  0.00     0.126 C 
BRANCH  14  15
ATOM     15  C   UNL A   1      30.022  25.806  25.052  1.00  0.00    -0.021 C 
ATOM     16  C   UNL A   1      28.591  25.627  25.592  1.00  0.00     0.012 C 
ATOM     17  C   UNL A   1      30.138  24.798  23.871  1.00  0.00     0.012 C 
ATOM     18  C   UNL A   1      30.291  27.169  24.392  1.00  0.00     0.012 C 
ENDBRANCH  14  15
ENDBRANCH   8  14
BRANCH  10  19
ATOM     19  C   UNL A   1      33.519  25.166  23.975  1.00  0.00     0.021 A 
ATOM     20  C   UNL A   1      33.302  24.281  22.912  1.00  0.00     0.010 A 
ATOM     21  C   UNL A   1      33.716  26.501  23.639  1.00  0.00     0.171 A 
ATOM     22  C   UNL A   1      33.134  24.759  21.604  1.00  0.00     0.004 A 
ATOM     23  C   UNL A   1      33.585  26.959  22.347  1.00  0.00     0.166 A 
ATOM     24  O   UNL A   1      34.019  27.512  24.503  1.00  0.00    -0.453 OA
ATOM     25  C   UNL A   1      33.277  26.114  21.308  1.00  0.00     0.050 A 
ATOM     26  O   UNL A   1      33.769  28.300  22.242  1.00  0.00    -0.454 OA
ATOM     27  C   UNL A   1      33.994  28.654  23.618  1.00  0.00     0.468 C 
ENDBRANCH  10  19
ENDBRANCH   4   7
ENDBRANCH   2   3
ENDBRANCH   1   2
BRANCH   1  28
ATOM     28  C   UNL A   1      38.525  20.616  25.948  1.00  0.00     0.118 C 
BRANCH  28  29
ATOM     29  N   UNL A   1      39.610  19.630  25.984  1.00  0.00    -0.352 N 
ATOM     30  C   UNL A   1      40.977  19.765  26.139  1.00  0.00     0.251 C 
ATOM     31  H   UNL A   1      39.309  18.698  25.878  1.00  0.00     0.163 HD
ATOM     32  O   UNL A   1      41.725  18.807  25.958  1.00  0.00    -0.269 OA
BRANCH  30  33
ATOM     33  C   UNL A   1      41.562  21.056  26.537  1.00  0.00     0.039 A 
ATOM     34  C   UNL A   1      42.198  21.214  27.774  1.00  0.00     0.014 A 
ATOM     35  C   UNL A   1      41.415  22.146  25.689  1.00  0.00     0.014 A 
ATOM     36  C   UNL A   1      42.721  22.463  28.125  1.00  0.00     0.010 A 
ATOM     37  C   UNL A   1      42.087  23.319  25.953  1.00  0.00     0.010 A 
ATOM     38  C   UNL A   1      42.686  23.519  27.202  1.00  0.00    -0.014 A 
BRANCH  38  39
ATOM     39  C   UNL A   1      43.173  24.887  27.501  1.00  0.00     0.031 A 
ATOM     40  C   UNL A   1      42.236  25.862  28.176  1.00  0.00     0.074 A 
ATOM     41  C   UNL A   1      44.362  25.294  27.024  1.00  0.00     0.049 A 
ATOM     42  N   UNL A   1      42.360  27.151  28.339  1.00  0.00    -0.248 NA
ATOM     43  C   UNL A   1      40.947  25.325  28.658  1.00  0.00     0.031 C 
ATOM     44  C   UNL A   1      45.297  24.469  26.257  1.00  0.00     0.029 A 
ATOM     45  N   UNL A   1      44.965  26.523  27.074  1.00  0.00    -0.354 N 
ATOM     46  C   UNL A   1      41.143  27.584  28.855  1.00  0.00     0.074 A 
ATOM     47  C   UNL A   1      40.274  26.433  28.920  1.00  0.00     0.031 C 
ATOM     48  C   UNL A   1      46.359  25.214  25.913  1.00  0.00     0.029 A 
ATOM     49  C   UNL A   1      46.163  26.573  26.404  1.00  0.00     0.049 A 
ATOM     50  H   UNL A   1      44.577  27.295  27.546  1.00  0.00     0.167 HD
ATOM     51  C   UNL A   1      40.790  28.822  29.274  1.00  0.00     0.034 A 
ATOM     52  C   UNL A   1      47.005  27.606  26.205  1.00  0.00     0.034 A 
ATOM     53  C   UNL A   1      41.702  29.931  29.292  1.00  0.00     0.049 A 
ATOM     54  C   UNL A   1      46.659  28.937  26.810  1.00  0.00     0.074 A 
ATOM     55  C   UNL A   1      41.519  31.193  29.824  1.00  0.00     0.029 A 
ATOM     56  N   UNL A   1      42.982  29.900  28.757  1.00  0.00    -0.354 N 
ATOM     57  N   UNL A   1      45.567  29.297  27.442  1.00  0.00    -0.248 NA
ATOM     58  C   UNL A   1      47.678  29.990  26.723  1.00  0.00     0.031 C 
ATOM     59  C   UNL A   1      42.682  31.935  29.587  1.00  0.00     0.029 A 
ATOM     60  C   UNL A   1      43.602  31.121  28.942  1.00  0.00     0.049 A 
ATOM     61  H   UNL A   1      43.389  29.124  28.310  1.00  0.00     0.167 HD
ATOM     62  C   UNL A   1      45.780  30.605  27.861  1.00  0.00     0.074 A 
ATOM     63  C   UNL A   1      47.116  30.964  27.425  1.00  0.00     0.031 C 
ATOM     64  C   UNL A   1      44.948  31.437  28.536  1.00  0.00     0.034 A 
BRANCH  51  65
ATOM     65  C   UNL A   1      39.385  29.017  29.793  1.00  0.00     0.023 A 
ATOM     66  C   UNL A   1      39.067  28.674  31.125  1.00  0.00     0.012 A 
ATOM     67  C   UNL A   1      38.378  29.550  28.966  1.00  0.00     0.148 A 
ATOM     68  C   UNL A   1      37.763  28.797  31.604  1.00  0.00     0.002 A 
ATOM     69  C   UNL A   1      37.093  29.726  29.468  1.00  0.00     0.091 A 
ATOM     70  F   UNL A   1      38.683  29.853  27.697  1.00  0.00    -0.205 F 
ATOM     71  C   UNL A   1      36.779  29.331  30.780  1.00  0.00     0.022 A 
BRANCH  69  72
ATOM     72  S   UNL A   1      35.777  30.493  28.515  1.00  0.00     0.127 S 
ATOM     73  O   UNL A   1      35.011  31.170  29.561  1.00  0.00    -0.237 OA
ATOM     74  O   UNL A   1      36.521  31.388  27.628  1.00  0.00    -0.237 OA
ATOM     75  O   UNL A   1      35.087  29.404  27.838  1.00  0.00    -0.744 OA
ENDBRANCH  69  72
ENDBRANCH  51  65
BRANCH  52  76
ATOM     76  C   UNL A   1      48.288  27.377  25.487  1.00  0.00     0.023 A 
ATOM     77  C   UNL A   1      49.403  26.899  26.203  1.00  0.00     0.012 A 
ATOM     78  C   UNL A   1      48.388  27.545  24.093  1.00  0.00     0.148 A 
ATOM     79  C   UNL A   1      50.603  26.619  25.549  1.00  0.00     0.002 A 
ATOM     80  C   UNL A   1      49.567  27.211  23.438  1.00  0.00     0.091 A 
ATOM     81  F   UNL A   1      47.314  27.999  23.431  1.00  0.00    -0.205 F 
ATOM     82  C   UNL A   1      50.682  26.764  24.166  1.00  0.00     0.022 A 
BRANCH  80  83
ATOM     83  S   UNL A   1      49.720  27.227  21.648  1.00  0.00     0.127 S 
ATOM     84  O   UNL A   1      49.501  28.636  21.340  1.00  0.00    -0.237 OA
ATOM     85  O   UNL A   1      51.092  26.758  21.459  1.00  0.00    -0.237 OA
ATOM     86  O   UNL A   1      48.698  26.309  21.157  1.00  0.00    -0.744 OA
ENDBRANCH  80  83
ENDBRANCH  52  76
BRANCH  64  87
ATOM     87  C   UNL A   1      45.474  32.801  28.889  1.00  0.00     0.023 A 
ATOM     88  C   UNL A   1      46.197  32.995  30.083  1.00  0.00     0.012 A 
ATOM     89  C   UNL A   1      45.300  33.880  28.001  1.00  0.00     0.148 A 
ATOM     90  C   UNL A   1      46.700  34.253  30.407  1.00  0.00     0.002 A 
ATOM     91  C   UNL A   1      45.854  35.117  28.304  1.00  0.00     0.091 A 
ATOM     92  F   UNL A   1      44.592  33.680  26.879  1.00  0.00    -0.205 F 
ATOM     93  C   UNL A   1      46.540  35.309  29.514  1.00  0.00     0.022 A 
BRANCH  91  94
ATOM     94  S   UNL A   1      45.785  36.499  27.160  1.00  0.00     0.127 S 
ATOM     95  O   UNL A   1      46.577  37.507  27.862  1.00  0.00    -0.237 OA
ATOM     96  O   UNL A   1      46.422  35.946  25.964  1.00  0.00    -0.237 OA
ATOM     97  O   UNL A   1      44.371  36.811  26.997  1.00  0.00    -0.744 OA
ENDBRANCH  91  94
ENDBRANCH  64  87
ENDBRANCH  38  39
ENDBRANCH  30  33
ENDBRANCH  28  29
ENDBRANCH   1  28
TORSDOF 16
ENDMDL
MODEL 3
REMARK VINA RESULT:     -11.6      2.874      8.297
REMARK SMILES CC(C)(C)CN1C(=O)CC[C@@H](C(=O)NCCCNC(=O)c2ccc(-c3c4nc(c(-c5cccc(S(=O)(=O)[O-])c5F)c5ccc([nH]5)c(-c5cccc(S(=O)(=O)[O-])c5F)c5nc(c(-c6cccc(S(=O)(=O)[O-])c6F)c6ccc3[nH]6)C=C5)C=C4)cc2)[C@H]1c1cccc2c1OCO2
REMARK SMILES IDX 16 1 15 2 14 3 12 4 13 5 11 7 6 8 7 9 84 10 8 11 9 12 10 13
REMARK SMILES IDX 5 14 2 15 1 16 3 17 4 18 85 19 86 20 90 21 87 22 89 23 91 24
REMARK SMILES IDX 88 25 93 26 92 27 17 28 18 29 19 30 20 32 21 33 22 34 83 35
REMARK SMILES IDX 23 36 82 37 24 38 25 39 26 40 76 41 27 42 81 43 75 44 77 45
REMARK SMILES IDX 28 46 80 47 74 48 73 49 29 51 61 52 41 53 60 54 42 55 45 56
REMARK SMILES IDX 59 57 78 58 43 59 44 60 58 62 79 63 46 64 30 65 31 66 39 67
REMARK SMILES IDX 32 68 34 69 40 70 33 71 35 72 36 73 37 74 38 75 62 76 63 77
REMARK SMILES IDX 71 78 64 79 66 80 72 81 65 82 67 83 68 84 69 85 70 86 47 87
REMARK SMILES IDX 48 88 56 89 49 90 51 91 57 92 50 93 52 94 53 95 54 96 55 97
REMARK H PARENT 14 6 18 31 77 50 45 61
REMARK Flexibility Score: inf
ROOT
ATOM      1  C   UNL A   1      31.861  30.931  26.874  1.00  0.00     0.042 C 
ENDROOT
BRANCH   1   2
ATOM      2  C   UNL A   1      32.192  29.431  26.829  1.00  0.00     0.117 C 
BRANCH   2   3
ATOM      3  N   UNL A   1      31.420  28.649  25.884  1.00  0.00    -0.356 N 
ATOM      4  C   UNL A   1      31.782  27.706  24.977  1.00  0.00     0.225 C 
ATOM      5  O   UNL A   1      30.879  27.302  24.241  1.00  0.00    -0.275 OA
ATOM      6  H   UNL A   1      30.453  28.836  25.904  1.00  0.00     0.163 HD
BRANCH   4   7
ATOM      7  C   UNL A   1      33.221  27.193  24.875  1.00  0.00     0.106 C 
ATOM      8  N   UNL A   1      33.249  25.255  23.142  1.00  0.00    -0.334 N 
ATOM      9  C   UNL A   1      33.396  26.198  22.106  1.00  0.00     0.223 C 
ATOM     10  C   UNL A   1      33.384  25.674  24.579  1.00  0.00     0.132 C 
ATOM     11  O   UNL A   1      33.434  25.868  20.914  1.00  0.00    -0.275 OA
ATOM     12  C   UNL A   1      33.522  27.667  22.424  1.00  0.00     0.101 C 
ATOM     13  C   UNL A   1      33.988  27.992  23.826  1.00  0.00     0.026 C 
BRANCH   8  14
ATOM     14  C   UNL A   1      33.510  23.870  22.633  1.00  0.00     0.126 C 
BRANCH  14  15
ATOM     15  C   UNL A   1      32.570  22.621  22.661  1.00  0.00    -0.021 C 
ATOM     16  C   UNL A   1      32.450  21.953  21.279  1.00  0.00     0.012 C 
ATOM     17  C   UNL A   1      31.133  23.117  22.997  1.00  0.00     0.012 C 
ATOM     18  C   UNL A   1      32.898  21.656  23.813  1.00  0.00     0.012 C 
ENDBRANCH  14  15
ENDBRANCH   8  14
BRANCH  10  19
ATOM     19  C   UNL A   1      32.541  24.880  25.549  1.00  0.00     0.021 A 
ATOM     20  C   UNL A   1      31.156  25.069  25.629  1.00  0.00     0.010 A 
ATOM     21  C   UNL A   1      33.090  23.944  26.418  1.00  0.00     0.171 A 
ATOM     22  C   UNL A   1      30.364  24.234  26.432  1.00  0.00     0.004 A 
ATOM     23  C   UNL A   1      32.310  23.152  27.231  1.00  0.00     0.166 A 
ATOM     24  O   UNL A   1      34.417  23.661  26.563  1.00  0.00    -0.453 OA
ATOM     25  C   UNL A   1      30.940  23.261  27.248  1.00  0.00     0.050 A 
ATOM     26  O   UNL A   1      33.038  22.271  27.965  1.00  0.00    -0.454 OA
ATOM     27  C   UNL A   1      34.367  22.563  27.501  1.00  0.00     0.468 C 
ENDBRANCH  10  19
ENDBRANCH   4   7
ENDBRANCH   2   3
ENDBRANCH   1   2
BRANCH   1  28
ATOM     28  C   UNL A   1      33.032  31.912  26.878  1.00  0.00     0.118 C 
BRANCH  28  29
ATOM     29  N   UNL A   1      32.694  33.247  27.379  1.00  0.00    -0.352 N 
ATOM     30  C   UNL A   1      33.204  33.999  28.420  1.00  0.00     0.251 C 
ATOM     31  H   UNL A   1      31.969  33.691  26.882  1.00  0.00     0.163 HD
ATOM     32  O   UNL A   1      32.643  35.033  28.779  1.00  0.00    -0.269 OA
BRANCH  30  33
ATOM     33  C   UNL A   1      34.435  33.584  29.113  1.00  0.00     0.039 A 
ATOM     34  C   UNL A   1      35.654  34.228  28.873  1.00  0.00     0.014 A 
ATOM     35  C   UNL A   1      34.385  32.490  29.965  1.00  0.00     0.014 A 
ATOM     36  C   UNL A   1      36.807  33.789  29.533  1.00  0.00     0.010 A 
ATOM     37  C   UNL A   1      35.474  32.178  30.750  1.00  0.00     0.010 A 
ATOM     38  C   UNL A   1      36.715  32.771  30.495  1.00  0.00    -0.014 A 
BRANCH  38  39
ATOM     39  C   UNL A   1      37.887  32.210  31.209  1.00  0.00     0.031 A 
ATOM     40  C   UNL A   1      38.677  31.100  30.555  1.00  0.00     0.074 A 
ATOM     41  C   UNL A   1      38.128  32.568  32.483  1.00  0.00     0.049 A 
ATOM     42  N   UNL A   1      39.589  30.319  31.068  1.00  0.00    -0.248 NA
ATOM     43  C   UNL A   1      38.333  30.771  29.158  1.00  0.00     0.031 C 
ATOM     44  C   UNL A   1      37.356  33.545  33.252  1.00  0.00     0.029 A 
ATOM     45  N   UNL A   1      39.066  32.111  33.371  1.00  0.00    -0.354 N 
ATOM     46  C   UNL A   1      39.857  29.364  30.094  1.00  0.00     0.074 A 
ATOM     47  C   UNL A   1      38.969  29.624  28.986  1.00  0.00     0.031 C 
ATOM     48  C   UNL A   1      37.856  33.619  34.496  1.00  0.00     0.029 A 
ATOM     49  C   UNL A   1      38.957  32.671  34.620  1.00  0.00     0.049 A 
ATOM     50  H   UNL A   1      39.753  31.445  33.135  1.00  0.00     0.167 HD
ATOM     51  C   UNL A   1      40.786  28.379  30.103  1.00  0.00     0.034 A 
ATOM     52  C   UNL A   1      39.667  32.439  35.742  1.00  0.00     0.034 A 
ATOM     53  C   UNL A   1      41.724  28.200  31.176  1.00  0.00     0.049 A 
ATOM     54  C   UNL A   1      40.792  31.445  35.683  1.00  0.00     0.074 A 
ATOM     55  C   UNL A   1      42.804  27.341  31.245  1.00  0.00     0.029 A 
ATOM     56  N   UNL A   1      41.695  28.909  32.368  1.00  0.00    -0.354 N 
ATOM     57  N   UNL A   1      41.143  30.655  34.696  1.00  0.00    -0.248 NA
ATOM     58  C   UNL A   1      41.651  31.346  36.869  1.00  0.00     0.031 C 
ATOM     59  C   UNL A   1      43.414  27.513  32.493  1.00  0.00     0.029 A 
ATOM     60  C   UNL A   1      42.736  28.506  33.184  1.00  0.00     0.049 A 
ATOM     61  H   UNL A   1      41.031  29.596  32.600  1.00  0.00     0.167 HD
ATOM     62  C   UNL A   1      42.286  29.991  35.126  1.00  0.00     0.074 A 
ATOM     63  C   UNL A   1      42.576  30.489  36.457  1.00  0.00     0.031 C 
ATOM     64  C   UNL A   1      43.025  29.051  34.486  1.00  0.00     0.034 A 
BRANCH  51  65
ATOM     65  C   UNL A   1      40.860  27.469  28.901  1.00  0.00     0.023 A 
ATOM     66  C   UNL A   1      39.986  26.366  28.791  1.00  0.00     0.012 A 
ATOM     67  C   UNL A   1      41.788  27.711  27.869  1.00  0.00     0.148 A 
ATOM     68  C   UNL A   1      40.077  25.485  27.714  1.00  0.00     0.002 A 
ATOM     69  C   UNL A   1      41.833  26.862  26.768  1.00  0.00     0.091 A 
ATOM     70  F   UNL A   1      42.628  28.748  27.991  1.00  0.00    -0.205 F 
ATOM     71  C   UNL A   1      40.993  25.737  26.698  1.00  0.00     0.022 A 
BRANCH  69  72
ATOM     72  S   UNL A   1      42.913  27.155  25.363  1.00  0.00     0.127 S 
ATOM     73  O   UNL A   1      44.198  27.387  26.021  1.00  0.00    -0.237 OA
ATOM     74  O   UNL A   1      42.821  25.888  24.635  1.00  0.00    -0.237 OA
ATOM     75  O   UNL A   1      42.353  28.300  24.659  1.00  0.00    -0.744 OA
ENDBRANCH  69  72
ENDBRANCH  51  65
BRANCH  52  76
ATOM     76  C   UNL A   1      39.385  33.238  36.965  1.00  0.00     0.023 A 
ATOM     77  C   UNL A   1      38.337  32.844  37.820  1.00  0.00     0.012 A 
ATOM     78  C   UNL A   1      40.196  34.329  37.330  1.00  0.00     0.148 A 
ATOM     79  C   UNL A   1      38.085  33.537  39.004  1.00  0.00     0.002 A 
ATOM     80  C   UNL A   1      39.976  34.981  38.538  1.00  0.00     0.091 A 
ATOM     81  F   UNL A   1      41.188  34.686  36.503  1.00  0.00    -0.205 F 
ATOM     82  C   UNL A   1      38.910  34.598  39.369  1.00  0.00     0.022 A 
BRANCH  80  83
ATOM     83  S   UNL A   1      41.071  36.262  39.161  1.00  0.00     0.127 S 
ATOM     84  O   UNL A   1      40.413  36.641  40.407  1.00  0.00    -0.237 OA
ATOM     85  O   UNL A   1      42.327  35.530  39.323  1.00  0.00    -0.237 OA
ATOM     86  O   UNL A   1      41.105  37.290  38.128  1.00  0.00    -0.744 OA
ENDBRANCH  80  83
ENDBRANCH  52  76
BRANCH  64  87
ATOM     87  C   UNL A   1      44.247  28.532  35.195  1.00  0.00     0.023 A 
ATOM     88  C   UNL A   1      45.512  29.089  34.924  1.00  0.00     0.012 A 
ATOM     89  C   UNL A   1      44.126  27.530  36.177  1.00  0.00     0.148 A 
ATOM     90  C   UNL A   1      46.645  28.624  35.589  1.00  0.00     0.002 A 
ATOM     91  C   UNL A   1      45.251  27.113  36.876  1.00  0.00     0.091 A 
ATOM     92  F   UNL A   1      42.915  26.999  36.407  1.00  0.00    -0.205 F 
ATOM     93  C   UNL A   1      46.513  27.647  36.572  1.00  0.00     0.022 A 
BRANCH  91  94
ATOM     94  S   UNL A   1      45.150  25.937  38.229  1.00  0.00     0.127 S 
ATOM     95  O   UNL A   1      44.201  26.594  39.125  1.00  0.00    -0.237 OA
ATOM     96  O   UNL A   1      44.634  24.740  37.564  1.00  0.00    -0.237 OA
ATOM     97  O   UNL A   1      46.507  25.801  38.740  1.00  0.00    -0.744 OA
ENDBRANCH  91  94
ENDBRANCH  64  87
ENDBRANCH  38  39
ENDBRANCH  30  33
ENDBRANCH  28  29
ENDBRANCH   1  28
TORSDOF 16
ENDMDL
