MODEL 1
REMARK VINA RESULT:     -12.7      0.000      0.000
REMARK SMILES CC(=O)n1cc2c3c(cccc31)C(=O)C[C@@H]2C(=O)NCCCNC(=O)c1ccc(-c2c3nc(c(-c4cccc(S(=O)(=O)[O-])c4F)c4ccc([nH]4)c(-c4cccc(S(=O)(=O)[O-])c4F)c4nc(c(-c5cccc(S(=O)(=O)[O-])c5F)c5ccc2[nH]5)C=C4)C=C3)cc1
REMARK SMILES IDX 22 1 21 2 20 3 19 4 17 5 18 6 16 8 4 9 5 10 12 11 6 12 7 13
REMARK SMILES IDX 11 14 8 15 10 16 15 17 9 18 13 19 14 20 2 21 1 22 3 23 23 24
REMARK SMILES IDX 24 25 25 27 26 28 27 29 88 30 28 31 87 32 29 33 30 34 31 35
REMARK SMILES IDX 81 36 32 37 86 38 80 39 82 40 33 41 85 42 79 43 78 44 34 46
REMARK SMILES IDX 66 47 46 48 65 49 47 50 50 51 64 52 83 53 48 54 49 55 63 57
REMARK SMILES IDX 84 58 51 59 35 60 36 61 44 62 37 63 39 64 45 65 38 66 40 67
REMARK SMILES IDX 41 68 42 69 43 70 67 71 68 72 76 73 69 74 71 75 77 76 70 77
REMARK SMILES IDX 72 78 73 79 74 80 75 81 52 82 53 83 61 84 54 85 56 86 62 87
REMARK SMILES IDX 55 88 57 89 58 90 59 91 60 92
REMARK H PARENT 19 7 23 26 82 45 50 56
REMARK Flexibility Score: inf
ROOT
ATOM      1  C   UNL A   1      34.658  31.073  27.410  1.00  0.00     0.118 C 
ENDROOT
BRANCH   1   2
ATOM      2  C   UNL A   1      33.512  30.089  27.256  1.00  0.00     0.042 C 
BRANCH   2   3
ATOM      3  C   UNL A   1      33.987  28.684  26.892  1.00  0.00     0.117 C 
BRANCH   3   4
ATOM      4  N   UNL A   1      33.601  28.268  25.550  1.00  0.00    -0.355 N 
ATOM      5  C   UNL A   1      33.109  27.082  25.085  1.00  0.00     0.228 C 
ATOM      6  O   UNL A   1      32.745  27.035  23.907  1.00  0.00    -0.274 OA
ATOM      7  H   UNL A   1      33.716  28.960  24.859  1.00  0.00     0.163 HD
BRANCH   5   8
ATOM      8  C   UNL A   1      33.003  25.839  25.971  1.00  0.00     0.118 C 
ATOM      9  N   UNL A   1      35.194  23.282  24.343  1.00  0.00    -0.287 N 
ATOM     10  C   UNL A   1      35.024  24.576  24.837  1.00  0.00     0.100 A 
ATOM     11  C   UNL A   1      34.029  22.561  24.632  1.00  0.00     0.057 A 
ATOM     12  C   UNL A   1      33.771  24.688  25.395  1.00  0.00    -0.008 A 
ATOM     13  C   UNL A   1      33.189  23.417  25.329  1.00  0.00     0.015 A 
ATOM     14  C   UNL A   1      33.629  21.236  24.387  1.00  0.00     0.027 A 
ATOM     15  C   UNL A   1      31.948  22.999  25.801  1.00  0.00     0.027 A 
ATOM     16  C   UNL A   1      32.382  20.815  24.888  1.00  0.00     0.003 A 
ATOM     17  C   UNL A   1      31.516  25.506  26.262  1.00  0.00     0.099 C 
ATOM     18  C   UNL A   1      31.547  21.681  25.599  1.00  0.00     0.012 A 
ATOM     19  C   UNL A   1      31.142  24.034  26.481  1.00  0.00     0.164 C 
ATOM     20  O   UNL A   1      30.152  23.700  27.126  1.00  0.00    -0.294 OA
BRANCH   9  21
ATOM     21  C   UNL A   1      36.331  22.768  23.678  1.00  0.00     0.227 C 
ATOM     22  C   UNL A   1      37.207  21.883  24.519  1.00  0.00     0.115 C 
ATOM     23  O   UNL A   1      36.506  22.983  22.496  1.00  0.00    -0.274 OA
ENDBRANCH   9  21
ENDBRANCH   5   8
ENDBRANCH   3   4
ENDBRANCH   2   3
ENDBRANCH   1   2
BRANCH   1  24
ATOM     24  N   UNL A   1      34.443  31.998  28.517  1.00  0.00    -0.352 N 
ATOM     25  C   UNL A   1      35.085  32.042  29.735  1.00  0.00     0.251 C 
ATOM     26  H   UNL A   1      33.748  32.680  28.376  1.00  0.00     0.163 HD
ATOM     27  O   UNL A   1      34.567  32.652  30.666  1.00  0.00    -0.269 OA
BRANCH  25  28
ATOM     28  C   UNL A   1      36.375  31.351  29.921  1.00  0.00     0.039 A 
ATOM     29  C   UNL A   1      36.386  30.012  30.322  1.00  0.00     0.014 A 
ATOM     30  C   UNL A   1      37.577  32.039  29.726  1.00  0.00     0.014 A 
ATOM     31  C   UNL A   1      37.605  29.355  30.455  1.00  0.00     0.010 A 
ATOM     32  C   UNL A   1      38.780  31.366  29.767  1.00  0.00     0.010 A 
ATOM     33  C   UNL A   1      38.798  30.031  30.151  1.00  0.00    -0.014 A 
BRANCH  33  34
ATOM     34  C   UNL A   1      40.048  29.288  30.055  1.00  0.00     0.031 A 
ATOM     35  C   UNL A   1      40.680  29.041  31.374  1.00  0.00     0.074 A 
ATOM     36  C   UNL A   1      40.521  28.722  28.923  1.00  0.00     0.049 A 
ATOM     37  N   UNL A   1      41.648  29.717  31.900  1.00  0.00    -0.248 NA
ATOM     38  C   UNL A   1      40.063  28.071  32.291  1.00  0.00     0.031 C 
ATOM     39  C   UNL A   1      39.857  28.644  27.617  1.00  0.00     0.029 A 
ATOM     40  N   UNL A   1      41.662  27.999  28.726  1.00  0.00    -0.354 N 
ATOM     41  C   UNL A   1      41.966  29.034  33.068  1.00  0.00     0.074 A 
ATOM     42  C   UNL A   1      40.825  28.212  33.381  1.00  0.00     0.031 C 
ATOM     43  C   UNL A   1      40.490  27.736  26.839  1.00  0.00     0.029 A 
ATOM     44  C   UNL A   1      41.697  27.303  27.517  1.00  0.00     0.049 A 
ATOM     45  H   UNL A   1      42.396  27.970  29.381  1.00  0.00     0.167 HD
ATOM     46  C   UNL A   1      43.265  28.918  33.459  1.00  0.00     0.034 A 
ATOM     47  C   UNL A   1      42.664  26.444  27.111  1.00  0.00     0.034 A 
ATOM     48  C   UNL A   1      44.123  29.755  32.665  1.00  0.00     0.049 A 
ATOM     49  C   UNL A   1      43.900  26.860  27.807  1.00  0.00     0.074 A 
ATOM     50  C   UNL A   1      44.402  31.096  32.531  1.00  0.00     0.029 A 
ATOM     51  N   UNL A   1      44.579  29.122  31.540  1.00  0.00    -0.354 N 
ATOM     52  N   UNL A   1      44.508  27.989  27.567  1.00  0.00    -0.248 NA
ATOM     53  C   UNL A   1      44.352  26.135  28.989  1.00  0.00     0.031 C 
ATOM     54  C   UNL A   1      44.911  31.264  31.209  1.00  0.00     0.029 A 
ATOM     55  C   UNL A   1      44.959  30.019  30.586  1.00  0.00     0.049 A 
ATOM     56  H   UNL A   1      44.625  28.144  31.433  1.00  0.00     0.167 HD
ATOM     57  C   UNL A   1      45.060  28.321  28.787  1.00  0.00     0.074 A 
ATOM     58  C   UNL A   1      45.113  27.079  29.544  1.00  0.00     0.031 C 
ATOM     59  C   UNL A   1      45.087  29.614  29.205  1.00  0.00     0.034 A 
BRANCH  46  60
ATOM     60  C   UNL A   1      43.860  27.712  34.151  1.00  0.00     0.023 A 
ATOM     61  C   UNL A   1      44.695  27.952  35.266  1.00  0.00     0.012 A 
ATOM     62  C   UNL A   1      43.907  26.420  33.583  1.00  0.00     0.148 A 
ATOM     63  C   UNL A   1      45.539  26.960  35.778  1.00  0.00     0.002 A 
ATOM     64  C   UNL A   1      44.685  25.414  34.144  1.00  0.00     0.091 A 
ATOM     65  F   UNL A   1      43.324  26.191  32.402  1.00  0.00    -0.205 F 
ATOM     66  C   UNL A   1      45.523  25.685  35.228  1.00  0.00     0.022 A 
BRANCH  64  67
ATOM     67  S   UNL A   1      44.679  23.746  33.478  1.00  0.00     0.127 S 
ATOM     68  O   UNL A   1      45.801  23.145  34.191  1.00  0.00    -0.237 OA
ATOM     69  O   UNL A   1      43.356  23.270  33.880  1.00  0.00    -0.237 OA
ATOM     70  O   UNL A   1      44.843  23.907  32.038  1.00  0.00    -0.744 OA
ENDBRANCH  64  67
ENDBRANCH  46  60
BRANCH  47  71
ATOM     71  C   UNL A   1      42.676  25.254  26.227  1.00  0.00     0.023 A 
ATOM     72  C   UNL A   1      43.644  25.194  25.198  1.00  0.00     0.012 A 
ATOM     73  C   UNL A   1      42.017  24.062  26.587  1.00  0.00     0.148 A 
ATOM     74  C   UNL A   1      44.025  23.976  24.626  1.00  0.00     0.002 A 
ATOM     75  C   UNL A   1      42.394  22.850  26.005  1.00  0.00     0.091 A 
ATOM     76  F   UNL A   1      41.101  24.100  27.565  1.00  0.00    -0.205 F 
ATOM     77  C   UNL A   1      43.415  22.801  25.046  1.00  0.00     0.022 A 
BRANCH  75  78
ATOM     78  S   UNL A   1      41.658  21.283  26.491  1.00  0.00     0.127 S 
ATOM     79  O   UNL A   1      40.234  21.520  26.245  1.00  0.00    -0.237 OA
ATOM     80  O   UNL A   1      42.290  20.350  25.564  1.00  0.00    -0.237 OA
ATOM     81  O   UNL A   1      41.997  21.115  27.898  1.00  0.00    -0.744 OA
ENDBRANCH  75  78
ENDBRANCH  47  71
BRANCH  59  82
ATOM     82  C   UNL A   1      45.077  30.687  28.166  1.00  0.00     0.023 A 
ATOM     83  C   UNL A   1      43.897  31.220  27.617  1.00  0.00     0.012 A 
ATOM     84  C   UNL A   1      46.315  31.265  27.849  1.00  0.00     0.148 A 
ATOM     85  C   UNL A   1      43.958  32.328  26.766  1.00  0.00     0.002 A 
ATOM     86  C   UNL A   1      46.368  32.388  27.040  1.00  0.00     0.091 A 
ATOM     87  F   UNL A   1      47.419  30.723  28.386  1.00  0.00    -0.205 F 
ATOM     88  C   UNL A   1      45.192  32.922  26.491  1.00  0.00     0.022 A 
BRANCH  86  89
ATOM     89  S   UNL A   1      47.908  33.257  26.741  1.00  0.00     0.127 S 
ATOM     90  O   UNL A   1      47.540  34.168  25.658  1.00  0.00    -0.237 OA
ATOM     91  O   UNL A   1      48.150  33.903  28.031  1.00  0.00    -0.237 OA
ATOM     92  O   UNL A   1      48.889  32.239  26.387  1.00  0.00    -0.744 OA
ENDBRANCH  86  89
ENDBRANCH  59  82
ENDBRANCH  33  34
ENDBRANCH  25  28
ENDBRANCH   1  24
TORSDOF 14
ENDMDL
MODEL 2
REMARK VINA RESULT:     -12.6      2.693      4.033
REMARK SMILES CC(=O)n1cc2c3c(cccc31)C(=O)C[C@@H]2C(=O)NCCCNC(=O)c1ccc(-c2c3nc(c(-c4cccc(S(=O)(=O)[O-])c4F)c4ccc([nH]4)c(-c4cccc(S(=O)(=O)[O-])c4F)c4nc(c(-c5cccc(S(=O)(=O)[O-])c5F)c5ccc2[nH]5)C=C4)C=C3)cc1
REMARK SMILES IDX 22 1 21 2 20 3 19 4 17 5 18 6 16 8 4 9 5 10 12 11 6 12 7 13
REMARK SMILES IDX 11 14 8 15 10 16 15 17 9 18 13 19 14 20 2 21 1 22 3 23 23 24
REMARK SMILES IDX 24 25 25 27 26 28 27 29 88 30 28 31 87 32 29 33 30 34 31 35
REMARK SMILES IDX 81 36 32 37 86 38 80 39 82 40 33 41 85 42 79 43 78 44 34 46
REMARK SMILES IDX 66 47 46 48 65 49 47 50 50 51 64 52 83 53 48 54 49 55 63 57
REMARK SMILES IDX 84 58 51 59 35 60 36 61 44 62 37 63 39 64 45 65 38 66 40 67
REMARK SMILES IDX 41 68 42 69 43 70 67 71 68 72 76 73 69 74 71 75 77 76 70 77
REMARK SMILES IDX 72 78 73 79 74 80 75 81 52 82 53 83 61 84 54 85 56 86 62 87
REMARK SMILES IDX 55 88 57 89 58 90 59 91 60 92
REMARK H PARENT 19 7 23 26 82 45 50 56
REMARK Flexibility Score: inf
ROOT
ATOM      1  C   UNL A   1      33.717  30.402  27.012  1.00  0.00     0.118 C 
ENDROOT
BRANCH   1   2
ATOM      2  C   UNL A   1      32.291  29.897  26.880  1.00  0.00     0.042 C 
BRANCH   2   3
ATOM      3  C   UNL A   1      31.861  29.720  25.425  1.00  0.00     0.117 C 
BRANCH   3   4
ATOM      4  N   UNL A   1      32.978  29.602  24.497  1.00  0.00    -0.355 N 
ATOM      5  C   UNL A   1      33.097  28.923  23.318  1.00  0.00     0.228 C 
ATOM      6  O   UNL A   1      34.127  29.094  22.661  1.00  0.00    -0.274 OA
ATOM      7  H   UNL A   1      33.786  30.096  24.767  1.00  0.00     0.163 HD
BRANCH   5   8
ATOM      8  C   UNL A   1      32.010  27.977  22.808  1.00  0.00     0.118 C 
ATOM      9  N   UNL A   1      29.101  30.176  21.978  1.00  0.00    -0.287 N 
ATOM     10  C   UNL A   1      30.463  29.893  21.861  1.00  0.00     0.100 A 
ATOM     11  C   UNL A   1      28.509  29.126  22.690  1.00  0.00     0.057 A 
ATOM     12  C   UNL A   1      30.738  28.711  22.510  1.00  0.00    -0.008 A 
ATOM     13  C   UNL A   1      29.512  28.206  22.958  1.00  0.00     0.015 A 
ATOM     14  C   UNL A   1      27.192  28.862  23.102  1.00  0.00     0.027 A 
ATOM     15  C   UNL A   1      29.251  27.015  23.630  1.00  0.00     0.027 A 
ATOM     16  C   UNL A   1      26.933  27.645  23.760  1.00  0.00     0.003 A 
ATOM     17  C   UNL A   1      31.823  26.788  23.787  1.00  0.00     0.099 C 
ATOM     18  C   UNL A   1      27.948  26.719  24.016  1.00  0.00     0.012 A 
ATOM     19  C   UNL A   1      30.427  26.158  23.888  1.00  0.00     0.164 C 
ATOM     20  O   UNL A   1      30.258  24.999  24.259  1.00  0.00    -0.294 OA
BRANCH   9  21
ATOM     21  C   UNL A   1      28.421  31.307  21.469  1.00  0.00     0.227 C 
ATOM     22  C   UNL A   1      28.612  32.568  22.264  1.00  0.00     0.115 C 
ATOM     23  O   UNL A   1      27.808  31.241  20.423  1.00  0.00    -0.274 OA
ENDBRANCH   9  21
ENDBRANCH   5   8
ENDBRANCH   3   4
ENDBRANCH   2   3
ENDBRANCH   1   2
BRANCH   1  24
ATOM     24  N   UNL A   1      33.795  31.626  27.800  1.00  0.00    -0.352 N 
ATOM     25  C   UNL A   1      34.705  31.961  28.778  1.00  0.00     0.251 C 
ATOM     26  H   UNL A   1      33.107  32.304  27.608  1.00  0.00     0.163 HD
ATOM     27  O   UNL A   1      34.438  32.865  29.565  1.00  0.00    -0.269 OA
BRANCH  25  28
ATOM     28  C   UNL A   1      35.982  31.229  28.888  1.00  0.00     0.039 A 
ATOM     29  C   UNL A   1      37.181  31.946  28.956  1.00  0.00     0.014 A 
ATOM     30  C   UNL A   1      35.994  29.832  28.893  1.00  0.00     0.014 A 
ATOM     31  C   UNL A   1      38.377  31.251  29.100  1.00  0.00     0.010 A 
ATOM     32  C   UNL A   1      37.167  29.145  29.128  1.00  0.00     0.010 A 
ATOM     33  C   UNL A   1      38.361  29.851  29.211  1.00  0.00    -0.014 A 
BRANCH  33  34
ATOM     34  C   UNL A   1      39.572  29.141  29.602  1.00  0.00     0.031 A 
ATOM     35  C   UNL A   1      39.883  29.276  31.046  1.00  0.00     0.074 A 
ATOM     36  C   UNL A   1      40.265  28.302  28.802  1.00  0.00     0.049 A 
ATOM     37  N   UNL A   1      40.734  30.092  31.576  1.00  0.00    -0.248 NA
ATOM     38  C   UNL A   1      39.040  28.575  32.027  1.00  0.00     0.031 C 
ATOM     39  C   UNL A   1      39.907  27.857  27.450  1.00  0.00     0.029 A 
ATOM     40  N   UNL A   1      41.392  27.581  29.069  1.00  0.00    -0.354 N 
ATOM     41  C   UNL A   1      40.756  29.759  32.925  1.00  0.00     0.074 A 
ATOM     42  C   UNL A   1      39.545  29.025  33.182  1.00  0.00     0.031 C 
ATOM     43  C   UNL A   1      40.663  26.788  27.108  1.00  0.00     0.029 A 
ATOM     44  C   UNL A   1      41.671  26.585  28.132  1.00  0.00     0.049 A 
ATOM     45  H   UNL A   1      41.960  27.748  29.855  1.00  0.00     0.167 HD
ATOM     46  C   UNL A   1      41.930  29.786  33.615  1.00  0.00     0.034 A 
ATOM     47  C   UNL A   1      42.671  25.672  28.201  1.00  0.00     0.034 A 
ATOM     48  C   UNL A   1      42.975  30.397  32.840  1.00  0.00     0.049 A 
ATOM     49  C   UNL A   1      43.735  26.291  29.020  1.00  0.00     0.074 A 
ATOM     50  C   UNL A   1      43.327  31.658  32.416  1.00  0.00     0.029 A 
ATOM     51  N   UNL A   1      43.646  29.495  32.059  1.00  0.00    -0.354 N 
ATOM     52  N   UNL A   1      44.423  27.328  28.628  1.00  0.00    -0.248 NA
ATOM     53  C   UNL A   1      43.883  25.924  30.423  1.00  0.00     0.031 C 
ATOM     54  C   UNL A   1      44.125  31.475  31.248  1.00  0.00     0.029 A 
ATOM     55  C   UNL A   1      44.264  30.110  31.010  1.00  0.00     0.049 A 
ATOM     56  H   UNL A   1      43.678  28.526  32.233  1.00  0.00     0.167 HD
ATOM     57  C   UNL A   1      44.700  27.991  29.805  1.00  0.00     0.074 A 
ATOM     58  C   UNL A   1      44.535  27.002  30.861  1.00  0.00     0.031 C 
ATOM     59  C   UNL A   1      44.682  29.350  29.855  1.00  0.00     0.034 A 
BRANCH  46  60
ATOM     60  C   UNL A   1      42.309  28.827  34.721  1.00  0.00     0.023 A 
ATOM     61  C   UNL A   1      42.849  29.383  35.903  1.00  0.00     0.012 A 
ATOM     62  C   UNL A   1      42.466  27.435  34.540  1.00  0.00     0.148 A 
ATOM     63  C   UNL A   1      43.519  28.595  36.847  1.00  0.00     0.002 A 
ATOM     64  C   UNL A   1      43.058  26.644  35.516  1.00  0.00     0.091 A 
ATOM     65  F   UNL A   1      42.187  26.883  33.355  1.00  0.00    -0.205 F 
ATOM     66  C   UNL A   1      43.610  27.221  36.662  1.00  0.00     0.022 A 
BRANCH  64  67
ATOM     67  S   UNL A   1      43.180  24.861  35.329  1.00  0.00     0.127 S 
ATOM     68  O   UNL A   1      41.776  24.467  35.385  1.00  0.00    -0.237 OA
ATOM     69  O   UNL A   1      43.810  24.743  34.014  1.00  0.00    -0.237 OA
ATOM     70  O   UNL A   1      44.018  24.415  36.435  1.00  0.00    -0.744 OA
ENDBRANCH  64  67
ENDBRANCH  46  60
BRANCH  47  71
ATOM     71  C   UNL A   1      42.835  24.288  27.696  1.00  0.00     0.023 A 
ATOM     72  C   UNL A   1      41.736  23.404  27.793  1.00  0.00     0.012 A 
ATOM     73  C   UNL A   1      43.889  23.942  26.827  1.00  0.00     0.148 A 
ATOM     74  C   UNL A   1      41.634  22.275  26.975  1.00  0.00     0.002 A 
ATOM     75  C   UNL A   1      43.787  22.808  26.019  1.00  0.00     0.091 A 
ATOM     76  F   UNL A   1      44.936  24.772  26.718  1.00  0.00    -0.205 F 
ATOM     77  C   UNL A   1      42.650  21.989  26.072  1.00  0.00     0.022 A 
BRANCH  75  78
ATOM     78  S   UNL A   1      45.053  22.365  24.822  1.00  0.00     0.127 S 
ATOM     79  O   UNL A   1      45.142  23.576  24.003  1.00  0.00    -0.237 OA
ATOM     80  O   UNL A   1      46.210  22.123  25.679  1.00  0.00    -0.237 OA
ATOM     81  O   UNL A   1      44.529  21.205  24.113  1.00  0.00    -0.744 OA
ENDBRANCH  75  78
ENDBRANCH  47  71
BRANCH  59  82
ATOM     82  C   UNL A   1      44.945  30.100  28.591  1.00  0.00     0.023 A 
ATOM     83  C   UNL A   1      43.927  30.531  27.721  1.00  0.00     0.012 A 
ATOM     84  C   UNL A   1      46.271  30.502  28.363  1.00  0.00     0.148 A 
ATOM     85  C   UNL A   1      44.234  31.363  26.641  1.00  0.00     0.002 A 
ATOM     86  C   UNL A   1      46.564  31.359  27.317  1.00  0.00     0.091 A 
ATOM     87  F   UNL A   1      47.215  30.064  29.211  1.00  0.00    -0.205 F 
ATOM     88  C   UNL A   1      45.550  31.790  26.448  1.00  0.00     0.022 A 
BRANCH  86  89
ATOM     89  S   UNL A   1      48.212  32.028  27.086  1.00  0.00     0.127 S 
ATOM     90  O   UNL A   1      48.971  30.843  26.689  1.00  0.00    -0.237 OA
ATOM     91  O   UNL A   1      47.999  33.007  26.020  1.00  0.00    -0.237 OA
ATOM     92  O   UNL A   1      48.599  32.609  28.366  1.00  0.00    -0.744 OA
ENDBRANCH  86  89
ENDBRANCH  59  82
ENDBRANCH  33  34
ENDBRANCH  25  28
ENDBRANCH   1  24
TORSDOF 14
ENDMDL
MODEL 3
REMARK VINA RESULT:     -12.6      1.413      1.784
REMARK SMILES CC(=O)n1cc2c3c(cccc31)C(=O)C[C@@H]2C(=O)NCCCNC(=O)c1ccc(-c2c3nc(c(-c4cccc(S(=O)(=O)[O-])c4F)c4ccc([nH]4)c(-c4cccc(S(=O)(=O)[O-])c4F)c4nc(c(-c5cccc(S(=O)(=O)[O-])c5F)c5ccc2[nH]5)C=C4)C=C3)cc1
REMARK SMILES IDX 22 1 21 2 20 3 19 4 17 5 18 6 16 8 4 9 5 10 12 11 6 12 7 13
REMARK SMILES IDX 11 14 8 15 10 16 15 17 9 18 13 19 14 20 2 21 1 22 3 23 23 24
REMARK SMILES IDX 24 25 25 27 26 28 27 29 88 30 28 31 87 32 29 33 30 34 31 35
REMARK SMILES IDX 81 36 32 37 86 38 80 39 82 40 33 41 85 42 79 43 78 44 34 46
REMARK SMILES IDX 66 47 46 48 65 49 47 50 50 51 64 52 83 53 48 54 49 55 63 57
REMARK SMILES IDX 84 58 51 59 35 60 36 61 44 62 37 63 39 64 45 65 38 66 40 67
REMARK SMILES IDX 41 68 42 69 43 70 67 71 68 72 76 73 69 74 71 75 77 76 70 77
REMARK SMILES IDX 72 78 73 79 74 80 75 81 52 82 53 83 61 84 54 85 56 86 62 87
REMARK SMILES IDX 55 88 57 89 58 90 59 91 60 92
REMARK H PARENT 19 7 23 26 82 45 50 56
REMARK Flexibility Score: inf
ROOT
ATOM      1  C   UNL A   1      34.416  32.043  27.652  1.00  0.00     0.118 C 
ENDROOT
BRANCH   1   2
ATOM      2  C   UNL A   1      33.425  30.925  27.378  1.00  0.00     0.042 C 
BRANCH   2   3
ATOM      3  C   UNL A   1      34.109  29.587  27.102  1.00  0.00     0.117 C 
BRANCH   3   4
ATOM      4  N   UNL A   1      33.970  29.135  25.724  1.00  0.00    -0.355 N 
ATOM      5  C   UNL A   1      33.419  27.999  25.204  1.00  0.00     0.228 C 
ATOM      6  O   UNL A   1      33.320  27.921  23.976  1.00  0.00    -0.274 OA
ATOM      7  H   UNL A   1      34.336  29.755  25.053  1.00  0.00     0.163 HD
BRANCH   5   8
ATOM      8  C   UNL A   1      32.935  26.848  26.087  1.00  0.00     0.118 C 
ATOM      9  N   UNL A   1      35.036  23.911  25.113  1.00  0.00    -0.287 N 
ATOM     10  C   UNL A   1      34.951  25.248  25.504  1.00  0.00     0.100 A 
ATOM     11  C   UNL A   1      33.742  23.375  25.151  1.00  0.00     0.057 A 
ATOM     12  C   UNL A   1      33.635  25.566  25.751  1.00  0.00    -0.008 A 
ATOM     13  C   UNL A   1      32.903  24.383  25.600  1.00  0.00     0.015 A 
ATOM     14  C   UNL A   1      33.218  22.102  24.870  1.00  0.00     0.027 A 
ATOM     15  C   UNL A   1      31.539  24.170  25.786  1.00  0.00     0.027 A 
ATOM     16  C   UNL A   1      31.842  21.889  25.083  1.00  0.00     0.003 A 
ATOM     17  C   UNL A   1      31.389  26.739  26.038  1.00  0.00     0.099 C 
ATOM     18  C   UNL A   1      31.005  22.907  25.547  1.00  0.00     0.012 A 
ATOM     19  C   UNL A   1      30.762  25.350  26.220  1.00  0.00     0.164 C 
ATOM     20  O   UNL A   1      29.615  25.198  26.629  1.00  0.00    -0.294 OA
BRANCH   9  21
ATOM     21  C   UNL A   1      36.206  23.203  24.751  1.00  0.00     0.227 C 
ATOM     22  C   UNL A   1      36.356  22.946  23.278  1.00  0.00     0.115 C 
ATOM     23  O   UNL A   1      37.038  22.916  25.587  1.00  0.00    -0.274 OA
ENDBRANCH   9  21
ENDBRANCH   5   8
ENDBRANCH   3   4
ENDBRANCH   2   3
ENDBRANCH   1   2
BRANCH   1  24
ATOM     24  N   UNL A   1      34.388  32.472  29.045  1.00  0.00    -0.352 N 
ATOM     25  C   UNL A   1      35.166  32.036  30.094  1.00  0.00     0.251 C 
ATOM     26  H   UNL A   1      33.725  33.167  29.266  1.00  0.00     0.163 HD
ATOM     27  O   UNL A   1      34.798  32.248  31.246  1.00  0.00    -0.269 OA
BRANCH  25  28
ATOM     28  C   UNL A   1      36.424  31.308  29.833  1.00  0.00     0.039 A 
ATOM     29  C   UNL A   1      37.609  32.028  29.655  1.00  0.00     0.014 A 
ATOM     30  C   UNL A   1      36.423  29.914  29.736  1.00  0.00     0.014 A 
ATOM     31  C   UNL A   1      38.798  31.333  29.451  1.00  0.00     0.010 A 
ATOM     32  C   UNL A   1      37.611  29.222  29.627  1.00  0.00     0.010 A 
ATOM     33  C   UNL A   1      38.796  29.929  29.463  1.00  0.00    -0.014 A 
BRANCH  33  34
ATOM     34  C   UNL A   1      40.059  29.202  29.492  1.00  0.00     0.031 A 
ATOM     35  C   UNL A   1      40.580  29.001  30.867  1.00  0.00     0.074 A 
ATOM     36  C   UNL A   1      40.633  28.614  28.421  1.00  0.00     0.049 A 
ATOM     37  N   UNL A   1      41.492  29.705  31.453  1.00  0.00    -0.248 NA
ATOM     38  C   UNL A   1      39.899  28.047  31.756  1.00  0.00     0.031 C 
ATOM     39  C   UNL A   1      40.082  28.491  27.067  1.00  0.00     0.029 A 
ATOM     40  N   UNL A   1      41.795  27.902  28.342  1.00  0.00    -0.354 N 
ATOM     41  C   UNL A   1      41.718  29.059  32.663  1.00  0.00     0.074 A 
ATOM     42  C   UNL A   1      40.566  28.229  32.902  1.00  0.00     0.031 C 
ATOM     43  C   UNL A   1      40.790  27.571  26.371  1.00  0.00     0.029 A 
ATOM     44  C   UNL A   1      41.941  27.174  27.160  1.00  0.00     0.049 A 
ATOM     45  H   UNL A   1      42.472  27.902  29.056  1.00  0.00     0.167 HD
ATOM     46  C   UNL A   1      42.981  28.973  33.165  1.00  0.00     0.034 A 
ATOM     47  C   UNL A   1      42.949  26.319  26.861  1.00  0.00     0.034 A 
ATOM     48  C   UNL A   1      43.893  29.801  32.422  1.00  0.00     0.049 A 
ATOM     49  C   UNL A   1      44.117  26.772  27.647  1.00  0.00     0.074 A 
ATOM     50  C   UNL A   1      44.165  31.142  32.274  1.00  0.00     0.029 A 
ATOM     51  N   UNL A   1      44.449  29.144  31.358  1.00  0.00    -0.354 N 
ATOM     52  N   UNL A   1      44.728  27.903  27.427  1.00  0.00    -0.248 NA
ATOM     53  C   UNL A   1      44.476  26.086  28.882  1.00  0.00     0.031 C 
ATOM     54  C   UNL A   1      44.782  31.281  30.995  1.00  0.00     0.029 A 
ATOM     55  C   UNL A   1      44.898  30.021  30.414  1.00  0.00     0.049 A 
ATOM     56  H   UNL A   1      44.517  28.164  31.283  1.00  0.00     0.167 HD
ATOM     57  C   UNL A   1      45.171  28.276  28.678  1.00  0.00     0.074 A 
ATOM     58  C   UNL A   1      45.175  27.056  29.473  1.00  0.00     0.031 C 
ATOM     59  C   UNL A   1      45.147  29.580  29.061  1.00  0.00     0.034 A 
BRANCH  46  60
ATOM     60  C   UNL A   1      43.531  27.795  33.938  1.00  0.00     0.023 A 
ATOM     61  C   UNL A   1      43.921  26.658  33.195  1.00  0.00     0.012 A 
ATOM     62  C   UNL A   1      43.381  27.628  35.332  1.00  0.00     0.148 A 
ATOM     63  C   UNL A   1      44.138  25.419  33.808  1.00  0.00     0.002 A 
ATOM     64  C   UNL A   1      43.676  26.418  35.948  1.00  0.00     0.091 A 
ATOM     65  F   UNL A   1      42.799  28.587  36.059  1.00  0.00    -0.205 F 
ATOM     66  C   UNL A   1      44.032  25.302  35.188  1.00  0.00     0.022 A 
BRANCH  64  67
ATOM     67  S   UNL A   1      43.573  26.226  37.731  1.00  0.00     0.127 S 
ATOM     68  O   UNL A   1      44.276  27.418  38.193  1.00  0.00    -0.237 OA
ATOM     69  O   UNL A   1      42.126  26.231  37.946  1.00  0.00    -0.237 OA
ATOM     70  O   UNL A   1      44.214  24.949  38.018  1.00  0.00    -0.744 OA
ENDBRANCH  64  67
ENDBRANCH  46  60
BRANCH  47  71
ATOM     71  C   UNL A   1      43.051  25.106  26.015  1.00  0.00     0.023 A 
ATOM     72  C   UNL A   1      44.134  25.008  25.111  1.00  0.00     0.012 A 
ATOM     73  C   UNL A   1      42.337  23.931  26.324  1.00  0.00     0.148 A 
ATOM     74  C   UNL A   1      44.564  23.772  24.620  1.00  0.00     0.002 A 
ATOM     75  C   UNL A   1      42.765  22.700  25.822  1.00  0.00     0.091 A 
ATOM     76  F   UNL A   1      41.312  24.004  27.184  1.00  0.00    -0.205 F 
ATOM     77  C   UNL A   1      43.892  22.615  24.993  1.00  0.00     0.022 A 
BRANCH  75  78
ATOM     78  S   UNL A   1      41.955  21.154  26.256  1.00  0.00     0.127 S 
ATOM     79  O   UNL A   1      42.251  21.040  27.686  1.00  0.00    -0.237 OA
ATOM     80  O   UNL A   1      40.559  21.444  25.943  1.00  0.00    -0.237 OA
ATOM     81  O   UNL A   1      42.596  20.136  25.434  1.00  0.00    -0.744 OA
ENDBRANCH  75  78
ENDBRANCH  47  71
BRANCH  59  82
ATOM     82  C   UNL A   1      45.211  30.624  27.995  1.00  0.00     0.023 A 
ATOM     83  C   UNL A   1      44.075  31.128  27.336  1.00  0.00     0.012 A 
ATOM     84  C   UNL A   1      46.466  31.209  27.763  1.00  0.00     0.148 A 
ATOM     85  C   UNL A   1      44.195  32.213  26.463  1.00  0.00     0.002 A 
ATOM     86  C   UNL A   1      46.573  32.309  26.930  1.00  0.00     0.091 A 
ATOM     87  F   UNL A   1      47.527  30.695  28.404  1.00  0.00    -0.205 F 
ATOM     88  C   UNL A   1      45.441  32.814  26.273  1.00  0.00     0.022 A 
BRANCH  86  89
ATOM     89  S   UNL A   1      48.124  33.189  26.733  1.00  0.00     0.127 S 
ATOM     90  O   UNL A   1      49.046  32.109  26.386  1.00  0.00    -0.237 OA
ATOM     91  O   UNL A   1      47.816  34.110  25.639  1.00  0.00    -0.237 OA
ATOM     92  O   UNL A   1      48.387  33.841  28.010  1.00  0.00    -0.744 OA
ENDBRANCH  86  89
ENDBRANCH  59  82
ENDBRANCH  33  34
ENDBRANCH  25  28
ENDBRANCH   1  24
TORSDOF 14
ENDMDL
