MODEL 1
REMARK VINA RESULT:     -12.7      0.000      0.000
REMARK SMILES CCc1cc(S(F)(F)(F)(F)F)cc2c1O[C@@H](C(F)(F)F)C(C(=O)NCCCNC(=O)c1ccc(-c3c4nc(c(-c5cccc(S(=O)(=O)[O-])c5F)c5ccc([nH]5)c(-c5cccc(S(=O)(=O)[O-])c5F)c5nc(c(-c6cccc(S(=O)(=O)[O-])c6F)c6ccc3[nH]6)C=C5)C=C4)cc1)=C2
REMARK SMILES IDX 27 1 26 2 25 3 24 4 22 5 23 6 21 8 3 9 4 10 14 11 5 12 13 13
REMARK SMILES IDX 15 14 12 15 94 16 16 17 2 18 1 19 6 20 7 21 8 22 9 23 10 24
REMARK SMILES IDX 11 25 17 26 18 27 19 28 20 29 28 30 29 31 30 33 31 34 32 35
REMARK SMILES IDX 93 36 33 37 92 38 34 39 35 40 36 41 86 42 37 43 91 44 85 45
REMARK SMILES IDX 87 46 38 47 90 48 84 49 83 50 39 52 71 53 51 54 70 55 52 56
REMARK SMILES IDX 55 57 69 58 88 59 53 60 54 61 68 63 89 64 56 65 40 66 41 67
REMARK SMILES IDX 49 68 42 69 44 70 50 71 43 72 45 73 46 74 47 75 48 76 72 77
REMARK SMILES IDX 73 78 81 79 74 80 76 81 82 82 75 83 77 84 78 85 79 86 80 87
REMARK SMILES IDX 57 88 58 89 66 90 59 91 61 92 67 93 60 94 62 95 63 96 64 97
REMARK SMILES IDX 65 98
REMARK H PARENT 24 7 28 32 87 51 55 62
REMARK Flexibility Score: inf
ROOT
ATOM      1  C   UNL A   1      33.950  28.385  26.529  1.00  0.00     0.118 C 
ENDROOT
BRANCH   1   2
ATOM      2  C   UNL A   1      34.260  28.259  25.046  1.00  0.00     0.042 C 
BRANCH   2   3
ATOM      3  C   UNL A   1      33.537  27.048  24.479  1.00  0.00     0.118 C 
BRANCH   3   4
ATOM      4  N   UNL A   1      33.415  27.189  23.021  1.00  0.00    -0.352 N 
ATOM      5  C   UNL A   1      33.427  25.995  22.163  1.00  0.00     0.251 C 
ATOM      6  O   UNL A   1      33.322  26.117  20.902  1.00  0.00    -0.270 OA
ATOM      7  H   UNL A   1      33.325  28.083  22.618  1.00  0.00     0.163 HD
BRANCH   5   8
ATOM      8  C   UNL A   1      33.566  24.615  22.785  1.00  0.00     0.067 C 
ATOM      9  C   UNL A   1      33.760  21.032  24.923  1.00  0.00    -0.004 A 
ATOM     10  C   UNL A   1      34.990  20.472  25.221  1.00  0.00     0.032 A 
ATOM     11  C   UNL A   1      33.726  22.237  24.265  1.00  0.00     0.131 A 
ATOM     12  C   UNL A   1      36.154  21.104  24.875  1.00  0.00     0.108 A 
ATOM     13  C   UNL A   1      34.881  22.896  23.884  1.00  0.00     0.019 A 
ATOM     14  O   UNL A   1      32.504  22.835  24.077  1.00  0.00    -0.475 OA
ATOM     15  C   UNL A   1      36.099  22.308  24.203  1.00  0.00     0.036 A 
ATOM     16  C   UNL A   1      34.740  24.185  23.228  1.00  0.00     0.025 C 
ATOM     17  C   UNL A   1      32.358  23.695  22.913  1.00  0.00     0.314 C 
BRANCH   9  18
ATOM     18  C   UNL A   1      32.511  20.209  25.196  1.00  0.00     0.036 C 
ATOM     19  C   UNL A   1      32.266  19.259  24.035  1.00  0.00     0.009 C 
ENDBRANCH   9  18
BRANCH  12  20
ATOM     20  S   UNL A   1      37.753  20.367  25.295  1.00  0.00     0.310 S 
ATOM     21  F   UNL A   1      38.284  20.450  23.803  1.00  0.00    -0.094 F 
ATOM     22  F   UNL A   1      37.138  18.963  24.926  1.00  0.00    -0.094 F 
ATOM     23  F   UNL A   1      39.107  19.705  25.676  1.00  0.00    -0.094 F 
ATOM     24  F   UNL A   1      38.393  21.792  25.525  1.00  0.00    -0.094 F 
ATOM     25  F   UNL A   1      36.420  21.061  24.803  1.00  0.00    -0.094 F 
ENDBRANCH  12  20
BRANCH  17  26
ATOM     26  C   UNL A   1      31.105  24.541  23.074  1.00  0.00     0.429 C 
ATOM     27  F   UNL A   1      30.034  23.753  23.064  1.00  0.00    -0.167 F 
ATOM     28  F   UNL A   1      31.161  25.199  24.229  1.00  0.00    -0.167 F 
ATOM     29  F   UNL A   1      31.025  25.410  22.071  1.00  0.00    -0.167 F 
ENDBRANCH  17  26
ENDBRANCH   5   8
ENDBRANCH   3   4
ENDBRANCH   2   3
ENDBRANCH   1   2
BRANCH   1  30
ATOM     30  N   UNL A   1      33.521  29.760  26.825  1.00  0.00    -0.352 N 
ATOM     31  C   UNL A   1      34.399  30.655  27.592  1.00  0.00     0.251 C 
ATOM     32  H   UNL A   1      32.646  30.082  26.508  1.00  0.00     0.163 HD
ATOM     33  O   UNL A   1      34.027  31.843  27.848  1.00  0.00    -0.269 OA
BRANCH  31  34
ATOM     34  C   UNL A   1      35.750  30.158  28.082  1.00  0.00     0.039 A 
ATOM     35  C   UNL A   1      36.860  30.285  27.264  1.00  0.00     0.014 A 
ATOM     36  C   UNL A   1      35.844  29.626  29.294  1.00  0.00     0.014 A 
ATOM     37  C   UNL A   1      37.985  29.551  27.706  1.00  0.00     0.010 A 
ATOM     38  C   UNL A   1      37.016  29.044  29.713  1.00  0.00     0.010 A 
ATOM     39  C   UNL A   1      38.138  29.080  28.931  1.00  0.00    -0.014 A 
BRANCH  39  40
ATOM     40  C   UNL A   1      39.487  28.604  29.444  1.00  0.00     0.031 A 
ATOM     41  C   UNL A   1      40.177  29.433  30.330  1.00  0.00     0.074 A 
ATOM     42  C   UNL A   1      39.963  27.384  28.995  1.00  0.00     0.049 A 
ATOM     43  N   UNL A   1      41.356  29.202  30.909  1.00  0.00    -0.248 NA
ATOM     44  C   UNL A   1      39.690  30.745  30.781  1.00  0.00     0.031 C 
ATOM     45  C   UNL A   1      39.268  26.538  28.109  1.00  0.00     0.029 A 
ATOM     46  N   UNL A   1      41.159  26.777  29.308  1.00  0.00    -0.354 N 
ATOM     47  C   UNL A   1      41.685  30.219  31.709  1.00  0.00     0.074 A 
ATOM     48  C   UNL A   1      40.621  31.229  31.632  1.00  0.00     0.031 C 
ATOM     49  C   UNL A   1      40.039  25.443  27.881  1.00  0.00     0.029 A 
ATOM     50  C   UNL A   1      41.227  25.584  28.622  1.00  0.00     0.049 A 
ATOM     51  H   UNL A   1      41.846  27.133  29.916  1.00  0.00     0.167 HD
ATOM     52  C   UNL A   1      42.829  30.343  32.499  1.00  0.00     0.034 A 
ATOM     53  C   UNL A   1      42.260  24.661  28.627  1.00  0.00     0.034 A 
ATOM     54  C   UNL A   1      43.843  29.399  32.538  1.00  0.00     0.049 A 
ATOM     55  C   UNL A   1      43.432  24.812  29.373  1.00  0.00     0.074 A 
ATOM     56  C   UNL A   1      44.998  29.504  33.335  1.00  0.00     0.029 A 
ATOM     57  N   UNL A   1      43.922  28.218  31.833  1.00  0.00    -0.354 N 
ATOM     58  N   UNL A   1      43.742  25.810  30.202  1.00  0.00    -0.248 NA
ATOM     59  C   UNL A   1      44.547  23.855  29.363  1.00  0.00     0.031 C 
ATOM     60  C   UNL A   1      45.769  28.407  33.107  1.00  0.00     0.029 A 
ATOM     61  C   UNL A   1      45.107  27.599  32.163  1.00  0.00     0.049 A 
ATOM     62  H   UNL A   1      43.248  27.875  31.203  1.00  0.00     0.167 HD
ATOM     63  C   UNL A   1      44.940  25.597  30.751  1.00  0.00     0.074 A 
ATOM     64  C   UNL A   1      45.478  24.340  30.212  1.00  0.00     0.031 C 
ATOM     65  C   UNL A   1      45.604  26.398  31.680  1.00  0.00     0.034 A 
BRANCH  52  66
ATOM     66  C   UNL A   1      42.971  31.584  33.365  1.00  0.00     0.023 A 
ATOM     67  C   UNL A   1      43.497  32.780  32.908  1.00  0.00     0.012 A 
ATOM     68  C   UNL A   1      42.457  31.479  34.586  1.00  0.00     0.148 A 
ATOM     69  C   UNL A   1      43.697  33.745  33.923  1.00  0.00     0.002 A 
ATOM     70  C   UNL A   1      42.571  32.514  35.483  1.00  0.00     0.091 A 
ATOM     71  F   UNL A   1      41.827  30.364  34.942  1.00  0.00    -0.205 F 
ATOM     72  C   UNL A   1      43.133  33.704  35.116  1.00  0.00     0.022 A 
BRANCH  70  73
ATOM     73  S   UNL A   1      41.969  32.295  37.177  1.00  0.00     0.127 S 
ATOM     74  O   UNL A   1      42.359  33.513  38.017  1.00  0.00    -0.237 OA
ATOM     75  O   UNL A   1      40.446  32.151  37.162  1.00  0.00    -0.237 OA
ATOM     76  O   UNL A   1      42.668  30.888  37.852  1.00  0.00    -0.744 OA
ENDBRANCH  70  73
ENDBRANCH  52  66
BRANCH  53  77
ATOM     77  C   UNL A   1      42.110  23.412  27.774  1.00  0.00     0.023 A 
ATOM     78  C   UNL A   1      41.199  22.414  28.081  1.00  0.00     0.012 A 
ATOM     79  C   UNL A   1      42.985  23.265  26.786  1.00  0.00     0.148 A 
ATOM     80  C   UNL A   1      41.483  21.171  27.467  1.00  0.00     0.002 A 
ATOM     81  C   UNL A   1      43.115  22.060  26.140  1.00  0.00     0.091 A 
ATOM     82  F   UNL A   1      43.743  24.295  26.420  1.00  0.00    -0.205 F 
ATOM     83  C   UNL A   1      42.287  21.013  26.432  1.00  0.00     0.022 A 
BRANCH  81  84
ATOM     84  S   UNL A   1      44.400  21.856  24.881  1.00  0.00     0.127 S 
ATOM     85  O   UNL A   1      44.377  20.420  24.355  1.00  0.00    -0.237 OA
ATOM     86  O   UNL A   1      44.142  22.827  23.726  1.00  0.00    -0.237 OA
ATOM     87  O   UNL A   1      45.930  22.186  25.571  1.00  0.00    -0.744 OA
ENDBRANCH  81  84
ENDBRANCH  53  77
BRANCH  65  88
ATOM     88  C   UNL A   1      46.954  25.926  32.195  1.00  0.00     0.023 A 
ATOM     89  C   UNL A   1      48.108  26.309  31.532  1.00  0.00     0.012 A 
ATOM     90  C   UNL A   1      47.005  25.163  33.281  1.00  0.00     0.148 A 
ATOM     91  C   UNL A   1      49.262  25.594  31.929  1.00  0.00     0.002 A 
ATOM     92  C   UNL A   1      48.192  24.606  33.690  1.00  0.00     0.091 A 
ATOM     93  F   UNL A   1      45.895  24.937  33.979  1.00  0.00    -0.205 F 
ATOM     94  C   UNL A   1      49.363  24.895  33.045  1.00  0.00     0.022 A 
BRANCH  92  95
ATOM     95  S   UNL A   1      48.207  23.473  35.102  1.00  0.00     0.127 S 
ATOM     96  O   UNL A   1      47.745  24.217  36.356  1.00  0.00    -0.237 OA
ATOM     97  O   UNL A   1      47.263  22.301  34.825  1.00  0.00    -0.237 OA
ATOM     98  O   UNL A   1      49.794  22.883  35.342  1.00  0.00    -0.744 OA
ENDBRANCH  92  95
ENDBRANCH  65  88
ENDBRANCH  39  40
ENDBRANCH  31  34
ENDBRANCH   1  30
TORSDOF 16
ENDMDL
MODEL 2
REMARK VINA RESULT:     -12.5      5.304      9.667
REMARK SMILES CCc1cc(S(F)(F)(F)(F)F)cc2c1O[C@@H](C(F)(F)F)C(C(=O)NCCCNC(=O)c1ccc(-c3c4nc(c(-c5cccc(S(=O)(=O)[O-])c5F)c5ccc([nH]5)c(-c5cccc(S(=O)(=O)[O-])c5F)c5nc(c(-c6cccc(S(=O)(=O)[O-])c6F)c6ccc3[nH]6)C=C5)C=C4)cc1)=C2
REMARK SMILES IDX 27 1 26 2 25 3 24 4 22 5 23 6 21 8 3 9 4 10 14 11 5 12 13 13
REMARK SMILES IDX 15 14 12 15 94 16 16 17 2 18 1 19 6 20 7 21 8 22 9 23 10 24
REMARK SMILES IDX 11 25 17 26 18 27 19 28 20 29 28 30 29 31 30 33 31 34 32 35
REMARK SMILES IDX 93 36 33 37 92 38 34 39 35 40 36 41 86 42 37 43 91 44 85 45
REMARK SMILES IDX 87 46 38 47 90 48 84 49 83 50 39 52 71 53 51 54 70 55 52 56
REMARK SMILES IDX 55 57 69 58 88 59 53 60 54 61 68 63 89 64 56 65 40 66 41 67
REMARK SMILES IDX 49 68 42 69 44 70 50 71 43 72 45 73 46 74 47 75 48 76 72 77
REMARK SMILES IDX 73 78 81 79 74 80 76 81 82 82 75 83 77 84 78 85 79 86 80 87
REMARK SMILES IDX 57 88 58 89 66 90 59 91 61 92 67 93 60 94 62 95 63 96 64 97
REMARK SMILES IDX 65 98
REMARK H PARENT 24 7 28 32 87 51 55 62
REMARK Flexibility Score: inf
ROOT
ATOM      1  C   UNL A   1      35.994  22.619  26.256  1.00  0.00     0.118 C 
ENDROOT
BRANCH   1   2
ATOM      2  C   UNL A   1      35.132  23.166  25.130  1.00  0.00     0.042 C 
BRANCH   2   3
ATOM      3  C   UNL A   1      34.129  24.158  25.697  1.00  0.00     0.118 C 
BRANCH   3   4
ATOM      4  N   UNL A   1      33.165  23.447  26.550  1.00  0.00    -0.352 N 
ATOM      5  C   UNL A   1      31.815  23.995  26.750  1.00  0.00     0.251 C 
ATOM      6  O   UNL A   1      30.982  23.380  27.487  1.00  0.00    -0.270 OA
ATOM      7  H   UNL A   1      33.423  22.603  26.987  1.00  0.00     0.163 HD
BRANCH   5   8
ATOM      8  C   UNL A   1      31.417  25.297  26.075  1.00  0.00     0.067 C 
ATOM      9  C   UNL A   1      30.700  28.781  23.886  1.00  0.00    -0.004 A 
ATOM     10  C   UNL A   1      30.940  30.018  24.458  1.00  0.00     0.032 A 
ATOM     11  C   UNL A   1      30.994  27.652  24.608  1.00  0.00     0.131 A 
ATOM     12  C   UNL A   1      31.465  30.120  25.719  1.00  0.00     0.108 A 
ATOM     13  C   UNL A   1      31.509  27.716  25.891  1.00  0.00     0.019 A 
ATOM     14  O   UNL A   1      30.859  26.435  23.987  1.00  0.00    -0.475 OA
ATOM     15  C   UNL A   1      31.742  28.974  26.435  1.00  0.00     0.036 A 
ATOM     16  C   UNL A   1      31.824  26.464  26.558  1.00  0.00     0.025 C 
ATOM     17  C   UNL A   1      30.542  25.291  24.828  1.00  0.00     0.314 C 
BRANCH   9  18
ATOM     18  C   UNL A   1      29.976  28.737  22.550  1.00  0.00     0.036 C 
ATOM     19  C   UNL A   1      28.484  28.919  22.776  1.00  0.00     0.009 C 
ENDBRANCH   9  18
BRANCH  12  20
ATOM     20  S   UNL A   1      31.793  31.747  26.441  1.00  0.00     0.310 S 
ATOM     21  F   UNL A   1      30.649  31.594  27.530  1.00  0.00    -0.094 F 
ATOM     22  F   UNL A   1      30.698  32.335  25.473  1.00  0.00    -0.094 F 
ATOM     23  F   UNL A   1      32.075  33.160  27.025  1.00  0.00    -0.094 F 
ATOM     24  F   UNL A   1      32.783  31.120  27.500  1.00  0.00    -0.094 F 
ATOM     25  F   UNL A   1      31.435  30.293  25.936  1.00  0.00    -0.094 F 
ENDBRANCH  12  20
BRANCH  17  26
ATOM     26  C   UNL A   1      30.801  24.013  24.046  1.00  0.00     0.429 C 
ATOM     27  F   UNL A   1      29.961  23.944  23.017  1.00  0.00    -0.167 F 
ATOM     28  F   UNL A   1      32.053  24.014  23.599  1.00  0.00    -0.167 F 
ATOM     29  F   UNL A   1      30.614  22.962  24.840  1.00  0.00    -0.167 F 
ENDBRANCH  17  26
ENDBRANCH   5   8
ENDBRANCH   3   4
ENDBRANCH   2   3
ENDBRANCH   1   2
BRANCH   1  30
ATOM     30  N   UNL A   1      36.682  21.402  25.799  1.00  0.00    -0.352 N 
ATOM     31  C   UNL A   1      38.151  21.346  25.796  1.00  0.00     0.251 C 
ATOM     32  H   UNL A   1      36.159  20.625  25.497  1.00  0.00     0.163 HD
ATOM     33  O   UNL A   1      38.745  20.294  25.402  1.00  0.00    -0.269 OA
BRANCH  31  34
ATOM     34  C   UNL A   1      38.959  22.546  26.263  1.00  0.00     0.039 A 
ATOM     35  C   UNL A   1      39.990  22.363  27.170  1.00  0.00     0.014 A 
ATOM     36  C   UNL A   1      38.672  23.748  25.779  1.00  0.00     0.014 A 
ATOM     37  C   UNL A   1      40.480  23.565  27.732  1.00  0.00     0.010 A 
ATOM     38  C   UNL A   1      39.288  24.869  26.281  1.00  0.00     0.010 A 
ATOM     39  C   UNL A   1      40.275  24.767  27.223  1.00  0.00    -0.014 A 
BRANCH  39  40
ATOM     40  C   UNL A   1      41.092  25.971  27.661  1.00  0.00     0.031 A 
ATOM     41  C   UNL A   1      42.443  26.006  27.309  1.00  0.00     0.074 A 
ATOM     42  C   UNL A   1      40.458  26.959  28.395  1.00  0.00     0.049 A 
ATOM     43  N   UNL A   1      43.328  26.968  27.572  1.00  0.00    -0.248 NA
ATOM     44  C   UNL A   1      43.127  24.942  26.559  1.00  0.00     0.031 C 
ATOM     45  C   UNL A   1      39.094  26.936  28.746  1.00  0.00     0.029 A 
ATOM     46  N   UNL A   1      41.006  28.113  28.909  1.00  0.00    -0.354 N 
ATOM     47  C   UNL A   1      44.518  26.654  27.058  1.00  0.00     0.074 A 
ATOM     48  C   UNL A   1      44.408  25.343  26.405  1.00  0.00     0.031 C 
ATOM     49  C   UNL A   1      38.827  28.053  29.471  1.00  0.00     0.029 A 
ATOM     50  C   UNL A   1      40.018  28.794  29.585  1.00  0.00     0.049 A 
ATOM     51  H   UNL A   1      41.942  28.402  28.811  1.00  0.00     0.167 HD
ATOM     52  C   UNL A   1      45.691  27.410  27.107  1.00  0.00     0.034 A 
ATOM     53  C   UNL A   1      40.130  29.994  30.269  1.00  0.00     0.034 A 
ATOM     54  C   UNL A   1      45.793  28.631  27.755  1.00  0.00     0.049 A 
ATOM     55  C   UNL A   1      41.318  30.722  30.368  1.00  0.00     0.074 A 
ATOM     56  C   UNL A   1      46.965  29.409  27.807  1.00  0.00     0.029 A 
ATOM     57  N   UNL A   1      44.810  29.299  28.451  1.00  0.00    -0.354 N 
ATOM     58  N   UNL A   1      42.498  30.427  29.820  1.00  0.00    -0.248 NA
ATOM     59  C   UNL A   1      41.457  31.978  31.117  1.00  0.00     0.031 C 
ATOM     60  C   UNL A   1      46.696  30.528  28.533  1.00  0.00     0.029 A 
ATOM     61  C   UNL A   1      45.352  30.465  28.946  1.00  0.00     0.049 A 
ATOM     62  H   UNL A   1      43.881  28.997  28.574  1.00  0.00     0.167 HD
ATOM     63  C   UNL A   1      43.393  31.370  30.119  1.00  0.00     0.074 A 
ATOM     64  C   UNL A   1      42.738  32.378  30.964  1.00  0.00     0.031 C 
ATOM     65  C   UNL A   1      44.728  31.433  29.719  1.00  0.00     0.034 A 
BRANCH  52  66
ATOM     66  C   UNL A   1      46.926  26.863  26.411  1.00  0.00     0.023 A 
ATOM     67  C   UNL A   1      47.790  25.950  26.991  1.00  0.00     0.012 A 
ATOM     68  C   UNL A   1      47.075  27.245  25.147  1.00  0.00     0.148 A 
ATOM     69  C   UNL A   1      48.964  25.710  26.238  1.00  0.00     0.002 A 
ATOM     70  C   UNL A   1      48.181  26.862  24.426  1.00  0.00     0.091 A 
ATOM     71  F   UNL A   1      46.146  28.004  24.575  1.00  0.00    -0.205 F 
ATOM     72  C   UNL A   1      49.106  26.008  24.959  1.00  0.00     0.022 A 
BRANCH  70  73
ATOM     73  S   UNL A   1      48.416  27.499  22.748  1.00  0.00     0.127 S 
ATOM     74  O   UNL A   1      48.433  26.332  21.758  1.00  0.00    -0.237 OA
ATOM     75  O   UNL A   1      47.269  28.449  22.398  1.00  0.00    -0.237 OA
ATOM     76  O   UNL A   1      49.901  28.343  22.663  1.00  0.00    -0.744 OA
ENDBRANCH  70  73
ENDBRANCH  52  66
BRANCH  53  77
ATOM     77  C   UNL A   1      38.890  30.549  30.951  1.00  0.00     0.023 A 
ATOM     78  C   UNL A   1      38.511  30.157  32.225  1.00  0.00     0.012 A 
ATOM     79  C   UNL A   1      38.116  31.337  30.214  1.00  0.00     0.148 A 
ATOM     80  C   UNL A   1      37.152  30.418  32.524  1.00  0.00     0.002 A 
ATOM     81  C   UNL A   1      36.849  31.662  30.632  1.00  0.00     0.091 A 
ATOM     82  F   UNL A   1      38.572  31.816  29.061  1.00  0.00    -0.205 F 
ATOM     83  C   UNL A   1      36.387  31.260  31.854  1.00  0.00     0.022 A 
BRANCH  81  84
ATOM     84  S   UNL A   1      35.774  32.637  29.550  1.00  0.00     0.127 S 
ATOM     85  O   UNL A   1      34.351  32.642  30.112  1.00  0.00    -0.237 OA
ATOM     86  O   UNL A   1      36.297  34.073  29.471  1.00  0.00    -0.237 OA
ATOM     87  O   UNL A   1      35.766  31.948  27.984  1.00  0.00    -0.744 OA
ENDBRANCH  81  84
ENDBRANCH  53  77
BRANCH  65  88
ATOM     88  C   UNL A   1      45.549  32.636  30.155  1.00  0.00     0.023 A 
ATOM     89  C   UNL A   1      46.286  32.569  31.325  1.00  0.00     0.012 A 
ATOM     90  C   UNL A   1      45.555  33.728  29.398  1.00  0.00     0.148 A 
ATOM     91  C   UNL A   1      46.777  33.821  31.765  1.00  0.00     0.002 A 
ATOM     92  C   UNL A   1      46.171  34.877  29.832  1.00  0.00     0.091 A 
ATOM     93  F   UNL A   1      44.959  33.708  28.209  1.00  0.00    -0.205 F 
ATOM     94  C   UNL A   1      46.868  34.899  31.008  1.00  0.00     0.022 A 
BRANCH  92  95
ATOM     95  S   UNL A   1      46.057  36.382  28.833  1.00  0.00     0.127 S 
ATOM     96  O   UNL A   1      46.721  37.540  29.579  1.00  0.00    -0.237 OA
ATOM     97  O   UNL A   1      46.767  36.161  27.496  1.00  0.00    -0.237 OA
ATOM     98  O   UNL A   1      44.412  36.755  28.551  1.00  0.00    -0.744 OA
ENDBRANCH  92  95
ENDBRANCH  65  88
ENDBRANCH  39  40
ENDBRANCH  31  34
ENDBRANCH   1  30
TORSDOF 16
ENDMDL
MODEL 3
REMARK VINA RESULT:     -12.5      2.734      7.927
REMARK SMILES CCc1cc(S(F)(F)(F)(F)F)cc2c1O[C@@H](C(F)(F)F)C(C(=O)NCCCNC(=O)c1ccc(-c3c4nc(c(-c5cccc(S(=O)(=O)[O-])c5F)c5ccc([nH]5)c(-c5cccc(S(=O)(=O)[O-])c5F)c5nc(c(-c6cccc(S(=O)(=O)[O-])c6F)c6ccc3[nH]6)C=C5)C=C4)cc1)=C2
REMARK SMILES IDX 27 1 26 2 25 3 24 4 22 5 23 6 21 8 3 9 4 10 14 11 5 12 13 13
REMARK SMILES IDX 15 14 12 15 94 16 16 17 2 18 1 19 6 20 7 21 8 22 9 23 10 24
REMARK SMILES IDX 11 25 17 26 18 27 19 28 20 29 28 30 29 31 30 33 31 34 32 35
REMARK SMILES IDX 93 36 33 37 92 38 34 39 35 40 36 41 86 42 37 43 91 44 85 45
REMARK SMILES IDX 87 46 38 47 90 48 84 49 83 50 39 52 71 53 51 54 70 55 52 56
REMARK SMILES IDX 55 57 69 58 88 59 53 60 54 61 68 63 89 64 56 65 40 66 41 67
REMARK SMILES IDX 49 68 42 69 44 70 50 71 43 72 45 73 46 74 47 75 48 76 72 77
REMARK SMILES IDX 73 78 81 79 74 80 76 81 82 82 75 83 77 84 78 85 79 86 80 87
REMARK SMILES IDX 57 88 58 89 66 90 59 91 61 92 67 93 60 94 62 95 63 96 64 97
REMARK SMILES IDX 65 98
REMARK H PARENT 24 7 28 32 87 51 55 62
REMARK Flexibility Score: inf
ROOT
ATOM      1  C   UNL A   1      32.792  30.283  26.433  1.00  0.00     0.118 C 
ENDROOT
BRANCH   1   2
ATOM      2  C   UNL A   1      31.750  29.352  27.031  1.00  0.00     0.042 C 
BRANCH   2   3
ATOM      3  C   UNL A   1      31.712  28.058  26.235  1.00  0.00     0.118 C 
BRANCH   3   4
ATOM      4  N   UNL A   1      30.816  28.218  25.081  1.00  0.00    -0.352 N 
ATOM      5  C   UNL A   1      30.896  27.281  23.951  1.00  0.00     0.251 C 
ATOM      6  O   UNL A   1      30.121  27.420  22.954  1.00  0.00    -0.270 OA
ATOM      7  H   UNL A   1      30.161  28.954  25.064  1.00  0.00     0.163 HD
BRANCH   5   8
ATOM      8  C   UNL A   1      31.906  26.146  23.977  1.00  0.00     0.067 C 
ATOM      9  C   UNL A   1      34.655  23.032  23.538  1.00  0.00    -0.004 A 
ATOM     10  C   UNL A   1      34.329  21.758  23.968  1.00  0.00     0.032 A 
ATOM     11  C   UNL A   1      33.713  24.025  23.646  1.00  0.00     0.131 A 
ATOM     12  C   UNL A   1      33.092  21.485  24.488  1.00  0.00     0.108 A 
ATOM     13  C   UNL A   1      32.460  23.791  24.182  1.00  0.00     0.019 A 
ATOM     14  O   UNL A   1      34.009  25.256  23.112  1.00  0.00    -0.475 OA
ATOM     15  C   UNL A   1      32.164  22.499  24.600  1.00  0.00     0.036 A 
ATOM     16  C   UNL A   1      31.520  24.898  24.217  1.00  0.00     0.025 C 
ATOM     17  C   UNL A   1      33.385  26.415  23.729  1.00  0.00     0.314 C 
BRANCH   9  18
ATOM     18  C   UNL A   1      36.090  23.302  23.116  1.00  0.00     0.036 C 
ATOM     19  C   UNL A   1      37.027  22.388  23.888  1.00  0.00     0.009 C 
ENDBRANCH   9  18
BRANCH  12  20
ATOM     20  S   UNL A   1      32.678  19.806  25.023  1.00  0.00     0.310 S 
ATOM     21  F   UNL A   1      34.080  19.219  24.568  1.00  0.00    -0.094 F 
ATOM     22  F   UNL A   1      32.164  19.527  23.559  1.00  0.00    -0.094 F 
ATOM     23  F   UNL A   1      32.288  18.367  25.464  1.00  0.00    -0.094 F 
ATOM     24  F   UNL A   1      33.325  20.057  26.441  1.00  0.00    -0.094 F 
ATOM     25  F   UNL A   1      33.182  21.230  24.557  1.00  0.00    -0.094 F 
ENDBRANCH  12  20
BRANCH  17  26
ATOM     26  C   UNL A   1      33.522  27.608  22.797  1.00  0.00     0.429 C 
ATOM     27  F   UNL A   1      32.781  27.410  21.711  1.00  0.00    -0.167 F 
ATOM     28  F   UNL A   1      33.111  28.708  23.422  1.00  0.00    -0.167 F 
ATOM     29  F   UNL A   1      34.796  27.750  22.444  1.00  0.00    -0.167 F 
ENDBRANCH  17  26
ENDBRANCH   5   8
ENDBRANCH   3   4
ENDBRANCH   2   3
ENDBRANCH   1   2
BRANCH   1  30
ATOM     30  N   UNL A   1      32.365  31.679  26.615  1.00  0.00    -0.352 N 
ATOM     31  C   UNL A   1      33.150  32.583  27.467  1.00  0.00     0.251 C 
ATOM     32  H   UNL A   1      31.553  32.008  26.164  1.00  0.00     0.163 HD
ATOM     33  O   UNL A   1      32.780  33.788  27.624  1.00  0.00    -0.269 OA
BRANCH  31  34
ATOM     34  C   UNL A   1      34.403  32.075  28.162  1.00  0.00     0.039 A 
ATOM     35  C   UNL A   1      35.508  32.903  28.267  1.00  0.00     0.014 A 
ATOM     36  C   UNL A   1      34.409  30.849  28.672  1.00  0.00     0.014 A 
ATOM     37  C   UNL A   1      36.686  32.238  28.680  1.00  0.00     0.010 A 
ATOM     38  C   UNL A   1      35.566  30.310  29.183  1.00  0.00     0.010 A 
ATOM     39  C   UNL A   1      36.712  31.053  29.263  1.00  0.00    -0.014 A 
BRANCH  39  40
ATOM     40  C   UNL A   1      37.948  30.542  29.984  1.00  0.00     0.031 A 
ATOM     41  C   UNL A   1      38.794  29.673  29.293  1.00  0.00     0.074 A 
ATOM     42  C   UNL A   1      38.161  30.955  31.288  1.00  0.00     0.049 A 
ATOM     43  N   UNL A   1      39.931  29.127  29.727  1.00  0.00    -0.248 NA
ATOM     44  C   UNL A   1      38.553  29.206  27.920  1.00  0.00     0.031 C 
ATOM     45  C   UNL A   1      37.317  31.838  31.989  1.00  0.00     0.029 A 
ATOM     46  N   UNL A   1      39.193  30.601  32.129  1.00  0.00    -0.354 N 
ATOM     47  C   UNL A   1      40.470  28.364  28.774  1.00  0.00     0.074 A 
ATOM     48  C   UNL A   1      39.588  28.399  27.600  1.00  0.00     0.031 C 
ATOM     49  C   UNL A   1      37.826  32.005  33.238  1.00  0.00     0.029 A 
ATOM     50  C   UNL A   1      38.996  31.230  33.339  1.00  0.00     0.049 A 
ATOM     51  H   UNL A   1      39.940  30.001  31.905  1.00  0.00     0.167 HD
ATOM     52  C   UNL A   1      41.663  27.643  28.838  1.00  0.00     0.034 A 
ATOM     53  C   UNL A   1      39.782  31.143  34.477  1.00  0.00     0.034 A 
ATOM     54  C   UNL A   1      42.472  27.590  29.962  1.00  0.00     0.049 A 
ATOM     55  C   UNL A   1      40.945  30.374  34.560  1.00  0.00     0.074 A 
ATOM     56  C   UNL A   1      43.682  26.875  30.040  1.00  0.00     0.029 A 
ATOM     57  N   UNL A   1      42.262  28.200  31.179  1.00  0.00    -0.354 N 
ATOM     58  N   UNL A   1      41.505  29.643  33.595  1.00  0.00    -0.248 NA
ATOM     59  C   UNL A   1      41.768  30.250  35.771  1.00  0.00     0.031 C 
ATOM     60  C   UNL A   1      44.191  27.042  31.290  1.00  0.00     0.029 A 
ATOM     61  C   UNL A   1      43.306  27.865  32.013  1.00  0.00     0.049 A 
ATOM     62  H   UNL A   1      41.499  28.777  31.413  1.00  0.00     0.167 HD
ATOM     63  C   UNL A   1      42.621  29.065  34.043  1.00  0.00     0.074 A 
ATOM     64  C   UNL A   1      42.802  29.442  35.452  1.00  0.00     0.031 C 
ATOM     65  C   UNL A   1      43.496  28.243  33.334  1.00  0.00     0.034 A 
BRANCH  52  66
ATOM     66  C   UNL A   1      42.101  26.870  27.604  1.00  0.00     0.023 A 
ATOM     67  C   UNL A   1      42.813  27.436  26.560  1.00  0.00     0.012 A 
ATOM     68  C   UNL A   1      41.841  25.567  27.634  1.00  0.00     0.148 A 
ATOM     69  C   UNL A   1      42.963  26.585  25.439  1.00  0.00     0.002 A 
ATOM     70  C   UNL A   1      42.138  24.770  26.556  1.00  0.00     0.091 A 
ATOM     71  F   UNL A   1      41.288  25.031  28.718  1.00  0.00    -0.205 F 
ATOM     72  C   UNL A   1      42.788  25.276  25.464  1.00  0.00     0.022 A 
BRANCH  70  73
ATOM     73  S   UNL A   1      41.659  23.024  26.579  1.00  0.00     0.127 S 
ATOM     74  O   UNL A   1      42.235  22.321  25.347  1.00  0.00    -0.237 OA
ATOM     75  O   UNL A   1      42.206  22.363  27.846  1.00  0.00    -0.237 OA
ATOM     76  O   UNL A   1      39.954  22.901  26.561  1.00  0.00    -0.744 OA
ENDBRANCH  70  73
ENDBRANCH  52  66
BRANCH  53  77
ATOM     77  C   UNL A   1      39.353  31.930  35.705  1.00  0.00     0.023 A 
ATOM     78  C   UNL A   1      38.379  31.467  36.575  1.00  0.00     0.012 A 
ATOM     79  C   UNL A   1      39.871  33.145  35.836  1.00  0.00     0.148 A 
ATOM     80  C   UNL A   1      37.806  32.477  37.383  1.00  0.00     0.002 A 
ATOM     81  C   UNL A   1      39.347  34.036  36.742  1.00  0.00     0.091 A 
ATOM     82  F   UNL A   1      40.906  33.505  35.082  1.00  0.00    -0.205 F 
ATOM     83  C   UNL A   1      38.344  33.664  37.593  1.00  0.00     0.022 A 
BRANCH  81  84
ATOM     84  S   UNL A   1      39.995  35.724  36.811  1.00  0.00     0.127 S 
ATOM     85  O   UNL A   1      39.668  36.450  35.504  1.00  0.00    -0.237 OA
ATOM     86  O   UNL A   1      39.353  36.470  37.983  1.00  0.00    -0.237 OA
ATOM     87  O   UNL A   1      41.691  35.675  37.027  1.00  0.00    -0.744 OA
ENDBRANCH  81  84
ENDBRANCH  53  77
BRANCH  65  88
ATOM     88  C   UNL A   1      44.734  27.730  34.052  1.00  0.00     0.023 A 
ATOM     89  C   UNL A   1      45.862  28.530  34.121  1.00  0.00     0.012 A 
ATOM     90  C   UNL A   1      44.708  26.526  34.612  1.00  0.00     0.148 A 
ATOM     91  C   UNL A   1      47.022  27.850  34.561  1.00  0.00     0.002 A 
ATOM     92  C   UNL A   1      45.850  25.977  35.145  1.00  0.00     0.091 A 
ATOM     93  F   UNL A   1      43.566  25.845  34.659  1.00  0.00    -0.205 F 
ATOM     94  C   UNL A   1      47.016  26.690  35.193  1.00  0.00     0.022 A 
BRANCH  92  95
ATOM     95  S   UNL A   1      45.810  24.287  35.792  1.00  0.00     0.127 S 
ATOM     96  O   UNL A   1      45.705  23.299  34.629  1.00  0.00    -0.237 OA
ATOM     97  O   UNL A   1      47.091  24.013  36.582  1.00  0.00    -0.237 OA
ATOM     98  O   UNL A   1      44.455  24.103  36.819  1.00  0.00    -0.744 OA
ENDBRANCH  92  95
ENDBRANCH  65  88
ENDBRANCH  39  40
ENDBRANCH  31  34
ENDBRANCH   1  30
TORSDOF 16
ENDMDL
