MODEL 1
REMARK VINA RESULT:     -12.7      0.000      0.000
REMARK SMILES C[N@H+]1C[C@@H](Oc2cccc3cccnc23)C[C@H]1C(=O)NCCCNC(=O)c1ccc(-c2c3nc(c(-c4cccc(S(=O)(=O)[O-])c4F)c4ccc([nH]4)c(-c4cccc(S(=O)(=O)[O-])c4F)c4nc(c(-c5cccc(S(=O)(=O)[O-])c5F)c5ccc2[nH]5)C=C4)C=C3)cc1
REMARK SMILES IDX 22 1 21 2 20 3 18 4 19 5 17 7 1 8 2 9 3 10 4 12 16 13 5 14
REMARK SMILES IDX 6 15 7 16 15 17 8 18 10 19 14 20 9 21 11 22 13 23 12 24
REMARK SMILES IDX 23 25 24 26 25 27 26 29 27 30 28 31 89 32 29 33 88 34 30 35
REMARK SMILES IDX 31 36 32 37 82 38 33 39 87 40 81 41 83 42 34 43 86 44 80 45
REMARK SMILES IDX 79 46 35 48 67 49 47 50 66 51 48 52 51 53 65 54 84 55 49 56
REMARK SMILES IDX 50 57 64 59 85 60 52 61 36 62 37 63 45 64 38 65 40 66 46 67
REMARK SMILES IDX 39 68 41 69 42 70 43 71 44 72 68 73 69 74 77 75 70 76 72 77
REMARK SMILES IDX 78 78 71 79 73 80 74 81 75 82 76 83 53 84 54 85 62 86 55 87
REMARK SMILES IDX 57 88 63 89 56 90 58 91 59 92 60 93 61 94
REMARK H PARENT 20 6 2 11 24 28 83 47 51 58
REMARK Flexibility Score: inf
ROOT
ATOM      1  C   UNL A   1      35.782  22.940  24.075  1.00  0.00     0.042 C 
ENDROOT
BRANCH   1   2
ATOM      2  C   UNL A   1      34.290  22.717  23.889  1.00  0.00     0.118 C 
BRANCH   2   3
ATOM      3  N   UNL A   1      33.767  21.473  24.386  1.00  0.00    -0.351 N 
ATOM      4  C   UNL A   1      32.584  21.231  25.016  1.00  0.00     0.278 C 
ATOM      5  O   UNL A   1      32.144  20.079  24.888  1.00  0.00    -0.268 OA
ATOM      6  H   UNL A   1      34.343  20.686  24.250  1.00  0.00     0.163 HD
BRANCH   4   7
ATOM      7  C   UNL A   1      31.747  22.263  25.817  1.00  0.00     0.278 C 
ATOM      8  C   UNL A   1      33.264  22.241  27.783  1.00  0.00     0.333 C 
ATOM      9  N   UNL A   1      32.380  22.983  26.918  1.00  0.00    -0.324 N 
ATOM     10  C   UNL A   1      32.744  24.338  26.513  1.00  0.00     0.308 C 
ATOM     11  H   UNL A   1      31.669  23.116  27.637  1.00  0.00     0.348 HD
ATOM     12  C   UNL A   1      31.741  24.680  25.384  1.00  0.00     0.234 C 
ATOM     13  C   UNL A   1      31.078  23.351  24.992  1.00  0.00     0.126 C 
BRANCH  12  14
ATOM     14  O   UNL A   1      32.184  25.613  24.380  1.00  0.00    -0.482 OA
BRANCH  14  15
ATOM     15  C   UNL A   1      31.555  26.810  24.136  1.00  0.00     0.146 A 
ATOM     16  C   UNL A   1      30.479  26.885  23.242  1.00  0.00     0.049 A 
ATOM     17  C   UNL A   1      31.906  27.932  24.917  1.00  0.00     0.112 A 
ATOM     18  C   UNL A   1      29.849  28.098  22.978  1.00  0.00     0.005 A 
ATOM     19  C   UNL A   1      31.204  29.142  24.683  1.00  0.00     0.004 A 
ATOM     20  N   UNL A   1      32.882  27.875  25.852  1.00  0.00    -0.252 NA
ATOM     21  C   UNL A   1      30.216  29.228  23.692  1.00  0.00     0.010 A 
ATOM     22  C   UNL A   1      31.508  30.264  25.459  1.00  0.00     0.012 A 
ATOM     23  C   UNL A   1      33.149  28.984  26.584  1.00  0.00     0.112 A 
ATOM     24  C   UNL A   1      32.491  30.186  26.433  1.00  0.00     0.021 A 
ENDBRANCH  14  15
ENDBRANCH  12  14
ENDBRANCH   4   7
ENDBRANCH   2   3
ENDBRANCH   1   2
BRANCH   1  25
ATOM     25  C   UNL A   1      36.274  22.601  25.471  1.00  0.00     0.118 C 
BRANCH  25  26
ATOM     26  N   UNL A   1      37.162  21.440  25.496  1.00  0.00    -0.352 N 
ATOM     27  C   UNL A   1      38.491  21.344  25.827  1.00  0.00     0.251 C 
ATOM     28  H   UNL A   1      36.739  20.591  25.233  1.00  0.00     0.163 HD
ATOM     29  O   UNL A   1      39.091  20.283  25.687  1.00  0.00    -0.269 OA
BRANCH  27  30
ATOM     30  C   UNL A   1      39.201  22.518  26.361  1.00  0.00     0.039 A 
ATOM     31  C   UNL A   1      38.803  23.803  25.974  1.00  0.00     0.014 A 
ATOM     32  C   UNL A   1      40.291  22.339  27.212  1.00  0.00     0.014 A 
ATOM     33  C   UNL A   1      39.481  24.917  26.475  1.00  0.00     0.010 A 
ATOM     34  C   UNL A   1      40.907  23.443  27.775  1.00  0.00     0.010 A 
ATOM     35  C   UNL A   1      40.530  24.738  27.386  1.00  0.00    -0.014 A 
BRANCH  35  36
ATOM     36  C   UNL A   1      41.352  25.857  27.891  1.00  0.00     0.031 A 
ATOM     37  C   UNL A   1      40.665  26.931  28.688  1.00  0.00     0.074 A 
ATOM     38  C   UNL A   1      42.628  25.993  27.491  1.00  0.00     0.049 A 
ATOM     39  N   UNL A   1      41.073  28.132  28.989  1.00  0.00    -0.248 NA
ATOM     40  C   UNL A   1      39.299  26.625  29.151  1.00  0.00     0.031 C 
ATOM     41  C   UNL A   1      43.360  25.038  26.660  1.00  0.00     0.029 A 
ATOM     42  N   UNL A   1      43.513  27.021  27.683  1.00  0.00    -0.354 N 
ATOM     43  C   UNL A   1      39.990  28.753  29.599  1.00  0.00     0.074 A 
ATOM     44  C   UNL A   1      38.901  27.801  29.608  1.00  0.00     0.031 C 
ATOM     45  C   UNL A   1      44.577  25.539  26.387  1.00  0.00     0.029 A 
ATOM     46  C   UNL A   1      44.692  26.860  26.995  1.00  0.00     0.049 A 
ATOM     47  H   UNL A   1      43.323  27.799  28.256  1.00  0.00     0.167 HD
ATOM     48  C   UNL A   1      39.918  29.999  30.124  1.00  0.00     0.034 A 
ATOM     49  C   UNL A   1      45.736  27.701  26.855  1.00  0.00     0.034 A 
ATOM     50  C   UNL A   1      41.042  30.893  30.178  1.00  0.00     0.049 A 
ATOM     51  C   UNL A   1      45.682  29.034  27.552  1.00  0.00     0.074 A 
ATOM     52  C   UNL A   1      41.131  32.134  30.778  1.00  0.00     0.029 A 
ATOM     53  N   UNL A   1      42.283  30.625  29.618  1.00  0.00    -0.354 N 
ATOM     54  N   UNL A   1      44.695  29.564  28.237  1.00  0.00    -0.248 NA
ATOM     55  C   UNL A   1      46.889  29.867  27.492  1.00  0.00     0.031 C 
ATOM     56  C   UNL A   1      42.432  32.615  30.585  1.00  0.00     0.029 A 
ATOM     57  C   UNL A   1      43.152  31.669  29.870  1.00  0.00     0.049 A 
ATOM     58  H   UNL A   1      42.511  29.809  29.116  1.00  0.00     0.167 HD
ATOM     59  C   UNL A   1      45.169  30.781  28.712  1.00  0.00     0.074 A 
ATOM     60  C   UNL A   1      46.541  30.897  28.254  1.00  0.00     0.031 C 
ATOM     61  C   UNL A   1      44.529  31.725  29.444  1.00  0.00     0.034 A 
BRANCH  48  62
ATOM     62  C   UNL A   1      38.603  30.425  30.723  1.00  0.00     0.023 A 
ATOM     63  C   UNL A   1      38.302  30.081  32.058  1.00  0.00     0.012 A 
ATOM     64  C   UNL A   1      37.663  31.160  29.975  1.00  0.00     0.148 A 
ATOM     65  C   UNL A   1      37.070  30.411  32.619  1.00  0.00     0.002 A 
ATOM     66  C   UNL A   1      36.454  31.527  30.557  1.00  0.00     0.091 A 
ATOM     67  F   UNL A   1      37.948  31.458  28.699  1.00  0.00    -0.205 F 
ATOM     68  C   UNL A   1      36.150  31.141  31.873  1.00  0.00     0.022 A 
BRANCH  66  69
ATOM     69  S   UNL A   1      35.239  32.534  29.697  1.00  0.00     0.127 S 
ATOM     70  O   UNL A   1      36.031  33.707  29.332  1.00  0.00    -0.237 OA
ATOM     71  O   UNL A   1      34.864  31.677  28.571  1.00  0.00    -0.237 OA
ATOM     72  O   UNL A   1      34.169  32.765  30.658  1.00  0.00    -0.744 OA
ENDBRANCH  66  69
ENDBRANCH  48  62
BRANCH  49  73
ATOM     73  C   UNL A   1      46.935  27.257  26.092  1.00  0.00     0.023 A 
ATOM     74  C   UNL A   1      47.807  26.317  26.676  1.00  0.00     0.012 A 
ATOM     75  C   UNL A   1      47.169  27.679  24.768  1.00  0.00     0.148 A 
ATOM     76  C   UNL A   1      48.896  25.815  25.963  1.00  0.00     0.002 A 
ATOM     77  C   UNL A   1      48.227  27.137  24.045  1.00  0.00     0.091 A 
ATOM     78  F   UNL A   1      46.333  28.580  24.233  1.00  0.00    -0.205 F 
ATOM     79  C   UNL A   1      49.098  26.214  24.646  1.00  0.00     0.022 A 
BRANCH  77  80
ATOM     80  S   UNL A   1      48.484  27.484  22.301  1.00  0.00     0.127 S 
ATOM     81  O   UNL A   1      48.697  26.146  21.758  1.00  0.00    -0.237 OA
ATOM     82  O   UNL A   1      47.214  28.107  21.926  1.00  0.00    -0.237 OA
ATOM     83  O   UNL A   1      49.630  28.383  22.244  1.00  0.00    -0.744 OA
ENDBRANCH  77  80
ENDBRANCH  49  73
BRANCH  61  84
ATOM     84  C   UNL A   1      45.307  32.957  29.819  1.00  0.00     0.023 A 
ATOM     85  C   UNL A   1      46.070  32.962  31.001  1.00  0.00     0.012 A 
ATOM     86  C   UNL A   1      45.353  34.068  28.954  1.00  0.00     0.148 A 
ATOM     87  C   UNL A   1      46.855  34.067  31.330  1.00  0.00     0.002 A 
ATOM     88  C   UNL A   1      46.170  35.146  29.268  1.00  0.00     0.091 A 
ATOM     89  F   UNL A   1      44.599  34.049  27.845  1.00  0.00    -0.205 F 
ATOM     90  C   UNL A   1      46.915  35.152  30.458  1.00  0.00     0.022 A 
BRANCH  88  91
ATOM     91  S   UNL A   1      46.374  36.541  28.154  1.00  0.00     0.127 S 
ATOM     92  O   UNL A   1      44.996  37.001  27.996  1.00  0.00    -0.237 OA
ATOM     93  O   UNL A   1      47.231  37.440  28.929  1.00  0.00    -0.237 OA
ATOM     94  O   UNL A   1      47.000  36.002  26.955  1.00  0.00    -0.744 OA
ENDBRANCH  88  91
ENDBRANCH  61  84
ENDBRANCH  35  36
ENDBRANCH  27  30
ENDBRANCH  25  26
ENDBRANCH   1  25
TORSDOF 15
ENDMDL
MODEL 2
REMARK VINA RESULT:     -12.7      5.564     10.711
REMARK SMILES C[N@H+]1C[C@@H](Oc2cccc3cccnc23)C[C@H]1C(=O)NCCCNC(=O)c1ccc(-c2c3nc(c(-c4cccc(S(=O)(=O)[O-])c4F)c4ccc([nH]4)c(-c4cccc(S(=O)(=O)[O-])c4F)c4nc(c(-c5cccc(S(=O)(=O)[O-])c5F)c5ccc2[nH]5)C=C4)C=C3)cc1
REMARK SMILES IDX 22 1 21 2 20 3 18 4 19 5 17 7 1 8 2 9 3 10 4 12 16 13 5 14
REMARK SMILES IDX 6 15 7 16 15 17 8 18 10 19 14 20 9 21 11 22 13 23 12 24
REMARK SMILES IDX 23 25 24 26 25 27 26 29 27 30 28 31 89 32 29 33 88 34 30 35
REMARK SMILES IDX 31 36 32 37 82 38 33 39 87 40 81 41 83 42 34 43 86 44 80 45
REMARK SMILES IDX 79 46 35 48 67 49 47 50 66 51 48 52 51 53 65 54 84 55 49 56
REMARK SMILES IDX 50 57 64 59 85 60 52 61 36 62 37 63 45 64 38 65 40 66 46 67
REMARK SMILES IDX 39 68 41 69 42 70 43 71 44 72 68 73 69 74 77 75 70 76 72 77
REMARK SMILES IDX 78 78 71 79 73 80 74 81 75 82 76 83 53 84 54 85 62 86 55 87
REMARK SMILES IDX 57 88 63 89 56 90 58 91 59 92 60 93 61 94
REMARK H PARENT 20 6 2 11 24 28 83 47 51 58
REMARK Flexibility Score: inf
ROOT
ATOM      1  C   UNL A   1      31.832  30.813  26.880  1.00  0.00     0.042 C 
ENDROOT
BRANCH   1   2
ATOM      2  C   UNL A   1      31.667  30.391  25.430  1.00  0.00     0.118 C 
BRANCH   2   3
ATOM      3  N   UNL A   1      32.790  29.719  24.832  1.00  0.00    -0.351 N 
ATOM      4  C   UNL A   1      32.890  28.428  24.411  1.00  0.00     0.278 C 
ATOM      5  O   UNL A   1      33.718  28.231  23.508  1.00  0.00    -0.268 OA
ATOM      6  H   UNL A   1      33.596  30.269  24.710  1.00  0.00     0.163 HD
BRANCH   4   7
ATOM      7  C   UNL A   1      32.047  27.231  24.921  1.00  0.00     0.278 C 
ATOM      8  C   UNL A   1      30.100  27.747  23.468  1.00  0.00     0.333 C 
ATOM      9  N   UNL A   1      30.930  26.756  24.108  1.00  0.00    -0.324 N 
ATOM     10  C   UNL A   1      31.295  25.546  23.378  1.00  0.00     0.308 C 
ATOM     11  H   UNL A   1      30.198  26.454  24.752  1.00  0.00     0.348 HD
ATOM     12  C   UNL A   1      32.400  24.896  24.246  1.00  0.00     0.234 C 
ATOM     13  C   UNL A   1      32.828  25.970  25.258  1.00  0.00     0.126 C 
BRANCH  12  14
ATOM     14  O   UNL A   1      33.378  24.091  23.560  1.00  0.00    -0.482 OA
BRANCH  14  15
ATOM     15  C   UNL A   1      33.759  22.843  23.988  1.00  0.00     0.146 A 
ATOM     16  C   UNL A   1      32.912  21.740  23.825  1.00  0.00     0.049 A 
ATOM     17  C   UNL A   1      35.080  22.658  24.450  1.00  0.00     0.112 A 
ATOM     18  C   UNL A   1      33.284  20.476  24.272  1.00  0.00     0.005 A 
ATOM     19  C   UNL A   1      35.465  21.348  24.834  1.00  0.00     0.004 A 
ATOM     20  N   UNL A   1      35.956  23.685  24.540  1.00  0.00    -0.252 NA
ATOM     21  C   UNL A   1      34.559  20.280  24.784  1.00  0.00     0.010 A 
ATOM     22  C   UNL A   1      36.775  21.126  25.270  1.00  0.00     0.012 A 
ATOM     23  C   UNL A   1      37.217  23.430  24.967  1.00  0.00     0.112 A 
ATOM     24  C   UNL A   1      37.672  22.181  25.331  1.00  0.00     0.021 A 
ENDBRANCH  14  15
ENDBRANCH  12  14
ENDBRANCH   4   7
ENDBRANCH   2   3
ENDBRANCH   1   2
BRANCH   1  25
ATOM     25  C   UNL A   1      33.015  31.739  27.109  1.00  0.00     0.118 C 
BRANCH  25  26
ATOM     26  N   UNL A   1      32.613  33.091  27.495  1.00  0.00    -0.352 N 
ATOM     27  C   UNL A   1      33.161  33.952  28.412  1.00  0.00     0.251 C 
ATOM     28  H   UNL A   1      31.823  33.438  27.022  1.00  0.00     0.163 HD
ATOM     29  O   UNL A   1      32.612  35.020  28.668  1.00  0.00    -0.269 OA
BRANCH  27  30
ATOM     30  C   UNL A   1      34.420  33.600  29.091  1.00  0.00     0.039 A 
ATOM     31  C   UNL A   1      35.609  34.238  28.719  1.00  0.00     0.014 A 
ATOM     32  C   UNL A   1      34.425  32.604  30.067  1.00  0.00     0.014 A 
ATOM     33  C   UNL A   1      36.804  33.901  29.357  1.00  0.00     0.010 A 
ATOM     34  C   UNL A   1      35.592  32.332  30.759  1.00  0.00     0.010 A 
ATOM     35  C   UNL A   1      36.795  32.951  30.387  1.00  0.00    -0.014 A 
BRANCH  35  36
ATOM     36  C   UNL A   1      38.028  32.476  31.050  1.00  0.00     0.031 A 
ATOM     37  C   UNL A   1      38.762  31.323  30.426  1.00  0.00     0.074 A 
ATOM     38  C   UNL A   1      38.368  32.948  32.262  1.00  0.00     0.049 A 
ATOM     39  N   UNL A   1      39.673  30.543  30.939  1.00  0.00    -0.248 NA
ATOM     40  C   UNL A   1      38.361  30.960  29.054  1.00  0.00     0.031 C 
ATOM     41  C   UNL A   1      37.676  34.018  32.978  1.00  0.00     0.029 A 
ATOM     42  N   UNL A   1      39.348  32.541  33.129  1.00  0.00    -0.354 N 
ATOM     43  C   UNL A   1      39.892  29.551  29.990  1.00  0.00     0.074 A 
ATOM     44  C   UNL A   1      39.005  29.817  28.880  1.00  0.00     0.031 C 
ATOM     45  C   UNL A   1      38.234  34.165  34.191  1.00  0.00     0.029 A 
ATOM     46  C   UNL A   1      39.297  33.177  34.346  1.00  0.00     0.049 A 
ATOM     47  H   UNL A   1      40.021  31.858  32.903  1.00  0.00     0.167 HD
ATOM     48  C   UNL A   1      40.771  28.522  30.035  1.00  0.00     0.034 A 
ATOM     49  C   UNL A   1      40.015  32.965  35.466  1.00  0.00     0.034 A 
ATOM     50  C   UNL A   1      41.701  28.330  31.114  1.00  0.00     0.049 A 
ATOM     51  C   UNL A   1      41.073  31.894  35.448  1.00  0.00     0.074 A 
ATOM     52  C   UNL A   1      42.712  27.397  31.228  1.00  0.00     0.029 A 
ATOM     53  N   UNL A   1      41.737  29.108  32.263  1.00  0.00    -0.354 N 
ATOM     54  N   UNL A   1      41.360  31.038  34.495  1.00  0.00    -0.248 NA
ATOM     55  C   UNL A   1      41.928  31.782  36.636  1.00  0.00     0.031 C 
ATOM     56  C   UNL A   1      43.366  27.614  32.447  1.00  0.00     0.029 A 
ATOM     57  C   UNL A   1      42.762  28.687  33.088  1.00  0.00     0.049 A 
ATOM     58  H   UNL A   1      41.122  29.851  32.461  1.00  0.00     0.167 HD
ATOM     59  C   UNL A   1      42.445  30.302  34.955  1.00  0.00     0.074 A 
ATOM     60  C   UNL A   1      42.776  30.830  36.265  1.00  0.00     0.031 C 
ATOM     61  C   UNL A   1      43.098  29.273  34.362  1.00  0.00     0.034 A 
BRANCH  48  62
ATOM     62  C   UNL A   1      40.795  27.578  28.861  1.00  0.00     0.023 A 
ATOM     63  C   UNL A   1      39.852  26.530  28.791  1.00  0.00     0.012 A 
ATOM     64  C   UNL A   1      41.745  27.717  27.831  1.00  0.00     0.148 A 
ATOM     65  C   UNL A   1      39.888  25.607  27.747  1.00  0.00     0.002 A 
ATOM     66  C   UNL A   1      41.744  26.819  26.767  1.00  0.00     0.091 A 
ATOM     67  F   UNL A   1      42.653  28.698  27.922  1.00  0.00    -0.205 F 
ATOM     68  C   UNL A   1      40.827  25.756  26.732  1.00  0.00     0.022 A 
BRANCH  66  69
ATOM     69  S   UNL A   1      42.869  26.978  25.375  1.00  0.00     0.127 S 
ATOM     70  O   UNL A   1      42.316  28.138  24.677  1.00  0.00    -0.237 OA
ATOM     71  O   UNL A   1      44.152  27.220  26.036  1.00  0.00    -0.237 OA
ATOM     72  O   UNL A   1      42.791  25.711  24.660  1.00  0.00    -0.744 OA
ENDBRANCH  66  69
ENDBRANCH  48  62
BRANCH  49  73
ATOM     73  C   UNL A   1      39.802  33.844  36.650  1.00  0.00     0.023 A 
ATOM     74  C   UNL A   1      40.115  35.213  36.549  1.00  0.00     0.012 A 
ATOM     75  C   UNL A   1      39.207  33.362  37.832  1.00  0.00     0.148 A 
ATOM     76  C   UNL A   1      39.854  36.084  37.607  1.00  0.00     0.002 A 
ATOM     77  C   UNL A   1      38.903  34.244  38.864  1.00  0.00     0.091 A 
ATOM     78  F   UNL A   1      38.923  32.054  37.912  1.00  0.00    -0.205 F 
ATOM     79  C   UNL A   1      39.237  35.603  38.757  1.00  0.00     0.022 A 
BRANCH  77  80
ATOM     80  S   UNL A   1      37.982  33.744  40.324  1.00  0.00     0.127 S 
ATOM     81  O   UNL A   1      38.893  32.783  40.938  1.00  0.00    -0.237 OA
ATOM     82  O   UNL A   1      37.846  35.010  41.044  1.00  0.00    -0.237 OA
ATOM     83  O   UNL A   1      36.724  33.200  39.828  1.00  0.00    -0.744 OA
ENDBRANCH  77  80
ENDBRANCH  49  73
BRANCH  61  84
ATOM     84  C   UNL A   1      44.253  28.663  35.108  1.00  0.00     0.023 A 
ATOM     85  C   UNL A   1      45.549  29.179  34.922  1.00  0.00     0.012 A 
ATOM     86  C   UNL A   1      44.037  27.646  36.058  1.00  0.00     0.148 A 
ATOM     87  C   UNL A   1      46.621  28.675  35.657  1.00  0.00     0.002 A 
ATOM     88  C   UNL A   1      45.103  27.180  36.817  1.00  0.00     0.091 A 
ATOM     89  F   UNL A   1      42.797  27.155  36.201  1.00  0.00    -0.205 F 
ATOM     90  C   UNL A   1      46.397  27.686  36.612  1.00  0.00     0.022 A 
BRANCH  88  91
ATOM     91  S   UNL A   1      44.881  25.974  38.130  1.00  0.00     0.127 S 
ATOM     92  O   UNL A   1      44.416  24.805  37.387  1.00  0.00    -0.237 OA
ATOM     93  O   UNL A   1      46.234  25.852  38.676  1.00  0.00    -0.237 OA
ATOM     94  O   UNL A   1      43.915  26.562  39.049  1.00  0.00    -0.744 OA
ENDBRANCH  88  91
ENDBRANCH  61  84
ENDBRANCH  35  36
ENDBRANCH  27  30
ENDBRANCH  25  26
ENDBRANCH   1  25
TORSDOF 15
ENDMDL
MODEL 3
REMARK VINA RESULT:     -12.7      5.053      7.960
REMARK SMILES C[N@H+]1C[C@@H](Oc2cccc3cccnc23)C[C@H]1C(=O)NCCCNC(=O)c1ccc(-c2c3nc(c(-c4cccc(S(=O)(=O)[O-])c4F)c4ccc([nH]4)c(-c4cccc(S(=O)(=O)[O-])c4F)c4nc(c(-c5cccc(S(=O)(=O)[O-])c5F)c5ccc2[nH]5)C=C4)C=C3)cc1
REMARK SMILES IDX 22 1 21 2 20 3 18 4 19 5 17 7 1 8 2 9 3 10 4 12 16 13 5 14
REMARK SMILES IDX 6 15 7 16 15 17 8 18 10 19 14 20 9 21 11 22 13 23 12 24
REMARK SMILES IDX 23 25 24 26 25 27 26 29 27 30 28 31 89 32 29 33 88 34 30 35
REMARK SMILES IDX 31 36 32 37 82 38 33 39 87 40 81 41 83 42 34 43 86 44 80 45
REMARK SMILES IDX 79 46 35 48 67 49 47 50 66 51 48 52 51 53 65 54 84 55 49 56
REMARK SMILES IDX 50 57 64 59 85 60 52 61 36 62 37 63 45 64 38 65 40 66 46 67
REMARK SMILES IDX 39 68 41 69 42 70 43 71 44 72 68 73 69 74 77 75 70 76 72 77
REMARK SMILES IDX 78 78 71 79 73 80 74 81 75 82 76 83 53 84 54 85 62 86 55 87
REMARK SMILES IDX 57 88 63 89 56 90 58 91 59 92 60 93 61 94
REMARK H PARENT 20 6 2 11 24 28 83 47 51 58
REMARK Flexibility Score: inf
ROOT
ATOM      1  C   UNL A   1      33.080  27.865  26.885  1.00  0.00     0.042 C 
ENDROOT
BRANCH   1   2
ATOM      2  C   UNL A   1      31.894  27.489  26.014  1.00  0.00     0.118 C 
BRANCH   2   3
ATOM      3  N   UNL A   1      31.398  28.515  25.137  1.00  0.00    -0.351 N 
ATOM      4  C   UNL A   1      31.055  28.426  23.822  1.00  0.00     0.278 C 
ATOM      5  O   UNL A   1      30.212  29.252  23.440  1.00  0.00    -0.268 OA
ATOM      6  H   UNL A   1      31.292  29.405  25.543  1.00  0.00     0.163 HD
BRANCH   4   7
ATOM      7  C   UNL A   1      31.581  27.377  22.808  1.00  0.00     0.278 C 
ATOM      8  C   UNL A   1      33.750  28.536  22.457  1.00  0.00     0.333 C 
ATOM      9  N   UNL A   1      33.018  27.297  22.556  1.00  0.00    -0.324 N 
ATOM     10  C   UNL A   1      33.609  26.170  23.271  1.00  0.00     0.308 C 
ATOM     11  H   UNL A   1      33.136  27.063  21.570  1.00  0.00     0.348 HD
ATOM     12  C   UNL A   1      32.444  25.162  23.424  1.00  0.00     0.234 C 
ATOM     13  C   UNL A   1      31.165  25.938  23.072  1.00  0.00     0.126 C 
BRANCH  12  14
ATOM     14  O   UNL A   1      32.488  24.283  24.565  1.00  0.00    -0.482 OA
BRANCH  14  15
ATOM     15  C   UNL A   1      33.582  23.514  24.880  1.00  0.00     0.146 A 
ATOM     16  C   UNL A   1      34.688  24.075  25.532  1.00  0.00     0.049 A 
ATOM     17  C   UNL A   1      33.509  22.119  24.681  1.00  0.00     0.112 A 
ATOM     18  C   UNL A   1      35.806  23.305  25.839  1.00  0.00     0.005 A 
ATOM     19  C   UNL A   1      34.631  21.341  25.066  1.00  0.00     0.004 A 
ATOM     20  N   UNL A   1      32.422  21.530  24.134  1.00  0.00    -0.252 NA
ATOM     21  C   UNL A   1      35.782  21.939  25.600  1.00  0.00     0.010 A 
ATOM     22  C   UNL A   1      34.581  19.953  24.909  1.00  0.00     0.012 A 
ATOM     23  C   UNL A   1      32.410  20.181  23.997  1.00  0.00     0.112 A 
ATOM     24  C   UNL A   1      33.450  19.358  24.372  1.00  0.00     0.021 A 
ENDBRANCH  14  15
ENDBRANCH  12  14
ENDBRANCH   4   7
ENDBRANCH   2   3
ENDBRANCH   1   2
BRANCH   1  25
ATOM     25  C   UNL A   1      34.040  28.832  26.213  1.00  0.00     0.118 C 
BRANCH  25  26
ATOM     26  N   UNL A   1      33.879  30.210  26.678  1.00  0.00    -0.352 N 
ATOM     27  C   UNL A   1      34.631  30.943  27.561  1.00  0.00     0.251 C 
ATOM     28  H   UNL A   1      33.108  30.687  26.295  1.00  0.00     0.163 HD
ATOM     29  O   UNL A   1      34.270  32.066  27.901  1.00  0.00    -0.269 OA
BRANCH  27  30
ATOM     30  C   UNL A   1      35.882  30.385  28.102  1.00  0.00     0.039 A 
ATOM     31  C   UNL A   1      37.070  30.518  27.373  1.00  0.00     0.014 A 
ATOM     32  C   UNL A   1      35.865  29.693  29.312  1.00  0.00     0.014 A 
ATOM     33  C   UNL A   1      38.256  29.984  27.881  1.00  0.00     0.010 A 
ATOM     34  C   UNL A   1      37.053  29.239  29.856  1.00  0.00     0.010 A 
ATOM     35  C   UNL A   1      38.251  29.350  29.131  1.00  0.00    -0.014 A 
BRANCH  35  36
ATOM     36  C   UNL A   1      39.443  28.683  29.696  1.00  0.00     0.031 A 
ATOM     37  C   UNL A   1      40.149  29.355  30.840  1.00  0.00     0.074 A 
ATOM     38  C   UNL A   1      39.971  27.611  29.082  1.00  0.00     0.049 A 
ATOM     39  N   UNL A   1      41.345  29.147  31.315  1.00  0.00    -0.248 NA
ATOM     40  C   UNL A   1      39.425  30.460  31.495  1.00  0.00     0.031 C 
ATOM     41  C   UNL A   1      39.395  26.931  27.922  1.00  0.00     0.029 A 
ATOM     42  N   UNL A   1      41.146  26.945  29.314  1.00  0.00    -0.354 N 
ATOM     43  C   UNL A   1      41.551  30.145  32.260  1.00  0.00     0.074 A 
ATOM     44  C   UNL A   1      40.362  30.968  32.278  1.00  0.00     0.031 C 
ATOM     45  C   UNL A   1      40.234  25.959  27.524  1.00  0.00     0.029 A 
ATOM     46  C   UNL A   1      41.416  25.975  28.378  1.00  0.00     0.049 A 
ATOM     47  H   UNL A   1      41.738  27.143  30.075  1.00  0.00     0.167 HD
ATOM     48  C   UNL A   1      42.627  30.342  33.057  1.00  0.00     0.034 A 
ATOM     49  C   UNL A   1      42.510  25.205  28.219  1.00  0.00     0.034 A 
ATOM     50  C   UNL A   1      43.760  29.458  33.079  1.00  0.00     0.049 A 
ATOM     51  C   UNL A   1      43.645  25.360  29.196  1.00  0.00     0.074 A 
ATOM     52  C   UNL A   1      44.861  29.483  33.912  1.00  0.00     0.029 A 
ATOM     53  N   UNL A   1      43.923  28.374  32.228  1.00  0.00    -0.354 N 
ATOM     54  N   UNL A   1      43.776  26.227  30.173  1.00  0.00    -0.248 NA
ATOM     55  C   UNL A   1      44.760  24.412  29.078  1.00  0.00     0.031 C 
ATOM     56  C   UNL A   1      45.688  28.408  33.569  1.00  0.00     0.029 A 
ATOM     57  C   UNL A   1      45.098  27.711  32.524  1.00  0.00     0.049 A 
ATOM     58  H   UNL A   1      43.292  28.114  31.518  1.00  0.00     0.167 HD
ATOM     59  C   UNL A   1      44.975  25.916  30.803  1.00  0.00     0.074 A 
ATOM     60  C   UNL A   1      45.520  24.764  30.109  1.00  0.00     0.031 C 
ATOM     61  C   UNL A   1      45.582  26.533  31.847  1.00  0.00     0.034 A 
BRANCH  48  62
ATOM     62  C   UNL A   1      42.590  31.520  33.996  1.00  0.00     0.023 A 
ATOM     63  C   UNL A   1      43.175  32.742  33.604  1.00  0.00     0.012 A 
ATOM     64  C   UNL A   1      41.984  31.424  35.264  1.00  0.00     0.148 A 
ATOM     65  C   UNL A   1      43.206  33.830  34.475  1.00  0.00     0.002 A 
ATOM     66  C   UNL A   1      41.979  32.528  36.110  1.00  0.00     0.091 A 
ATOM     67  F   UNL A   1      41.456  30.249  35.638  1.00  0.00    -0.205 F 
ATOM     68  C   UNL A   1      42.602  33.726  35.724  1.00  0.00     0.022 A 
BRANCH  66  69
ATOM     69  S   UNL A   1      41.155  32.511  37.708  1.00  0.00     0.127 S 
ATOM     70  O   UNL A   1      42.011  31.606  38.473  1.00  0.00    -0.237 OA
ATOM     71  O   UNL A   1      41.235  33.915  38.115  1.00  0.00    -0.237 OA
ATOM     72  O   UNL A   1      39.803  32.037  37.448  1.00  0.00    -0.744 OA
ENDBRANCH  66  69
ENDBRANCH  48  62
BRANCH  49  73
ATOM     73  C   UNL A   1      42.530  24.174  27.144  1.00  0.00     0.023 A 
ATOM     74  C   UNL A   1      43.245  24.436  25.960  1.00  0.00     0.012 A 
ATOM     75  C   UNL A   1      41.932  22.910  27.320  1.00  0.00     0.148 A 
ATOM     76  C   UNL A   1      43.355  23.465  24.964  1.00  0.00     0.002 A 
ATOM     77  C   UNL A   1      42.088  21.929  26.345  1.00  0.00     0.091 A 
ATOM     78  F   UNL A   1      41.249  22.683  28.450  1.00  0.00    -0.205 F 
ATOM     79  C   UNL A   1      42.789  22.210  25.162  1.00  0.00     0.022 A 
BRANCH  77  80
ATOM     80  S   UNL A   1      41.516  20.241  26.572  1.00  0.00     0.127 S 
ATOM     81  O   UNL A   1      40.067  20.416  26.593  1.00  0.00    -0.237 OA
ATOM     82  O   UNL A   1      42.040  19.581  25.377  1.00  0.00    -0.237 OA
ATOM     83  O   UNL A   1      42.119  19.787  27.819  1.00  0.00    -0.744 OA
ENDBRANCH  77  80
ENDBRANCH  49  73
BRANCH  61  84
ATOM     84  C   UNL A   1      46.891  25.965  32.321  1.00  0.00     0.023 A 
ATOM     85  C   UNL A   1      48.096  26.464  31.791  1.00  0.00     0.012 A 
ATOM     86  C   UNL A   1      46.927  25.007  33.353  1.00  0.00     0.148 A 
ATOM     87  C   UNL A   1      49.322  26.002  32.268  1.00  0.00     0.002 A 
ATOM     88  C   UNL A   1      48.152  24.584  33.852  1.00  0.00     0.091 A 
ATOM     89  F   UNL A   1      45.766  24.531  33.826  1.00  0.00    -0.205 F 
ATOM     90  C   UNL A   1      49.350  25.073  33.306  1.00  0.00     0.022 A 
BRANCH  88  91
ATOM     91  S   UNL A   1      48.274  23.461  35.248  1.00  0.00     0.127 S 
ATOM     92  O   UNL A   1      49.712  23.456  35.504  1.00  0.00    -0.237 OA
ATOM     93  O   UNL A   1      47.475  24.140  36.270  1.00  0.00    -0.237 OA
ATOM     94  O   UNL A   1      47.711  22.197  34.790  1.00  0.00    -0.744 OA
ENDBRANCH  88  91
ENDBRANCH  61  84
ENDBRANCH  35  36
ENDBRANCH  27  30
ENDBRANCH  25  26
ENDBRANCH   1  25
TORSDOF 15
ENDMDL
