MODEL 1
REMARK VINA RESULT:     -13.7      0.000      0.000
REMARK SMILES O=C(NCCCNC(=O)c1ccc(-c2c3nc(c(-c4cccc(S(=O)(=O)[O-])c4F)c4ccc([nH]4)c(-c4cccc(S(=O)(=O)[O-])c4F)c4nc(c(-c5cccc(S(=O)(=O)[O-])c5F)c5ccc2[nH]5)C=C4)C=C3)cc1)c1ccc(C(=O)Nc2ccc(-c3nc4ccccc4[nH]3)cc2)cc1
REMARK SMILES IDX 5 1 4 2 3 3 1 4 2 5 73 7 74 8 96 9 75 10 95 11 76 12 77 13
REMARK SMILES IDX 78 14 79 15 80 17 81 18 94 19 82 20 93 21 83 22 84 23 85 24
REMARK SMILES IDX 92 25 86 26 91 27 87 29 90 30 88 31 89 32 6 33 7 34 8 35
REMARK SMILES IDX 9 37 10 38 11 39 72 40 12 41 71 42 13 43 14 44 15 45 65 46
REMARK SMILES IDX 16 47 70 48 64 49 66 50 17 51 69 52 63 53 62 54 18 56 50 57
REMARK SMILES IDX 30 58 49 59 31 60 34 61 48 62 67 63 32 64 33 65 47 67 68 68
REMARK SMILES IDX 35 69 19 70 20 71 28 72 21 73 23 74 29 75 22 76 24 77 25 78
REMARK SMILES IDX 26 79 27 80 51 81 52 82 60 83 53 84 55 85 61 86 54 87 56 88
REMARK SMILES IDX 57 89 58 90 59 91 36 92 37 93 45 94 38 95 40 96 46 97 39 98
REMARK SMILES IDX 41 99 42 100 43 101 44 102
REMARK H PARENT 3 6 79 16 92 28 7 36 66 55 34 66
REMARK Flexibility Score: inf
ROOT
ATOM      1  C   UNL A   1      38.322  19.732  24.981  1.00  0.00     0.042 C 
ENDROOT
BRANCH   1   2
ATOM      2  C   UNL A   1      37.166  20.715  24.993  1.00  0.00     0.118 C 
BRANCH   2   3
ATOM      3  N   UNL A   1      37.230  21.695  23.919  1.00  0.00    -0.352 N 
ATOM      4  O   UNL A   1      36.550  23.345  22.553  1.00  0.00    -0.269 OA
ATOM      5  C   UNL A   1      36.359  22.697  23.579  1.00  0.00     0.251 C 
ATOM      6  H   UNL A   1      38.026  21.625  23.343  1.00  0.00     0.163 HD
BRANCH   5   7
ATOM      7  C   UNL A   1      35.175  22.990  24.416  1.00  0.00     0.039 A 
ATOM      8  C   UNL A   1      35.245  23.771  25.571  1.00  0.00     0.014 A 
ATOM      9  C   UNL A   1      33.939  22.503  23.995  1.00  0.00     0.014 A 
ATOM     10  C   UNL A   1      34.120  23.914  26.391  1.00  0.00     0.014 A 
ATOM     11  C   UNL A   1      32.799  22.730  24.771  1.00  0.00     0.014 A 
ATOM     12  C   UNL A   1      32.887  23.359  26.022  1.00  0.00     0.040 A 
BRANCH  12  13
ATOM     13  C   UNL A   1      31.723  23.583  26.946  1.00  0.00     0.255 C 
ATOM     14  O   UNL A   1      31.484  22.735  27.810  1.00  0.00    -0.269 OA
ATOM     15  N   UNL A   1      30.985  24.749  26.960  1.00  0.00    -0.322 N 
ATOM     16  H   UNL A   1      30.461  24.904  27.778  1.00  0.00     0.170 HD
BRANCH  15  17
ATOM     17  C   UNL A   1      30.870  25.746  25.986  1.00  0.00     0.041 A 
ATOM     18  C   UNL A   1      30.039  25.499  24.890  1.00  0.00     0.027 A 
ATOM     19  C   UNL A   1      31.489  26.986  26.126  1.00  0.00     0.027 A 
ATOM     20  C   UNL A   1      29.688  26.547  24.030  1.00  0.00     0.014 A 
ATOM     21  C   UNL A   1      31.167  28.016  25.244  1.00  0.00     0.014 A 
ATOM     22  C   UNL A   1      30.221  27.828  24.225  1.00  0.00     0.017 A 
BRANCH  22  23
ATOM     23  C   UNL A   1      29.811  28.999  23.446  1.00  0.00     0.138 A 
ATOM     24  N   UNL A   1      29.841  30.240  23.892  1.00  0.00    -0.229 NA
ATOM     25  N   UNL A   1      29.229  28.962  22.198  1.00  0.00    -0.338 N 
ATOM     26  C   UNL A   1      29.229  31.007  22.941  1.00  0.00     0.089 A 
ATOM     27  C   UNL A   1      28.830  30.233  21.860  1.00  0.00     0.066 A 
ATOM     28  H   UNL A   1      29.117  28.158  21.640  1.00  0.00     0.168 HD
ATOM     29  C   UNL A   1      28.959  32.381  22.949  1.00  0.00     0.030 A 
ATOM     30  C   UNL A   1      28.161  30.761  20.753  1.00  0.00     0.028 A 
ATOM     31  C   UNL A   1      28.288  32.936  21.856  1.00  0.00     0.002 A 
ATOM     32  C   UNL A   1      27.898  32.138  20.777  1.00  0.00     0.002 A 
ENDBRANCH  22  23
ENDBRANCH  15  17
ENDBRANCH  12  13
ENDBRANCH   5   7
ENDBRANCH   2   3
ENDBRANCH   1   2
BRANCH   1  33
ATOM     33  C   UNL A   1      39.526  20.164  25.798  1.00  0.00     0.118 C 
BRANCH  33  34
ATOM     34  N   UNL A   1      40.557  19.136  25.886  1.00  0.00    -0.352 N 
ATOM     35  C   UNL A   1      41.924  19.269  25.992  1.00  0.00     0.251 C 
ATOM     36  H   UNL A   1      40.227  18.208  25.868  1.00  0.00     0.163 HD
ATOM     37  O   UNL A   1      42.645  18.287  25.896  1.00  0.00    -0.269 OA
BRANCH  35  38
ATOM     38  C   UNL A   1      42.509  20.611  26.199  1.00  0.00     0.039 A 
ATOM     39  C   UNL A   1      42.890  21.370  25.090  1.00  0.00     0.014 A 
ATOM     40  C   UNL A   1      42.649  21.128  27.488  1.00  0.00     0.014 A 
ATOM     41  C   UNL A   1      43.330  22.684  25.271  1.00  0.00     0.010 A 
ATOM     42  C   UNL A   1      42.987  22.463  27.658  1.00  0.00     0.010 A 
ATOM     43  C   UNL A   1      43.339  23.255  26.553  1.00  0.00    -0.014 A 
BRANCH  43  44
ATOM     44  C   UNL A   1      43.717  24.670  26.793  1.00  0.00     0.031 A 
ATOM     45  C   UNL A   1      45.150  25.094  26.608  1.00  0.00     0.074 A 
ATOM     46  C   UNL A   1      42.816  25.534  27.299  1.00  0.00     0.049 A 
ATOM     47  N   UNL A   1      45.727  26.222  26.926  1.00  0.00    -0.248 NA
ATOM     48  C   UNL A   1      46.063  24.096  26.023  1.00  0.00     0.031 C 
ATOM     49  C   UNL A   1      41.412  25.229  27.579  1.00  0.00     0.029 A 
ATOM     50  N   UNL A   1      42.960  26.837  27.708  1.00  0.00    -0.354 N 
ATOM     51  C   UNL A   1      47.075  26.052  26.631  1.00  0.00     0.074 A 
ATOM     52  C   UNL A   1      47.235  24.700  26.143  1.00  0.00     0.031 C 
ATOM     53  C   UNL A   1      40.823  26.312  28.112  1.00  0.00     0.029 A 
ATOM     54  C   UNL A   1      41.816  27.372  28.254  1.00  0.00     0.049 A 
ATOM     55  H   UNL A   1      43.800  27.340  27.618  1.00  0.00     0.167 HD
ATOM     56  C   UNL A   1      48.085  26.949  26.729  1.00  0.00     0.034 A 
ATOM     57  C   UNL A   1      41.597  28.574  28.824  1.00  0.00     0.034 A 
ATOM     58  C   UNL A   1      47.910  28.305  27.173  1.00  0.00     0.049 A 
ATOM     59  C   UNL A   1      42.730  29.562  28.903  1.00  0.00     0.074 A 
ATOM     60  C   UNL A   1      48.851  29.317  27.236  1.00  0.00     0.029 A 
ATOM     61  N   UNL A   1      46.716  28.837  27.634  1.00  0.00    -0.354 N 
ATOM     62  N   UNL A   1      43.970  29.429  28.501  1.00  0.00    -0.248 NA
ATOM     63  C   UNL A   1      42.426  30.876  29.487  1.00  0.00     0.031 C 
ATOM     64  C   UNL A   1      48.230  30.455  27.760  1.00  0.00     0.029 A 
ATOM     65  C   UNL A   1      46.894  30.162  27.989  1.00  0.00     0.049 A 
ATOM     66  H   UNL A   1      45.866  28.345  27.700  1.00  0.00     0.167 HD
ATOM     67  C   UNL A   1      44.582  30.655  28.736  1.00  0.00     0.074 A 
ATOM     68  C   UNL A   1      43.572  31.520  29.312  1.00  0.00     0.031 C 
ATOM     69  C   UNL A   1      45.864  31.029  28.501  1.00  0.00     0.034 A 
BRANCH  56  70
ATOM     70  C   UNL A   1      49.459  26.497  26.308  1.00  0.00     0.023 A 
ATOM     71  C   UNL A   1      50.182  25.601  27.125  1.00  0.00     0.012 A 
ATOM     72  C   UNL A   1      50.026  26.931  25.094  1.00  0.00     0.148 A 
ATOM     73  C   UNL A   1      51.464  25.186  26.767  1.00  0.00     0.002 A 
ATOM     74  C   UNL A   1      51.284  26.473  24.719  1.00  0.00     0.091 A 
ATOM     75  F   UNL A   1      49.338  27.798  24.339  1.00  0.00    -0.205 F 
ATOM     76  C   UNL A   1      52.010  25.614  25.561  1.00  0.00     0.022 A 
BRANCH  74  77
ATOM     77  S   UNL A   1      52.038  26.898  23.145  1.00  0.00     0.127 S 
ATOM     78  O   UNL A   1      52.447  28.282  23.378  1.00  0.00    -0.237 OA
ATOM     79  O   UNL A   1      53.143  25.942  23.064  1.00  0.00    -0.237 OA
ATOM     80  O   UNL A   1      51.000  26.711  22.141  1.00  0.00    -0.744 OA
ENDBRANCH  74  77
ENDBRANCH  56  70
BRANCH  57  81
ATOM     81  C   UNL A   1      40.230  28.936  29.298  1.00  0.00     0.023 A 
ATOM     82  C   UNL A   1      39.270  29.362  28.359  1.00  0.00     0.012 A 
ATOM     83  C   UNL A   1      39.866  28.829  30.653  1.00  0.00     0.148 A 
ATOM     84  C   UNL A   1      37.981  29.706  28.765  1.00  0.00     0.002 A 
ATOM     85  C   UNL A   1      38.564  29.123  31.044  1.00  0.00     0.091 A 
ATOM     86  F   UNL A   1      40.796  28.426  31.531  1.00  0.00    -0.205 F 
ATOM     87  C   UNL A   1      37.625  29.577  30.104  1.00  0.00     0.022 A 
BRANCH  85  88
ATOM     88  S   UNL A   1      37.975  28.868  32.722  1.00  0.00     0.127 S 
ATOM     89  O   UNL A   1      36.620  29.408  32.647  1.00  0.00    -0.237 OA
ATOM     90  O   UNL A   1      38.054  27.413  32.850  1.00  0.00    -0.237 OA
ATOM     91  O   UNL A   1      38.898  29.599  33.579  1.00  0.00    -0.744 OA
ENDBRANCH  85  88
ENDBRANCH  57  81
BRANCH  69  92
ATOM     92  C   UNL A   1      46.248  32.454  28.799  1.00  0.00     0.023 A 
ATOM     93  C   UNL A   1      46.876  32.779  30.017  1.00  0.00     0.012 A 
ATOM     94  C   UNL A   1      46.072  33.454  27.822  1.00  0.00     0.148 A 
ATOM     95  C   UNL A   1      47.300  34.084  30.268  1.00  0.00     0.002 A 
ATOM     96  C   UNL A   1      46.543  34.739  28.057  1.00  0.00     0.091 A 
ATOM     97  F   UNL A   1      45.454  33.127  26.677  1.00  0.00    -0.205 F 
ATOM     98  C   UNL A   1      47.146  35.059  29.284  1.00  0.00     0.022 A 
BRANCH  96  99
ATOM     99  S   UNL A   1      46.482  36.032  26.812  1.00  0.00     0.127 S 
ATOM    100  O   UNL A   1      47.034  37.173  27.539  1.00  0.00    -0.237 OA
ATOM    101  O   UNL A   1      47.354  35.494  25.767  1.00  0.00    -0.237 OA
ATOM    102  O   UNL A   1      45.083  36.156  26.427  1.00  0.00    -0.744 OA
ENDBRANCH  96  99
ENDBRANCH  69  92
ENDBRANCH  43  44
ENDBRANCH  35  38
ENDBRANCH  33  34
ENDBRANCH   1  33
TORSDOF 16
ENDMDL
MODEL 2
REMARK VINA RESULT:     -13.7      0.480      7.503
REMARK SMILES O=C(NCCCNC(=O)c1ccc(-c2c3nc(c(-c4cccc(S(=O)(=O)[O-])c4F)c4ccc([nH]4)c(-c4cccc(S(=O)(=O)[O-])c4F)c4nc(c(-c5cccc(S(=O)(=O)[O-])c5F)c5ccc2[nH]5)C=C4)C=C3)cc1)c1ccc(C(=O)Nc2ccc(-c3nc4ccccc4[nH]3)cc2)cc1
REMARK SMILES IDX 5 1 4 2 3 3 1 4 2 5 73 7 74 8 96 9 75 10 95 11 76 12 77 13
REMARK SMILES IDX 78 14 79 15 80 17 81 18 94 19 82 20 93 21 83 22 84 23 85 24
REMARK SMILES IDX 92 25 86 26 91 27 87 29 90 30 88 31 89 32 6 33 7 34 8 35
REMARK SMILES IDX 9 37 10 38 11 39 72 40 12 41 71 42 13 43 14 44 15 45 65 46
REMARK SMILES IDX 16 47 70 48 64 49 66 50 17 51 69 52 63 53 62 54 18 56 50 57
REMARK SMILES IDX 30 58 49 59 31 60 34 61 48 62 67 63 32 64 33 65 47 67 68 68
REMARK SMILES IDX 35 69 19 70 20 71 28 72 21 73 23 74 29 75 22 76 24 77 25 78
REMARK SMILES IDX 26 79 27 80 51 81 52 82 60 83 53 84 55 85 61 86 54 87 56 88
REMARK SMILES IDX 57 89 58 90 59 91 36 92 37 93 45 94 38 95 40 96 46 97 39 98
REMARK SMILES IDX 41 99 42 100 43 101 44 102
REMARK H PARENT 3 6 79 16 92 28 7 36 66 55 34 66
REMARK Flexibility Score: inf
ROOT
ATOM      1  C   UNL A   1      38.283  19.957  25.018  1.00  0.00     0.042 C 
ENDROOT
BRANCH   1   2
ATOM      2  C   UNL A   1      37.217  21.036  25.091  1.00  0.00     0.118 C 
BRANCH   2   3
ATOM      3  N   UNL A   1      37.185  21.895  23.916  1.00  0.00    -0.352 N 
ATOM      4  O   UNL A   1      36.353  23.331  22.401  1.00  0.00    -0.269 OA
ATOM      5  C   UNL A   1      36.233  22.785  23.495  1.00  0.00     0.251 C 
ATOM      6  H   UNL A   1      37.974  21.824  23.330  1.00  0.00     0.163 HD
BRANCH   5   7
ATOM      7  C   UNL A   1      35.044  23.077  24.327  1.00  0.00     0.039 A 
ATOM      8  C   UNL A   1      35.053  24.040  25.338  1.00  0.00     0.014 A 
ATOM      9  C   UNL A   1      33.864  22.393  24.046  1.00  0.00     0.014 A 
ATOM     10  C   UNL A   1      33.941  24.189  26.174  1.00  0.00     0.014 A 
ATOM     11  C   UNL A   1      32.727  22.615  24.826  1.00  0.00     0.014 A 
ATOM     12  C   UNL A   1      32.772  23.446  25.955  1.00  0.00     0.040 A 
BRANCH  12  13
ATOM     13  C   UNL A   1      31.615  23.687  26.883  1.00  0.00     0.255 C 
ATOM     14  O   UNL A   1      31.369  22.844  27.750  1.00  0.00    -0.269 OA
ATOM     15  N   UNL A   1      30.891  24.862  26.897  1.00  0.00    -0.322 N 
ATOM     16  H   UNL A   1      30.372  25.025  27.717  1.00  0.00     0.170 HD
BRANCH  15  17
ATOM     17  C   UNL A   1      30.785  25.857  25.921  1.00  0.00     0.041 A 
ATOM     18  C   UNL A   1      29.978  25.602  24.809  1.00  0.00     0.027 A 
ATOM     19  C   UNL A   1      31.387  27.104  26.073  1.00  0.00     0.027 A 
ATOM     20  C   UNL A   1      29.632  26.646  23.942  1.00  0.00     0.014 A 
ATOM     21  C   UNL A   1      31.070  28.130  25.185  1.00  0.00     0.014 A 
ATOM     22  C   UNL A   1      30.147  27.932  24.147  1.00  0.00     0.017 A 
BRANCH  22  23
ATOM     23  C   UNL A   1      29.740  29.099  23.360  1.00  0.00     0.138 A 
ATOM     24  N   UNL A   1      29.766  30.341  23.799  1.00  0.00    -0.229 NA
ATOM     25  N   UNL A   1      29.163  29.054  22.110  1.00  0.00    -0.338 N 
ATOM     26  C   UNL A   1      29.158  31.104  22.842  1.00  0.00     0.089 A 
ATOM     27  C   UNL A   1      28.765  30.323  21.763  1.00  0.00     0.066 A 
ATOM     28  H   UNL A   1      29.054  28.247  21.556  1.00  0.00     0.168 HD
ATOM     29  C   UNL A   1      28.886  32.477  22.841  1.00  0.00     0.030 A 
ATOM     30  C   UNL A   1      28.100  30.844  20.650  1.00  0.00     0.028 A 
ATOM     31  C   UNL A   1      28.220  33.026  21.742  1.00  0.00     0.002 A 
ATOM     32  C   UNL A   1      27.835  32.221  20.665  1.00  0.00     0.002 A 
ENDBRANCH  22  23
ENDBRANCH  15  17
ENDBRANCH  12  13
ENDBRANCH   5   7
ENDBRANCH   2   3
ENDBRANCH   1   2
BRANCH   1  33
ATOM     33  C   UNL A   1      39.545  20.264  25.803  1.00  0.00     0.118 C 
BRANCH  33  34
ATOM     34  N   UNL A   1      40.470  19.139  25.864  1.00  0.00    -0.352 N 
ATOM     35  C   UNL A   1      41.834  19.130  26.062  1.00  0.00     0.251 C 
ATOM     36  H   UNL A   1      40.059  18.251  25.746  1.00  0.00     0.163 HD
ATOM     37  O   UNL A   1      42.467  18.094  25.923  1.00  0.00    -0.269 OA
BRANCH  35  38
ATOM     38  C   UNL A   1      42.523  20.389  26.417  1.00  0.00     0.039 A 
ATOM     39  C   UNL A   1      43.360  20.999  25.480  1.00  0.00     0.014 A 
ATOM     40  C   UNL A   1      42.314  20.978  27.664  1.00  0.00     0.014 A 
ATOM     41  C   UNL A   1      43.919  22.249  25.763  1.00  0.00     0.010 A 
ATOM     42  C   UNL A   1      42.785  22.262  27.903  1.00  0.00     0.010 A 
ATOM     43  C   UNL A   1      43.598  22.909  26.960  1.00  0.00    -0.014 A 
BRANCH  43  44
ATOM     44  C   UNL A   1      44.096  24.271  27.276  1.00  0.00     0.031 A 
ATOM     45  C   UNL A   1      43.131  25.315  27.769  1.00  0.00     0.074 A 
ATOM     46  C   UNL A   1      45.371  24.606  26.996  1.00  0.00     0.049 A 
ATOM     47  N   UNL A   1      43.313  26.598  27.936  1.00  0.00    -0.248 NA
ATOM     48  C   UNL A   1      41.764  24.858  28.077  1.00  0.00     0.031 C 
ATOM     49  C   UNL A   1      46.388  23.701  26.459  1.00  0.00     0.029 A 
ATOM     50  N   UNL A   1      46.017  25.814  27.086  1.00  0.00    -0.354 N 
ATOM     51  C   UNL A   1      42.077  27.108  28.316  1.00  0.00     0.074 A 
ATOM     52  C   UNL A   1      41.145  26.002  28.319  1.00  0.00     0.031 C 
ATOM     53  C   UNL A   1      47.529  24.383  26.268  1.00  0.00     0.029 A 
ATOM     54  C   UNL A   1      47.313  25.781  26.626  1.00  0.00     0.049 A 
ATOM     55  H   UNL A   1      45.594  26.626  27.448  1.00  0.00     0.167 HD
ATOM     56  C   UNL A   1      41.752  28.378  28.659  1.00  0.00     0.034 A 
ATOM     57  C   UNL A   1      48.219  26.771  26.488  1.00  0.00     0.034 A 
ATOM     58  C   UNL A   1      42.694  29.462  28.698  1.00  0.00     0.049 A 
ATOM     59  C   UNL A   1      47.840  28.169  26.895  1.00  0.00     0.074 A 
ATOM     60  C   UNL A   1      42.486  30.767  29.105  1.00  0.00     0.029 A 
ATOM     61  N   UNL A   1      44.021  29.370  28.308  1.00  0.00    -0.354 N 
ATOM     62  N   UNL A   1      46.703  28.610  27.374  1.00  0.00    -0.248 NA
ATOM     63  C   UNL A   1      48.880  29.201  26.773  1.00  0.00     0.031 C 
ATOM     64  C   UNL A   1      43.684  31.471  28.938  1.00  0.00     0.029 A 
ATOM     65  C   UNL A   1      44.646  30.594  28.461  1.00  0.00     0.049 A 
ATOM     66  H   UNL A   1      44.455  28.552  27.972  1.00  0.00     0.167 HD
ATOM     67  C   UNL A   1      46.903  29.956  27.656  1.00  0.00     0.074 A 
ATOM     68  C   UNL A   1      48.274  30.258  27.299  1.00  0.00     0.031 C 
ATOM     69  C   UNL A   1      46.029  30.862  28.161  1.00  0.00     0.034 A 
BRANCH  56  70
ATOM     70  C   UNL A   1      40.324  28.644  29.061  1.00  0.00     0.023 A 
ATOM     71  C   UNL A   1      39.346  28.857  28.066  1.00  0.00     0.012 A 
ATOM     72  C   UNL A   1      39.941  28.656  30.416  1.00  0.00     0.148 A 
ATOM     73  C   UNL A   1      38.023  29.127  28.414  1.00  0.00     0.002 A 
ATOM     74  C   UNL A   1      38.611  28.877  30.754  1.00  0.00     0.091 A 
ATOM     75  F   UNL A   1      40.885  28.475  31.351  1.00  0.00    -0.205 F 
ATOM     76  C   UNL A   1      37.654  29.128  29.756  1.00  0.00     0.022 A 
BRANCH  74  77
ATOM     77  S   UNL A   1      38.020  28.811  32.449  1.00  0.00     0.127 S 
ATOM     78  O   UNL A   1      36.635  29.253  32.296  1.00  0.00    -0.237 OA
ATOM     79  O   UNL A   1      38.174  27.393  32.775  1.00  0.00    -0.237 OA
ATOM     80  O   UNL A   1      38.884  29.704  33.208  1.00  0.00    -0.744 OA
ENDBRANCH  74  77
ENDBRANCH  56  70
BRANCH  57  81
ATOM     81  C   UNL A   1      49.595  26.459  26.006  1.00  0.00     0.023 A 
ATOM     82  C   UNL A   1      50.439  25.668  26.811  1.00  0.00     0.012 A 
ATOM     83  C   UNL A   1      50.060  26.905  24.755  1.00  0.00     0.148 A 
ATOM     84  C   UNL A   1      51.732  25.352  26.391  1.00  0.00     0.002 A 
ATOM     85  C   UNL A   1      51.330  26.544  24.319  1.00  0.00     0.091 A 
ATOM     86  F   UNL A   1      49.243  27.661  24.007  1.00  0.00    -0.205 F 
ATOM     87  C   UNL A   1      52.173  25.782  25.144  1.00  0.00     0.022 A 
BRANCH  85  88
ATOM     88  S   UNL A   1      51.942  26.942  22.678  1.00  0.00     0.127 S 
ATOM     89  O   UNL A   1      53.159  26.136  22.611  1.00  0.00    -0.237 OA
ATOM     90  O   UNL A   1      50.846  26.475  21.829  1.00  0.00    -0.237 OA
ATOM     91  O   UNL A   1      52.140  28.384  22.670  1.00  0.00    -0.744 OA
ENDBRANCH  85  88
ENDBRANCH  57  81
BRANCH  69  92
ATOM     92  C   UNL A   1      46.533  32.256  28.426  1.00  0.00     0.023 A 
ATOM     93  C   UNL A   1      47.037  32.598  29.696  1.00  0.00     0.012 A 
ATOM     94  C   UNL A   1      46.596  33.198  27.379  1.00  0.00     0.148 A 
ATOM     95  C   UNL A   1      47.572  33.865  29.926  1.00  0.00     0.002 A 
ATOM     96  C   UNL A   1      47.177  34.439  27.601  1.00  0.00     0.091 A 
ATOM     97  F   UNL A   1      46.094  32.858  26.182  1.00  0.00    -0.205 F 
ATOM     98  C   UNL A   1      47.655  34.779  28.877  1.00  0.00     0.022 A 
BRANCH  96  99
ATOM     99  S   UNL A   1      47.421  35.639  26.288  1.00  0.00     0.127 S 
ATOM    100  O   UNL A   1      46.068  36.162  26.106  1.00  0.00    -0.237 OA
ATOM    101  O   UNL A   1      48.361  36.579  26.899  1.00  0.00    -0.237 OA
ATOM    102  O   UNL A   1      47.958  34.896  25.156  1.00  0.00    -0.744 OA
ENDBRANCH  96  99
ENDBRANCH  69  92
ENDBRANCH  43  44
ENDBRANCH  35  38
ENDBRANCH  33  34
ENDBRANCH   1  33
TORSDOF 16
ENDMDL
MODEL 3
REMARK VINA RESULT:     -13.3      2.136      2.495
REMARK SMILES O=C(NCCCNC(=O)c1ccc(-c2c3nc(c(-c4cccc(S(=O)(=O)[O-])c4F)c4ccc([nH]4)c(-c4cccc(S(=O)(=O)[O-])c4F)c4nc(c(-c5cccc(S(=O)(=O)[O-])c5F)c5ccc2[nH]5)C=C4)C=C3)cc1)c1ccc(C(=O)Nc2ccc(-c3nc4ccccc4[nH]3)cc2)cc1
REMARK SMILES IDX 5 1 4 2 3 3 1 4 2 5 73 7 74 8 96 9 75 10 95 11 76 12 77 13
REMARK SMILES IDX 78 14 79 15 80 17 81 18 94 19 82 20 93 21 83 22 84 23 85 24
REMARK SMILES IDX 92 25 86 26 91 27 87 29 90 30 88 31 89 32 6 33 7 34 8 35
REMARK SMILES IDX 9 37 10 38 11 39 72 40 12 41 71 42 13 43 14 44 15 45 65 46
REMARK SMILES IDX 16 47 70 48 64 49 66 50 17 51 69 52 63 53 62 54 18 56 50 57
REMARK SMILES IDX 30 58 49 59 31 60 34 61 48 62 67 63 32 64 33 65 47 67 68 68
REMARK SMILES IDX 35 69 19 70 20 71 28 72 21 73 23 74 29 75 22 76 24 77 25 78
REMARK SMILES IDX 26 79 27 80 51 81 52 82 60 83 53 84 55 85 61 86 54 87 56 88
REMARK SMILES IDX 57 89 58 90 59 91 36 92 37 93 45 94 38 95 40 96 46 97 39 98
REMARK SMILES IDX 41 99 42 100 43 101 44 102
REMARK H PARENT 3 6 79 16 92 28 7 36 66 55 34 66
REMARK Flexibility Score: inf
ROOT
ATOM      1  C   UNL A   1      38.371  19.869  25.079  1.00  0.00     0.042 C 
ENDROOT
BRANCH   1   2
ATOM      2  C   UNL A   1      37.125  20.731  24.975  1.00  0.00     0.118 C 
BRANCH   2   3
ATOM      3  N   UNL A   1      37.191  21.713  23.904  1.00  0.00    -0.352 N 
ATOM      4  O   UNL A   1      36.511  23.367  22.542  1.00  0.00    -0.269 OA
ATOM      5  C   UNL A   1      36.319  22.715  23.565  1.00  0.00     0.251 C 
ATOM      6  H   UNL A   1      37.989  21.647  23.330  1.00  0.00     0.163 HD
BRANCH   5   7
ATOM      7  C   UNL A   1      35.132  23.004  24.400  1.00  0.00     0.039 A 
ATOM      8  C   UNL A   1      35.189  23.818  25.533  1.00  0.00     0.014 A 
ATOM      9  C   UNL A   1      33.906  22.477  23.999  1.00  0.00     0.014 A 
ATOM     10  C   UNL A   1      34.066  23.957  26.354  1.00  0.00     0.014 A 
ATOM     11  C   UNL A   1      32.765  22.699  24.774  1.00  0.00     0.014 A 
ATOM     12  C   UNL A   1      32.844  23.364  26.007  1.00  0.00     0.040 A 
BRANCH  12  13
ATOM     13  C   UNL A   1      31.679  23.586  26.930  1.00  0.00     0.255 C 
ATOM     14  O   UNL A   1      31.452  22.747  27.806  1.00  0.00    -0.269 OA
ATOM     15  N   UNL A   1      30.927  24.744  26.930  1.00  0.00    -0.322 N 
ATOM     16  H   UNL A   1      30.403  24.903  27.748  1.00  0.00     0.170 HD
BRANCH  15  17
ATOM     17  C   UNL A   1      30.799  25.726  25.943  1.00  0.00     0.041 A 
ATOM     18  C   UNL A   1      29.837  25.534  24.949  1.00  0.00     0.027 A 
ATOM     19  C   UNL A   1      31.537  26.907  25.980  1.00  0.00     0.027 A 
ATOM     20  C   UNL A   1      29.490  26.591  24.098  1.00  0.00     0.014 A 
ATOM     21  C   UNL A   1      31.215  27.943  25.105  1.00  0.00     0.014 A 
ATOM     22  C   UNL A   1      30.152  27.820  24.196  1.00  0.00     0.017 A 
BRANCH  22  23
ATOM     23  C   UNL A   1      29.769  29.008  23.429  1.00  0.00     0.138 A 
ATOM     24  N   UNL A   1      29.771  30.237  23.904  1.00  0.00    -0.229 NA
ATOM     25  N   UNL A   1      29.239  28.997  22.156  1.00  0.00    -0.338 N 
ATOM     26  C   UNL A   1      29.194  31.024  22.947  1.00  0.00     0.089 A 
ATOM     27  C   UNL A   1      28.847  30.273  21.832  1.00  0.00     0.066 A 
ATOM     28  H   UNL A   1      29.156  28.205  21.576  1.00  0.00     0.168 HD
ATOM     29  C   UNL A   1      28.915  32.396  22.975  1.00  0.00     0.030 A 
ATOM     30  C   UNL A   1      28.221  30.823  20.710  1.00  0.00     0.028 A 
ATOM     31  C   UNL A   1      28.287  32.973  21.868  1.00  0.00     0.002 A 
ATOM     32  C   UNL A   1      27.948  32.198  20.755  1.00  0.00     0.002 A 
ENDBRANCH  22  23
ENDBRANCH  15  17
ENDBRANCH  12  13
ENDBRANCH   5   7
ENDBRANCH   2   3
ENDBRANCH   1   2
BRANCH   1  33
ATOM     33  C   UNL A   1      39.457  20.437  25.975  1.00  0.00     0.118 C 
BRANCH  33  34
ATOM     34  N   UNL A   1      40.566  19.514  26.186  1.00  0.00    -0.352 N 
ATOM     35  C   UNL A   1      41.899  19.777  26.418  1.00  0.00     0.251 C 
ATOM     36  H   UNL A   1      40.327  18.558  26.159  1.00  0.00     0.163 HD
ATOM     37  O   UNL A   1      42.714  18.868  26.413  1.00  0.00    -0.269 OA
BRANCH  35  38
ATOM     38  C   UNL A   1      42.333  21.173  26.646  1.00  0.00     0.039 A 
ATOM     39  C   UNL A   1      42.481  22.031  25.554  1.00  0.00     0.014 A 
ATOM     40  C   UNL A   1      42.559  21.637  27.942  1.00  0.00     0.014 A 
ATOM     41  C   UNL A   1      42.773  23.380  25.771  1.00  0.00     0.010 A 
ATOM     42  C   UNL A   1      42.747  22.994  28.161  1.00  0.00     0.010 A 
ATOM     43  C   UNL A   1      42.864  23.880  27.079  1.00  0.00    -0.014 A 
BRANCH  43  44
ATOM     44  C   UNL A   1      43.089  25.319  27.368  1.00  0.00     0.031 A 
ATOM     45  C   UNL A   1      44.488  25.873  27.314  1.00  0.00     0.074 A 
ATOM     46  C   UNL A   1      42.073  26.087  27.805  1.00  0.00     0.049 A 
ATOM     47  N   UNL A   1      44.930  27.042  27.695  1.00  0.00    -0.248 NA
ATOM     48  C   UNL A   1      45.535  24.974  26.799  1.00  0.00     0.031 C 
ATOM     49  C   UNL A   1      40.683  25.652  27.958  1.00  0.00     0.029 A 
ATOM     50  N   UNL A   1      42.061  27.390  28.241  1.00  0.00    -0.354 N 
ATOM     51  C   UNL A   1      46.308  27.001  27.516  1.00  0.00     0.074 A 
ATOM     52  C   UNL A   1      46.632  25.678  27.027  1.00  0.00     0.031 C 
ATOM     53  C   UNL A   1      39.954  26.666  28.451  1.00  0.00     0.029 A 
ATOM     54  C   UNL A   1      40.830  27.809  28.692  1.00  0.00     0.049 A 
ATOM     55  H   UNL A   1      42.857  27.969  28.230  1.00  0.00     0.167 HD
ATOM     56  C   UNL A   1      47.220  27.983  27.713  1.00  0.00     0.034 A 
ATOM     57  C   UNL A   1      40.455  28.974  29.255  1.00  0.00     0.034 A 
ATOM     58  C   UNL A   1      46.884  29.308  28.156  1.00  0.00     0.049 A 
ATOM     59  C   UNL A   1      41.482  30.058  29.445  1.00  0.00     0.074 A 
ATOM     60  C   UNL A   1      47.719  30.399  28.313  1.00  0.00     0.029 A 
ATOM     61  N   UNL A   1      45.611  29.721  28.519  1.00  0.00    -0.354 N 
ATOM     62  N   UNL A   1      42.759  30.046  29.150  1.00  0.00    -0.248 NA
ATOM     63  C   UNL A   1      41.010  31.328  30.016  1.00  0.00     0.031 C 
ATOM     64  C   UNL A   1      46.954  31.466  28.795  1.00  0.00     0.029 A 
ATOM     65  C   UNL A   1      45.636  31.049  28.904  1.00  0.00     0.049 A 
ATOM     66  H   UNL A   1      44.808  29.153  28.504  1.00  0.00     0.167 HD
ATOM     67  C   UNL A   1      43.233  31.317  29.453  1.00  0.00     0.074 A 
ATOM     68  C   UNL A   1      42.103  32.076  29.949  1.00  0.00     0.031 C 
ATOM     69  C   UNL A   1      44.491  31.809  29.335  1.00  0.00     0.034 A 
BRANCH  56  70
ATOM     70  C   UNL A   1      48.660  27.665  27.407  1.00  0.00     0.023 A 
ATOM     71  C   UNL A   1      49.123  27.731  26.075  1.00  0.00     0.012 A 
ATOM     72  C   UNL A   1      49.564  27.329  28.433  1.00  0.00     0.148 A 
ATOM     73  C   UNL A   1      50.446  27.420  25.765  1.00  0.00     0.002 A 
ATOM     74  C   UNL A   1      50.894  27.069  28.122  1.00  0.00     0.091 A 
ATOM     75  F   UNL A   1      49.105  27.249  29.691  1.00  0.00    -0.205 F 
ATOM     76  C   UNL A   1      51.333  27.098  26.788  1.00  0.00     0.022 A 
BRANCH  74  77
ATOM     77  S   UNL A   1      52.132  26.730  29.379  1.00  0.00     0.127 S 
ATOM     78  O   UNL A   1      53.279  26.336  28.563  1.00  0.00    -0.237 OA
ATOM     79  O   UNL A   1      52.270  28.031  30.035  1.00  0.00    -0.237 OA
ATOM     80  O   UNL A   1      51.571  25.684  30.222  1.00  0.00    -0.744 OA
ENDBRANCH  74  77
ENDBRANCH  56  70
BRANCH  57  81
ATOM     81  C   UNL A   1      39.025  29.202  29.613  1.00  0.00     0.023 A 
ATOM     82  C   UNL A   1      38.594  28.922  30.925  1.00  0.00     0.012 A 
ATOM     83  C   UNL A   1      38.104  29.722  28.683  1.00  0.00     0.148 A 
ATOM     84  C   UNL A   1      37.266  29.126  31.297  1.00  0.00     0.002 A 
ATOM     85  C   UNL A   1      36.794  29.973  29.075  1.00  0.00     0.091 A 
ATOM     86  F   UNL A   1      38.533  29.977  27.439  1.00  0.00    -0.205 F 
ATOM     87  C   UNL A   1      36.369  29.659  30.376  1.00  0.00     0.022 A 
BRANCH  85  88
ATOM     88  S   UNL A   1      35.597  30.774  28.001  1.00  0.00     0.127 S 
ATOM     89  O   UNL A   1      35.471  29.802  26.918  1.00  0.00    -0.237 OA
ATOM     90  O   UNL A   1      34.430  30.875  28.878  1.00  0.00    -0.237 OA
ATOM     91  O   UNL A   1      36.189  32.053  27.636  1.00  0.00    -0.744 OA
ENDBRANCH  85  88
ENDBRANCH  57  81
BRANCH  69  92
ATOM     92  C   UNL A   1      44.717  33.257  29.683  1.00  0.00     0.023 A 
ATOM     93  C   UNL A   1      45.126  33.619  30.981  1.00  0.00     0.012 A 
ATOM     94  C   UNL A   1      44.616  34.249  28.686  1.00  0.00     0.148 A 
ATOM     95  C   UNL A   1      45.407  34.950  31.288  1.00  0.00     0.002 A 
ATOM     96  C   UNL A   1      44.947  35.564  28.986  1.00  0.00     0.091 A 
ATOM     97  F   UNL A   1      44.206  33.885  27.462  1.00  0.00    -0.205 F 
ATOM     98  C   UNL A   1      45.331  35.919  30.289  1.00  0.00     0.022 A 
BRANCH  96  99
ATOM     99  S   UNL A   1      44.978  36.858  27.741  1.00  0.00     0.127 S 
ATOM    100  O   UNL A   1      45.954  36.331  26.788  1.00  0.00    -0.237 OA
ATOM    101  O   UNL A   1      43.596  36.857  27.260  1.00  0.00    -0.237 OA
ATOM    102  O   UNL A   1      45.378  38.075  28.433  1.00  0.00    -0.744 OA
ENDBRANCH  96  99
ENDBRANCH  69  92
ENDBRANCH  43  44
ENDBRANCH  35  38
ENDBRANCH  33  34
ENDBRANCH   1  33
TORSDOF 16
ENDMDL
