MODEL 1
REMARK VINA RESULT:     -11.5      0.000      0.000
REMARK SMILES O=C(Cc1ccccc1Nc1c(Cl)cccc1C(F)(F)F)NCCCNC(=O)c1ccc(-c2c3nc(c(-c4cccc(S(=O)(=O)[O-])c4F)c4ccc([nH]4)c(-c4cccc(S(=O)(=O)[O-])c4F)c4nc(c(-c5cccc(S(=O)(=O)[O-])c5F)c5ccc2[nH]5)C=C4)C=C3)cc1
REMARK SMILES IDX 23 1 22 2 1 3 2 4 3 6 4 7 5 8 9 9 6 10 8 11 7 12 10 13 11 15
REMARK SMILES IDX 12 16 17 17 13 18 14 19 16 20 15 21 18 22 19 23 20 24 21 25
REMARK SMILES IDX 24 26 25 27 26 28 27 29 28 31 29 32 30 33 91 34 31 35 90 36
REMARK SMILES IDX 32 37 33 38 34 39 84 40 35 41 89 42 83 43 85 44 36 45 88 46
REMARK SMILES IDX 82 47 81 48 37 50 69 51 49 52 68 53 50 54 53 55 67 56 86 57
REMARK SMILES IDX 51 58 52 59 66 61 87 62 54 63 38 64 39 65 47 66 40 67 42 68
REMARK SMILES IDX 48 69 41 70 43 71 44 72 45 73 46 74 70 75 71 76 79 77 72 78
REMARK SMILES IDX 74 79 80 80 73 81 75 82 76 83 77 84 78 85 55 86 56 87 64 88
REMARK SMILES IDX 57 89 59 90 65 91 58 92 60 93 61 94 62 95 63 96
REMARK H PARENT 22 5 10 14 26 30 85 49 53 60
REMARK Flexibility Score: inf
ROOT
ATOM      1  C   UNL A   1      37.223  21.266  24.153  1.00  0.00     0.117 C 
ENDROOT
BRANCH   1   2
ATOM      2  N   UNL A   1      36.768  22.362  24.985  1.00  0.00    -0.356 N 
ATOM      3  O   UNL A   1      35.334  23.357  23.477  1.00  0.00    -0.275 OA
ATOM      4  C   UNL A   1      35.849  23.313  24.591  1.00  0.00     0.224 C 
ATOM      5  H   UNL A   1      37.141  22.433  25.894  1.00  0.00     0.163 HD
BRANCH   4   6
ATOM      6  C   UNL A   1      35.509  24.324  25.682  1.00  0.00     0.137 C 
BRANCH   6   7
ATOM      7  C   UNL A   1      34.078  24.162  26.156  1.00  0.00    -0.015 A 
ATOM      8  C   UNL A   1      33.702  22.922  26.712  1.00  0.00     0.006 A 
ATOM      9  C   UNL A   1      33.105  25.171  25.992  1.00  0.00     0.042 A 
ATOM     10  C   UNL A   1      32.377  22.653  27.041  1.00  0.00     0.000 A 
ATOM     11  C   UNL A   1      31.774  24.870  26.323  1.00  0.00     0.026 A 
ATOM     12  C   UNL A   1      31.409  23.623  26.831  1.00  0.00     0.002 A 
BRANCH   9  13
ATOM     13  N   UNL A   1      33.471  26.469  25.574  1.00  0.00    -0.354 N 
ATOM     14  H   UNL A   1      34.400  26.722  25.775  1.00  0.00     0.167 HD
BRANCH  13  15
ATOM     15  C   UNL A   1      32.713  27.465  24.912  1.00  0.00     0.070 A 
ATOM     16  C   UNL A   1      32.663  27.440  23.496  1.00  0.00     0.065 A 
ATOM     17  C   UNL A   1      31.931  28.433  25.580  1.00  0.00     0.080 A 
ATOM     18  Cl  UNL A   1      33.636  26.321  22.598  1.00  0.00    -0.082 Cl
ATOM     19  C   UNL A   1      31.828  28.292  22.769  1.00  0.00     0.023 A 
ATOM     20  C   UNL A   1      31.072  29.270  24.826  1.00  0.00     0.015 A 
ATOM     21  C   UNL A   1      31.016  29.197  23.436  1.00  0.00     0.002 A 
BRANCH  17  22
ATOM     22  C   UNL A   1      31.961  28.679  27.074  1.00  0.00     0.418 C 
ATOM     23  F   UNL A   1      31.705  29.994  27.366  1.00  0.00    -0.166 F 
ATOM     24  F   UNL A   1      30.990  27.987  27.735  1.00  0.00    -0.166 F 
ATOM     25  F   UNL A   1      33.135  28.414  27.703  1.00  0.00    -0.166 F 
ENDBRANCH  17  22
ENDBRANCH  13  15
ENDBRANCH   9  13
ENDBRANCH   6   7
ENDBRANCH   4   6
ENDBRANCH   1   2
BRANCH   1  26
ATOM     26  C   UNL A   1      37.748  20.095  24.979  1.00  0.00     0.042 C 
BRANCH  26  27
ATOM     27  C   UNL A   1      38.930  20.414  25.893  1.00  0.00     0.118 C 
BRANCH  27  28
ATOM     28  N   UNL A   1      39.943  19.369  25.933  1.00  0.00    -0.352 N 
ATOM     29  C   UNL A   1      41.300  19.469  26.138  1.00  0.00     0.251 C 
ATOM     30  H   UNL A   1      39.607  18.454  25.791  1.00  0.00     0.163 HD
ATOM     31  O   UNL A   1      42.004  18.466  26.025  1.00  0.00    -0.269 OA
BRANCH  29  32
ATOM     32  C   UNL A   1      41.924  20.773  26.460  1.00  0.00     0.039 A 
ATOM     33  C   UNL A   1      42.178  21.672  25.418  1.00  0.00     0.014 A 
ATOM     34  C   UNL A   1      42.263  21.118  27.771  1.00  0.00     0.014 A 
ATOM     35  C   UNL A   1      42.691  22.941  25.701  1.00  0.00     0.010 A 
ATOM     36  C   UNL A   1      42.708  22.410  28.058  1.00  0.00     0.010 A 
ATOM     37  C   UNL A   1      42.918  23.340  27.029  1.00  0.00    -0.014 A 
BRANCH  37  38
ATOM     38  C   UNL A   1      43.325  24.733  27.357  1.00  0.00     0.031 A 
ATOM     39  C   UNL A   1      42.335  25.713  27.931  1.00  0.00     0.074 A 
ATOM     40  C   UNL A   1      44.572  25.149  27.051  1.00  0.00     0.049 A 
ATOM     41  N   UNL A   1      42.501  26.978  28.220  1.00  0.00    -0.248 NA
ATOM     42  C   UNL A   1      40.977  25.212  28.193  1.00  0.00     0.031 C 
ATOM     43  C   UNL A   1      45.607  24.323  26.423  1.00  0.00     0.029 A 
ATOM     44  N   UNL A   1      45.174  26.374  27.201  1.00  0.00    -0.354 N 
ATOM     45  C   UNL A   1      41.267  27.434  28.667  1.00  0.00     0.074 A 
ATOM     46  C   UNL A   1      40.353  26.315  28.582  1.00  0.00     0.031 C 
ATOM     47  C   UNL A   1      46.712  25.062  26.244  1.00  0.00     0.029 A 
ATOM     48  C   UNL A   1      46.458  26.422  26.707  1.00  0.00     0.049 A 
ATOM     49  H   UNL A   1      44.729  27.145  27.621  1.00  0.00     0.167 HD
ATOM     50  C   UNL A   1      40.929  28.662  29.127  1.00  0.00     0.034 A 
ATOM     51  C   UNL A   1      47.329  27.447  26.619  1.00  0.00     0.034 A 
ATOM     52  C   UNL A   1      41.845  29.767  29.237  1.00  0.00     0.049 A 
ATOM     53  C   UNL A   1      46.933  28.796  27.154  1.00  0.00     0.074 A 
ATOM     54  C   UNL A   1      41.616  31.023  29.772  1.00  0.00     0.029 A 
ATOM     55  N   UNL A   1      43.158  29.757  28.792  1.00  0.00    -0.354 N 
ATOM     56  N   UNL A   1      45.808  29.163  27.717  1.00  0.00    -0.248 NA
ATOM     57  C   UNL A   1      47.940  29.865  27.070  1.00  0.00     0.031 C 
ATOM     58  C   UNL A   1      42.779  31.785  29.616  1.00  0.00     0.029 A 
ATOM     59  C   UNL A   1      43.746  30.991  29.023  1.00  0.00     0.049 A 
ATOM     60  H   UNL A   1      43.606  28.987  28.374  1.00  0.00     0.167 HD
ATOM     61  C   UNL A   1      45.983  30.492  28.088  1.00  0.00     0.074 A 
ATOM     62  C   UNL A   1      47.331  30.858  27.705  1.00  0.00     0.031 C 
ATOM     63  C   UNL A   1      45.103  31.335  28.680  1.00  0.00     0.034 A 
BRANCH  50  64
ATOM     64  C   UNL A   1      39.508  28.874  29.587  1.00  0.00     0.023 A 
ATOM     65  C   UNL A   1      39.131  28.491  30.891  1.00  0.00     0.012 A 
ATOM     66  C   UNL A   1      38.565  29.513  28.757  1.00  0.00     0.148 A 
ATOM     67  C   UNL A   1      37.832  28.706  31.349  1.00  0.00     0.002 A 
ATOM     68  C   UNL A   1      37.285  29.767  29.238  1.00  0.00     0.091 A 
ATOM     69  F   UNL A   1      38.934  29.856  27.515  1.00  0.00    -0.205 F 
ATOM     70  C   UNL A   1      36.913  29.352  30.526  1.00  0.00     0.022 A 
BRANCH  68  71
ATOM     71  S   UNL A   1      36.053  30.667  28.289  1.00  0.00     0.127 S 
ATOM     72  O   UNL A   1      36.746  31.929  28.029  1.00  0.00    -0.237 OA
ATOM     73  O   UNL A   1      35.884  29.811  27.116  1.00  0.00    -0.237 OA
ATOM     74  O   UNL A   1      34.879  30.766  29.145  1.00  0.00    -0.744 OA
ENDBRANCH  68  71
ENDBRANCH  50  64
BRANCH  51  75
ATOM     75  C   UNL A   1      48.684  27.225  26.040  1.00  0.00     0.023 A 
ATOM     76  C   UNL A   1      49.704  26.681  26.846  1.00  0.00     0.012 A 
ATOM     77  C   UNL A   1      48.963  27.531  24.693  1.00  0.00     0.148 A 
ATOM     78  C   UNL A   1      50.986  26.480  26.332  1.00  0.00     0.002 A 
ATOM     79  C   UNL A   1      50.226  27.274  24.172  1.00  0.00     0.091 A 
ATOM     80  F   UNL A   1      47.983  28.058  23.947  1.00  0.00    -0.205 F 
ATOM     81  C   UNL A   1      51.244  26.766  24.994  1.00  0.00     0.022 A 
BRANCH  79  82
ATOM     82  S   UNL A   1      50.611  27.488  22.431  1.00  0.00     0.127 S 
ATOM     83  O   UNL A   1      52.023  27.117  22.389  1.00  0.00    -0.237 OA
ATOM     84  O   UNL A   1      49.702  26.527  21.803  1.00  0.00    -0.237 OA
ATOM     85  O   UNL A   1      50.313  28.881  22.129  1.00  0.00    -0.744 OA
ENDBRANCH  79  82
ENDBRANCH  51  75
BRANCH  63  86
ATOM     86  C   UNL A   1      45.573  32.732  28.994  1.00  0.00     0.023 A 
ATOM     87  C   UNL A   1      46.257  32.994  30.198  1.00  0.00     0.012 A 
ATOM     88  C   UNL A   1      45.395  33.774  28.061  1.00  0.00     0.148 A 
ATOM     89  C   UNL A   1      46.721  34.277  30.487  1.00  0.00     0.002 A 
ATOM     90  C   UNL A   1      45.907  35.038  28.332  1.00  0.00     0.091 A 
ATOM     91  F   UNL A   1      44.729  33.511  26.929  1.00  0.00    -0.205 F 
ATOM     92  C   UNL A   1      46.557  35.294  29.549  1.00  0.00     0.022 A 
BRANCH  90  93
ATOM     93  S   UNL A   1      45.831  36.384  27.145  1.00  0.00     0.127 S 
ATOM     94  O   UNL A   1      46.455  35.779  25.969  1.00  0.00    -0.237 OA
ATOM     95  O   UNL A   1      44.391  36.609  27.024  1.00  0.00    -0.237 OA
ATOM     96  O   UNL A   1      46.569  37.490  27.742  1.00  0.00    -0.744 OA
ENDBRANCH  90  93
ENDBRANCH  63  86
ENDBRANCH  37  38
ENDBRANCH  29  32
ENDBRANCH  27  28
ENDBRANCH  26  27
ENDBRANCH   1  26
TORSDOF 17
ENDMDL
MODEL 2
REMARK VINA RESULT:     -11.5      5.227      8.888
REMARK SMILES O=C(Cc1ccccc1Nc1c(Cl)cccc1C(F)(F)F)NCCCNC(=O)c1ccc(-c2c3nc(c(-c4cccc(S(=O)(=O)[O-])c4F)c4ccc([nH]4)c(-c4cccc(S(=O)(=O)[O-])c4F)c4nc(c(-c5cccc(S(=O)(=O)[O-])c5F)c5ccc2[nH]5)C=C4)C=C3)cc1
REMARK SMILES IDX 23 1 22 2 1 3 2 4 3 6 4 7 5 8 9 9 6 10 8 11 7 12 10 13 11 15
REMARK SMILES IDX 12 16 17 17 13 18 14 19 16 20 15 21 18 22 19 23 20 24 21 25
REMARK SMILES IDX 24 26 25 27 26 28 27 29 28 31 29 32 30 33 91 34 31 35 90 36
REMARK SMILES IDX 32 37 33 38 34 39 84 40 35 41 89 42 83 43 85 44 36 45 88 46
REMARK SMILES IDX 82 47 81 48 37 50 69 51 49 52 68 53 50 54 53 55 67 56 86 57
REMARK SMILES IDX 51 58 52 59 66 61 87 62 54 63 38 64 39 65 47 66 40 67 42 68
REMARK SMILES IDX 48 69 41 70 43 71 44 72 45 73 46 74 70 75 71 76 79 77 72 78
REMARK SMILES IDX 74 79 80 80 73 81 75 82 76 83 77 84 78 85 55 86 56 87 64 88
REMARK SMILES IDX 57 89 59 90 65 91 58 92 60 93 61 94 62 95 63 96
REMARK H PARENT 22 5 10 14 26 30 85 49 53 60
REMARK Flexibility Score: inf
ROOT
ATOM      1  C   UNL A   1      31.624  28.046  27.070  1.00  0.00     0.117 C 
ENDROOT
BRANCH   1   2
ATOM      2  N   UNL A   1      31.157  27.122  26.056  1.00  0.00    -0.356 N 
ATOM      3  O   UNL A   1      31.678  25.150  27.133  1.00  0.00    -0.275 OA
ATOM      4  C   UNL A   1      31.204  25.747  26.171  1.00  0.00     0.224 C 
ATOM      5  H   UNL A   1      30.780  27.500  25.229  1.00  0.00     0.163 HD
BRANCH   4   6
ATOM      6  C   UNL A   1      30.598  25.013  24.979  1.00  0.00     0.137 C 
BRANCH   6   7
ATOM      7  C   UNL A   1      31.507  25.084  23.769  1.00  0.00    -0.015 A 
ATOM      8  C   UNL A   1      31.135  25.940  22.711  1.00  0.00     0.006 A 
ATOM      9  C   UNL A   1      32.658  24.277  23.634  1.00  0.00     0.042 A 
ATOM     10  C   UNL A   1      31.843  25.954  21.514  1.00  0.00     0.000 A 
ATOM     11  C   UNL A   1      33.349  24.304  22.412  1.00  0.00     0.026 A 
ATOM     12  C   UNL A   1      32.942  25.124  21.358  1.00  0.00     0.002 A 
BRANCH   9  13
ATOM     13  N   UNL A   1      33.141  23.519  24.722  1.00  0.00    -0.354 N 
ATOM     14  H   UNL A   1      32.761  23.760  25.596  1.00  0.00     0.167 HD
BRANCH  13  15
ATOM     15  C   UNL A   1      34.087  22.466  24.755  1.00  0.00     0.070 A 
ATOM     16  C   UNL A   1      35.428  22.778  25.091  1.00  0.00     0.065 A 
ATOM     17  C   UNL A   1      33.758  21.107  24.558  1.00  0.00     0.080 A 
ATOM     18  Cl  UNL A   1      35.927  24.425  25.293  1.00  0.00    -0.082 Cl
ATOM     19  C   UNL A   1      36.392  21.786  25.287  1.00  0.00     0.023 A 
ATOM     20  C   UNL A   1      34.745  20.115  24.788  1.00  0.00     0.015 A 
ATOM     21  C   UNL A   1      36.046  20.450  25.154  1.00  0.00     0.002 A 
BRANCH  17  22
ATOM     22  C   UNL A   1      32.412  20.610  24.077  1.00  0.00     0.418 C 
ATOM     23  F   UNL A   1      31.402  21.026  24.906  1.00  0.00    -0.166 F 
ATOM     24  F   UNL A   1      32.078  21.113  22.855  1.00  0.00    -0.166 F 
ATOM     25  F   UNL A   1      32.259  19.262  24.007  1.00  0.00    -0.166 F 
ENDBRANCH  17  22
ENDBRANCH  13  15
ENDBRANCH   9  13
ENDBRANCH   6   7
ENDBRANCH   4   6
ENDBRANCH   1   2
BRANCH   1  26
ATOM     26  C   UNL A   1      33.145  28.168  27.084  1.00  0.00     0.042 C 
BRANCH  26  27
ATOM     27  C   UNL A   1      33.729  29.205  26.125  1.00  0.00     0.118 C 
BRANCH  27  28
ATOM     28  N   UNL A   1      33.766  30.555  26.667  1.00  0.00    -0.352 N 
ATOM     29  C   UNL A   1      34.644  31.116  27.567  1.00  0.00     0.251 C 
ATOM     30  H   UNL A   1      33.058  31.157  26.343  1.00  0.00     0.163 HD
ATOM     31  O   UNL A   1      34.436  32.255  27.983  1.00  0.00    -0.269 OA
BRANCH  29  32
ATOM     32  C   UNL A   1      35.814  30.354  28.061  1.00  0.00     0.039 A 
ATOM     33  C   UNL A   1      36.975  30.325  27.282  1.00  0.00     0.014 A 
ATOM     34  C   UNL A   1      35.778  29.670  29.279  1.00  0.00     0.014 A 
ATOM     35  C   UNL A   1      38.121  29.682  27.760  1.00  0.00     0.010 A 
ATOM     36  C   UNL A   1      36.943  29.091  29.786  1.00  0.00     0.010 A 
ATOM     37  C   UNL A   1      38.130  29.097  29.038  1.00  0.00    -0.014 A 
BRANCH  37  38
ATOM     38  C   UNL A   1      39.381  28.538  29.620  1.00  0.00     0.031 A 
ATOM     39  C   UNL A   1      40.023  29.172  30.826  1.00  0.00     0.074 A 
ATOM     40  C   UNL A   1      39.993  27.505  29.006  1.00  0.00     0.049 A 
ATOM     41  N   UNL A   1      41.140  28.854  31.427  1.00  0.00    -0.248 NA
ATOM     42  C   UNL A   1      39.332  30.328  31.419  1.00  0.00     0.031 C 
ATOM     43  C   UNL A   1      39.518  26.845  27.787  1.00  0.00     0.029 A 
ATOM     44  N   UNL A   1      41.161  26.846  29.303  1.00  0.00    -0.354 N 
ATOM     45  C   UNL A   1      41.306  29.784  32.446  1.00  0.00     0.074 A 
ATOM     46  C   UNL A   1      40.186  30.699  32.363  1.00  0.00     0.031 C 
ATOM     47  C   UNL A   1      40.382  25.878  27.444  1.00  0.00     0.029 A 
ATOM     48  C   UNL A   1      41.491  25.870  28.391  1.00  0.00     0.049 A 
ATOM     49  H   UNL A   1      41.710  27.052  30.093  1.00  0.00     0.167 HD
ATOM     50  C   UNL A   1      42.284  29.860  33.380  1.00  0.00     0.034 A 
ATOM     51  C   UNL A   1      42.572  25.068  28.312  1.00  0.00     0.034 A 
ATOM     52  C   UNL A   1      43.381  28.934  33.481  1.00  0.00     0.049 A 
ATOM     53  C   UNL A   1      43.635  25.161  29.373  1.00  0.00     0.074 A 
ATOM     54  C   UNL A   1      44.373  28.878  34.445  1.00  0.00     0.029 A 
ATOM     55  N   UNL A   1      43.644  27.914  32.580  1.00  0.00    -0.354 N 
ATOM     56  N   UNL A   1      43.690  25.948  30.420  1.00  0.00    -0.248 NA
ATOM     57  C   UNL A   1      44.769  24.232  29.259  1.00  0.00     0.031 C 
ATOM     58  C   UNL A   1      45.257  27.848  34.106  1.00  0.00     0.029 A 
ATOM     59  C   UNL A   1      44.792  27.234  32.954  1.00  0.00     0.049 A 
ATOM     60  H   UNL A   1      43.095  27.703  31.790  1.00  0.00     0.167 HD
ATOM     61  C   UNL A   1      44.842  25.586  31.108  1.00  0.00     0.074 A 
ATOM     62  C   UNL A   1      45.444  24.494  30.371  1.00  0.00     0.031 C 
ATOM     63  C   UNL A   1      45.361  26.118  32.242  1.00  0.00     0.034 A 
BRANCH  50  64
ATOM     64  C   UNL A   1      42.196  30.965  34.403  1.00  0.00     0.023 A 
ATOM     65  C   UNL A   1      41.575  30.719  35.646  1.00  0.00     0.012 A 
ATOM     66  C   UNL A   1      42.785  32.222  34.165  1.00  0.00     0.148 A 
ATOM     67  C   UNL A   1      41.510  31.715  36.619  1.00  0.00     0.002 A 
ATOM     68  C   UNL A   1      42.758  33.195  35.158  1.00  0.00     0.091 A 
ATOM     69  F   UNL A   1      43.356  32.445  32.973  1.00  0.00    -0.205 F 
ATOM     70  C   UNL A   1      42.109  32.948  36.378  1.00  0.00     0.022 A 
BRANCH  68  71
ATOM     71  S   UNL A   1      43.573  34.786  34.980  1.00  0.00     0.127 S 
ATOM     72  O   UNL A   1      43.202  35.448  36.232  1.00  0.00    -0.237 OA
ATOM     73  O   UNL A   1      44.981  34.402  34.888  1.00  0.00    -0.237 OA
ATOM     74  O   UNL A   1      43.024  35.387  33.773  1.00  0.00    -0.744 OA
ENDBRANCH  68  71
ENDBRANCH  50  64
BRANCH  51  75
ATOM     75  C   UNL A   1      42.682  24.072  27.209  1.00  0.00     0.023 A 
ATOM     76  C   UNL A   1      43.425  24.391  26.055  1.00  0.00     0.012 A 
ATOM     77  C   UNL A   1      42.073  22.806  27.304  1.00  0.00     0.148 A 
ATOM     78  C   UNL A   1      43.528  23.482  25.001  1.00  0.00     0.002 A 
ATOM     79  C   UNL A   1      42.229  21.883  26.276  1.00  0.00     0.091 A 
ATOM     80  F   UNL A   1      41.362  22.525  28.405  1.00  0.00    -0.205 F 
ATOM     81  C   UNL A   1      42.940  22.225  25.116  1.00  0.00     0.022 A 
BRANCH  79  82
ATOM     82  S   UNL A   1      41.618  20.198  26.394  1.00  0.00     0.127 S 
ATOM     83  O   UNL A   1      40.178  20.390  26.243  1.00  0.00    -0.237 OA
ATOM     84  O   UNL A   1      42.279  19.560  25.254  1.00  0.00    -0.237 OA
ATOM     85  O   UNL A   1      42.059  19.709  27.693  1.00  0.00    -0.744 OA
ENDBRANCH  79  82
ENDBRANCH  51  75
BRANCH  63  86
ATOM     86  C   UNL A   1      46.626  25.507  32.788  1.00  0.00     0.023 A 
ATOM     87  C   UNL A   1      47.882  25.980  32.359  1.00  0.00     0.012 A 
ATOM     88  C   UNL A   1      46.567  24.506  33.779  1.00  0.00     0.148 A 
ATOM     89  C   UNL A   1      49.059  25.440  32.877  1.00  0.00     0.002 A 
ATOM     90  C   UNL A   1      47.743  24.010  34.330  1.00  0.00     0.091 A 
ATOM     91  F   UNL A   1      45.365  24.056  34.163  1.00  0.00    -0.205 F 
ATOM     92  C   UNL A   1      48.989  24.466  33.870  1.00  0.00     0.022 A 
BRANCH  90  93
ATOM     93  S   UNL A   1      47.752  22.826  35.681  1.00  0.00     0.127 S 
ATOM     94  O   UNL A   1      47.115  21.664  35.062  1.00  0.00    -0.237 OA
ATOM     95  O   UNL A   1      49.183  22.669  35.945  1.00  0.00    -0.237 OA
ATOM     96  O   UNL A   1      47.001  23.445  36.764  1.00  0.00    -0.744 OA
ENDBRANCH  90  93
ENDBRANCH  63  86
ENDBRANCH  37  38
ENDBRANCH  29  32
ENDBRANCH  27  28
ENDBRANCH  26  27
ENDBRANCH   1  26
TORSDOF 17
ENDMDL
MODEL 3
REMARK VINA RESULT:     -11.5      2.175      2.642
REMARK SMILES O=C(Cc1ccccc1Nc1c(Cl)cccc1C(F)(F)F)NCCCNC(=O)c1ccc(-c2c3nc(c(-c4cccc(S(=O)(=O)[O-])c4F)c4ccc([nH]4)c(-c4cccc(S(=O)(=O)[O-])c4F)c4nc(c(-c5cccc(S(=O)(=O)[O-])c5F)c5ccc2[nH]5)C=C4)C=C3)cc1
REMARK SMILES IDX 23 1 22 2 1 3 2 4 3 6 4 7 5 8 9 9 6 10 8 11 7 12 10 13 11 15
REMARK SMILES IDX 12 16 17 17 13 18 14 19 16 20 15 21 18 22 19 23 20 24 21 25
REMARK SMILES IDX 24 26 25 27 26 28 27 29 28 31 29 32 30 33 91 34 31 35 90 36
REMARK SMILES IDX 32 37 33 38 34 39 84 40 35 41 89 42 83 43 85 44 36 45 88 46
REMARK SMILES IDX 82 47 81 48 37 50 69 51 49 52 68 53 50 54 53 55 67 56 86 57
REMARK SMILES IDX 51 58 52 59 66 61 87 62 54 63 38 64 39 65 47 66 40 67 42 68
REMARK SMILES IDX 48 69 41 70 43 71 44 72 45 73 46 74 70 75 71 76 79 77 72 78
REMARK SMILES IDX 74 79 80 80 73 81 75 82 76 83 77 84 78 85 55 86 56 87 64 88
REMARK SMILES IDX 57 89 59 90 65 91 58 92 60 93 61 94 62 95 63 96
REMARK H PARENT 22 5 10 14 26 30 85 49 53 60
REMARK Flexibility Score: inf
ROOT
ATOM      1  C   UNL A   1      37.398  21.687  25.319  1.00  0.00     0.117 C 
ENDROOT
BRANCH   1   2
ATOM      2  N   UNL A   1      36.069  21.161  25.557  1.00  0.00    -0.356 N 
ATOM      3  O   UNL A   1      35.155  23.010  26.590  1.00  0.00    -0.275 OA
ATOM      4  C   UNL A   1      35.046  21.866  26.157  1.00  0.00     0.224 C 
ATOM      5  H   UNL A   1      35.883  20.238  25.269  1.00  0.00     0.163 HD
BRANCH   4   6
ATOM      6  C   UNL A   1      33.733  21.092  26.235  1.00  0.00     0.137 C 
BRANCH   6   7
ATOM      7  C   UNL A   1      33.040  21.047  24.888  1.00  0.00    -0.015 A 
ATOM      8  C   UNL A   1      32.769  19.782  24.325  1.00  0.00     0.006 A 
ATOM      9  C   UNL A   1      32.730  22.212  24.154  1.00  0.00     0.042 A 
ATOM     10  C   UNL A   1      32.264  19.662  23.035  1.00  0.00     0.000 A 
ATOM     11  C   UNL A   1      32.229  22.062  22.850  1.00  0.00     0.026 A 
ATOM     12  C   UNL A   1      32.008  20.803  22.290  1.00  0.00     0.002 A 
BRANCH   9  13
ATOM     13  N   UNL A   1      32.853  23.491  24.738  1.00  0.00    -0.354 N 
ATOM     14  H   UNL A   1      33.723  23.670  25.161  1.00  0.00     0.167 HD
BRANCH  13  15
ATOM     15  C   UNL A   1      31.923  24.556  24.813  1.00  0.00     0.070 A 
ATOM     16  C   UNL A   1      32.143  25.696  24.000  1.00  0.00     0.065 A 
ATOM     17  C   UNL A   1      30.741  24.516  25.584  1.00  0.00     0.080 A 
ATOM     18  Cl  UNL A   1      33.595  25.849  23.067  1.00  0.00    -0.082 Cl
ATOM     19  C   UNL A   1      31.205  26.727  23.902  1.00  0.00     0.023 A 
ATOM     20  C   UNL A   1      29.792  25.560  25.451  1.00  0.00     0.015 A 
ATOM     21  C   UNL A   1      30.018  26.651  24.615  1.00  0.00     0.002 A 
BRANCH  17  22
ATOM     22  C   UNL A   1      30.411  23.438  26.594  1.00  0.00     0.418 C 
ATOM     23  F   UNL A   1      30.177  22.235  25.980  1.00  0.00    -0.166 F 
ATOM     24  F   UNL A   1      31.445  23.190  27.447  1.00  0.00    -0.166 F 
ATOM     25  F   UNL A   1      29.307  23.649  27.358  1.00  0.00    -0.166 F 
ENDBRANCH  17  22
ENDBRANCH  13  15
ENDBRANCH   9  13
ENDBRANCH   6   7
ENDBRANCH   4   6
ENDBRANCH   1   2
BRANCH   1  26
ATOM     26  C   UNL A   1      38.429  20.579  25.120  1.00  0.00     0.042 C 
BRANCH  26  27
ATOM     27  C   UNL A   1      39.392  20.360  26.286  1.00  0.00     0.118 C 
BRANCH  27  28
ATOM     28  N   UNL A   1      40.384  19.323  26.045  1.00  0.00    -0.352 N 
ATOM     29  C   UNL A   1      41.757  19.413  26.008  1.00  0.00     0.251 C 
ATOM     30  H   UNL A   1      40.020  18.423  25.883  1.00  0.00     0.163 HD
ATOM     31  O   UNL A   1      42.419  18.430  25.677  1.00  0.00    -0.269 OA
BRANCH  29  32
ATOM     32  C   UNL A   1      42.443  20.686  26.330  1.00  0.00     0.039 A 
ATOM     33  C   UNL A   1      42.882  21.497  25.279  1.00  0.00     0.014 A 
ATOM     34  C   UNL A   1      42.657  21.087  27.652  1.00  0.00     0.014 A 
ATOM     35  C   UNL A   1      43.460  22.741  25.550  1.00  0.00     0.010 A 
ATOM     36  C   UNL A   1      43.168  22.359  27.919  1.00  0.00     0.010 A 
ATOM     37  C   UNL A   1      43.566  23.205  26.873  1.00  0.00    -0.014 A 
BRANCH  37  38
ATOM     38  C   UNL A   1      44.042  24.583  27.170  1.00  0.00     0.031 A 
ATOM     39  C   UNL A   1      43.095  25.633  27.689  1.00  0.00     0.074 A 
ATOM     40  C   UNL A   1      45.318  24.918  26.887  1.00  0.00     0.049 A 
ATOM     41  N   UNL A   1      43.325  26.895  27.945  1.00  0.00    -0.248 NA
ATOM     42  C   UNL A   1      41.705  25.217  27.928  1.00  0.00     0.031 C 
ATOM     43  C   UNL A   1      46.320  24.017  26.312  1.00  0.00     0.029 A 
ATOM     44  N   UNL A   1      45.984  26.113  27.017  1.00  0.00    -0.354 N 
ATOM     45  C   UNL A   1      42.108  27.433  28.343  1.00  0.00     0.074 A 
ATOM     46  C   UNL A   1      41.134  26.365  28.267  1.00  0.00     0.031 C 
ATOM     47  C   UNL A   1      47.470  24.688  26.141  1.00  0.00     0.029 A 
ATOM     48  C   UNL A   1      47.281  26.074  26.557  1.00  0.00     0.049 A 
ATOM     49  H   UNL A   1      45.574  26.920  27.402  1.00  0.00     0.167 HD
ATOM     50  C   UNL A   1      41.827  28.692  28.758  1.00  0.00     0.034 A 
ATOM     51  C   UNL A   1      48.211  27.045  26.462  1.00  0.00     0.034 A 
ATOM     52  C   UNL A   1      42.802  29.747  28.860  1.00  0.00     0.049 A 
ATOM     53  C   UNL A   1      47.878  28.430  26.946  1.00  0.00     0.074 A 
ATOM     54  C   UNL A   1      42.630  31.030  29.351  1.00  0.00     0.029 A 
ATOM     55  N   UNL A   1      44.123  29.650  28.452  1.00  0.00    -0.354 N 
ATOM     56  N   UNL A   1      46.762  28.877  27.468  1.00  0.00    -0.248 NA
ATOM     57  C   UNL A   1      48.946  29.438  26.859  1.00  0.00     0.031 C 
ATOM     58  C   UNL A   1      43.838  31.721  29.205  1.00  0.00     0.029 A 
ATOM     59  C   UNL A   1      44.774  30.856  28.662  1.00  0.00     0.049 A 
ATOM     60  H   UNL A   1      44.537  28.844  28.069  1.00  0.00     0.167 HD
ATOM     61  C   UNL A   1      47.002  30.204  27.804  1.00  0.00     0.074 A 
ATOM     62  C   UNL A   1      48.378  30.483  27.447  1.00  0.00     0.031 C 
ATOM     63  C   UNL A   1      46.156  31.114  28.347  1.00  0.00     0.034 A 
BRANCH  50  64
ATOM     64  C   UNL A   1      40.409  28.997  29.172  1.00  0.00     0.023 A 
ATOM     65  C   UNL A   1      39.454  29.342  28.193  1.00  0.00     0.012 A 
ATOM     66  C   UNL A   1      40.005  28.876  30.516  1.00  0.00     0.148 A 
ATOM     67  C   UNL A   1      38.131  29.597  28.548  1.00  0.00     0.002 A 
ATOM     68  C   UNL A   1      38.673  29.085  30.856  1.00  0.00     0.091 A 
ATOM     69  F   UNL A   1      40.929  28.564  31.436  1.00  0.00    -0.205 F 
ATOM     70  C   UNL A   1      37.739  29.459  29.877  1.00  0.00     0.022 A 
BRANCH  68  71
ATOM     71  S   UNL A   1      38.049  28.852  32.525  1.00  0.00     0.127 S 
ATOM     72  O   UNL A   1      38.931  29.730  33.294  1.00  0.00    -0.237 OA
ATOM     73  O   UNL A   1      36.670  29.325  32.405  1.00  0.00    -0.237 OA
ATOM     74  O   UNL A   1      38.183  27.431  32.810  1.00  0.00    -0.744 OA
ENDBRANCH  68  71
ENDBRANCH  50  64
BRANCH  51  75
ATOM     75  C   UNL A   1      49.566  26.730  25.927  1.00  0.00     0.023 A 
ATOM     76  C   UNL A   1      50.477  26.007  26.723  1.00  0.00     0.012 A 
ATOM     77  C   UNL A   1      49.951  27.126  24.631  1.00  0.00     0.148 A 
ATOM     78  C   UNL A   1      51.758  25.715  26.251  1.00  0.00     0.002 A 
ATOM     79  C   UNL A   1      51.206  26.781  24.146  1.00  0.00     0.091 A 
ATOM     80  F   UNL A   1      49.074  27.823  23.895  1.00  0.00    -0.205 F 
ATOM     81  C   UNL A   1      52.118  26.092  24.961  1.00  0.00     0.022 A 
BRANCH  79  82
ATOM     82  S   UNL A   1      51.708  27.109  22.454  1.00  0.00     0.127 S 
ATOM     83  O   UNL A   1      52.869  26.233  22.310  1.00  0.00    -0.237 OA
ATOM     84  O   UNL A   1      50.523  26.691  21.703  1.00  0.00    -0.237 OA
ATOM     85  O   UNL A   1      51.983  28.538  22.393  1.00  0.00    -0.744 OA
ENDBRANCH  79  82
ENDBRANCH  51  75
BRANCH  63  86
ATOM     86  C   UNL A   1      46.696  32.491  28.632  1.00  0.00     0.023 A 
ATOM     87  C   UNL A   1      47.241  32.789  29.897  1.00  0.00     0.012 A 
ATOM     88  C   UNL A   1      46.725  33.473  27.620  1.00  0.00     0.148 A 
ATOM     89  C   UNL A   1      47.768  34.052  30.164  1.00  0.00     0.002 A 
ATOM     90  C   UNL A   1      47.301  34.712  27.876  1.00  0.00     0.091 A 
ATOM     91  F   UNL A   1      46.188  33.178  26.428  1.00  0.00    -0.205 F 
ATOM     92  C   UNL A   1      47.810  35.007  29.151  1.00  0.00     0.022 A 
BRANCH  90  93
ATOM     93  S   UNL A   1      47.488  35.970  26.608  1.00  0.00     0.127 S 
ATOM     94  O   UNL A   1      48.239  37.002  27.322  1.00  0.00    -0.237 OA
ATOM     95  O   UNL A   1      48.251  35.261  25.580  1.00  0.00    -0.237 OA
ATOM     96  O   UNL A   1      46.138  36.345  26.210  1.00  0.00    -0.744 OA
ENDBRANCH  90  93
ENDBRANCH  63  86
ENDBRANCH  37  38
ENDBRANCH  29  32
ENDBRANCH  27  28
ENDBRANCH  26  27
ENDBRANCH   1  26
TORSDOF 17
ENDMDL
