MODEL 1
REMARK VINA RESULT:     -12.4      0.000      0.000
REMARK SMILES Cc1ccc([C@@H](CC(=O)NCCCNC(=O)c2ccc(-c3c4nc(c(-c5cccc(S(=O)(=O)[O-])c5F)c5ccc([nH]5)c(-c5cccc(S(=O)(=O)[O-])c5F)c5nc(c(-c6cccc(S(=O)(=O)[O-])c6F)c6ccc3[nH]6)C=C5)C=C4)cc2)NC(=O)c2ccc(OC(F)F)cc2)cc1
REMARK SMILES IDX 11 1 10 2 8 3 9 4 7 6 6 7 5 8 1 9 2 10 3 11 94 12 4 13 93 14
REMARK SMILES IDX 80 15 81 16 82 18 83 19 84 20 92 21 85 22 91 23 86 24 87 25
REMARK SMILES IDX 88 26 89 27 90 28 12 29 13 30 14 31 15 32 16 34 17 35 18 36
REMARK SMILES IDX 79 37 19 38 78 39 20 40 21 41 22 42 72 43 23 44 77 45 71 46
REMARK SMILES IDX 73 47 24 48 76 49 70 50 69 51 25 53 57 54 37 55 56 56 38 57
REMARK SMILES IDX 41 58 55 59 74 60 39 61 40 62 54 64 75 65 42 66 26 67 27 68
REMARK SMILES IDX 35 69 28 70 30 71 36 72 29 73 31 74 32 75 33 76 34 77 58 78
REMARK SMILES IDX 59 79 67 80 60 81 62 82 68 83 61 84 63 85 64 86 65 87 66 88
REMARK SMILES IDX 43 89 44 90 52 91 45 92 47 93 53 94 46 95 48 96 49 97 50 98
REMARK SMILES IDX 51 99
REMARK H PARENT 10 5 80 17 14 33 73 52 41 63
REMARK Flexibility Score: inf
ROOT
ATOM      1  C   UNL A   1      37.703  22.768  25.908  1.00  0.00     0.117 C 
ENDROOT
BRANCH   1   2
ATOM      2  N   UNL A   1      37.417  22.965  24.496  1.00  0.00    -0.356 N 
ATOM      3  C   UNL A   1      36.233  23.159  23.856  1.00  0.00     0.222 C 
ATOM      4  O   UNL A   1      36.192  22.952  22.642  1.00  0.00    -0.275 OA
ATOM      5  H   UNL A   1      38.206  22.956  23.908  1.00  0.00     0.163 HD
BRANCH   3   6
ATOM      6  C   UNL A   1      35.055  23.759  24.583  1.00  0.00     0.129 C 
BRANCH   6   7
ATOM      7  C   UNL A   1      33.678  23.731  23.884  1.00  0.00     0.122 C 
BRANCH   7   8
ATOM      8  C   UNL A   1      33.168  22.292  23.849  1.00  0.00    -0.025 A 
ATOM      9  C   UNL A   1      32.586  18.034  23.439  1.00  0.00     0.044 C 
ATOM     10  C   UNL A   1      32.679  19.517  23.644  1.00  0.00    -0.051 A 
ATOM     11  C   UNL A   1      32.174  20.401  22.690  1.00  0.00     0.004 A 
ATOM     12  C   UNL A   1      33.365  20.030  24.746  1.00  0.00     0.004 A 
ATOM     13  C   UNL A   1      32.400  21.776  22.800  1.00  0.00     0.006 A 
ATOM     14  C   UNL A   1      33.600  21.401  24.851  1.00  0.00     0.006 A 
ENDBRANCH   7   8
BRANCH   7  15
ATOM     15  N   UNL A   1      33.581  24.401  22.591  1.00  0.00    -0.345 N 
ATOM     16  C   UNL A   1      32.862  25.516  22.237  1.00  0.00     0.251 C 
ATOM     17  H   UNL A   1      34.110  23.995  21.866  1.00  0.00     0.164 HD
ATOM     18  O   UNL A   1      32.568  25.714  21.061  1.00  0.00    -0.269 OA
BRANCH  16  19
ATOM     19  C   UNL A   1      32.438  26.500  23.255  1.00  0.00     0.040 A 
ATOM     20  C   UNL A   1      33.319  27.509  23.652  1.00  0.00     0.017 A 
ATOM     21  C   UNL A   1      31.216  26.358  23.911  1.00  0.00     0.017 A 
ATOM     22  C   UNL A   1      32.941  28.404  24.658  1.00  0.00     0.047 A 
ATOM     23  C   UNL A   1      30.830  27.267  24.897  1.00  0.00     0.047 A 
ATOM     24  C   UNL A   1      31.686  28.301  25.272  1.00  0.00     0.126 A 
BRANCH  24  25
ATOM     25  O   UNL A   1      31.435  29.240  26.232  1.00  0.00    -0.435 OA
BRANCH  25  26
ATOM     26  C   UNL A   1      31.974  30.543  26.046  1.00  0.00     0.542 C 
ATOM     27  F   UNL A   1      31.044  31.358  25.492  1.00  0.00    -0.167 F 
ATOM     28  F   UNL A   1      32.353  31.071  27.234  1.00  0.00    -0.167 F 
ENDBRANCH  25  26
ENDBRANCH  24  25
ENDBRANCH  16  19
ENDBRANCH   7  15
ENDBRANCH   6   7
ENDBRANCH   3   6
ENDBRANCH   1   2
BRANCH   1  29
ATOM     29  C   UNL A   1      38.854  21.783  26.028  1.00  0.00     0.042 C 
BRANCH  29  30
ATOM     30  C   UNL A   1      40.216  22.363  25.685  1.00  0.00     0.118 C 
BRANCH  30  31
ATOM     31  N   UNL A   1      41.122  22.540  26.823  1.00  0.00    -0.352 N 
ATOM     32  C   UNL A   1      41.123  23.547  27.792  1.00  0.00     0.251 C 
ATOM     33  H   UNL A   1      41.825  21.858  26.918  1.00  0.00     0.163 HD
ATOM     34  O   UNL A   1      41.770  23.452  28.809  1.00  0.00    -0.269 OA
BRANCH  32  35
ATOM     35  C   UNL A   1      40.245  24.712  27.555  1.00  0.00     0.039 A 
ATOM     36  C   UNL A   1      40.699  25.638  26.611  1.00  0.00     0.014 A 
ATOM     37  C   UNL A   1      39.379  25.068  28.584  1.00  0.00     0.014 A 
ATOM     38  C   UNL A   1      40.595  26.988  26.910  1.00  0.00     0.010 A 
ATOM     39  C   UNL A   1      39.321  26.409  28.902  1.00  0.00     0.010 A 
ATOM     40  C   UNL A   1      40.047  27.344  28.134  1.00  0.00    -0.014 A 
BRANCH  40  41
ATOM     41  C   UNL A   1      40.258  28.627  28.791  1.00  0.00     0.031 A 
ATOM     42  C   UNL A   1      39.263  29.689  28.553  1.00  0.00     0.074 A 
ATOM     43  C   UNL A   1      41.147  28.742  29.809  1.00  0.00     0.049 A 
ATOM     44  N   UNL A   1      39.302  30.843  29.116  1.00  0.00    -0.248 NA
ATOM     45  C   UNL A   1      38.154  29.537  27.617  1.00  0.00     0.031 C 
ATOM     46  C   UNL A   1      41.071  29.685  30.925  1.00  0.00     0.029 A 
ATOM     47  N   UNL A   1      42.425  28.181  29.944  1.00  0.00    -0.354 N 
ATOM     48  C   UNL A   1      38.111  31.472  28.852  1.00  0.00     0.074 A 
ATOM     49  C   UNL A   1      37.484  30.673  27.831  1.00  0.00     0.031 C 
ATOM     50  C   UNL A   1      42.294  29.857  31.443  1.00  0.00     0.029 A 
ATOM     51  C   UNL A   1      43.222  29.168  30.572  1.00  0.00     0.049 A 
ATOM     52  H   UNL A   1      42.710  27.283  29.657  1.00  0.00     0.167 HD
ATOM     53  C   UNL A   1      37.771  32.535  29.628  1.00  0.00     0.034 A 
ATOM     54  C   UNL A   1      44.344  29.727  30.029  1.00  0.00     0.034 A 
ATOM     55  C   UNL A   1      38.936  33.020  30.383  1.00  0.00     0.049 A 
ATOM     56  C   UNL A   1      44.266  31.243  29.862  1.00  0.00     0.074 A 
ATOM     57  C   UNL A   1      39.385  32.956  31.691  1.00  0.00     0.029 A 
ATOM     58  N   UNL A   1      39.998  33.507  29.645  1.00  0.00    -0.354 N 
ATOM     59  N   UNL A   1      43.294  31.994  30.306  1.00  0.00    -0.248 NA
ATOM     60  C   UNL A   1      45.236  32.014  29.080  1.00  0.00     0.031 C 
ATOM     61  C   UNL A   1      40.757  33.371  31.703  1.00  0.00     0.029 A 
ATOM     62  C   UNL A   1      41.123  33.716  30.413  1.00  0.00     0.049 A 
ATOM     63  H   UNL A   1      39.954  33.686  28.677  1.00  0.00     0.167 HD
ATOM     64  C   UNL A   1      43.366  33.227  29.705  1.00  0.00     0.074 A 
ATOM     65  C   UNL A   1      44.639  33.216  29.005  1.00  0.00     0.031 C 
ATOM     66  C   UNL A   1      42.344  34.136  29.733  1.00  0.00     0.034 A 
BRANCH  53  67
ATOM     67  C   UNL A   1      36.386  33.120  29.797  1.00  0.00     0.023 A 
ATOM     68  C   UNL A   1      35.670  33.406  28.611  1.00  0.00     0.012 A 
ATOM     69  C   UNL A   1      35.763  33.514  31.006  1.00  0.00     0.148 A 
ATOM     70  C   UNL A   1      34.436  34.062  28.616  1.00  0.00     0.002 A 
ATOM     71  C   UNL A   1      34.509  34.130  31.016  1.00  0.00     0.091 A 
ATOM     72  F   UNL A   1      36.397  33.376  32.169  1.00  0.00    -0.205 F 
ATOM     73  C   UNL A   1      33.850  34.419  29.821  1.00  0.00     0.022 A 
BRANCH  71  74
ATOM     74  S   UNL A   1      33.682  34.618  32.543  1.00  0.00     0.127 S 
ATOM     75  O   UNL A   1      33.614  33.350  33.269  1.00  0.00    -0.237 OA
ATOM     76  O   UNL A   1      34.614  35.593  33.108  1.00  0.00    -0.237 OA
ATOM     77  O   UNL A   1      32.389  35.172  32.157  1.00  0.00    -0.744 OA
ENDBRANCH  71  74
ENDBRANCH  53  67
BRANCH  54  78
ATOM     78  C   UNL A   1      45.065  28.801  29.113  1.00  0.00     0.023 A 
ATOM     79  C   UNL A   1      45.715  27.696  29.710  1.00  0.00     0.012 A 
ATOM     80  C   UNL A   1      44.740  28.753  27.748  1.00  0.00     0.148 A 
ATOM     81  C   UNL A   1      45.886  26.507  29.001  1.00  0.00     0.002 A 
ATOM     82  C   UNL A   1      44.907  27.560  27.051  1.00  0.00     0.091 A 
ATOM     83  F   UNL A   1      44.174  29.827  27.186  1.00  0.00    -0.205 F 
ATOM     84  C   UNL A   1      45.440  26.426  27.686  1.00  0.00     0.022 A 
BRANCH  82  85
ATOM     85  S   UNL A   1      44.285  27.359  25.377  1.00  0.00     0.127 S 
ATOM     86  O   UNL A   1      45.427  27.805  24.587  1.00  0.00    -0.237 OA
ATOM     87  O   UNL A   1      44.013  25.923  25.324  1.00  0.00    -0.237 OA
ATOM     88  O   UNL A   1      43.093  28.191  25.322  1.00  0.00    -0.744 OA
ENDBRANCH  82  85
ENDBRANCH  54  78
BRANCH  66  89
ATOM     89  C   UNL A   1      42.413  35.504  29.075  1.00  0.00     0.023 A 
ATOM     90  C   UNL A   1      41.953  35.682  27.756  1.00  0.00     0.012 A 
ATOM     91  C   UNL A   1      43.072  36.608  29.676  1.00  0.00     0.148 A 
ATOM     92  C   UNL A   1      42.114  36.898  27.079  1.00  0.00     0.002 A 
ATOM     93  C   UNL A   1      43.328  37.774  28.963  1.00  0.00     0.091 A 
ATOM     94  F   UNL A   1      43.403  36.561  30.971  1.00  0.00    -0.205 F 
ATOM     95  C   UNL A   1      42.826  37.934  27.671  1.00  0.00     0.022 A 
BRANCH  93  96
ATOM     96  S   UNL A   1      44.415  39.065  29.591  1.00  0.00     0.127 S 
ATOM     97  O   UNL A   1      44.481  39.979  28.449  1.00  0.00    -0.237 OA
ATOM     98  O   UNL A   1      43.653  39.569  30.731  1.00  0.00    -0.237 OA
ATOM     99  O   UNL A   1      45.673  38.407  29.907  1.00  0.00    -0.744 OA
ENDBRANCH  93  96
ENDBRANCH  66  89
ENDBRANCH  40  41
ENDBRANCH  32  35
ENDBRANCH  30  31
ENDBRANCH  29  30
ENDBRANCH   1  29
TORSDOF 19
ENDMDL
MODEL 2
REMARK VINA RESULT:     -12.2      2.946      4.557
REMARK SMILES Cc1ccc([C@@H](CC(=O)NCCCNC(=O)c2ccc(-c3c4nc(c(-c5cccc(S(=O)(=O)[O-])c5F)c5ccc([nH]5)c(-c5cccc(S(=O)(=O)[O-])c5F)c5nc(c(-c6cccc(S(=O)(=O)[O-])c6F)c6ccc3[nH]6)C=C5)C=C4)cc2)NC(=O)c2ccc(OC(F)F)cc2)cc1
REMARK SMILES IDX 11 1 10 2 8 3 9 4 7 6 6 7 5 8 1 9 2 10 3 11 94 12 4 13 93 14
REMARK SMILES IDX 80 15 81 16 82 18 83 19 84 20 92 21 85 22 91 23 86 24 87 25
REMARK SMILES IDX 88 26 89 27 90 28 12 29 13 30 14 31 15 32 16 34 17 35 18 36
REMARK SMILES IDX 79 37 19 38 78 39 20 40 21 41 22 42 72 43 23 44 77 45 71 46
REMARK SMILES IDX 73 47 24 48 76 49 70 50 69 51 25 53 57 54 37 55 56 56 38 57
REMARK SMILES IDX 41 58 55 59 74 60 39 61 40 62 54 64 75 65 42 66 26 67 27 68
REMARK SMILES IDX 35 69 28 70 30 71 36 72 29 73 31 74 32 75 33 76 34 77 58 78
REMARK SMILES IDX 59 79 67 80 60 81 62 82 68 83 61 84 63 85 64 86 65 87 66 88
REMARK SMILES IDX 43 89 44 90 52 91 45 92 47 93 53 94 46 95 48 96 49 97 50 98
REMARK SMILES IDX 51 99
REMARK H PARENT 10 5 80 17 14 33 73 52 41 63
REMARK Flexibility Score: inf
ROOT
ATOM      1  C   UNL A   1      37.611  22.491  25.575  1.00  0.00     0.117 C 
ENDROOT
BRANCH   1   2
ATOM      2  N   UNL A   1      37.231  22.746  24.194  1.00  0.00    -0.356 N 
ATOM      3  C   UNL A   1      36.126  23.351  23.682  1.00  0.00     0.222 C 
ATOM      4  O   UNL A   1      35.851  23.144  22.499  1.00  0.00    -0.275 OA
ATOM      5  H   UNL A   1      37.876  22.429  23.522  1.00  0.00     0.163 HD
BRANCH   3   6
ATOM      6  C   UNL A   1      35.357  24.364  24.493  1.00  0.00     0.129 C 
BRANCH   6   7
ATOM      7  C   UNL A   1      33.815  24.342  24.413  1.00  0.00     0.122 C 
BRANCH   7   8
ATOM      8  C   UNL A   1      33.338  25.600  23.689  1.00  0.00    -0.025 A 
ATOM      9  C   UNL A   1      31.536  29.318  22.441  1.00  0.00     0.044 C 
ATOM     10  C   UNL A   1      32.234  28.032  22.772  1.00  0.00    -0.051 A 
ATOM     11  C   UNL A   1      31.713  26.810  22.347  1.00  0.00     0.004 A 
ATOM     12  C   UNL A   1      33.360  28.038  23.596  1.00  0.00     0.004 A 
ATOM     13  C   UNL A   1      32.269  25.605  22.787  1.00  0.00     0.006 A 
ATOM     14  C   UNL A   1      33.910  26.837  24.043  1.00  0.00     0.006 A 
ENDBRANCH   7   8
BRANCH   7  15
ATOM     15  N   UNL A   1      33.094  24.094  25.658  1.00  0.00    -0.345 N 
ATOM     16  C   UNL A   1      32.517  22.935  26.116  1.00  0.00     0.251 C 
ATOM     17  H   UNL A   1      33.010  24.870  26.257  1.00  0.00     0.164 HD
ATOM     18  O   UNL A   1      31.625  22.980  26.960  1.00  0.00    -0.269 OA
BRANCH  16  19
ATOM     19  C   UNL A   1      32.959  21.617  25.613  1.00  0.00     0.040 A 
ATOM     20  C   UNL A   1      34.270  21.194  25.841  1.00  0.00     0.017 A 
ATOM     21  C   UNL A   1      32.120  20.847  24.809  1.00  0.00     0.017 A 
ATOM     22  C   UNL A   1      34.708  19.974  25.315  1.00  0.00     0.047 A 
ATOM     23  C   UNL A   1      32.549  19.618  24.306  1.00  0.00     0.047 A 
ATOM     24  C   UNL A   1      33.843  19.169  24.562  1.00  0.00     0.126 A 
BRANCH  24  25
ATOM     25  O   UNL A   1      34.388  17.999  24.113  1.00  0.00    -0.435 OA
BRANCH  25  26
ATOM     26  C   UNL A   1      34.014  16.796  24.772  1.00  0.00     0.542 C 
ATOM     27  F   UNL A   1      32.893  16.284  24.208  1.00  0.00    -0.167 F 
ATOM     28  F   UNL A   1      35.003  15.876  24.671  1.00  0.00    -0.167 F 
ENDBRANCH  25  26
ENDBRANCH  24  25
ENDBRANCH  16  19
ENDBRANCH   7  15
ENDBRANCH   6   7
ENDBRANCH   3   6
ENDBRANCH   1   2
BRANCH   1  29
ATOM     29  C   UNL A   1      38.775  21.516  25.577  1.00  0.00     0.042 C 
BRANCH  29  30
ATOM     30  C   UNL A   1      39.721  21.667  26.756  1.00  0.00     0.118 C 
BRANCH  30  31
ATOM     31  N   UNL A   1      41.077  22.105  26.413  1.00  0.00    -0.352 N 
ATOM     32  C   UNL A   1      41.618  23.392  26.455  1.00  0.00     0.251 C 
ATOM     33  H   UNL A   1      41.690  21.395  26.112  1.00  0.00     0.163 HD
ATOM     34  O   UNL A   1      42.808  23.586  26.375  1.00  0.00    -0.269 OA
BRANCH  32  35
ATOM     35  C   UNL A   1      40.677  24.513  26.668  1.00  0.00     0.039 A 
ATOM     36  C   UNL A   1      40.925  25.668  25.922  1.00  0.00     0.014 A 
ATOM     37  C   UNL A   1      40.002  24.546  27.884  1.00  0.00     0.014 A 
ATOM     38  C   UNL A   1      40.836  26.896  26.561  1.00  0.00     0.010 A 
ATOM     39  C   UNL A   1      39.963  25.764  28.531  1.00  0.00     0.010 A 
ATOM     40  C   UNL A   1      40.509  26.906  27.910  1.00  0.00    -0.014 A 
BRANCH  40  41
ATOM     41  C   UNL A   1      40.798  28.006  28.820  1.00  0.00     0.031 A 
ATOM     42  C   UNL A   1      39.881  29.161  28.810  1.00  0.00     0.074 A 
ATOM     43  C   UNL A   1      41.678  27.843  29.840  1.00  0.00     0.049 A 
ATOM     44  N   UNL A   1      39.991  30.166  29.602  1.00  0.00    -0.248 NA
ATOM     45  C   UNL A   1      38.778  29.285  27.864  1.00  0.00     0.031 C 
ATOM     46  C   UNL A   1      41.650  28.535  31.129  1.00  0.00     0.029 A 
ATOM     47  N   UNL A   1      42.913  27.179  29.854  1.00  0.00    -0.354 N 
ATOM     48  C   UNL A   1      38.849  30.917  29.477  1.00  0.00     0.074 A 
ATOM     49  C   UNL A   1      38.184  30.395  28.311  1.00  0.00     0.031 C 
ATOM     50  C   UNL A   1      42.874  28.510  31.671  1.00  0.00     0.029 A 
ATOM     51  C   UNL A   1      43.766  27.956  30.675  1.00  0.00     0.049 A 
ATOM     52  H   UNL A   1      43.140  26.344  29.386  1.00  0.00     0.167 HD
ATOM     53  C   UNL A   1      38.571  31.816  30.457  1.00  0.00     0.034 A 
ATOM     54  C   UNL A   1      44.931  28.536  30.261  1.00  0.00     0.034 A 
ATOM     55  C   UNL A   1      39.756  32.050  31.297  1.00  0.00     0.049 A 
ATOM     56  C   UNL A   1      44.958  30.055  30.416  1.00  0.00     0.074 A 
ATOM     57  C   UNL A   1      40.180  31.684  32.563  1.00  0.00     0.029 A 
ATOM     58  N   UNL A   1      40.858  32.606  30.677  1.00  0.00    -0.354 N 
ATOM     59  N   UNL A   1      44.034  30.762  31.007  1.00  0.00    -0.248 NA
ATOM     60  C   UNL A   1      45.990  30.903  29.811  1.00  0.00     0.031 C 
ATOM     61  C   UNL A   1      41.576  31.990  32.661  1.00  0.00     0.029 A 
ATOM     62  C   UNL A   1      41.984  32.571  31.472  1.00  0.00     0.049 A 
ATOM     63  H   UNL A   1      40.841  32.986  29.769  1.00  0.00     0.167 HD
ATOM     64  C   UNL A   1      44.199  32.086  30.678  1.00  0.00     0.074 A 
ATOM     65  C   UNL A   1      45.477  32.132  29.990  1.00  0.00     0.031 C 
ATOM     66  C   UNL A   1      43.241  33.038  30.895  1.00  0.00     0.034 A 
BRANCH  53  67
ATOM     67  C   UNL A   1      37.227  32.448  30.745  1.00  0.00     0.023 A 
ATOM     68  C   UNL A   1      36.762  32.369  32.079  1.00  0.00     0.012 A 
ATOM     69  C   UNL A   1      36.328  33.016  29.810  1.00  0.00     0.148 A 
ATOM     70  C   UNL A   1      35.487  32.797  32.458  1.00  0.00     0.002 A 
ATOM     71  C   UNL A   1      35.069  33.485  30.195  1.00  0.00     0.091 A 
ATOM     72  F   UNL A   1      36.633  33.047  28.513  1.00  0.00    -0.205 F 
ATOM     73  C   UNL A   1      34.640  33.362  31.517  1.00  0.00     0.022 A 
BRANCH  71  74
ATOM     74  S   UNL A   1      33.917  34.237  29.029  1.00  0.00     0.127 S 
ATOM     75  O   UNL A   1      34.756  35.246  28.383  1.00  0.00    -0.237 OA
ATOM     76  O   UNL A   1      33.555  33.108  28.172  1.00  0.00    -0.237 OA
ATOM     77  O   UNL A   1      32.814  34.771  29.820  1.00  0.00    -0.744 OA
ENDBRANCH  71  74
ENDBRANCH  53  67
BRANCH  54  78
ATOM     78  C   UNL A   1      45.601  27.774  29.172  1.00  0.00     0.023 A 
ATOM     79  C   UNL A   1      46.155  26.520  29.521  1.00  0.00     0.012 A 
ATOM     80  C   UNL A   1      45.302  28.042  27.826  1.00  0.00     0.148 A 
ATOM     81  C   UNL A   1      46.251  25.500  28.575  1.00  0.00     0.002 A 
ATOM     82  C   UNL A   1      45.394  27.017  26.891  1.00  0.00     0.091 A 
ATOM     83  F   UNL A   1      44.828  29.252  27.504  1.00  0.00    -0.205 F 
ATOM     84  C   UNL A   1      45.828  25.736  27.271  1.00  0.00     0.022 A 
BRANCH  82  85
ATOM     85  S   UNL A   1      44.794  27.225  25.210  1.00  0.00     0.127 S 
ATOM     86  O   UNL A   1      43.551  27.955  25.433  1.00  0.00    -0.237 OA
ATOM     87  O   UNL A   1      45.871  28.003  24.596  1.00  0.00    -0.237 OA
ATOM     88  O   UNL A   1      44.668  25.873  24.690  1.00  0.00    -0.744 OA
ENDBRANCH  82  85
ENDBRANCH  54  78
BRANCH  66  89
ATOM     89  C   UNL A   1      43.412  34.504  30.538  1.00  0.00     0.023 A 
ATOM     90  C   UNL A   1      43.731  35.447  31.535  1.00  0.00     0.012 A 
ATOM     91  C   UNL A   1      43.109  35.017  29.249  1.00  0.00     0.148 A 
ATOM     92  C   UNL A   1      43.775  36.821  31.262  1.00  0.00     0.002 A 
ATOM     93  C   UNL A   1      43.044  36.385  29.011  1.00  0.00     0.091 A 
ATOM     94  F   UNL A   1      42.941  34.176  28.222  1.00  0.00    -0.205 F 
ATOM     95  C   UNL A   1      43.405  37.292  30.008  1.00  0.00     0.022 A 
BRANCH  93  96
ATOM     96  S   UNL A   1      42.377  37.063  27.482  1.00  0.00     0.127 S 
ATOM     97  O   UNL A   1      43.508  36.901  26.566  1.00  0.00    -0.237 OA
ATOM     98  O   UNL A   1      41.251  36.168  27.224  1.00  0.00    -0.237 OA
ATOM     99  O   UNL A   1      42.036  38.447  27.776  1.00  0.00    -0.744 OA
ENDBRANCH  93  96
ENDBRANCH  66  89
ENDBRANCH  40  41
ENDBRANCH  32  35
ENDBRANCH  30  31
ENDBRANCH  29  30
ENDBRANCH   1  29
TORSDOF 19
ENDMDL
MODEL 3
REMARK VINA RESULT:     -12.1      2.811      3.967
REMARK SMILES Cc1ccc([C@@H](CC(=O)NCCCNC(=O)c2ccc(-c3c4nc(c(-c5cccc(S(=O)(=O)[O-])c5F)c5ccc([nH]5)c(-c5cccc(S(=O)(=O)[O-])c5F)c5nc(c(-c6cccc(S(=O)(=O)[O-])c6F)c6ccc3[nH]6)C=C5)C=C4)cc2)NC(=O)c2ccc(OC(F)F)cc2)cc1
REMARK SMILES IDX 11 1 10 2 8 3 9 4 7 6 6 7 5 8 1 9 2 10 3 11 94 12 4 13 93 14
REMARK SMILES IDX 80 15 81 16 82 18 83 19 84 20 92 21 85 22 91 23 86 24 87 25
REMARK SMILES IDX 88 26 89 27 90 28 12 29 13 30 14 31 15 32 16 34 17 35 18 36
REMARK SMILES IDX 79 37 19 38 78 39 20 40 21 41 22 42 72 43 23 44 77 45 71 46
REMARK SMILES IDX 73 47 24 48 76 49 70 50 69 51 25 53 57 54 37 55 56 56 38 57
REMARK SMILES IDX 41 58 55 59 74 60 39 61 40 62 54 64 75 65 42 66 26 67 27 68
REMARK SMILES IDX 35 69 28 70 30 71 36 72 29 73 31 74 32 75 33 76 34 77 58 78
REMARK SMILES IDX 59 79 67 80 60 81 62 82 68 83 61 84 63 85 64 86 65 87 66 88
REMARK SMILES IDX 43 89 44 90 52 91 45 92 47 93 53 94 46 95 48 96 49 97 50 98
REMARK SMILES IDX 51 99
REMARK H PARENT 10 5 80 17 14 33 73 52 41 63
REMARK Flexibility Score: inf
ROOT
ATOM      1  C   UNL A   1      37.772  23.190  26.032  1.00  0.00     0.117 C 
ENDROOT
BRANCH   1   2
ATOM      2  N   UNL A   1      37.519  23.348  24.609  1.00  0.00    -0.356 N 
ATOM      3  C   UNL A   1      36.346  23.399  23.923  1.00  0.00     0.222 C 
ATOM      4  O   UNL A   1      36.377  23.186  22.709  1.00  0.00    -0.275 OA
ATOM      5  H   UNL A   1      38.326  23.432  24.052  1.00  0.00     0.163 HD
BRANCH   3   6
ATOM      6  C   UNL A   1      35.078  23.857  24.600  1.00  0.00     0.129 C 
BRANCH   6   7
ATOM      7  C   UNL A   1      33.784  23.916  23.759  1.00  0.00     0.122 C 
BRANCH   7   8
ATOM      8  C   UNL A   1      33.164  22.521  23.702  1.00  0.00    -0.025 A 
ATOM      9  C   UNL A   1      32.272  18.317  23.296  1.00  0.00     0.044 C 
ATOM     10  C   UNL A   1      32.470  19.791  23.492  1.00  0.00    -0.051 A 
ATOM     11  C   UNL A   1      32.106  20.697  22.495  1.00  0.00     0.004 A 
ATOM     12  C   UNL A   1      33.115  20.266  24.635  1.00  0.00     0.004 A 
ATOM     13  C   UNL A   1      32.434  22.051  22.606  1.00  0.00     0.006 A 
ATOM     14  C   UNL A   1      33.451  21.616  24.742  1.00  0.00     0.006 A 
ENDBRANCH   7   8
BRANCH   7  15
ATOM     15  N   UNL A   1      33.880  24.550  22.447  1.00  0.00    -0.345 N 
ATOM     16  C   UNL A   1      33.305  25.713  21.996  1.00  0.00     0.251 C 
ATOM     17  H   UNL A   1      34.438  24.075  21.790  1.00  0.00     0.164 HD
ATOM     18  O   UNL A   1      33.149  25.899  20.792  1.00  0.00    -0.269 OA
BRANCH  16  19
ATOM     19  C   UNL A   1      32.874  26.763  22.943  1.00  0.00     0.040 A 
ATOM     20  C   UNL A   1      33.742  27.811  23.257  1.00  0.00     0.017 A 
ATOM     21  C   UNL A   1      31.659  26.652  23.618  1.00  0.00     0.017 A 
ATOM     22  C   UNL A   1      33.358  28.772  24.198  1.00  0.00     0.047 A 
ATOM     23  C   UNL A   1      31.266  27.625  24.538  1.00  0.00     0.047 A 
ATOM     24  C   UNL A   1      32.109  28.697  24.828  1.00  0.00     0.126 A 
BRANCH  24  25
ATOM     25  O   UNL A   1      31.851  29.700  25.719  1.00  0.00    -0.435 OA
BRANCH  25  26
ATOM     26  C   UNL A   1      32.054  29.432  27.100  1.00  0.00     0.542 C 
ATOM     27  F   UNL A   1      32.743  28.275  27.254  1.00  0.00    -0.167 F 
ATOM     28  F   UNL A   1      32.763  30.432  27.676  1.00  0.00    -0.167 F 
ENDBRANCH  25  26
ENDBRANCH  24  25
ENDBRANCH  16  19
ENDBRANCH   7  15
ENDBRANCH   6   7
ENDBRANCH   3   6
ENDBRANCH   1   2
BRANCH   1  29
ATOM     29  C   UNL A   1      38.781  24.243  26.457  1.00  0.00     0.042 C 
BRANCH  29  30
ATOM     30  C   UNL A   1      40.189  23.713  26.673  1.00  0.00     0.118 C 
BRANCH  30  31
ATOM     31  N   UNL A   1      40.477  22.431  26.026  1.00  0.00    -0.352 N 
ATOM     32  C   UNL A   1      41.554  21.566  26.238  1.00  0.00     0.251 C 
ATOM     33  H   UNL A   1      39.824  22.139  25.349  1.00  0.00     0.163 HD
ATOM     34  O   UNL A   1      41.555  20.434  25.815  1.00  0.00    -0.269 OA
BRANCH  32  35
ATOM     35  C   UNL A   1      42.673  22.071  27.062  1.00  0.00     0.039 A 
ATOM     36  C   UNL A   1      42.417  22.194  28.431  1.00  0.00     0.014 A 
ATOM     37  C   UNL A   1      43.633  22.843  26.415  1.00  0.00     0.014 A 
ATOM     38  C   UNL A   1      42.846  23.343  29.080  1.00  0.00     0.010 A 
ATOM     39  C   UNL A   1      44.015  24.006  27.051  1.00  0.00     0.010 A 
ATOM     40  C   UNL A   1      43.503  24.307  28.331  1.00  0.00    -0.014 A 
BRANCH  40  41
ATOM     41  C   UNL A   1      43.623  25.708  28.712  1.00  0.00     0.031 A 
ATOM     42  C   UNL A   1      42.388  26.513  28.755  1.00  0.00     0.074 A 
ATOM     43  C   UNL A   1      44.758  26.169  29.296  1.00  0.00     0.049 A 
ATOM     44  N   UNL A   1      42.350  27.742  29.129  1.00  0.00    -0.248 NA
ATOM     45  C   UNL A   1      41.091  25.993  28.335  1.00  0.00     0.031 C 
ATOM     46  C   UNL A   1      44.856  27.278  30.245  1.00  0.00     0.029 A 
ATOM     47  N   UNL A   1      46.096  25.879  28.995  1.00  0.00    -0.354 N 
ATOM     48  C   UNL A   1      41.030  28.088  29.272  1.00  0.00     0.074 A 
ATOM     49  C   UNL A   1      40.292  27.013  28.661  1.00  0.00     0.031 C 
ATOM     50  C   UNL A   1      46.107  27.758  30.236  1.00  0.00     0.029 A 
ATOM     51  C   UNL A   1      46.807  27.092  29.159  1.00  0.00     0.049 A 
ATOM     52  H   UNL A   1      46.466  25.008  28.722  1.00  0.00     0.167 HD
ATOM     53  C   UNL A   1      40.742  29.202  29.995  1.00  0.00     0.034 A 
ATOM     54  C   UNL A   1      47.505  27.727  28.171  1.00  0.00     0.034 A 
ATOM     55  C   UNL A   1      41.949  30.019  30.192  1.00  0.00     0.049 A 
ATOM     56  C   UNL A   1      47.021  29.146  27.881  1.00  0.00     0.074 A 
ATOM     57  C   UNL A   1      42.826  30.285  31.228  1.00  0.00     0.029 A 
ATOM     58  N   UNL A   1      42.541  30.538  29.056  1.00  0.00    -0.354 N 
ATOM     59  N   UNL A   1      46.118  29.784  28.575  1.00  0.00    -0.248 NA
ATOM     60  C   UNL A   1      47.448  29.914  26.708  1.00  0.00     0.031 C 
ATOM     61  C   UNL A   1      43.979  30.930  30.671  1.00  0.00     0.029 A 
ATOM     62  C   UNL A   1      43.781  31.084  29.309  1.00  0.00     0.049 A 
ATOM     63  H   UNL A   1      42.123  30.520  28.164  1.00  0.00     0.167 HD
ATOM     64  C   UNL A   1      45.685  30.874  27.860  1.00  0.00     0.074 A 
ATOM     65  C   UNL A   1      46.599  30.955  26.733  1.00  0.00     0.031 C 
ATOM     66  C   UNL A   1      44.554  31.577  28.174  1.00  0.00     0.034 A 
BRANCH  53  67
ATOM     67  C   UNL A   1      39.406  29.554  30.613  1.00  0.00     0.023 A 
ATOM     68  C   UNL A   1      38.948  28.712  31.653  1.00  0.00     0.012 A 
ATOM     69  C   UNL A   1      38.509  30.568  30.198  1.00  0.00     0.148 A 
ATOM     70  C   UNL A   1      37.680  28.845  32.226  1.00  0.00     0.002 A 
ATOM     71  C   UNL A   1      37.259  30.731  30.799  1.00  0.00     0.091 A 
ATOM     72  F   UNL A   1      38.808  31.351  29.162  1.00  0.00    -0.205 F 
ATOM     73  C   UNL A   1      36.835  29.860  31.803  1.00  0.00     0.022 A 
BRANCH  71  74
ATOM     74  S   UNL A   1      36.109  32.031  30.307  1.00  0.00     0.127 S 
ATOM     75  O   UNL A   1      35.058  31.904  31.316  1.00  0.00    -0.237 OA
ATOM     76  O   UNL A   1      36.927  33.237  30.430  1.00  0.00    -0.237 OA
ATOM     77  O   UNL A   1      35.691  31.722  28.944  1.00  0.00    -0.744 OA
ENDBRANCH  71  74
ENDBRANCH  53  67
BRANCH  54  78
ATOM     78  C   UNL A   1      48.058  26.787  27.158  1.00  0.00     0.023 A 
ATOM     79  C   UNL A   1      47.279  26.574  25.997  1.00  0.00     0.012 A 
ATOM     80  C   UNL A   1      49.432  26.501  27.125  1.00  0.00     0.148 A 
ATOM     81  C   UNL A   1      47.887  26.244  24.786  1.00  0.00     0.002 A 
ATOM     82  C   UNL A   1      50.032  26.180  25.912  1.00  0.00     0.091 A 
ATOM     83  F   UNL A   1      50.146  26.657  28.247  1.00  0.00    -0.205 F 
ATOM     84  C   UNL A   1      49.269  26.092  24.736  1.00  0.00     0.022 A 
BRANCH  82  85
ATOM     85  S   UNL A   1      51.817  26.046  25.755  1.00  0.00     0.127 S 
ATOM     86  O   UNL A   1      52.054  24.701  26.269  1.00  0.00    -0.237 OA
ATOM     87  O   UNL A   1      52.009  26.206  24.314  1.00  0.00    -0.237 OA
ATOM     88  O   UNL A   1      52.343  27.145  26.549  1.00  0.00    -0.744 OA
ENDBRANCH  82  85
ENDBRANCH  54  78
BRANCH  66  89
ATOM     89  C   UNL A   1      44.067  32.785  27.393  1.00  0.00     0.023 A 
ATOM     90  C   UNL A   1      44.027  32.753  25.985  1.00  0.00     0.012 A 
ATOM     91  C   UNL A   1      43.787  34.031  28.011  1.00  0.00     0.148 A 
ATOM     92  C   UNL A   1      43.699  33.889  25.233  1.00  0.00     0.002 A 
ATOM     93  C   UNL A   1      43.573  35.181  27.259  1.00  0.00     0.091 A 
ATOM     94  F   UNL A   1      43.663  34.101  29.341  1.00  0.00    -0.205 F 
ATOM     95  C   UNL A   1      43.500  35.109  25.867  1.00  0.00     0.022 A 
BRANCH  93  96
ATOM     96  S   UNL A   1      43.514  36.819  28.003  1.00  0.00     0.127 S 
ATOM     97  O   UNL A   1      43.501  37.683  26.820  1.00  0.00    -0.237 OA
ATOM     98  O   UNL A   1      42.251  36.771  28.735  1.00  0.00    -0.237 OA
ATOM     99  O   UNL A   1      44.717  36.931  28.815  1.00  0.00    -0.744 OA
ENDBRANCH  93  96
ENDBRANCH  66  89
ENDBRANCH  40  41
ENDBRANCH  32  35
ENDBRANCH  30  31
ENDBRANCH  29  30
ENDBRANCH   1  29
TORSDOF 19
ENDMDL
