MODEL 1
REMARK VINA RESULT:     -11.0      0.000      0.000
REMARK SMILES [NH3+][C@]1(C(=O)NCCCNC(=O)c2ccc(-c3c4nc(c(-c5cccc(S(=O)(=O)[O-])c5F)c5ccc([nH]5)c(-c5cccc(S(=O)(=O)[O-])c5F)c5nc(c(-c6cccc(S(=O)(=O)[O-])c6F)c6ccc3[nH]6)C=C5)C=C4)cc2)CCC[C@@H]1CCn1cc(I)cn1
REMARK SMILES IDX 7 1 6 2 5 3 3 4 4 5 2 7 75 8 78 9 76 10 77 11 1 12 79 16
REMARK SMILES IDX 80 17 81 18 82 19 86 20 83 21 85 22 84 23 8 24 9 25 10 26
REMARK SMILES IDX 11 28 12 29 13 30 74 31 14 32 73 33 15 34 16 35 17 36 67 37
REMARK SMILES IDX 18 38 72 39 66 40 68 41 19 42 71 43 65 44 64 45 20 47 52 48
REMARK SMILES IDX 32 49 51 50 33 51 36 52 50 53 69 54 34 55 35 56 49 58 70 59
REMARK SMILES IDX 37 60 21 61 22 62 30 63 23 64 25 65 31 66 24 67 26 68 27 69
REMARK SMILES IDX 28 70 29 71 53 72 54 73 62 74 55 75 57 76 63 77 56 78 58 79
REMARK SMILES IDX 59 80 60 81 61 82 38 83 39 84 47 85 40 86 42 87 48 88 41 89
REMARK SMILES IDX 43 90 44 91 45 92 46 93
REMARK H PARENT 5 6 1 13 1 14 1 15 9 27 68 46 36 57
REMARK Flexibility Score: inf
ROOT
ATOM      1  C   UNL A   1      33.132  27.877  26.923  1.00  0.00     0.042 C 
ENDROOT
BRANCH   1   2
ATOM      2  C   UNL A   1      31.783  27.781  26.228  1.00  0.00     0.118 C 
BRANCH   2   3
ATOM      3  N   UNL A   1      31.055  26.581  26.597  1.00  0.00    -0.351 N 
ATOM      4  C   UNL A   1      31.048  25.304  26.135  1.00  0.00     0.281 C 
ATOM      5  O   UNL A   1      30.307  24.531  26.756  1.00  0.00    -0.268 OA
ATOM      6  H   UNL A   1      30.431  26.724  27.344  1.00  0.00     0.163 HD
BRANCH   4   7
ATOM      7  C   UNL A   1      31.837  24.824  24.884  1.00  0.00     0.176 C 
ATOM      8  C   UNL A   1      31.848  25.956  23.830  1.00  0.00     0.079 C 
ATOM      9  C   UNL A   1      33.360  24.696  25.168  1.00  0.00     0.062 C 
ATOM     10  C   UNL A   1      32.992  25.589  22.900  1.00  0.00     0.008 C 
ATOM     11  C   UNL A   1      34.036  24.935  23.802  1.00  0.00     0.011 C 
BRANCH   7  12
ATOM     12  N   UNL A   1      31.254  23.653  24.204  1.00  0.00    -0.345 N 
ATOM     13  H   UNL A   1      31.315  23.782  23.194  1.00  0.00     0.345 HD
ATOM     14  H   UNL A   1      30.276  23.554  24.477  1.00  0.00     0.345 HD
ATOM     15  H   UNL A   1      31.769  22.814  24.471  1.00  0.00     0.345 HD
ENDBRANCH   7  12
BRANCH   9  16
ATOM     16  C   UNL A   1      33.815  23.477  26.008  1.00  0.00     0.034 C 
BRANCH  16  17
ATOM     17  C   UNL A   1      34.686  22.399  25.353  1.00  0.00     0.145 C 
BRANCH  17  18
ATOM     18  N   UNL A   1      34.052  21.121  25.088  1.00  0.00    -0.272 N 
ATOM     19  C   UNL A   1      34.647  19.912  24.853  1.00  0.00     0.123 A 
ATOM     20  N   UNL A   1      32.707  21.085  24.951  1.00  0.00    -0.180 NA
ATOM     21  C   UNL A   1      33.633  19.078  24.460  1.00  0.00     0.051 A 
ATOM     22  C   UNL A   1      32.460  19.830  24.565  1.00  0.00     0.149 A 
ATOM     23  I   UNL A   1      33.836  17.184  23.825  1.00  0.00    -0.041 I 
ENDBRANCH  17  18
ENDBRANCH  16  17
ENDBRANCH   9  16
ENDBRANCH   4   7
ENDBRANCH   2   3
ENDBRANCH   1   2
BRANCH   1  24
ATOM     24  C   UNL A   1      34.091  28.869  26.280  1.00  0.00     0.118 C 
BRANCH  24  25
ATOM     25  N   UNL A   1      33.861  30.237  26.727  1.00  0.00    -0.352 N 
ATOM     26  C   UNL A   1      34.522  30.984  27.671  1.00  0.00     0.251 C 
ATOM     27  H   UNL A   1      33.115  30.699  26.282  1.00  0.00     0.163 HD
ATOM     28  O   UNL A   1      34.023  32.043  28.055  1.00  0.00    -0.269 OA
BRANCH  26  29
ATOM     29  C   UNL A   1      35.807  30.523  28.235  1.00  0.00     0.039 A 
ATOM     30  C   UNL A   1      35.802  29.694  29.358  1.00  0.00     0.014 A 
ATOM     31  C   UNL A   1      37.022  30.921  27.670  1.00  0.00     0.014 A 
ATOM     32  C   UNL A   1      37.010  29.212  29.872  1.00  0.00     0.010 A 
ATOM     33  C   UNL A   1      38.212  30.356  28.114  1.00  0.00     0.010 A 
ATOM     34  C   UNL A   1      38.224  29.508  29.229  1.00  0.00    -0.014 A 
BRANCH  34  35
ATOM     35  C   UNL A   1      39.514  28.950  29.710  1.00  0.00     0.031 A 
ATOM     36  C   UNL A   1      40.263  29.627  30.828  1.00  0.00     0.074 A 
ATOM     37  C   UNL A   1      40.054  27.886  29.084  1.00  0.00     0.049 A 
ATOM     38  N   UNL A   1      41.429  29.326  31.340  1.00  0.00    -0.248 NA
ATOM     39  C   UNL A   1      39.636  30.816  31.431  1.00  0.00     0.031 C 
ATOM     40  C   UNL A   1      39.468  27.190  27.936  1.00  0.00     0.029 A 
ATOM     41  N   UNL A   1      41.231  27.216  29.308  1.00  0.00    -0.354 N 
ATOM     42  C   UNL A   1      41.690  30.304  32.292  1.00  0.00     0.074 A 
ATOM     43  C   UNL A   1      40.582  31.233  32.259  1.00  0.00     0.031 C 
ATOM     44  C   UNL A   1      40.279  26.187  27.565  1.00  0.00     0.029 A 
ATOM     45  C   UNL A   1      41.460  26.189  28.423  1.00  0.00     0.049 A 
ATOM     46  H   UNL A   1      41.854  27.450  30.034  1.00  0.00     0.167 HD
ATOM     47  C   UNL A   1      42.739  30.405  33.142  1.00  0.00     0.034 A 
ATOM     48  C   UNL A   1      42.507  25.347  28.308  1.00  0.00     0.034 A 
ATOM     49  C   UNL A   1      43.818  29.457  33.201  1.00  0.00     0.049 A 
ATOM     50  C   UNL A   1      43.644  25.461  29.286  1.00  0.00     0.074 A 
ATOM     51  C   UNL A   1      44.884  29.422  34.082  1.00  0.00     0.029 A 
ATOM     52  N   UNL A   1      43.974  28.381  32.341  1.00  0.00    -0.354 N 
ATOM     53  N   UNL A   1      43.797  26.303  30.280  1.00  0.00    -0.248 NA
ATOM     54  C   UNL A   1      44.735  24.485  29.150  1.00  0.00     0.031 C 
ATOM     55  C   UNL A   1      45.702  28.341  33.734  1.00  0.00     0.029 A 
ATOM     56  C   UNL A   1      45.124  27.682  32.662  1.00  0.00     0.049 A 
ATOM     57  H   UNL A   1      43.358  28.150  31.610  1.00  0.00     0.167 HD
ATOM     58  C   UNL A   1      44.979  25.933  30.912  1.00  0.00     0.074 A 
ATOM     59  C   UNL A   1      45.489  24.779  30.201  1.00  0.00     0.031 C 
ATOM     60  C   UNL A   1      45.593  26.504  31.978  1.00  0.00     0.034 A 
BRANCH  47  61
ATOM     61  C   UNL A   1      42.746  31.557  34.115  1.00  0.00     0.023 A 
ATOM     62  C   UNL A   1      43.330  32.785  33.741  1.00  0.00     0.012 A 
ATOM     63  C   UNL A   1      42.127  31.444  35.376  1.00  0.00     0.148 A 
ATOM     64  C   UNL A   1      43.331  33.869  34.617  1.00  0.00     0.002 A 
ATOM     65  C   UNL A   1      42.089  32.544  36.224  1.00  0.00     0.091 A 
ATOM     66  F   UNL A   1      41.594  30.264  35.724  1.00  0.00    -0.205 F 
ATOM     67  C   UNL A   1      42.702  33.752  35.853  1.00  0.00     0.022 A 
BRANCH  65  68
ATOM     68  S   UNL A   1      41.231  32.524  37.803  1.00  0.00     0.127 S 
ATOM     69  O   UNL A   1      42.045  31.580  38.567  1.00  0.00    -0.237 OA
ATOM     70  O   UNL A   1      41.349  33.917  38.233  1.00  0.00    -0.237 OA
ATOM     71  O   UNL A   1      39.873  32.087  37.517  1.00  0.00    -0.744 OA
ENDBRANCH  65  68
ENDBRANCH  47  61
BRANCH  48  72
ATOM     72  C   UNL A   1      42.501  24.284  27.263  1.00  0.00     0.023 A 
ATOM     73  C   UNL A   1      43.364  24.397  26.154  1.00  0.00     0.012 A 
ATOM     74  C   UNL A   1      41.663  23.158  27.367  1.00  0.00     0.148 A 
ATOM     75  C   UNL A   1      43.362  23.429  25.149  1.00  0.00     0.002 A 
ATOM     76  C   UNL A   1      41.708  22.169  26.393  1.00  0.00     0.091 A 
ATOM     77  F   UNL A   1      40.844  23.073  28.425  1.00  0.00    -0.205 F 
ATOM     78  C   UNL A   1      42.542  22.312  25.273  1.00  0.00     0.022 A 
BRANCH  76  79
ATOM     79  S   UNL A   1      40.788  20.633  26.538  1.00  0.00     0.127 S 
ATOM     80  O   UNL A   1      40.948  20.322  27.956  1.00  0.00    -0.237 OA
ATOM     81  O   UNL A   1      39.442  21.052  26.145  1.00  0.00    -0.237 OA
ATOM     82  O   UNL A   1      41.422  19.706  25.610  1.00  0.00    -0.744 OA
ENDBRANCH  76  79
ENDBRANCH  48  72
BRANCH  60  83
ATOM     83  C   UNL A   1      46.862  25.864  32.478  1.00  0.00     0.023 A 
ATOM     84  C   UNL A   1      48.108  26.273  31.966  1.00  0.00     0.012 A 
ATOM     85  C   UNL A   1      46.818  24.903  33.508  1.00  0.00     0.148 A 
ATOM     86  C   UNL A   1      49.290  25.707  32.444  1.00  0.00     0.002 A 
ATOM     87  C   UNL A   1      48.001  24.383  34.016  1.00  0.00     0.091 A 
ATOM     88  F   UNL A   1      45.620  24.515  33.969  1.00  0.00    -0.205 F 
ATOM     89  C   UNL A   1      49.238  24.772  33.476  1.00  0.00     0.022 A 
BRANCH  87  90
ATOM     90  S   UNL A   1      48.035  23.253  35.411  1.00  0.00     0.127 S 
ATOM     91  O   UNL A   1      49.469  23.149  35.675  1.00  0.00    -0.237 OA
ATOM     92  O   UNL A   1      47.279  23.988  36.425  1.00  0.00    -0.237 OA
ATOM     93  O   UNL A   1      47.396  22.027  34.950  1.00  0.00    -0.744 OA
ENDBRANCH  87  90
ENDBRANCH  60  83
ENDBRANCH  34  35
ENDBRANCH  26  29
ENDBRANCH  24  25
ENDBRANCH   1  24
TORSDOF 17
ENDMDL
MODEL 2
REMARK VINA RESULT:     -10.9      5.316      8.339
REMARK SMILES [NH3+][C@]1(C(=O)NCCCNC(=O)c2ccc(-c3c4nc(c(-c5cccc(S(=O)(=O)[O-])c5F)c5ccc([nH]5)c(-c5cccc(S(=O)(=O)[O-])c5F)c5nc(c(-c6cccc(S(=O)(=O)[O-])c6F)c6ccc3[nH]6)C=C5)C=C4)cc2)CCC[C@@H]1CCn1cc(I)cn1
REMARK SMILES IDX 7 1 6 2 5 3 3 4 4 5 2 7 75 8 78 9 76 10 77 11 1 12 79 16
REMARK SMILES IDX 80 17 81 18 82 19 86 20 83 21 85 22 84 23 8 24 9 25 10 26
REMARK SMILES IDX 11 28 12 29 13 30 74 31 14 32 73 33 15 34 16 35 17 36 67 37
REMARK SMILES IDX 18 38 72 39 66 40 68 41 19 42 71 43 65 44 64 45 20 47 52 48
REMARK SMILES IDX 32 49 51 50 33 51 36 52 50 53 69 54 34 55 35 56 49 58 70 59
REMARK SMILES IDX 37 60 21 61 22 62 30 63 23 64 25 65 31 66 24 67 26 68 27 69
REMARK SMILES IDX 28 70 29 71 53 72 54 73 62 74 55 75 57 76 63 77 56 78 58 79
REMARK SMILES IDX 59 80 60 81 61 82 38 83 39 84 47 85 40 86 42 87 48 88 41 89
REMARK SMILES IDX 43 90 44 91 45 92 46 93
REMARK H PARENT 5 6 1 13 1 14 1 15 9 27 68 46 36 57
REMARK Flexibility Score: inf
ROOT
ATOM      1  C   UNL A   1      37.236  19.490  24.995  1.00  0.00     0.042 C 
ENDROOT
BRANCH   1   2
ATOM      2  C   UNL A   1      36.034  20.393  24.762  1.00  0.00     0.118 C 
BRANCH   2   3
ATOM      3  N   UNL A   1      35.343  20.723  25.996  1.00  0.00    -0.351 N 
ATOM      4  C   UNL A   1      34.440  21.674  26.345  1.00  0.00     0.281 C 
ATOM      5  O   UNL A   1      34.034  21.602  27.512  1.00  0.00    -0.268 OA
ATOM      6  H   UNL A   1      35.583  20.127  26.742  1.00  0.00     0.163 HD
BRANCH   4   7
ATOM      7  C   UNL A   1      33.979  22.826  25.407  1.00  0.00     0.176 C 
ATOM      8  C   UNL A   1      35.174  23.773  25.146  1.00  0.00     0.079 C 
ATOM      9  C   UNL A   1      33.702  22.325  23.961  1.00  0.00     0.062 C 
ATOM     10  C   UNL A   1      34.773  24.545  23.900  1.00  0.00     0.008 C 
ATOM     11  C   UNL A   1      33.973  23.550  23.062  1.00  0.00     0.011 C 
BRANCH   7  12
ATOM     12  N   UNL A   1      32.910  23.677  25.961  1.00  0.00    -0.345 N 
ATOM     13  H   UNL A   1      32.092  23.105  26.167  1.00  0.00     0.345 HD
ATOM     14  H   UNL A   1      32.661  24.395  25.279  1.00  0.00     0.345 HD
ATOM     15  H   UNL A   1      33.240  24.121  26.818  1.00  0.00     0.345 HD
ENDBRANCH   7  12
BRANCH   9  16
ATOM     16  C   UNL A   1      32.395  21.525  23.736  1.00  0.00     0.034 C 
BRANCH  16  17
ATOM     17  C   UNL A   1      32.476  20.100  23.179  1.00  0.00     0.145 C 
BRANCH  17  18
ATOM     18  N   UNL A   1      32.653  19.031  24.145  1.00  0.00    -0.272 N 
ATOM     19  C   UNL A   1      32.894  17.706  23.909  1.00  0.00     0.123 A 
ATOM     20  N   UNL A   1      32.469  19.311  25.456  1.00  0.00    -0.180 NA
ATOM     21  C   UNL A   1      32.773  17.091  25.128  1.00  0.00     0.051 A 
ATOM     22  C   UNL A   1      32.544  18.116  26.050  1.00  0.00     0.149 A 
ATOM     23  I   UNL A   1      32.866  15.115  25.473  1.00  0.00    -0.041 I 
ENDBRANCH  17  18
ENDBRANCH  16  17
ENDBRANCH   9  16
ENDBRANCH   4   7
ENDBRANCH   2   3
ENDBRANCH   1   2
BRANCH   1  24
ATOM     24  C   UNL A   1      38.509  20.238  25.363  1.00  0.00     0.118 C 
BRANCH  24  25
ATOM     25  N   UNL A   1      39.568  19.345  25.818  1.00  0.00    -0.352 N 
ATOM     26  C   UNL A   1      40.830  19.630  26.279  1.00  0.00     0.251 C 
ATOM     27  H   UNL A   1      39.343  18.387  25.792  1.00  0.00     0.163 HD
ATOM     28  O   UNL A   1      41.645  18.714  26.399  1.00  0.00    -0.269 OA
BRANCH  26  29
ATOM     29  C   UNL A   1      41.217  21.016  26.615  1.00  0.00     0.039 A 
ATOM     30  C   UNL A   1      41.903  21.263  27.805  1.00  0.00     0.014 A 
ATOM     31  C   UNL A   1      40.890  22.077  25.767  1.00  0.00     0.014 A 
ATOM     32  C   UNL A   1      42.318  22.563  28.111  1.00  0.00     0.010 A 
ATOM     33  C   UNL A   1      41.395  23.348  26.019  1.00  0.00     0.010 A 
ATOM     34  C   UNL A   1      42.101  23.610  27.200  1.00  0.00    -0.014 A 
BRANCH  34  35
ATOM     35  C   UNL A   1      42.595  24.985  27.466  1.00  0.00     0.031 A 
ATOM     36  C   UNL A   1      41.695  26.001  28.120  1.00  0.00     0.074 A 
ATOM     37  C   UNL A   1      43.823  25.346  27.041  1.00  0.00     0.049 A 
ATOM     38  N   UNL A   1      41.926  27.264  28.376  1.00  0.00    -0.248 NA
ATOM     39  C   UNL A   1      40.349  25.550  28.512  1.00  0.00     0.031 C 
ATOM     40  C   UNL A   1      44.760  24.480  26.323  1.00  0.00     0.029 A 
ATOM     41  N   UNL A   1      44.485  26.545  27.130  1.00  0.00    -0.354 N 
ATOM     42  C   UNL A   1      40.748  27.763  28.919  1.00  0.00     0.074 A 
ATOM     43  C   UNL A   1      39.790  26.680  28.918  1.00  0.00     0.031 C 
ATOM     44  C   UNL A   1      45.878  25.169  26.048  1.00  0.00     0.029 A 
ATOM     45  C   UNL A   1      45.726  26.536  26.536  1.00  0.00     0.049 A 
ATOM     46  H   UNL A   1      44.108  27.338  27.576  1.00  0.00     0.167 HD
ATOM     47  C   UNL A   1      40.494  29.000  29.407  1.00  0.00     0.034 A 
ATOM     48  C   UNL A   1      46.636  27.520  26.392  1.00  0.00     0.034 A 
ATOM     49  C   UNL A   1      41.462  30.063  29.445  1.00  0.00     0.049 A 
ATOM     50  C   UNL A   1      46.341  28.876  26.972  1.00  0.00     0.074 A 
ATOM     51  C   UNL A   1      41.331  31.325  29.994  1.00  0.00     0.029 A 
ATOM     52  N   UNL A   1      42.738  29.990  28.906  1.00  0.00    -0.354 N 
ATOM     53  N   UNL A   1      45.275  29.284  27.619  1.00  0.00    -0.248 NA
ATOM     54  C   UNL A   1      47.388  29.898  26.834  1.00  0.00     0.031 C 
ATOM     55  C   UNL A   1      42.518  32.027  29.760  1.00  0.00     0.029 A 
ATOM     56  C   UNL A   1      43.401  31.189  29.099  1.00  0.00     0.049 A 
ATOM     57  H   UNL A   1      43.114  29.203  28.452  1.00  0.00     0.167 HD
ATOM     58  C   UNL A   1      45.541  30.594  28.001  1.00  0.00     0.074 A 
ATOM     59  C   UNL A   1      46.875  30.904  27.530  1.00  0.00     0.031 C 
ATOM     60  C   UNL A   1      44.748  31.466  28.671  1.00  0.00     0.034 A 
BRANCH  47  61
ATOM     61  C   UNL A   1      39.126  29.259  29.987  1.00  0.00     0.023 A 
ATOM     62  C   UNL A   1      38.816  28.791  31.281  1.00  0.00     0.012 A 
ATOM     63  C   UNL A   1      38.169  30.011  29.278  1.00  0.00     0.148 A 
ATOM     64  C   UNL A   1      37.564  29.034  31.844  1.00  0.00     0.002 A 
ATOM     65  C   UNL A   1      36.941  30.291  29.866  1.00  0.00     0.091 A 
ATOM     66  F   UNL A   1      38.473  30.431  28.041  1.00  0.00    -0.205 F 
ATOM     67  C   UNL A   1      36.632  29.792  31.142  1.00  0.00     0.022 A 
BRANCH  65  68
ATOM     68  S   UNL A   1      35.703  31.328  29.081  1.00  0.00     0.127 S 
ATOM     69  O   UNL A   1      35.051  30.378  28.180  1.00  0.00    -0.237 OA
ATOM     70  O   UNL A   1      34.886  31.746  30.220  1.00  0.00    -0.237 OA
ATOM     71  O   UNL A   1      36.434  32.404  28.427  1.00  0.00    -0.744 OA
ENDBRANCH  65  68
ENDBRANCH  47  61
BRANCH  48  72
ATOM     72  C   UNL A   1      47.937  27.243  25.720  1.00  0.00     0.023 A 
ATOM     73  C   UNL A   1      49.021  26.759  26.480  1.00  0.00     0.012 A 
ATOM     74  C   UNL A   1      48.104  27.440  24.336  1.00  0.00     0.148 A 
ATOM     75  C   UNL A   1      50.257  26.514  25.881  1.00  0.00     0.002 A 
ATOM     76  C   UNL A   1      49.320  27.138  23.735  1.00  0.00     0.091 A 
ATOM     77  F   UNL A   1      47.064  27.909  23.632  1.00  0.00    -0.205 F 
ATOM     78  C   UNL A   1      50.404  26.695  24.509  1.00  0.00     0.022 A 
BRANCH  76  79
ATOM     79  S   UNL A   1      49.559  27.213  21.957  1.00  0.00     0.127 S 
ATOM     80  O   UNL A   1      48.763  26.076  21.501  1.00  0.00    -0.237 OA
ATOM     81  O   UNL A   1      49.003  28.527  21.634  1.00  0.00    -0.237 OA
ATOM     82  O   UNL A   1      50.997  27.103  21.749  1.00  0.00    -0.744 OA
ENDBRANCH  76  79
ENDBRANCH  48  72
BRANCH  60  83
ATOM     83  C   UNL A   1      45.314  32.827  28.983  1.00  0.00     0.023 A 
ATOM     84  C   UNL A   1      46.065  33.029  30.156  1.00  0.00     0.012 A 
ATOM     85  C   UNL A   1      45.154  33.891  28.072  1.00  0.00     0.148 A 
ATOM     86  C   UNL A   1      46.617  34.278  30.439  1.00  0.00     0.002 A 
ATOM     87  C   UNL A   1      45.751  35.117  28.334  1.00  0.00     0.091 A 
ATOM     88  F   UNL A   1      44.421  33.684  26.969  1.00  0.00    -0.205 F 
ATOM     89  C   UNL A   1      46.471  35.317  29.524  1.00  0.00     0.022 A 
BRANCH  87  90
ATOM     90  S   UNL A   1      45.703  36.481  27.166  1.00  0.00     0.127 S 
ATOM     91  O   UNL A   1      46.315  35.881  25.982  1.00  0.00    -0.237 OA
ATOM     92  O   UNL A   1      44.267  36.738  27.048  1.00  0.00    -0.237 OA
ATOM     93  O   UNL A   1      46.462  37.562  27.781  1.00  0.00    -0.744 OA
ENDBRANCH  87  90
ENDBRANCH  60  83
ENDBRANCH  34  35
ENDBRANCH  26  29
ENDBRANCH  24  25
ENDBRANCH   1  24
TORSDOF 17
ENDMDL
MODEL 3
REMARK VINA RESULT:     -10.9      5.143      9.613
REMARK SMILES [NH3+][C@]1(C(=O)NCCCNC(=O)c2ccc(-c3c4nc(c(-c5cccc(S(=O)(=O)[O-])c5F)c5ccc([nH]5)c(-c5cccc(S(=O)(=O)[O-])c5F)c5nc(c(-c6cccc(S(=O)(=O)[O-])c6F)c6ccc3[nH]6)C=C5)C=C4)cc2)CCC[C@@H]1CCn1cc(I)cn1
REMARK SMILES IDX 7 1 6 2 5 3 3 4 4 5 2 7 75 8 78 9 76 10 77 11 1 12 79 16
REMARK SMILES IDX 80 17 81 18 82 19 86 20 83 21 85 22 84 23 8 24 9 25 10 26
REMARK SMILES IDX 11 28 12 29 13 30 74 31 14 32 73 33 15 34 16 35 17 36 67 37
REMARK SMILES IDX 18 38 72 39 66 40 68 41 19 42 71 43 65 44 64 45 20 47 52 48
REMARK SMILES IDX 32 49 51 50 33 51 36 52 50 53 69 54 34 55 35 56 49 58 70 59
REMARK SMILES IDX 37 60 21 61 22 62 30 63 23 64 25 65 31 66 24 67 26 68 27 69
REMARK SMILES IDX 28 70 29 71 53 72 54 73 62 74 55 75 57 76 63 77 56 78 58 79
REMARK SMILES IDX 59 80 60 81 61 82 38 83 39 84 47 85 40 86 42 87 48 88 41 89
REMARK SMILES IDX 43 90 44 91 45 92 46 93
REMARK H PARENT 5 6 1 13 1 14 1 15 9 27 68 46 36 57
REMARK Flexibility Score: inf
ROOT
ATOM      1  C   UNL A   1      35.975  21.475  25.681  1.00  0.00     0.042 C 
ENDROOT
BRANCH   1   2
ATOM      2  C   UNL A   1      35.534  22.788  26.310  1.00  0.00     0.118 C 
BRANCH   2   3
ATOM      3  N   UNL A   1      34.504  22.601  27.314  1.00  0.00    -0.351 N 
ATOM      4  C   UNL A   1      33.196  22.954  27.400  1.00  0.00     0.281 C 
ATOM      5  O   UNL A   1      32.617  22.562  28.421  1.00  0.00    -0.268 OA
ATOM      6  H   UNL A   1      34.823  22.110  28.106  1.00  0.00     0.163 HD
BRANCH   4   7
ATOM      7  C   UNL A   1      32.462  23.843  26.356  1.00  0.00     0.176 C 
ATOM      8  C   UNL A   1      33.199  25.199  26.241  1.00  0.00     0.079 C 
ATOM      9  C   UNL A   1      32.639  23.308  24.906  1.00  0.00     0.062 C 
ATOM     10  C   UNL A   1      32.721  25.772  24.917  1.00  0.00     0.008 C 
ATOM     11  C   UNL A   1      32.531  24.559  24.010  1.00  0.00     0.011 C 
BRANCH   7  12
ATOM     12  N   UNL A   1      31.069  24.177  26.705  1.00  0.00    -0.345 N 
ATOM     13  H   UNL A   1      30.437  23.526  26.239  1.00  0.00     0.345 HD
ATOM     14  H   UNL A   1      30.862  25.129  26.401  1.00  0.00     0.345 HD
ATOM     15  H   UNL A   1      30.947  24.106  27.715  1.00  0.00     0.345 HD
ENDBRANCH   7  12
BRANCH   9  16
ATOM     16  C   UNL A   1      31.818  22.054  24.519  1.00  0.00     0.034 C 
BRANCH  16  17
ATOM     17  C   UNL A   1      32.196  21.272  23.255  1.00  0.00     0.145 C 
BRANCH  17  18
ATOM     18  N   UNL A   1      32.307  19.831  23.390  1.00  0.00    -0.272 N 
ATOM     19  C   UNL A   1      32.555  19.102  24.520  1.00  0.00     0.123 A 
ATOM     20  N   UNL A   1      32.262  19.074  22.269  1.00  0.00    -0.180 NA
ATOM     21  C   UNL A   1      32.767  17.820  24.086  1.00  0.00     0.051 A 
ATOM     22  C   UNL A   1      32.547  17.843  22.706  1.00  0.00     0.149 A 
ATOM     23  I   UNL A   1      33.323  16.261  25.223  1.00  0.00    -0.041 I 
ENDBRANCH  17  18
ENDBRANCH  16  17
ENDBRANCH   9  16
ENDBRANCH   4   7
ENDBRANCH   2   3
ENDBRANCH   1   2
BRANCH   1  24
ATOM     24  C   UNL A   1      37.337  21.539  25.004  1.00  0.00     0.118 C 
BRANCH  24  25
ATOM     25  N   UNL A   1      38.273  20.560  25.541  1.00  0.00    -0.352 N 
ATOM     26  C   UNL A   1      39.494  20.738  26.142  1.00  0.00     0.251 C 
ATOM     27  H   UNL A   1      37.985  19.622  25.460  1.00  0.00     0.163 HD
ATOM     28  O   UNL A   1      40.225  19.761  26.319  1.00  0.00    -0.269 OA
BRANCH  26  29
ATOM     29  C   UNL A   1      39.941  22.082  26.561  1.00  0.00     0.039 A 
ATOM     30  C   UNL A   1      40.956  22.198  27.513  1.00  0.00     0.014 A 
ATOM     31  C   UNL A   1      39.350  23.233  26.032  1.00  0.00     0.014 A 
ATOM     32  C   UNL A   1      41.421  23.464  27.882  1.00  0.00     0.010 A 
ATOM     33  C   UNL A   1      39.885  24.483  26.318  1.00  0.00     0.010 A 
ATOM     34  C   UNL A   1      40.916  24.617  27.258  1.00  0.00    -0.014 A 
BRANCH  34  35
ATOM     35  C   UNL A   1      41.443  25.968  27.578  1.00  0.00     0.031 A 
ATOM     36  C   UNL A   1      42.844  26.349  27.176  1.00  0.00     0.074 A 
ATOM     37  C   UNL A   1      40.694  26.821  28.305  1.00  0.00     0.049 A 
ATOM     38  N   UNL A   1      43.500  27.455  27.421  1.00  0.00    -0.248 NA
ATOM     39  C   UNL A   1      43.623  25.349  26.427  1.00  0.00     0.031 C 
ATOM     40  C   UNL A   1      39.354  26.540  28.825  1.00  0.00     0.029 A 
ATOM     41  N   UNL A   1      40.963  28.089  28.755  1.00  0.00    -0.354 N 
ATOM     42  C   UNL A   1      44.771  27.268  26.893  1.00  0.00     0.074 A 
ATOM     43  C   UNL A   1      44.811  25.928  26.352  1.00  0.00     0.031 C 
ATOM     44  C   UNL A   1      38.913  27.606  29.510  1.00  0.00     0.029 A 
ATOM     45  C   UNL A   1      39.951  28.633  29.511  1.00  0.00     0.049 A 
ATOM     46  H   UNL A   1      41.801  28.566  28.556  1.00  0.00     0.167 HD
ATOM     47  C   UNL A   1      45.805  28.142  26.832  1.00  0.00     0.034 A 
ATOM     48  C   UNL A   1      39.869  29.821  30.144  1.00  0.00     0.034 A 
ATOM     49  C   UNL A   1      45.747  29.488  27.334  1.00  0.00     0.049 A 
ATOM     50  C   UNL A   1      41.018  30.785  30.033  1.00  0.00     0.074 A 
ATOM     51  C   UNL A   1      46.708  30.479  27.246  1.00  0.00     0.029 A 
ATOM     52  N   UNL A   1      44.674  30.031  28.023  1.00  0.00    -0.354 N 
ATOM     53  N   UNL A   1      42.157  30.644  29.396  1.00  0.00    -0.248 NA
ATOM     54  C   UNL A   1      40.858  32.087  30.695  1.00  0.00     0.031 C 
ATOM     55  C   UNL A   1      46.227  31.612  27.910  1.00  0.00     0.029 A 
ATOM     56  C   UNL A   1      44.952  31.339  28.377  1.00  0.00     0.049 A 
ATOM     57  H   UNL A   1      43.838  29.555  28.230  1.00  0.00     0.167 HD
ATOM     58  C   UNL A   1      42.829  31.852  29.547  1.00  0.00     0.074 A 
ATOM     59  C   UNL A   1      41.961  32.719  30.317  1.00  0.00     0.031 C 
ATOM     60  C   UNL A   1      44.057  32.208  29.099  1.00  0.00     0.034 A 
BRANCH  47  61
ATOM     61  C   UNL A   1      47.071  27.685  26.154  1.00  0.00     0.023 A 
ATOM     62  C   UNL A   1      48.057  27.005  26.899  1.00  0.00     0.012 A 
ATOM     63  C   UNL A   1      47.262  27.876  24.771  1.00  0.00     0.148 A 
ATOM     64  C   UNL A   1      49.228  26.558  26.290  1.00  0.00     0.002 A 
ATOM     65  C   UNL A   1      48.410  27.384  24.161  1.00  0.00     0.091 A 
ATOM     66  F   UNL A   1      46.325  28.542  24.082  1.00  0.00    -0.205 F 
ATOM     67  C   UNL A   1      49.399  26.737  24.920  1.00  0.00     0.022 A 
BRANCH  65  68
ATOM     68  S   UNL A   1      48.689  27.489  22.390  1.00  0.00     0.127 S 
ATOM     69  O   UNL A   1      50.016  28.100  22.337  1.00  0.00    -0.237 OA
ATOM     70  O   UNL A   1      48.649  26.082  21.989  1.00  0.00    -0.237 OA
ATOM     71  O   UNL A   1      47.606  28.304  21.859  1.00  0.00    -0.744 OA
ENDBRANCH  65  68
ENDBRANCH  47  61
BRANCH  48  72
ATOM     72  C   UNL A   1      38.632  30.189  30.888  1.00  0.00     0.023 A 
ATOM     73  C   UNL A   1      38.466  29.752  32.218  1.00  0.00     0.012 A 
ATOM     74  C   UNL A   1      37.629  30.981  30.297  1.00  0.00     0.148 A 
ATOM     75  C   UNL A   1      37.307  30.063  32.930  1.00  0.00     0.002 A 
ATOM     76  C   UNL A   1      36.505  31.336  31.031  1.00  0.00     0.091 A 
ATOM     77  F   UNL A   1      37.802  31.380  29.029  1.00  0.00    -0.205 F 
ATOM     78  C   UNL A   1      36.332  30.861  32.341  1.00  0.00     0.022 A 
BRANCH  76  79
ATOM     79  S   UNL A   1      35.262  32.469  30.401  1.00  0.00     0.127 S 
ATOM     80  O   UNL A   1      34.332  32.548  31.525  1.00  0.00    -0.237 OA
ATOM     81  O   UNL A   1      36.051  33.679  30.165  1.00  0.00    -0.237 OA
ATOM     82  O   UNL A   1      34.742  31.848  29.191  1.00  0.00    -0.744 OA
ENDBRANCH  76  79
ENDBRANCH  48  72
BRANCH  60  83
ATOM     83  C   UNL A   1      44.526  33.611  29.383  1.00  0.00     0.023 A 
ATOM     84  C   UNL A   1      45.153  33.913  30.608  1.00  0.00     0.012 A 
ATOM     85  C   UNL A   1      44.402  34.616  28.403  1.00  0.00     0.148 A 
ATOM     86  C   UNL A   1      45.615  35.202  30.868  1.00  0.00     0.002 A 
ATOM     87  C   UNL A   1      44.913  35.884  28.648  1.00  0.00     0.091 A 
ATOM     88  F   UNL A   1      43.787  34.313  27.251  1.00  0.00    -0.205 F 
ATOM     89  C   UNL A   1      45.507  36.184  29.886  1.00  0.00     0.022 A 
BRANCH  87  90
ATOM     90  S   UNL A   1      44.910  37.181  27.406  1.00  0.00     0.127 S 
ATOM     91  O   UNL A   1      45.796  36.620  26.388  1.00  0.00    -0.237 OA
ATOM     92  O   UNL A   1      43.499  37.239  27.022  1.00  0.00    -0.237 OA
ATOM     93  O   UNL A   1      45.405  38.378  28.074  1.00  0.00    -0.744 OA
ENDBRANCH  87  90
ENDBRANCH  60  83
ENDBRANCH  34  35
ENDBRANCH  26  29
ENDBRANCH  24  25
ENDBRANCH   1  24
TORSDOF 17
ENDMDL
