MODEL 1
REMARK VINA RESULT:     -11.4      0.000      0.000
REMARK SMILES COC(=O)c1nccc(N2CCO[C@H](CC(=O)NCCCNC(=O)c3ccc(-c4c5nc(c(-c6cccc(S(=O)(=O)[O-])c6F)c6ccc([nH]6)c(-c6cccc(S(=O)(=O)[O-])c6F)c6nc(c(-c7cccc(S(=O)(=O)[O-])c7F)c7ccc4[nH]7)C=C6)C=C5)cc3)C2)n1
REMARK SMILES IDX 19 1 18 2 16 3 17 4 15 6 14 7 10 8 11 9 88 10 12 11 13 12
REMARK SMILES IDX 9 13 5 14 6 15 89 16 7 17 8 18 3 19 4 20 2 21 1 22 20 23
REMARK SMILES IDX 21 24 22 25 23 26 24 28 25 29 26 30 87 31 27 32 86 33 28 34
REMARK SMILES IDX 29 35 30 36 80 37 31 38 85 39 79 40 81 41 32 42 84 43 78 44
REMARK SMILES IDX 77 45 33 47 65 48 45 49 64 50 46 51 49 52 63 53 82 54 47 55
REMARK SMILES IDX 48 56 62 58 83 59 50 60 34 61 35 62 43 63 36 64 38 65 44 66
REMARK SMILES IDX 37 67 39 68 40 69 41 70 42 71 66 72 67 73 75 74 68 75 70 76
REMARK SMILES IDX 76 77 69 78 71 79 72 80 73 81 74 82 51 83 52 84 60 85 53 86
REMARK SMILES IDX 55 87 61 88 54 89 56 90 57 91 58 92 59 93
REMARK H PARENT 18 5 22 27 81 46 49 57
REMARK Flexibility Score: inf
ROOT
ATOM      1  C   UNL A   1      31.679  27.011  25.301  1.00  0.00     0.117 C 
ENDROOT
BRANCH   1   2
ATOM      2  N   UNL A   1      30.951  26.015  26.071  1.00  0.00    -0.356 N 
ATOM      3  C   UNL A   1      31.199  24.683  26.247  1.00  0.00     0.222 C 
ATOM      4  O   UNL A   1      30.761  24.118  27.252  1.00  0.00    -0.275 OA
ATOM      5  H   UNL A   1      30.153  26.354  26.538  1.00  0.00     0.163 HD
BRANCH   3   6
ATOM      6  C   UNL A   1      31.991  23.915  25.220  1.00  0.00     0.133 C 
BRANCH   6   7
ATOM      7  C   UNL A   1      33.517  23.895  25.431  1.00  0.00     0.147 C 
ATOM      8  N   UNL A   1      34.460  21.606  25.061  1.00  0.00    -0.352 N 
ATOM      9  C   UNL A   1      34.895  21.575  26.455  1.00  0.00     0.146 C 
ATOM     10  C   UNL A   1      34.384  22.970  24.531  1.00  0.00     0.150 C 
ATOM     11  C   UNL A   1      33.907  22.400  27.290  1.00  0.00     0.182 C 
ATOM     12  O   UNL A   1      33.845  23.763  26.839  1.00  0.00    -0.374 OA
BRANCH   8  13
ATOM     13  C   UNL A   1      33.791  20.570  24.439  1.00  0.00     0.133 A 
ATOM     14  C   UNL A   1      33.575  18.327  23.954  1.00  0.00     0.241 A 
ATOM     15  N   UNL A   1      32.557  18.485  23.086  1.00  0.00    -0.231 NA
ATOM     16  N   UNL A   1      34.226  19.308  24.626  1.00  0.00    -0.205 NA
ATOM     17  C   UNL A   1      32.153  19.747  22.929  1.00  0.00     0.117 A 
ATOM     18  C   UNL A   1      32.717  20.812  23.595  1.00  0.00     0.067 A 
BRANCH  14  19
ATOM     19  C   UNL A   1      34.111  16.943  24.046  1.00  0.00     0.376 C 
ATOM     20  O   UNL A   1      33.904  16.077  23.196  1.00  0.00    -0.242 OA
BRANCH  19  21
ATOM     21  O   UNL A   1      34.741  16.791  25.236  1.00  0.00    -0.463 OA
ATOM     22  C   UNL A   1      35.528  15.602  25.376  1.00  0.00     0.282 C 
ENDBRANCH  19  21
ENDBRANCH  14  19
ENDBRANCH   8  13
ENDBRANCH   6   7
ENDBRANCH   3   6
ENDBRANCH   1   2
BRANCH   1  23
ATOM     23  C   UNL A   1      33.014  27.503  25.865  1.00  0.00     0.042 C 
BRANCH  23  24
ATOM     24  C   UNL A   1      33.615  28.775  25.257  1.00  0.00     0.118 C 
BRANCH  24  25
ATOM     25  N   UNL A   1      32.945  29.999  25.634  1.00  0.00    -0.352 N 
ATOM     26  C   UNL A   1      33.230  30.865  26.661  1.00  0.00     0.251 C 
ATOM     27  H   UNL A   1      32.174  30.248  25.076  1.00  0.00     0.163 HD
ATOM     28  O   UNL A   1      32.463  31.804  26.874  1.00  0.00    -0.269 OA
BRANCH  26  29
ATOM     29  C   UNL A   1      34.426  30.706  27.532  1.00  0.00     0.039 A 
ATOM     30  C   UNL A   1      34.465  29.579  28.362  1.00  0.00     0.014 A 
ATOM     31  C   UNL A   1      35.446  31.660  27.628  1.00  0.00     0.014 A 
ATOM     32  C   UNL A   1      35.539  29.375  29.232  1.00  0.00     0.010 A 
ATOM     33  C   UNL A   1      36.537  31.445  28.484  1.00  0.00     0.010 A 
ATOM     34  C   UNL A   1      36.601  30.292  29.278  1.00  0.00    -0.014 A 
BRANCH  34  35
ATOM     35  C   UNL A   1      37.835  29.946  30.030  1.00  0.00     0.031 A 
ATOM     36  C   UNL A   1      38.128  30.493  31.394  1.00  0.00     0.074 A 
ATOM     37  C   UNL A   1      38.731  29.143  29.423  1.00  0.00     0.049 A 
ATOM     38  N   UNL A   1      39.115  30.194  32.202  1.00  0.00    -0.248 NA
ATOM     39  C   UNL A   1      37.211  31.514  31.918  1.00  0.00     0.031 C 
ATOM     40  C   UNL A   1      38.600  28.632  28.057  1.00  0.00     0.029 A 
ATOM     41  N   UNL A   1      39.928  28.635  29.857  1.00  0.00    -0.354 N 
ATOM     42  C   UNL A   1      38.949  30.992  33.326  1.00  0.00     0.074 A 
ATOM     43  C   UNL A   1      37.776  31.809  33.083  1.00  0.00     0.031 C 
ATOM     44  C   UNL A   1      39.677  27.891  27.762  1.00  0.00     0.029 A 
ATOM     45  C   UNL A   1      40.575  27.877  28.912  1.00  0.00     0.049 A 
ATOM     46  H   UNL A   1      40.289  28.799  30.758  1.00  0.00     0.167 HD
ATOM     47  C   UNL A   1      39.690  31.022  34.462  1.00  0.00     0.034 A 
ATOM     48  C   UNL A   1      41.756  27.233  28.962  1.00  0.00     0.034 A 
ATOM     49  C   UNL A   1      40.853  30.201  34.690  1.00  0.00     0.049 A 
ATOM     50  C   UNL A   1      42.529  27.228  30.249  1.00  0.00     0.074 A 
ATOM     51  C   UNL A   1      41.617  30.084  35.840  1.00  0.00     0.029 A 
ATOM     52  N   UNL A   1      41.436  29.369  33.744  1.00  0.00    -0.354 N 
ATOM     53  N   UNL A   1      42.241  27.826  31.380  1.00  0.00    -0.248 NA
ATOM     54  C   UNL A   1      43.756  26.423  30.287  1.00  0.00     0.031 C 
ATOM     55  C   UNL A   1      42.673  29.202  35.579  1.00  0.00     0.029 A 
ATOM     56  C   UNL A   1      42.557  28.750  34.275  1.00  0.00     0.049 A 
ATOM     57  H   UNL A   1      41.100  29.237  32.828  1.00  0.00     0.167 HD
ATOM     58  C   UNL A   1      43.239  27.453  32.273  1.00  0.00     0.074 A 
ATOM     59  C   UNL A   1      44.123  26.556  31.555  1.00  0.00     0.031 C 
ATOM     60  C   UNL A   1      43.414  27.834  33.563  1.00  0.00     0.034 A 
BRANCH  47  61
ATOM     61  C   UNL A   1      39.232  31.935  35.573  1.00  0.00     0.023 A 
ATOM     62  C   UNL A   1      38.318  31.448  36.531  1.00  0.00     0.012 A 
ATOM     63  C   UNL A   1      39.735  33.245  35.708  1.00  0.00     0.148 A 
ATOM     64  C   UNL A   1      37.882  32.259  37.580  1.00  0.00     0.002 A 
ATOM     65  C   UNL A   1      39.323  34.035  36.778  1.00  0.00     0.091 A 
ATOM     66  F   UNL A   1      40.589  33.703  34.783  1.00  0.00    -0.205 F 
ATOM     67  C   UNL A   1      38.390  33.548  37.707  1.00  0.00     0.022 A 
BRANCH  65  68
ATOM     68  S   UNL A   1      39.980  35.684  37.064  1.00  0.00     0.127 S 
ATOM     69  O   UNL A   1      39.278  36.074  38.286  1.00  0.00    -0.237 OA
ATOM     70  O   UNL A   1      41.410  35.426  37.242  1.00  0.00    -0.237 OA
ATOM     71  O   UNL A   1      39.651  36.452  35.872  1.00  0.00    -0.744 OA
ENDBRANCH  65  68
ENDBRANCH  47  61
BRANCH  48  72
ATOM     72  C   UNL A   1      42.210  26.469  27.767  1.00  0.00     0.023 A 
ATOM     73  C   UNL A   1      43.125  27.058  26.874  1.00  0.00     0.012 A 
ATOM     74  C   UNL A   1      41.824  25.128  27.575  1.00  0.00     0.148 A 
ATOM     75  C   UNL A   1      43.639  26.327  25.803  1.00  0.00     0.002 A 
ATOM     76  C   UNL A   1      42.383  24.389  26.541  1.00  0.00     0.091 A 
ATOM     77  F   UNL A   1      40.946  24.592  28.435  1.00  0.00    -0.205 F 
ATOM     78  C   UNL A   1      43.281  24.990  25.645  1.00  0.00     0.022 A 
BRANCH  76  79
ATOM     79  S   UNL A   1      42.099  22.624  26.356  1.00  0.00     0.127 S 
ATOM     80  O   UNL A   1      42.671  22.098  27.593  1.00  0.00    -0.237 OA
ATOM     81  O   UNL A   1      40.639  22.560  26.276  1.00  0.00    -0.237 OA
ATOM     82  O   UNL A   1      42.782  22.241  25.128  1.00  0.00    -0.744 OA
ENDBRANCH  76  79
ENDBRANCH  48  72
BRANCH  60  83
ATOM     83  C   UNL A   1      44.613  27.283  34.290  1.00  0.00     0.023 A 
ATOM     84  C   UNL A   1      45.825  28.000  34.272  1.00  0.00     0.012 A 
ATOM     85  C   UNL A   1      44.525  26.091  35.037  1.00  0.00     0.148 A 
ATOM     86  C   UNL A   1      46.941  27.526  34.963  1.00  0.00     0.002 A 
ATOM     87  C   UNL A   1      45.628  25.647  35.759  1.00  0.00     0.091 A 
ATOM     88  F   UNL A   1      43.370  25.409  35.022  1.00  0.00    -0.205 F 
ATOM     89  C   UNL A   1      46.840  26.358  35.714  1.00  0.00     0.022 A 
BRANCH  87  90
ATOM     90  S   UNL A   1      45.562  24.201  36.822  1.00  0.00     0.127 S 
ATOM     91  O   UNL A   1      44.560  24.601  37.808  1.00  0.00    -0.237 OA
ATOM     92  O   UNL A   1      45.123  23.154  35.899  1.00  0.00    -0.237 OA
ATOM     93  O   UNL A   1      46.913  24.022  37.336  1.00  0.00    -0.744 OA
ENDBRANCH  87  90
ENDBRANCH  60  83
ENDBRANCH  34  35
ENDBRANCH  26  29
ENDBRANCH  24  25
ENDBRANCH  23  24
ENDBRANCH   1  23
TORSDOF 17
ENDMDL
MODEL 2
REMARK VINA RESULT:     -11.2      1.739      2.363
REMARK SMILES COC(=O)c1nccc(N2CCO[C@H](CC(=O)NCCCNC(=O)c3ccc(-c4c5nc(c(-c6cccc(S(=O)(=O)[O-])c6F)c6ccc([nH]6)c(-c6cccc(S(=O)(=O)[O-])c6F)c6nc(c(-c7cccc(S(=O)(=O)[O-])c7F)c7ccc4[nH]7)C=C6)C=C5)cc3)C2)n1
REMARK SMILES IDX 19 1 18 2 16 3 17 4 15 6 14 7 10 8 11 9 88 10 12 11 13 12
REMARK SMILES IDX 9 13 5 14 6 15 89 16 7 17 8 18 3 19 4 20 2 21 1 22 20 23
REMARK SMILES IDX 21 24 22 25 23 26 24 28 25 29 26 30 87 31 27 32 86 33 28 34
REMARK SMILES IDX 29 35 30 36 80 37 31 38 85 39 79 40 81 41 32 42 84 43 78 44
REMARK SMILES IDX 77 45 33 47 65 48 45 49 64 50 46 51 49 52 63 53 82 54 47 55
REMARK SMILES IDX 48 56 62 58 83 59 50 60 34 61 35 62 43 63 36 64 38 65 44 66
REMARK SMILES IDX 37 67 39 68 40 69 41 70 42 71 66 72 67 73 75 74 68 75 70 76
REMARK SMILES IDX 76 77 69 78 71 79 72 80 73 81 74 82 51 83 52 84 60 85 53 86
REMARK SMILES IDX 55 87 61 88 54 89 56 90 57 91 58 92 59 93
REMARK H PARENT 18 5 22 27 81 46 49 57
REMARK Flexibility Score: inf
ROOT
ATOM      1  C   UNL A   1      32.327  28.624  23.507  1.00  0.00     0.117 C 
ENDROOT
BRANCH   1   2
ATOM      2  N   UNL A   1      32.930  27.877  22.414  1.00  0.00    -0.356 N 
ATOM      3  C   UNL A   1      33.312  26.567  22.348  1.00  0.00     0.222 C 
ATOM      4  O   UNL A   1      33.379  26.016  21.246  1.00  0.00    -0.275 OA
ATOM      5  H   UNL A   1      33.087  28.398  21.593  1.00  0.00     0.163 HD
BRANCH   3   6
ATOM      6  C   UNL A   1      33.656  25.810  23.605  1.00  0.00     0.133 C 
BRANCH   6   7
ATOM      7  C   UNL A   1      32.489  25.572  24.582  1.00  0.00     0.147 C 
ATOM      8  N   UNL A   1      32.398  23.185  25.330  1.00  0.00    -0.352 N 
ATOM      9  C   UNL A   1      31.083  23.055  24.708  1.00  0.00     0.146 C 
ATOM     10  C   UNL A   1      32.684  24.561  25.747  1.00  0.00     0.150 C 
ATOM     11  C   UNL A   1      31.028  23.985  23.490  1.00  0.00     0.182 C 
ATOM     12  O   UNL A   1      31.246  25.356  23.863  1.00  0.00    -0.374 OA
BRANCH   8  13
ATOM     13  C   UNL A   1      33.421  22.271  25.171  1.00  0.00     0.133 A 
ATOM     14  C   UNL A   1      34.143  20.106  24.843  1.00  0.00     0.241 A 
ATOM     15  N   UNL A   1      35.451  20.388  24.992  1.00  0.00    -0.231 NA
ATOM     16  N   UNL A   1      33.111  20.980  24.939  1.00  0.00    -0.205 NA
ATOM     17  C   UNL A   1      35.720  21.676  25.218  1.00  0.00     0.117 A 
ATOM     18  C   UNL A   1      34.750  22.650  25.292  1.00  0.00     0.067 A 
BRANCH  14  19
ATOM     19  C   UNL A   1      33.824  18.661  24.711  1.00  0.00     0.376 C 
ATOM     20  O   UNL A   1      34.342  17.924  23.871  1.00  0.00    -0.242 OA
BRANCH  19  21
ATOM     21  O   UNL A   1      32.822  18.348  25.569  1.00  0.00    -0.463 OA
ATOM     22  C   UNL A   1      32.569  16.949  25.746  1.00  0.00     0.282 C 
ENDBRANCH  19  21
ENDBRANCH  14  19
ENDBRANCH   8  13
ENDBRANCH   6   7
ENDBRANCH   3   6
ENDBRANCH   1   2
BRANCH   1  23
ATOM     23  C   UNL A   1      33.269  29.321  24.491  1.00  0.00     0.042 C 
BRANCH  23  24
ATOM     24  C   UNL A   1      32.797  29.470  25.941  1.00  0.00     0.118 C 
BRANCH  24  25
ATOM     25  N   UNL A   1      32.622  30.836  26.382  1.00  0.00    -0.352 N 
ATOM     26  C   UNL A   1      33.391  31.576  27.245  1.00  0.00     0.251 C 
ATOM     27  H   UNL A   1      31.839  31.302  26.010  1.00  0.00     0.163 HD
ATOM     28  O   UNL A   1      33.003  32.698  27.570  1.00  0.00    -0.269 OA
BRANCH  26  29
ATOM     29  C   UNL A   1      34.671  31.070  27.810  1.00  0.00     0.039 A 
ATOM     30  C   UNL A   1      35.678  32.013  28.051  1.00  0.00     0.014 A 
ATOM     31  C   UNL A   1      34.945  29.712  28.015  1.00  0.00     0.014 A 
ATOM     32  C   UNL A   1      36.920  31.612  28.551  1.00  0.00     0.010 A 
ATOM     33  C   UNL A   1      36.183  29.311  28.539  1.00  0.00     0.010 A 
ATOM     34  C   UNL A   1      37.173  30.260  28.828  1.00  0.00    -0.014 A 
BRANCH  34  35
ATOM     35  C   UNL A   1      38.403  29.882  29.570  1.00  0.00     0.031 A 
ATOM     36  C   UNL A   1      38.745  30.458  30.911  1.00  0.00     0.074 A 
ATOM     37  C   UNL A   1      39.252  29.021  28.975  1.00  0.00     0.049 A 
ATOM     38  N   UNL A   1      39.731  30.140  31.712  1.00  0.00    -0.248 NA
ATOM     39  C   UNL A   1      37.884  31.536  31.417  1.00  0.00     0.031 C 
ATOM     40  C   UNL A   1      39.074  28.474  27.628  1.00  0.00     0.029 A 
ATOM     41  N   UNL A   1      40.432  28.473  29.406  1.00  0.00    -0.354 N 
ATOM     42  C   UNL A   1      39.621  30.980  32.812  1.00  0.00     0.074 A 
ATOM     43  C   UNL A   1      38.482  31.841  32.562  1.00  0.00     0.031 C 
ATOM     44  C   UNL A   1      40.111  27.676  27.340  1.00  0.00     0.029 A 
ATOM     45  C   UNL A   1      41.028  27.657  28.475  1.00  0.00     0.049 A 
ATOM     46  H   UNL A   1      40.816  28.648  30.295  1.00  0.00     0.167 HD
ATOM     47  C   UNL A   1      40.383  31.011  33.934  1.00  0.00     0.034 A 
ATOM     48  C   UNL A   1      42.179  26.962  28.527  1.00  0.00     0.034 A 
ATOM     49  C   UNL A   1      41.511  30.146  34.170  1.00  0.00     0.049 A 
ATOM     50  C   UNL A   1      42.974  26.962  29.801  1.00  0.00     0.074 A 
ATOM     51  C   UNL A   1      42.290  30.031  35.311  1.00  0.00     0.029 A 
ATOM     52  N   UNL A   1      42.039  29.259  33.242  1.00  0.00    -0.354 N 
ATOM     53  N   UNL A   1      42.733  27.607  30.916  1.00  0.00    -0.248 NA
ATOM     54  C   UNL A   1      44.164  26.103  29.845  1.00  0.00     0.031 C 
ATOM     55  C   UNL A   1      43.300  29.093  35.062  1.00  0.00     0.029 A 
ATOM     56  C   UNL A   1      43.141  28.607  33.774  1.00  0.00     0.049 A 
ATOM     57  H   UNL A   1      41.683  29.114  32.336  1.00  0.00     0.167 HD
ATOM     58  C   UNL A   1      43.729  27.218  31.804  1.00  0.00     0.074 A 
ATOM     59  C   UNL A   1      44.559  26.260  31.102  1.00  0.00     0.031 C 
ATOM     60  C   UNL A   1      43.943  27.631  33.078  1.00  0.00     0.034 A 
BRANCH  47  61
ATOM     61  C   UNL A   1      39.985  31.979  35.023  1.00  0.00     0.023 A 
ATOM     62  C   UNL A   1      40.526  33.281  35.018  1.00  0.00     0.012 A 
ATOM     63  C   UNL A   1      39.046  31.630  36.014  1.00  0.00     0.148 A 
ATOM     64  C   UNL A   1      40.172  34.207  36.000  1.00  0.00     0.002 A 
ATOM     65  C   UNL A   1      38.669  32.571  36.969  1.00  0.00     0.091 A 
ATOM     66  F   UNL A   1      38.551  30.385  36.020  1.00  0.00    -0.205 F 
ATOM     67  C   UNL A   1      39.239  33.854  36.969  1.00  0.00     0.022 A 
BRANCH  65  68
ATOM     68  S   UNL A   1      37.418  32.230  38.214  1.00  0.00     0.127 S 
ATOM     69  O   UNL A   1      37.331  30.772  38.154  1.00  0.00    -0.237 OA
ATOM     70  O   UNL A   1      38.038  32.752  39.434  1.00  0.00    -0.237 OA
ATOM     71  O   UNL A   1      36.229  32.953  37.788  1.00  0.00    -0.744 OA
ENDBRANCH  65  68
ENDBRANCH  47  61
BRANCH  48  72
ATOM     72  C   UNL A   1      42.578  26.141  27.349  1.00  0.00     0.023 A 
ATOM     73  C   UNL A   1      43.484  26.668  26.411  1.00  0.00     0.012 A 
ATOM     74  C   UNL A   1      42.147  24.806  27.219  1.00  0.00     0.148 A 
ATOM     75  C   UNL A   1      43.947  25.883  25.355  1.00  0.00     0.002 A 
ATOM     76  C   UNL A   1      42.656  24.012  26.199  1.00  0.00     0.091 A 
ATOM     77  F   UNL A   1      41.279  24.329  28.121  1.00  0.00    -0.205 F 
ATOM     78  C   UNL A   1      43.546  24.553  25.257  1.00  0.00     0.022 A 
BRANCH  76  79
ATOM     79  S   UNL A   1      42.315  22.251  26.089  1.00  0.00     0.127 S 
ATOM     80  O   UNL A   1      43.087  21.870  24.909  1.00  0.00    -0.237 OA
ATOM     81  O   UNL A   1      42.849  21.760  27.360  1.00  0.00    -0.237 OA
ATOM     82  O   UNL A   1      40.868  22.137  25.965  1.00  0.00    -0.744 OA
ENDBRANCH  76  79
ENDBRANCH  48  72
BRANCH  60  83
ATOM     83  C   UNL A   1      45.128  27.049  33.803  1.00  0.00     0.023 A 
ATOM     84  C   UNL A   1      46.366  27.721  33.762  1.00  0.00     0.012 A 
ATOM     85  C   UNL A   1      45.006  25.875  34.572  1.00  0.00     0.148 A 
ATOM     86  C   UNL A   1      47.471  27.219  34.450  1.00  0.00     0.002 A 
ATOM     87  C   UNL A   1      46.099  25.403  35.291  1.00  0.00     0.091 A 
ATOM     88  F   UNL A   1      43.826  25.235  34.581  1.00  0.00    -0.205 F 
ATOM     89  C   UNL A   1      47.335  26.068  35.223  1.00  0.00     0.022 A 
BRANCH  87  90
ATOM     90  S   UNL A   1      45.991  23.979  36.381  1.00  0.00     0.127 S 
ATOM     91  O   UNL A   1      44.927  24.383  37.297  1.00  0.00    -0.237 OA
ATOM     92  O   UNL A   1      45.624  22.905  35.457  1.00  0.00    -0.237 OA
ATOM     93  O   UNL A   1      47.312  23.833  36.977  1.00  0.00    -0.744 OA
ENDBRANCH  87  90
ENDBRANCH  60  83
ENDBRANCH  34  35
ENDBRANCH  26  29
ENDBRANCH  24  25
ENDBRANCH  23  24
ENDBRANCH   1  23
TORSDOF 17
ENDMDL
MODEL 3
REMARK VINA RESULT:     -11.2      1.607      2.408
REMARK SMILES COC(=O)c1nccc(N2CCO[C@H](CC(=O)NCCCNC(=O)c3ccc(-c4c5nc(c(-c6cccc(S(=O)(=O)[O-])c6F)c6ccc([nH]6)c(-c6cccc(S(=O)(=O)[O-])c6F)c6nc(c(-c7cccc(S(=O)(=O)[O-])c7F)c7ccc4[nH]7)C=C6)C=C5)cc3)C2)n1
REMARK SMILES IDX 19 1 18 2 16 3 17 4 15 6 14 7 10 8 11 9 88 10 12 11 13 12
REMARK SMILES IDX 9 13 5 14 6 15 89 16 7 17 8 18 3 19 4 20 2 21 1 22 20 23
REMARK SMILES IDX 21 24 22 25 23 26 24 28 25 29 26 30 87 31 27 32 86 33 28 34
REMARK SMILES IDX 29 35 30 36 80 37 31 38 85 39 79 40 81 41 32 42 84 43 78 44
REMARK SMILES IDX 77 45 33 47 65 48 45 49 64 50 46 51 49 52 63 53 82 54 47 55
REMARK SMILES IDX 48 56 62 58 83 59 50 60 34 61 35 62 43 63 36 64 38 65 44 66
REMARK SMILES IDX 37 67 39 68 40 69 41 70 42 71 66 72 67 73 75 74 68 75 70 76
REMARK SMILES IDX 76 77 69 78 71 79 72 80 73 81 74 82 51 83 52 84 60 85 53 86
REMARK SMILES IDX 55 87 61 88 54 89 56 90 57 91 58 92 59 93
REMARK H PARENT 18 5 22 27 81 46 49 57
REMARK Flexibility Score: inf
ROOT
ATOM      1  C   UNL A   1      32.193  28.527  24.056  1.00  0.00     0.117 C 
ENDROOT
BRANCH   1   2
ATOM      2  N   UNL A   1      32.983  27.957  22.976  1.00  0.00    -0.356 N 
ATOM      3  C   UNL A   1      33.450  26.685  22.803  1.00  0.00     0.222 C 
ATOM      4  O   UNL A   1      33.700  26.287  21.663  1.00  0.00    -0.275 OA
ATOM      5  H   UNL A   1      33.218  28.588  22.257  1.00  0.00     0.163 HD
BRANCH   3   6
ATOM      6  C   UNL A   1      33.664  25.785  23.992  1.00  0.00     0.133 C 
BRANCH   6   7
ATOM      7  C   UNL A   1      32.423  25.521  24.865  1.00  0.00     0.147 C 
ATOM      8  N   UNL A   1      32.247  23.106  25.498  1.00  0.00    -0.352 N 
ATOM      9  C   UNL A   1      30.983  23.021  24.771  1.00  0.00     0.146 C 
ATOM     10  C   UNL A   1      32.514  24.459  25.996  1.00  0.00     0.150 C 
ATOM     11  C   UNL A   1      31.034  24.004  23.594  1.00  0.00     0.182 C 
ATOM     12  O   UNL A   1      31.237  25.354  24.043  1.00  0.00    -0.374 OA
BRANCH   8  13
ATOM     13  C   UNL A   1      33.269  22.185  25.380  1.00  0.00     0.133 A 
ATOM     14  C   UNL A   1      35.518  21.680  25.324  1.00  0.00     0.241 A 
ATOM     15  N   UNL A   1      35.346  20.384  25.002  1.00  0.00    -0.231 NA
ATOM     16  N   UNL A   1      34.544  22.606  25.501  1.00  0.00    -0.205 NA
ATOM     17  C   UNL A   1      34.072  20.003  24.893  1.00  0.00     0.117 A 
ATOM     18  C   UNL A   1      33.007  20.853  25.093  1.00  0.00     0.067 A 
BRANCH  14  19
ATOM     19  C   UNL A   1      36.931  22.143  25.331  1.00  0.00     0.376 C 
ATOM     20  O   UNL A   1      37.794  21.680  26.076  1.00  0.00    -0.242 OA
BRANCH  19  21
ATOM     21  O   UNL A   1      37.056  23.195  24.486  1.00  0.00    -0.463 OA
ATOM     22  C   UNL A   1      36.651  22.959  23.132  1.00  0.00     0.282 C 
ENDBRANCH  19  21
ENDBRANCH  14  19
ENDBRANCH   8  13
ENDBRANCH   6   7
ENDBRANCH   3   6
ENDBRANCH   1   2
BRANCH   1  23
ATOM     23  C   UNL A   1      32.902  29.468  25.032  1.00  0.00     0.042 C 
BRANCH  23  24
ATOM     24  C   UNL A   1      32.137  29.898  26.288  1.00  0.00     0.118 C 
BRANCH  24  25
ATOM     25  N   UNL A   1      32.120  31.325  26.525  1.00  0.00    -0.352 N 
ATOM     26  C   UNL A   1      32.991  32.095  27.254  1.00  0.00     0.251 C 
ATOM     27  H   UNL A   1      31.376  31.813  26.104  1.00  0.00     0.163 HD
ATOM     28  O   UNL A   1      32.733  33.287  27.417  1.00  0.00    -0.269 OA
BRANCH  26  29
ATOM     29  C   UNL A   1      34.232  31.541  27.860  1.00  0.00     0.039 A 
ATOM     30  C   UNL A   1      35.315  32.417  28.007  1.00  0.00     0.014 A 
ATOM     31  C   UNL A   1      34.395  30.192  28.194  1.00  0.00     0.014 A 
ATOM     32  C   UNL A   1      36.525  31.965  28.539  1.00  0.00     0.010 A 
ATOM     33  C   UNL A   1      35.602  29.742  28.751  1.00  0.00     0.010 A 
ATOM     34  C   UNL A   1      36.670  30.629  28.945  1.00  0.00    -0.014 A 
BRANCH  34  35
ATOM     35  C   UNL A   1      37.873  30.224  29.716  1.00  0.00     0.031 A 
ATOM     36  C   UNL A   1      38.148  30.725  31.102  1.00  0.00     0.074 A 
ATOM     37  C   UNL A   1      38.758  29.410  29.109  1.00  0.00     0.049 A 
ATOM     38  N   UNL A   1      39.104  30.373  31.925  1.00  0.00    -0.248 NA
ATOM     39  C   UNL A   1      37.250  31.760  31.631  1.00  0.00     0.031 C 
ATOM     40  C   UNL A   1      38.646  28.940  27.727  1.00  0.00     0.029 A 
ATOM     41  N   UNL A   1      39.927  28.853  29.559  1.00  0.00    -0.354 N 
ATOM     42  C   UNL A   1      38.934  31.145  33.066  1.00  0.00     0.074 A 
ATOM     43  C   UNL A   1      37.794  32.005  32.817  1.00  0.00     0.031 C 
ATOM     44  C   UNL A   1      39.707  28.174  27.438  1.00  0.00     0.029 A 
ATOM     45  C   UNL A   1      40.574  28.100  28.609  1.00  0.00     0.049 A 
ATOM     46  H   UNL A   1      40.270  28.980  30.473  1.00  0.00     0.167 HD
ATOM     47  C   UNL A   1      39.648  31.121  34.220  1.00  0.00     0.034 A 
ATOM     48  C   UNL A   1      41.733  27.417  28.670  1.00  0.00     0.034 A 
ATOM     49  C   UNL A   1      40.778  30.257  34.455  1.00  0.00     0.049 A 
ATOM     50  C   UNL A   1      42.472  27.353  29.975  1.00  0.00     0.074 A 
ATOM     51  C   UNL A   1      41.509  30.086  35.619  1.00  0.00     0.029 A 
ATOM     52  N   UNL A   1      41.358  29.433  33.500  1.00  0.00    -0.354 N 
ATOM     53  N   UNL A   1      42.175  27.929  31.115  1.00  0.00    -0.248 NA
ATOM     54  C   UNL A   1      43.673  26.508  30.021  1.00  0.00     0.031 C 
ATOM     55  C   UNL A   1      42.543  29.177  35.360  1.00  0.00     0.029 A 
ATOM     56  C   UNL A   1      42.446  28.765  34.041  1.00  0.00     0.049 A 
ATOM     57  H   UNL A   1      41.043  29.337  32.573  1.00  0.00     0.167 HD
ATOM     58  C   UNL A   1      43.138  27.501  32.021  1.00  0.00     0.074 A 
ATOM     59  C   UNL A   1      44.012  26.596  31.301  1.00  0.00     0.031 C 
ATOM     60  C   UNL A   1      43.291  27.841  33.325  1.00  0.00     0.034 A 
BRANCH  47  61
ATOM     61  C   UNL A   1      39.190  32.018  35.345  1.00  0.00     0.023 A 
ATOM     62  C   UNL A   1      38.226  31.540  36.257  1.00  0.00     0.012 A 
ATOM     63  C   UNL A   1      39.740  33.301  35.538  1.00  0.00     0.148 A 
ATOM     64  C   UNL A   1      37.788  32.336  37.317  1.00  0.00     0.002 A 
ATOM     65  C   UNL A   1      39.326  34.074  36.619  1.00  0.00     0.091 A 
ATOM     66  F   UNL A   1      40.643  33.751  34.656  1.00  0.00    -0.205 F 
ATOM     67  C   UNL A   1      38.344  33.598  37.502  1.00  0.00     0.022 A 
BRANCH  65  68
ATOM     68  S   UNL A   1      40.039  35.685  36.979  1.00  0.00     0.127 S 
ATOM     69  O   UNL A   1      39.653  36.450  35.795  1.00  0.00    -0.237 OA
ATOM     70  O   UNL A   1      39.341  36.071  38.206  1.00  0.00    -0.237 OA
ATOM     71  O   UNL A   1      41.467  35.456  37.146  1.00  0.00    -0.744 OA
ENDBRANCH  65  68
ENDBRANCH  47  61
BRANCH  48  72
ATOM     72  C   UNL A   1      42.194  26.672  27.466  1.00  0.00     0.023 A 
ATOM     73  C   UNL A   1      42.996  27.324  26.511  1.00  0.00     0.012 A 
ATOM     74  C   UNL A   1      41.930  25.295  27.322  1.00  0.00     0.148 A 
ATOM     75  C   UNL A   1      43.520  26.620  25.427  1.00  0.00     0.002 A 
ATOM     76  C   UNL A   1      42.502  24.588  26.272  1.00  0.00     0.091 A 
ATOM     77  F   UNL A   1      41.158  24.698  28.240  1.00  0.00    -0.205 F 
ATOM     78  C   UNL A   1      43.286  25.252  25.315  1.00  0.00     0.022 A 
BRANCH  76  79
ATOM     79  S   UNL A   1      42.382  22.800  26.138  1.00  0.00     0.127 S 
ATOM     80  O   UNL A   1      40.936  22.594  26.176  1.00  0.00    -0.237 OA
ATOM     81  O   UNL A   1      43.006  22.552  24.837  1.00  0.00    -0.237 OA
ATOM     82  O   UNL A   1      43.129  22.269  27.270  1.00  0.00    -0.744 OA
ENDBRANCH  76  79
ENDBRANCH  48  72
BRANCH  60  83
ATOM     83  C   UNL A   1      44.454  27.232  34.066  1.00  0.00     0.023 A 
ATOM     84  C   UNL A   1      45.720  27.846  33.995  1.00  0.00     0.012 A 
ATOM     85  C   UNL A   1      44.282  26.093  34.877  1.00  0.00     0.148 A 
ATOM     86  C   UNL A   1      46.805  27.319  34.696  1.00  0.00     0.002 A 
ATOM     87  C   UNL A   1      45.358  25.599  35.608  1.00  0.00     0.091 A 
ATOM     88  F   UNL A   1      43.076  25.508  34.914  1.00  0.00    -0.205 F 
ATOM     89  C   UNL A   1      46.622  26.205  35.510  1.00  0.00     0.022 A 
BRANCH  87  90
ATOM     90  S   UNL A   1      45.192  24.221  36.749  1.00  0.00     0.127 S 
ATOM     91  O   UNL A   1      44.239  24.751  37.721  1.00  0.00    -0.237 OA
ATOM     92  O   UNL A   1      44.660  23.165  35.888  1.00  0.00    -0.237 OA
ATOM     93  O   UNL A   1      46.532  23.963  37.258  1.00  0.00    -0.744 OA
ENDBRANCH  87  90
ENDBRANCH  60  83
ENDBRANCH  34  35
ENDBRANCH  26  29
ENDBRANCH  24  25
ENDBRANCH  23  24
ENDBRANCH   1  23
TORSDOF 17
ENDMDL
