MODEL 1
REMARK VINA RESULT:     -12.6      0.000      0.000
REMARK SMILES COc1ccc(S(=O)(=O)N(Cc2ccccc2)c2ccccc2C(=O)NCCCNC(=O)c2ccc(-c3c4nc(c(-c5cccc(S(=O)(=O)[O-])c5F)c5ccc([nH]5)c(-c5cccc(S(=O)(=O)[O-])c5F)c5nc(c(-c6cccc(S(=O)(=O)[O-])c6F)c6ccc3[nH]6)C=C5)C=C4)cc2)cc1
REMARK SMILES IDX 27 1 26 2 24 3 25 4 23 6 18 7 19 8 20 9 22 10 21 11 10 12
REMARK SMILES IDX 7 13 8 14 9 15 6 16 3 17 4 18 97 19 5 20 96 21 2 22 1 23
REMARK SMILES IDX 11 24 12 25 13 26 17 27 14 28 16 29 15 30 28 31 29 32 30 33
REMARK SMILES IDX 31 34 32 36 33 37 34 38 95 39 35 40 94 41 36 42 37 43 38 44
REMARK SMILES IDX 88 45 39 46 93 47 87 48 89 49 40 50 92 51 86 52 85 53 41 55
REMARK SMILES IDX 73 56 53 57 72 58 54 59 57 60 71 61 90 62 55 63 56 64 70 66
REMARK SMILES IDX 91 67 58 68 42 69 43 70 51 71 44 72 46 73 52 74 45 75 47 76
REMARK SMILES IDX 48 77 49 78 50 79 74 80 75 81 83 82 76 83 78 84 84 85 77 86
REMARK SMILES IDX 79 87 80 88 81 89 82 90 59 91 60 92 68 93 61 94 63 95 69 96
REMARK SMILES IDX 62 97 64 98 65 99 66 100 67 101
REMARK H PARENT 26 5 30 35 89 54 57 65
REMARK Flexibility Score: inf
ROOT
ATOM      1  C   UNL A   1      31.689  30.381  25.693  1.00  0.00     0.118 C 
ENDROOT
BRANCH   1   2
ATOM      2  N   UNL A   1      32.372  29.701  24.631  1.00  0.00    -0.352 N 
ATOM      3  C   UNL A   1      31.846  29.009  23.573  1.00  0.00     0.253 C 
ATOM      4  O   UNL A   1      32.648  28.601  22.726  1.00  0.00    -0.269 OA
ATOM      5  H   UNL A   1      33.356  29.734  24.669  1.00  0.00     0.163 HD
BRANCH   3   6
ATOM      6  C   UNL A   1      30.412  28.616  23.430  1.00  0.00     0.064 A 
ATOM      7  C   UNL A   1      29.739  27.465  23.896  1.00  0.00     0.065 A 
ATOM      8  C   UNL A   1      28.330  27.427  23.796  1.00  0.00     0.028 A 
ATOM      9  C   UNL A   1      27.607  28.413  23.126  1.00  0.00     0.002 A 
ATOM     10  C   UNL A   1      29.649  29.617  22.778  1.00  0.00     0.016 A 
ATOM     11  C   UNL A   1      28.272  29.503  22.593  1.00  0.00     0.001 A 
BRANCH   7  12
ATOM     12  N   UNL A   1      30.382  26.225  24.315  1.00  0.00    -0.261 N 
BRANCH  12  13
ATOM     13  S   UNL A   1      30.554  25.973  25.991  1.00  0.00     0.264 S 
ATOM     14  O   UNL A   1      29.352  25.382  26.527  1.00  0.00    -0.201 OA
ATOM     15  O   UNL A   1      31.029  27.231  26.548  1.00  0.00    -0.201 OA
BRANCH  13  16
ATOM     16  C   UNL A   1      31.892  24.786  26.265  1.00  0.00     0.088 A 
ATOM     17  C   UNL A   1      33.939  22.883  26.715  1.00  0.00     0.118 A 
ATOM     18  C   UNL A   1      32.606  22.584  27.009  1.00  0.00     0.048 A 
ATOM     19  C   UNL A   1      34.240  24.123  26.174  1.00  0.00     0.048 A 
ATOM     20  C   UNL A   1      31.587  23.534  26.809  1.00  0.00     0.026 A 
ATOM     21  C   UNL A   1      33.219  25.044  25.915  1.00  0.00     0.026 A 
BRANCH  17  22
ATOM     22  O   UNL A   1      34.852  21.896  26.961  1.00  0.00    -0.497 OA
ATOM     23  C   UNL A   1      35.620  21.452  25.842  1.00  0.00     0.278 C 
ENDBRANCH  17  22
ENDBRANCH  13  16
ENDBRANCH  12  13
BRANCH  12  24
ATOM     24  C   UNL A   1      30.264  25.126  23.304  1.00  0.00     0.171 C 
BRANCH  24  25
ATOM     25  C   UNL A   1      31.397  24.139  23.088  1.00  0.00    -0.027 A 
ATOM     26  C   UNL A   1      32.622  24.621  22.595  1.00  0.00     0.005 A 
ATOM     27  C   UNL A   1      31.323  22.776  23.403  1.00  0.00     0.005 A 
ATOM     28  C   UNL A   1      33.702  23.762  22.376  1.00  0.00     0.000 A 
ATOM     29  C   UNL A   1      32.397  21.913  23.178  1.00  0.00     0.000 A 
ATOM     30  C   UNL A   1      33.584  22.404  22.656  1.00  0.00     0.000 A 
ENDBRANCH  24  25
ENDBRANCH  12  24
ENDBRANCH   7  12
ENDBRANCH   3   6
ENDBRANCH   1   2
BRANCH   1  31
ATOM     31  C   UNL A   1      32.383  30.435  27.032  1.00  0.00     0.042 C 
BRANCH  31  32
ATOM     32  C   UNL A   1      33.345  31.594  27.222  1.00  0.00     0.118 C 
BRANCH  32  33
ATOM     33  N   UNL A   1      32.760  32.864  27.640  1.00  0.00    -0.352 N 
ATOM     34  C   UNL A   1      33.255  33.894  28.414  1.00  0.00     0.251 C 
ATOM     35  H   UNL A   1      31.845  33.014  27.309  1.00  0.00     0.163 HD
ATOM     36  O   UNL A   1      32.634  34.951  28.490  1.00  0.00    -0.269 OA
BRANCH  34  37
ATOM     37  C   UNL A   1      34.471  33.701  29.234  1.00  0.00     0.039 A 
ATOM     38  C   UNL A   1      34.403  32.851  30.344  1.00  0.00     0.014 A 
ATOM     39  C   UNL A   1      35.684  34.284  28.894  1.00  0.00     0.014 A 
ATOM     40  C   UNL A   1      35.572  32.435  30.983  1.00  0.00     0.010 A 
ATOM     41  C   UNL A   1      36.855  33.801  29.457  1.00  0.00     0.010 A 
ATOM     42  C   UNL A   1      36.808  32.855  30.491  1.00  0.00    -0.014 A 
BRANCH  42  43
ATOM     43  C   UNL A   1      38.092  32.449  31.098  1.00  0.00     0.031 A 
ATOM     44  C   UNL A   1      38.812  31.299  30.469  1.00  0.00     0.074 A 
ATOM     45  C   UNL A   1      38.505  32.982  32.264  1.00  0.00     0.049 A 
ATOM     46  N   UNL A   1      39.770  30.559  30.950  1.00  0.00    -0.248 NA
ATOM     47  C   UNL A   1      38.346  30.901  29.126  1.00  0.00     0.031 C 
ATOM     48  C   UNL A   1      37.866  34.098  32.964  1.00  0.00     0.029 A 
ATOM     49  N   UNL A   1      39.535  32.613  33.093  1.00  0.00    -0.354 N 
ATOM     50  C   UNL A   1      39.976  29.566  30.002  1.00  0.00     0.074 A 
ATOM     51  C   UNL A   1      39.039  29.792  28.925  1.00  0.00     0.031 C 
ATOM     52  C   UNL A   1      38.504  34.305  34.130  1.00  0.00     0.029 A 
ATOM     53  C   UNL A   1      39.556  33.304  34.284  1.00  0.00     0.049 A 
ATOM     54  H   UNL A   1      40.194  31.921  32.860  1.00  0.00     0.167 HD
ATOM     55  C   UNL A   1      40.873  28.556  30.028  1.00  0.00     0.034 A 
ATOM     56  C   UNL A   1      40.312  33.113  35.385  1.00  0.00     0.034 A 
ATOM     57  C   UNL A   1      41.814  28.362  31.092  1.00  0.00     0.049 A 
ATOM     58  C   UNL A   1      41.304  31.974  35.391  1.00  0.00     0.074 A 
ATOM     59  C   UNL A   1      42.808  27.409  31.200  1.00  0.00     0.029 A 
ATOM     60  N   UNL A   1      41.866  29.135  32.243  1.00  0.00    -0.354 N 
ATOM     61  N   UNL A   1      41.573  31.108  34.442  1.00  0.00    -0.248 NA
ATOM     62  C   UNL A   1      42.100  31.789  36.613  1.00  0.00     0.031 C 
ATOM     63  C   UNL A   1      43.445  27.590  32.431  1.00  0.00     0.029 A 
ATOM     64  C   UNL A   1      42.863  28.671  33.077  1.00  0.00     0.049 A 
ATOM     65  H   UNL A   1      41.277  29.900  32.437  1.00  0.00     0.167 HD
ATOM     66  C   UNL A   1      42.583  30.292  34.942  1.00  0.00     0.074 A 
ATOM     67  C   UNL A   1      42.896  30.784  36.269  1.00  0.00     0.031 C 
ATOM     68  C   UNL A   1      43.184  29.218  34.372  1.00  0.00     0.034 A 
BRANCH  55  69
ATOM     69  C   UNL A   1      40.869  27.606  28.863  1.00  0.00     0.023 A 
ATOM     70  C   UNL A   1      39.939  26.547  28.826  1.00  0.00     0.012 A 
ATOM     71  C   UNL A   1      41.795  27.754  27.814  1.00  0.00     0.148 A 
ATOM     72  C   UNL A   1      39.960  25.623  27.784  1.00  0.00     0.002 A 
ATOM     73  C   UNL A   1      41.779  26.855  26.755  1.00  0.00     0.091 A 
ATOM     74  F   UNL A   1      42.689  28.749  27.885  1.00  0.00    -0.205 F 
ATOM     75  C   UNL A   1      40.873  25.781  26.746  1.00  0.00     0.022 A 
BRANCH  73  76
ATOM     76  S   UNL A   1      42.870  27.009  25.338  1.00  0.00     0.127 S 
ATOM     77  O   UNL A   1      44.179  27.100  25.983  1.00  0.00    -0.237 OA
ATOM     78  O   UNL A   1      42.626  25.752  24.629  1.00  0.00    -0.237 OA
ATOM     79  O   UNL A   1      42.441  28.204  24.626  1.00  0.00    -0.744 OA
ENDBRANCH  73  76
ENDBRANCH  55  69
BRANCH  56  80
ATOM     80  C   UNL A   1      40.177  34.013  36.570  1.00  0.00     0.023 A 
ATOM     81  C   UNL A   1      40.679  35.328  36.493  1.00  0.00     0.012 A 
ATOM     82  C   UNL A   1      39.563  33.587  37.764  1.00  0.00     0.148 A 
ATOM     83  C   UNL A   1      40.603  36.188  37.591  1.00  0.00     0.002 A 
ATOM     84  C   UNL A   1      39.439  34.466  38.835  1.00  0.00     0.091 A 
ATOM     85  F   UNL A   1      39.106  32.328  37.829  1.00  0.00    -0.205 F 
ATOM     86  C   UNL A   1      39.975  35.761  38.758  1.00  0.00     0.022 A 
BRANCH  84  87
ATOM     87  S   UNL A   1      38.529  34.047  40.328  1.00  0.00     0.127 S 
ATOM     88  O   UNL A   1      38.362  35.354  40.955  1.00  0.00    -0.237 OA
ATOM     89  O   UNL A   1      37.304  33.464  39.781  1.00  0.00    -0.237 OA
ATOM     90  O   UNL A   1      39.371  33.100  41.047  1.00  0.00    -0.744 OA
ENDBRANCH  84  87
ENDBRANCH  56  80
BRANCH  68  91
ATOM     91  C   UNL A   1      44.253  28.510  35.161  1.00  0.00     0.023 A 
ATOM     92  C   UNL A   1      45.580  28.979  35.113  1.00  0.00     0.012 A 
ATOM     93  C   UNL A   1      43.916  27.463  36.040  1.00  0.00     0.148 A 
ATOM     94  C   UNL A   1      46.561  28.406  35.919  1.00  0.00     0.002 A 
ATOM     95  C   UNL A   1      44.889  26.929  36.877  1.00  0.00     0.091 A 
ATOM     96  F   UNL A   1      42.649  27.024  36.057  1.00  0.00    -0.205 F 
ATOM     97  C   UNL A   1      46.213  27.393  36.811  1.00  0.00     0.022 A 
BRANCH  95  98
ATOM     98  S   UNL A   1      44.514  25.698  38.130  1.00  0.00     0.127 S 
ATOM     99  O   UNL A   1      43.404  26.328  38.841  1.00  0.00    -0.237 OA
ATOM    100  O   UNL A   1      44.143  24.538  37.319  1.00  0.00    -0.237 OA
ATOM    101  O   UNL A   1      45.734  25.529  38.908  1.00  0.00    -0.744 OA
ENDBRANCH  95  98
ENDBRANCH  68  91
ENDBRANCH  42  43
ENDBRANCH  34  37
ENDBRANCH  32  33
ENDBRANCH  31  32
ENDBRANCH   1  31
TORSDOF 19
ENDMDL
MODEL 2
REMARK VINA RESULT:     -12.2      1.837      7.484
REMARK SMILES COc1ccc(S(=O)(=O)N(Cc2ccccc2)c2ccccc2C(=O)NCCCNC(=O)c2ccc(-c3c4nc(c(-c5cccc(S(=O)(=O)[O-])c5F)c5ccc([nH]5)c(-c5cccc(S(=O)(=O)[O-])c5F)c5nc(c(-c6cccc(S(=O)(=O)[O-])c6F)c6ccc3[nH]6)C=C5)C=C4)cc2)cc1
REMARK SMILES IDX 27 1 26 2 24 3 25 4 23 6 18 7 19 8 20 9 22 10 21 11 10 12
REMARK SMILES IDX 7 13 8 14 9 15 6 16 3 17 4 18 97 19 5 20 96 21 2 22 1 23
REMARK SMILES IDX 11 24 12 25 13 26 17 27 14 28 16 29 15 30 28 31 29 32 30 33
REMARK SMILES IDX 31 34 32 36 33 37 34 38 95 39 35 40 94 41 36 42 37 43 38 44
REMARK SMILES IDX 88 45 39 46 93 47 87 48 89 49 40 50 92 51 86 52 85 53 41 55
REMARK SMILES IDX 73 56 53 57 72 58 54 59 57 60 71 61 90 62 55 63 56 64 70 66
REMARK SMILES IDX 91 67 58 68 42 69 43 70 51 71 44 72 46 73 52 74 45 75 47 76
REMARK SMILES IDX 48 77 49 78 50 79 74 80 75 81 83 82 76 83 78 84 84 85 77 86
REMARK SMILES IDX 79 87 80 88 81 89 82 90 59 91 60 92 68 93 61 94 63 95 69 96
REMARK SMILES IDX 62 97 64 98 65 99 66 100 67 101
REMARK H PARENT 26 5 30 35 89 54 57 65
REMARK Flexibility Score: inf
ROOT
ATOM      1  C   UNL A   1      32.052  30.104  25.970  1.00  0.00     0.118 C 
ENDROOT
BRANCH   1   2
ATOM      2  N   UNL A   1      32.686  29.696  24.750  1.00  0.00    -0.352 N 
ATOM      3  C   UNL A   1      32.114  29.224  23.598  1.00  0.00     0.253 C 
ATOM      4  O   UNL A   1      32.870  29.041  22.639  1.00  0.00    -0.269 OA
ATOM      5  H   UNL A   1      33.668  29.764  24.738  1.00  0.00     0.163 HD
BRANCH   3   6
ATOM      6  C   UNL A   1      30.686  28.807  23.456  1.00  0.00     0.064 A 
ATOM      7  C   UNL A   1      30.050  27.609  23.848  1.00  0.00     0.065 A 
ATOM      8  C   UNL A   1      28.641  27.543  23.774  1.00  0.00     0.028 A 
ATOM      9  C   UNL A   1      27.881  28.559  23.196  1.00  0.00     0.002 A 
ATOM     10  C   UNL A   1      29.886  29.835  22.897  1.00  0.00     0.016 A 
ATOM     11  C   UNL A   1      28.508  29.701  22.733  1.00  0.00     0.001 A 
BRANCH   7  12
ATOM     12  N   UNL A   1      30.731  26.357  24.159  1.00  0.00    -0.261 N 
BRANCH  12  13
ATOM     13  S   UNL A   1      31.026  26.027  25.805  1.00  0.00     0.264 S 
ATOM     14  O   UNL A   1      29.965  25.210  26.342  1.00  0.00    -0.201 OA
ATOM     15  O   UNL A   1      31.316  27.308  26.433  1.00  0.00    -0.201 OA
BRANCH  13  16
ATOM     16  C   UNL A   1      32.552  25.064  25.939  1.00  0.00     0.088 A 
ATOM     17  C   UNL A   1      34.972  23.606  26.115  1.00  0.00     0.118 A 
ATOM     18  C   UNL A   1      34.926  24.843  25.467  1.00  0.00     0.048 A 
ATOM     19  C   UNL A   1      33.812  23.115  26.695  1.00  0.00     0.048 A 
ATOM     20  C   UNL A   1      33.722  25.561  25.355  1.00  0.00     0.026 A 
ATOM     21  C   UNL A   1      32.629  23.859  26.640  1.00  0.00     0.026 A 
BRANCH  17  22
ATOM     22  O   UNL A   1      36.188  22.984  26.154  1.00  0.00    -0.497 OA
ATOM     23  C   UNL A   1      37.333  23.835  26.212  1.00  0.00     0.278 C 
ENDBRANCH  17  22
ENDBRANCH  13  16
ENDBRANCH  12  13
BRANCH  12  24
ATOM     24  C   UNL A   1      30.547  25.306  23.108  1.00  0.00     0.171 C 
BRANCH  24  25
ATOM     25  C   UNL A   1      31.464  24.098  23.043  1.00  0.00    -0.027 A 
ATOM     26  C   UNL A   1      32.722  24.243  22.433  1.00  0.00     0.005 A 
ATOM     27  C   UNL A   1      31.163  22.851  23.605  1.00  0.00     0.005 A 
ATOM     28  C   UNL A   1      33.611  23.169  22.343  1.00  0.00     0.000 A 
ATOM     29  C   UNL A   1      32.044  21.773  23.510  1.00  0.00     0.000 A 
ATOM     30  C   UNL A   1      33.265  21.929  22.871  1.00  0.00     0.000 A 
ENDBRANCH  24  25
ENDBRANCH  12  24
ENDBRANCH   7  12
ENDBRANCH   3   6
ENDBRANCH   1   2
BRANCH   1  31
ATOM     31  C   UNL A   1      31.753  31.576  26.128  1.00  0.00     0.042 C 
BRANCH  31  32
ATOM     32  C   UNL A   1      32.080  32.165  27.488  1.00  0.00     0.118 C 
BRANCH  32  33
ATOM     33  N   UNL A   1      32.682  33.495  27.493  1.00  0.00    -0.352 N 
ATOM     34  C   UNL A   1      33.994  33.910  27.603  1.00  0.00     0.251 C 
ATOM     35  H   UNL A   1      32.034  34.230  27.402  1.00  0.00     0.163 HD
ATOM     36  O   UNL A   1      34.277  35.090  27.410  1.00  0.00    -0.269 OA
BRANCH  34  37
ATOM     37  C   UNL A   1      35.045  32.971  28.051  1.00  0.00     0.039 A 
ATOM     38  C   UNL A   1      36.360  33.439  28.158  1.00  0.00     0.014 A 
ATOM     39  C   UNL A   1      34.752  31.667  28.429  1.00  0.00     0.014 A 
ATOM     40  C   UNL A   1      37.325  32.678  28.821  1.00  0.00     0.010 A 
ATOM     41  C   UNL A   1      35.674  30.948  29.173  1.00  0.00     0.010 A 
ATOM     42  C   UNL A   1      36.961  31.459  29.394  1.00  0.00    -0.014 A 
BRANCH  42  43
ATOM     43  C   UNL A   1      37.915  30.601  30.125  1.00  0.00     0.031 A 
ATOM     44  C   UNL A   1      38.169  30.930  31.562  1.00  0.00     0.074 A 
ATOM     45  C   UNL A   1      38.647  29.674  29.477  1.00  0.00     0.049 A 
ATOM     46  N   UNL A   1      39.145  30.553  32.337  1.00  0.00    -0.248 NA
ATOM     47  C   UNL A   1      37.209  31.857  32.191  1.00  0.00     0.031 C 
ATOM     48  C   UNL A   1      38.485  29.288  28.074  1.00  0.00     0.029 A 
ATOM     49  N   UNL A   1      39.715  28.927  29.908  1.00  0.00    -0.354 N 
ATOM     50  C   UNL A   1      38.958  31.247  33.525  1.00  0.00     0.074 A 
ATOM     51  C   UNL A   1      37.784  32.074  33.363  1.00  0.00     0.031 C 
ATOM     52  C   UNL A   1      39.438  28.394  27.754  1.00  0.00     0.029 A 
ATOM     53  C   UNL A   1      40.309  28.189  28.908  1.00  0.00     0.049 A 
ATOM     54  H   UNL A   1      40.028  28.920  30.841  1.00  0.00     0.167 HD
ATOM     55  C   UNL A   1      39.700  31.195  34.652  1.00  0.00     0.034 A 
ATOM     56  C   UNL A   1      41.450  27.469  28.921  1.00  0.00     0.034 A 
ATOM     57  C   UNL A   1      40.847  30.348  34.804  1.00  0.00     0.049 A 
ATOM     58  C   UNL A   1      42.265  27.430  30.193  1.00  0.00     0.074 A 
ATOM     59  C   UNL A   1      41.643  30.167  35.919  1.00  0.00     0.029 A 
ATOM     60  N   UNL A   1      41.368  29.547  33.799  1.00  0.00    -0.354 N 
ATOM     61  N   UNL A   1      42.018  27.999  31.349  1.00  0.00    -0.248 NA
ATOM     62  C   UNL A   1      43.508  26.647  30.165  1.00  0.00     0.031 C 
ATOM     63  C   UNL A   1      42.662  29.274  35.579  1.00  0.00     0.029 A 
ATOM     64  C   UNL A   1      42.487  28.881  34.260  1.00  0.00     0.049 A 
ATOM     65  H   UNL A   1      40.996  29.465  32.891  1.00  0.00     0.167 HD
ATOM     66  C   UNL A   1      43.061  27.626  32.191  1.00  0.00     0.074 A 
ATOM     67  C   UNL A   1      43.928  26.759  31.419  1.00  0.00     0.031 C 
ATOM     68  C   UNL A   1      43.299  27.982  33.479  1.00  0.00     0.034 A 
BRANCH  55  69
ATOM     69  C   UNL A   1      39.274  32.073  35.794  1.00  0.00     0.023 A 
ATOM     70  C   UNL A   1      38.355  31.588  36.747  1.00  0.00     0.012 A 
ATOM     71  C   UNL A   1      39.771  33.384  35.915  1.00  0.00     0.148 A 
ATOM     72  C   UNL A   1      37.904  32.409  37.778  1.00  0.00     0.002 A 
ATOM     73  C   UNL A   1      39.352  34.181  36.973  1.00  0.00     0.091 A 
ATOM     74  F   UNL A   1      40.620  33.836  34.981  1.00  0.00    -0.205 F 
ATOM     75  C   UNL A   1      38.408  33.701  37.896  1.00  0.00     0.022 A 
BRANCH  73  76
ATOM     76  S   UNL A   1      39.989  35.836  37.251  1.00  0.00     0.127 S 
ATOM     77  O   UNL A   1      41.421  35.579  37.399  1.00  0.00    -0.237 OA
ATOM     78  O   UNL A   1      39.617  36.517  36.011  1.00  0.00    -0.237 OA
ATOM     79  O   UNL A   1      39.319  36.331  38.444  1.00  0.00    -0.744 OA
ENDBRANCH  73  76
ENDBRANCH  55  69
BRANCH  56  80
ATOM     80  C   UNL A   1      41.894  26.720  27.708  1.00  0.00     0.023 A 
ATOM     81  C   UNL A   1      42.519  27.421  26.657  1.00  0.00     0.012 A 
ATOM     82  C   UNL A   1      41.707  25.328  27.582  1.00  0.00     0.148 A 
ATOM     83  C   UNL A   1      42.917  26.761  25.493  1.00  0.00     0.002 A 
ATOM     84  C   UNL A   1      42.158  24.667  26.444  1.00  0.00     0.091 A 
ATOM     85  F   UNL A   1      41.096  24.677  28.581  1.00  0.00    -0.205 F 
ATOM     86  C   UNL A   1      42.746  25.383  25.390  1.00  0.00     0.022 A 
BRANCH  84  87
ATOM     87  S   UNL A   1      42.099  22.877  26.280  1.00  0.00     0.127 S 
ATOM     88  O   UNL A   1      42.747  22.672  24.989  1.00  0.00    -0.237 OA
ATOM     89  O   UNL A   1      42.879  22.443  27.440  1.00  0.00    -0.237 OA
ATOM     90  O   UNL A   1      40.687  22.524  26.346  1.00  0.00    -0.744 OA
ENDBRANCH  84  87
ENDBRANCH  56  80
BRANCH  68  91
ATOM     91  C   UNL A   1      44.528  27.426  34.146  1.00  0.00     0.023 A 
ATOM     92  C   UNL A   1      45.723  28.171  34.136  1.00  0.00     0.012 A 
ATOM     93  C   UNL A   1      44.460  26.228  34.884  1.00  0.00     0.148 A 
ATOM     94  C   UNL A   1      46.839  27.724  34.841  1.00  0.00     0.002 A 
ATOM     95  C   UNL A   1      45.561  25.815  35.625  1.00  0.00     0.091 A 
ATOM     96  F   UNL A   1      43.316  25.530  34.866  1.00  0.00    -0.205 F 
ATOM     97  C   UNL A   1      46.753  26.557  35.596  1.00  0.00     0.022 A 
BRANCH  95  98
ATOM     98  S   UNL A   1      45.513  24.384  36.709  1.00  0.00     0.127 S 
ATOM     99  O   UNL A   1      45.130  23.322  35.781  1.00  0.00    -0.237 OA
ATOM    100  O   UNL A   1      46.895  24.313  37.185  1.00  0.00    -0.237 OA
ATOM    101  O   UNL A   1      44.531  24.692  37.740  1.00  0.00    -0.744 OA
ENDBRANCH  95  98
ENDBRANCH  68  91
ENDBRANCH  42  43
ENDBRANCH  34  37
ENDBRANCH  32  33
ENDBRANCH  31  32
ENDBRANCH   1  31
TORSDOF 19
ENDMDL
MODEL 3
REMARK VINA RESULT:     -12.2      1.113      2.009
REMARK SMILES COc1ccc(S(=O)(=O)N(Cc2ccccc2)c2ccccc2C(=O)NCCCNC(=O)c2ccc(-c3c4nc(c(-c5cccc(S(=O)(=O)[O-])c5F)c5ccc([nH]5)c(-c5cccc(S(=O)(=O)[O-])c5F)c5nc(c(-c6cccc(S(=O)(=O)[O-])c6F)c6ccc3[nH]6)C=C5)C=C4)cc2)cc1
REMARK SMILES IDX 27 1 26 2 24 3 25 4 23 6 18 7 19 8 20 9 22 10 21 11 10 12
REMARK SMILES IDX 7 13 8 14 9 15 6 16 3 17 4 18 97 19 5 20 96 21 2 22 1 23
REMARK SMILES IDX 11 24 12 25 13 26 17 27 14 28 16 29 15 30 28 31 29 32 30 33
REMARK SMILES IDX 31 34 32 36 33 37 34 38 95 39 35 40 94 41 36 42 37 43 38 44
REMARK SMILES IDX 88 45 39 46 93 47 87 48 89 49 40 50 92 51 86 52 85 53 41 55
REMARK SMILES IDX 73 56 53 57 72 58 54 59 57 60 71 61 90 62 55 63 56 64 70 66
REMARK SMILES IDX 91 67 58 68 42 69 43 70 51 71 44 72 46 73 52 74 45 75 47 76
REMARK SMILES IDX 48 77 49 78 50 79 74 80 75 81 83 82 76 83 78 84 84 85 77 86
REMARK SMILES IDX 79 87 80 88 81 89 82 90 59 91 60 92 68 93 61 94 63 95 69 96
REMARK SMILES IDX 62 97 64 98 65 99 66 100 67 101
REMARK H PARENT 26 5 30 35 89 54 57 65
REMARK Flexibility Score: inf
ROOT
ATOM      1  C   UNL A   1      33.077  29.352  26.058  1.00  0.00     0.118 C 
ENDROOT
BRANCH   1   2
ATOM      2  N   UNL A   1      33.607  29.260  24.729  1.00  0.00    -0.352 N 
ATOM      3  C   UNL A   1      32.968  28.902  23.571  1.00  0.00     0.253 C 
ATOM      4  O   UNL A   1      33.619  29.006  22.526  1.00  0.00    -0.269 OA
ATOM      5  H   UNL A   1      34.560  29.485  24.635  1.00  0.00     0.163 HD
BRANCH   3   6
ATOM      6  C   UNL A   1      31.606  28.293  23.494  1.00  0.00     0.064 A 
ATOM      7  C   UNL A   1      31.160  27.019  23.909  1.00  0.00     0.065 A 
ATOM      8  C   UNL A   1      29.772  26.760  23.901  1.00  0.00     0.028 A 
ATOM      9  C   UNL A   1      28.853  27.660  23.362  1.00  0.00     0.002 A 
ATOM     10  C   UNL A   1      30.647  29.199  22.975  1.00  0.00     0.016 A 
ATOM     11  C   UNL A   1      29.295  28.876  22.875  1.00  0.00     0.001 A 
BRANCH   7  12
ATOM     12  N   UNL A   1      32.021  25.874  24.184  1.00  0.00    -0.261 N 
BRANCH  12  13
ATOM     13  S   UNL A   1      32.690  25.070  22.839  1.00  0.00     0.264 S 
ATOM     14  O   UNL A   1      33.949  25.677  22.479  1.00  0.00    -0.201 OA
ATOM     15  O   UNL A   1      31.634  24.994  21.841  1.00  0.00    -0.201 OA
BRANCH  13  16
ATOM     16  C   UNL A   1      33.046  23.358  23.304  1.00  0.00     0.088 A 
ATOM     17  C   UNL A   1      33.536  20.665  24.027  1.00  0.00     0.118 A 
ATOM     18  C   UNL A   1      32.235  21.120  23.796  1.00  0.00     0.048 A 
ATOM     19  C   UNL A   1      34.588  21.553  23.871  1.00  0.00     0.048 A 
ATOM     20  C   UNL A   1      31.983  22.463  23.459  1.00  0.00     0.026 A 
ATOM     21  C   UNL A   1      34.344  22.872  23.473  1.00  0.00     0.026 A 
BRANCH  17  22
ATOM     22  O   UNL A   1      33.669  19.347  24.363  1.00  0.00    -0.497 OA
ATOM     23  C   UNL A   1      32.520  18.524  24.162  1.00  0.00     0.278 C 
ENDBRANCH  17  22
ENDBRANCH  13  16
ENDBRANCH  12  13
BRANCH  12  24
ATOM     24  C   UNL A   1      32.656  25.923  25.540  1.00  0.00     0.171 C 
BRANCH  24  25
ATOM     25  C   UNL A   1      32.963  24.648  26.305  1.00  0.00    -0.027 A 
ATOM     26  C   UNL A   1      31.889  23.881  26.790  1.00  0.00     0.005 A 
ATOM     27  C   UNL A   1      34.255  24.148  26.514  1.00  0.00     0.005 A 
ATOM     28  C   UNL A   1      32.108  22.698  27.500  1.00  0.00     0.000 A 
ATOM     29  C   UNL A   1      34.478  22.971  27.230  1.00  0.00     0.000 A 
ATOM     30  C   UNL A   1      33.405  22.251  27.731  1.00  0.00     0.000 A 
ENDBRANCH  24  25
ENDBRANCH  12  24
ENDBRANCH   7  12
ENDBRANCH   3   6
ENDBRANCH   1   2
BRANCH   1  31
ATOM     31  C   UNL A   1      32.441  30.663  26.454  1.00  0.00     0.042 C 
BRANCH  31  32
ATOM     32  C   UNL A   1      33.312  31.585  27.287  1.00  0.00     0.118 C 
BRANCH  32  33
ATOM     33  N   UNL A   1      32.716  32.855  27.692  1.00  0.00    -0.352 N 
ATOM     34  C   UNL A   1      33.206  33.901  28.447  1.00  0.00     0.251 C 
ATOM     35  H   UNL A   1      31.797  32.989  27.367  1.00  0.00     0.163 HD
ATOM     36  O   UNL A   1      32.572  34.952  28.514  1.00  0.00    -0.269 OA
BRANCH  34  37
ATOM     37  C   UNL A   1      34.431  33.734  29.259  1.00  0.00     0.039 A 
ATOM     38  C   UNL A   1      34.381  32.904  30.385  1.00  0.00     0.014 A 
ATOM     39  C   UNL A   1      35.635  34.322  28.897  1.00  0.00     0.014 A 
ATOM     40  C   UNL A   1      35.560  32.510  31.021  1.00  0.00     0.010 A 
ATOM     41  C   UNL A   1      36.816  33.860  29.458  1.00  0.00     0.010 A 
ATOM     42  C   UNL A   1      36.787  32.932  30.510  1.00  0.00    -0.014 A 
BRANCH  42  43
ATOM     43  C   UNL A   1      38.080  32.549  31.112  1.00  0.00     0.031 A 
ATOM     44  C   UNL A   1      38.807  31.396  30.494  1.00  0.00     0.074 A 
ATOM     45  C   UNL A   1      38.497  33.104  32.266  1.00  0.00     0.049 A 
ATOM     46  N   UNL A   1      39.776  30.674  30.978  1.00  0.00    -0.248 NA
ATOM     47  C   UNL A   1      38.334  30.974  29.162  1.00  0.00     0.031 C 
ATOM     48  C   UNL A   1      37.852  34.224  32.954  1.00  0.00     0.029 A 
ATOM     49  N   UNL A   1      39.538  32.759  33.092  1.00  0.00    -0.354 N 
ATOM     50  C   UNL A   1      39.985  29.669  30.044  1.00  0.00     0.074 A 
ATOM     51  C   UNL A   1      39.037  29.869  28.972  1.00  0.00     0.031 C 
ATOM     52  C   UNL A   1      38.497  34.455  34.111  1.00  0.00     0.029 A 
ATOM     53  C   UNL A   1      39.561  33.468  34.272  1.00  0.00     0.049 A 
ATOM     54  H   UNL A   1      40.202  32.070  32.863  1.00  0.00     0.167 HD
ATOM     55  C   UNL A   1      40.893  28.669  30.077  1.00  0.00     0.034 A 
ATOM     56  C   UNL A   1      40.328  33.301  35.369  1.00  0.00     0.034 A 
ATOM     57  C   UNL A   1      41.844  28.501  31.136  1.00  0.00     0.049 A 
ATOM     58  C   UNL A   1      41.332  32.173  35.384  1.00  0.00     0.074 A 
ATOM     59  C   UNL A   1      42.850  27.560  31.250  1.00  0.00     0.029 A 
ATOM     60  N   UNL A   1      41.897  29.292  32.275  1.00  0.00    -0.354 N 
ATOM     61  N   UNL A   1      41.603  31.296  34.446  1.00  0.00    -0.248 NA
ATOM     62  C   UNL A   1      42.140  32.014  36.602  1.00  0.00     0.031 C 
ATOM     63  C   UNL A   1      43.495  27.767  32.473  1.00  0.00     0.029 A 
ATOM     64  C   UNL A   1      42.907  28.851  33.108  1.00  0.00     0.049 A 
ATOM     65  H   UNL A   1      41.303  30.054  32.462  1.00  0.00     0.167 HD
ATOM     66  C   UNL A   1      42.625  30.498  34.950  1.00  0.00     0.074 A 
ATOM     67  C   UNL A   1      42.944  31.013  36.266  1.00  0.00     0.031 C 
ATOM     68  C   UNL A   1      43.233  29.421  34.391  1.00  0.00     0.034 A 
BRANCH  55  69
ATOM     69  C   UNL A   1      40.889  27.702  28.927  1.00  0.00     0.023 A 
ATOM     70  C   UNL A   1      39.983  26.622  28.923  1.00  0.00     0.012 A 
ATOM     71  C   UNL A   1      41.793  27.853  27.859  1.00  0.00     0.148 A 
ATOM     72  C   UNL A   1      40.006  25.682  27.895  1.00  0.00     0.002 A 
ATOM     73  C   UNL A   1      41.778  26.938  26.814  1.00  0.00     0.091 A 
ATOM     74  F   UNL A   1      42.666  28.869  27.899  1.00  0.00    -0.205 F 
ATOM     75  C   UNL A   1      40.896  25.844  26.838  1.00  0.00     0.022 A 
BRANCH  73  76
ATOM     76  S   UNL A   1      42.840  27.094  25.376  1.00  0.00     0.127 S 
ATOM     77  O   UNL A   1      44.159  27.213  25.995  1.00  0.00    -0.237 OA
ATOM     78  O   UNL A   1      42.603  25.826  24.684  1.00  0.00    -0.237 OA
ATOM     79  O   UNL A   1      42.379  28.274  24.660  1.00  0.00    -0.744 OA
ENDBRANCH  73  76
ENDBRANCH  55  69
BRANCH  56  80
ATOM     80  C   UNL A   1      40.194  34.218  36.541  1.00  0.00     0.023 A 
ATOM     81  C   UNL A   1      40.646  35.548  36.428  1.00  0.00     0.012 A 
ATOM     82  C   UNL A   1      39.628  33.792  37.760  1.00  0.00     0.148 A 
ATOM     83  C   UNL A   1      40.569  36.425  37.513  1.00  0.00     0.002 A 
ATOM     84  C   UNL A   1      39.502  34.687  38.817  1.00  0.00     0.091 A 
ATOM     85  F   UNL A   1      39.218  32.520  37.859  1.00  0.00    -0.205 F 
ATOM     86  C   UNL A   1      39.989  35.998  38.704  1.00  0.00     0.022 A 
BRANCH  84  87
ATOM     87  S   UNL A   1      38.648  34.264  40.343  1.00  0.00     0.127 S 
ATOM     88  O   UNL A   1      37.432  33.632  39.842  1.00  0.00    -0.237 OA
ATOM     89  O   UNL A   1      39.600  33.352  40.978  1.00  0.00    -0.237 OA
ATOM     90  O   UNL A   1      38.465  35.523  41.052  1.00  0.00    -0.744 OA
ENDBRANCH  84  87
ENDBRANCH  56  80
BRANCH  68  91
ATOM     91  C   UNL A   1      44.315  28.736  35.182  1.00  0.00     0.023 A 
ATOM     92  C   UNL A   1      45.632  29.233  35.135  1.00  0.00     0.012 A 
ATOM     93  C   UNL A   1      44.000  27.683  36.061  1.00  0.00     0.148 A 
ATOM     94  C   UNL A   1      46.624  28.681  35.943  1.00  0.00     0.002 A 
ATOM     95  C   UNL A   1      44.983  27.171  36.900  1.00  0.00     0.091 A 
ATOM     96  F   UNL A   1      42.742  27.218  36.078  1.00  0.00    -0.205 F 
ATOM     97  C   UNL A   1      46.296  27.662  36.834  1.00  0.00     0.022 A 
BRANCH  95  98
ATOM     98  S   UNL A   1      44.633  25.933  38.154  1.00  0.00     0.127 S 
ATOM     99  O   UNL A   1      45.934  25.795  38.805  1.00  0.00    -0.237 OA
ATOM    100  O   UNL A   1      43.611  26.597  38.964  1.00  0.00    -0.237 OA
ATOM    101  O   UNL A   1      44.168  24.753  37.438  1.00  0.00    -0.744 OA
ENDBRANCH  95  98
ENDBRANCH  68  91
ENDBRANCH  42  43
ENDBRANCH  34  37
ENDBRANCH  32  33
ENDBRANCH  31  32
ENDBRANCH   1  31
TORSDOF 19
ENDMDL
