MODEL 1
REMARK VINA RESULT:     -11.8      0.000      0.000
REMARK SMILES O=C(COc1ccc(Br)cc1)NC(=S)Nc1ccc(Cl)cc1C(=O)NCCCNC(=O)c1ccc(-c2c3nc(c(-c4cccc(S(=O)(=O)[O-])c4F)c4ccc([nH]4)c(-c4cccc(S(=O)(=O)[O-])c4F)c4nc(c(-c5cccc(S(=O)(=O)[O-])c5F)c5ccc2[nH]5)C=C4)C=C3)cc1
REMARK SMILES IDX 23 1 24 2 25 3 22 5 16 6 17 7 18 8 21 9 19 10 20 11 15 12
REMARK SMILES IDX 13 14 14 15 12 16 1 17 2 18 3 20 4 21 5 22 6 23 11 24 7 25
REMARK SMILES IDX 10 26 8 27 9 28 26 29 27 30 28 31 29 32 30 33 31 35 32 36
REMARK SMILES IDX 33 37 94 38 34 39 93 40 35 41 36 42 37 43 87 44 38 45 92 46
REMARK SMILES IDX 86 47 88 48 39 49 91 50 85 51 84 52 40 54 72 55 52 56 71 57
REMARK SMILES IDX 53 58 56 59 70 60 89 61 54 62 55 63 69 65 90 66 57 67 41 68
REMARK SMILES IDX 42 69 50 70 43 71 45 72 51 73 44 74 46 75 47 76 48 77 49 78
REMARK SMILES IDX 73 79 74 80 82 81 75 82 77 83 83 84 76 85 78 86 79 87 80 88
REMARK SMILES IDX 81 89 58 90 59 91 67 92 60 93 62 94 68 95 61 96 63 97 64 98
REMARK SMILES IDX 65 99 66 100
REMARK H PARENT 25 4 15 13 12 19 29 34 88 53 56 64
REMARK Flexibility Score: inf
ROOT
ATOM      1  C   UNL A   1      34.832  21.055  25.828  1.00  0.00     0.253 C 
ATOM      2  O   UNL A   1      34.384  21.474  26.903  1.00  0.00    -0.269 OA
ATOM      3  N   UNL A   1      36.172  21.277  25.633  1.00  0.00    -0.352 N 
ATOM      4  H   UNL A   1      36.601  21.791  26.355  1.00  0.00     0.163 HD
ENDROOT
BRANCH   1   5
ATOM      5  C   UNL A   1      33.863  20.397  24.886  1.00  0.00     0.064 A 
ATOM      6  C   UNL A   1      33.009  20.952  23.910  1.00  0.00     0.053 A 
ATOM      7  C   UNL A   1      32.241  20.114  23.069  1.00  0.00     0.028 A 
ATOM      8  C   UNL A   1      32.220  18.737  23.253  1.00  0.00     0.023 A 
ATOM      9  C   UNL A   1      33.801  18.992  25.060  1.00  0.00     0.036 A 
ATOM     10  C   UNL A   1      32.975  18.184  24.274  1.00  0.00     0.041 A 
ATOM     11  Cl  UNL A   1      32.880  16.493  24.576  1.00  0.00    -0.084 Cl
BRANCH   6  12
ATOM     12  N   UNL A   1      32.814  22.323  23.710  1.00  0.00    -0.332 N 
ATOM     13  H   UNL A   1      33.411  22.758  23.059  1.00  0.00     0.169 HD
BRANCH  12  14
ATOM     14  C   UNL A   1      31.890  23.124  24.315  1.00  0.00     0.177 C 
ATOM     15  S   UNL A   1      31.119  22.561  25.689  1.00  0.00    -0.040 S 
BRANCH  14  16
ATOM     16  N   UNL A   1      31.480  24.337  23.796  1.00  0.00    -0.300 N 
ATOM     17  O   UNL A   1      33.057  25.114  22.239  1.00  0.00    -0.271 OA
ATOM     18  C   UNL A   1      32.021  25.259  22.883  1.00  0.00     0.264 C 
ATOM     19  H   UNL A   1      30.605  24.623  24.147  1.00  0.00     0.172 HD
BRANCH  18  20
ATOM     20  C   UNL A   1      31.156  26.501  22.645  1.00  0.00     0.329 C 
BRANCH  20  21
ATOM     21  O   UNL A   1      30.417  26.941  23.779  1.00  0.00    -0.484 OA
BRANCH  21  22
ATOM     22  C   UNL A   1      29.891  28.196  23.611  1.00  0.00     0.120 A 
ATOM     23  C   UNL A   1      30.569  29.310  24.109  1.00  0.00     0.047 A 
ATOM     24  C   UNL A   1      28.737  28.365  22.848  1.00  0.00     0.047 A 
ATOM     25  C   UNL A   1      30.056  30.592  23.914  1.00  0.00     0.019 A 
ATOM     26  C   UNL A   1      28.235  29.652  22.625  1.00  0.00     0.019 A 
ATOM     27  C   UNL A   1      28.891  30.758  23.168  1.00  0.00     0.018 A 
ATOM     28  Br  UNL A   1      28.217  32.499  22.873  1.00  0.00    -0.051 Br
ENDBRANCH  21  22
ENDBRANCH  20  21
ENDBRANCH  18  20
ENDBRANCH  14  16
ENDBRANCH  12  14
ENDBRANCH   6  12
ENDBRANCH   1   5
BRANCH   3  29
ATOM     29  C   UNL A   1      37.070  20.901  24.569  1.00  0.00     0.118 C 
BRANCH  29  30
ATOM     30  C   UNL A   1      37.916  19.662  24.798  1.00  0.00     0.042 C 
BRANCH  30  31
ATOM     31  C   UNL A   1      38.747  19.642  26.070  1.00  0.00     0.118 C 
BRANCH  31  32
ATOM     32  N   UNL A   1      40.052  19.005  25.935  1.00  0.00    -0.352 N 
ATOM     33  C   UNL A   1      41.337  19.480  26.066  1.00  0.00     0.251 C 
ATOM     34  H   UNL A   1      40.005  18.050  25.705  1.00  0.00     0.163 HD
ATOM     35  O   UNL A   1      42.273  18.718  25.815  1.00  0.00    -0.269 OA
BRANCH  33  36
ATOM     36  C   UNL A   1      41.630  20.881  26.457  1.00  0.00     0.039 A 
ATOM     37  C   UNL A   1      42.297  21.124  27.665  1.00  0.00     0.014 A 
ATOM     38  C   UNL A   1      41.241  21.965  25.674  1.00  0.00     0.014 A 
ATOM     39  C   UNL A   1      42.646  22.431  28.028  1.00  0.00     0.010 A 
ATOM     40  C   UNL A   1      41.709  23.244  25.964  1.00  0.00     0.010 A 
ATOM     41  C   UNL A   1      42.404  23.501  27.153  1.00  0.00    -0.014 A 
BRANCH  41  42
ATOM     42  C   UNL A   1      42.859  24.887  27.454  1.00  0.00     0.031 A 
ATOM     43  C   UNL A   1      41.924  25.878  28.102  1.00  0.00     0.074 A 
ATOM     44  C   UNL A   1      44.077  25.295  27.040  1.00  0.00     0.049 A 
ATOM     45  N   UNL A   1      42.114  27.147  28.359  1.00  0.00    -0.248 NA
ATOM     46  C   UNL A   1      40.582  25.393  28.469  1.00  0.00     0.031 C 
ATOM     47  C   UNL A   1      45.041  24.473  26.305  1.00  0.00     0.029 A 
ATOM     48  N   UNL A   1      44.701  26.514  27.149  1.00  0.00    -0.354 N 
ATOM     49  C   UNL A   1      40.904  27.620  28.858  1.00  0.00     0.074 A 
ATOM     50  C   UNL A   1      39.976  26.514  28.832  1.00  0.00     0.031 C 
ATOM     51  C   UNL A   1      46.132  25.206  26.036  1.00  0.00     0.029 A 
ATOM     52  C   UNL A   1      45.936  26.560  26.543  1.00  0.00     0.049 A 
ATOM     53  H   UNL A   1      44.301  27.284  27.617  1.00  0.00     0.167 HD
ATOM     54  C   UNL A   1      40.600  28.854  29.328  1.00  0.00     0.034 A 
ATOM     55  C   UNL A   1      46.810  27.575  26.400  1.00  0.00     0.034 A 
ATOM     56  C   UNL A   1      41.543  29.936  29.414  1.00  0.00     0.049 A 
ATOM     57  C   UNL A   1      46.483  28.913  27.005  1.00  0.00     0.074 A 
ATOM     58  C   UNL A   1      41.373  31.180  29.994  1.00  0.00     0.029 A 
ATOM     59  N   UNL A   1      42.827  29.908  28.895  1.00  0.00    -0.354 N 
ATOM     60  N   UNL A   1      45.400  29.286  27.643  1.00  0.00    -0.248 NA
ATOM     61  C   UNL A   1      47.512  29.957  26.907  1.00  0.00     0.031 C 
ATOM     62  C   UNL A   1      42.545  31.918  29.793  1.00  0.00     0.029 A 
ATOM     63  C   UNL A   1      43.458  31.119  29.123  1.00  0.00     0.049 A 
ATOM     64  H   UNL A   1      43.233  29.139  28.432  1.00  0.00     0.167 HD
ATOM     65  C   UNL A   1      45.628  30.597  28.046  1.00  0.00     0.074 A 
ATOM     66  C   UNL A   1      46.962  30.943  27.603  1.00  0.00     0.031 C 
ATOM     67  C   UNL A   1      44.801  31.440  28.713  1.00  0.00     0.034 A 
BRANCH  54  68
ATOM     68  C   UNL A   1      39.196  29.087  29.829  1.00  0.00     0.023 A 
ATOM     69  C   UNL A   1      38.853  28.736  31.151  1.00  0.00     0.012 A 
ATOM     70  C   UNL A   1      38.226  29.694  29.005  1.00  0.00     0.148 A 
ATOM     71  C   UNL A   1      37.560  28.939  31.630  1.00  0.00     0.002 A 
ATOM     72  C   UNL A   1      36.954  29.941  29.507  1.00  0.00     0.091 A 
ATOM     73  F   UNL A   1      38.560  30.004  27.745  1.00  0.00    -0.205 F 
ATOM     74  C   UNL A   1      36.613  29.550  30.812  1.00  0.00     0.022 A 
BRANCH  72  75
ATOM     75  S   UNL A   1      35.692  30.802  28.562  1.00  0.00     0.127 S 
ATOM     76  O   UNL A   1      36.499  31.530  27.585  1.00  0.00    -0.237 OA
ATOM     77  O   UNL A   1      34.915  29.694  28.005  1.00  0.00    -0.237 OA
ATOM     78  O   UNL A   1      34.969  31.628  29.518  1.00  0.00    -0.744 OA
ENDBRANCH  72  75
ENDBRANCH  54  68
BRANCH  55  79
ATOM     79  C   UNL A   1      48.105  27.340  25.701  1.00  0.00     0.023 A 
ATOM     80  C   UNL A   1      49.200  26.823  26.420  1.00  0.00     0.012 A 
ATOM     81  C   UNL A   1      48.239  27.572  24.318  1.00  0.00     0.148 A 
ATOM     82  C   UNL A   1      50.415  26.569  25.781  1.00  0.00     0.002 A 
ATOM     83  C   UNL A   1      49.432  27.260  23.675  1.00  0.00     0.091 A 
ATOM     84  F   UNL A   1      47.187  28.070  23.653  1.00  0.00    -0.205 F 
ATOM     85  C   UNL A   1      50.527  26.776  24.408  1.00  0.00     0.022 A 
BRANCH  83  86
ATOM     86  S   UNL A   1      49.623  27.357  21.892  1.00  0.00     0.127 S 
ATOM     87  O   UNL A   1      51.027  26.992  21.720  1.00  0.00    -0.237 OA
ATOM     88  O   UNL A   1      48.664  26.352  21.432  1.00  0.00    -0.237 OA
ATOM     89  O   UNL A   1      49.279  28.725  21.531  1.00  0.00    -0.744 OA
ENDBRANCH  83  86
ENDBRANCH  55  79
BRANCH  67  90
ATOM     90  C   UNL A   1      45.319  32.819  29.034  1.00  0.00     0.023 A 
ATOM     91  C   UNL A   1      46.050  33.038  30.218  1.00  0.00     0.012 A 
ATOM     92  C   UNL A   1      45.139  33.880  28.125  1.00  0.00     0.148 A 
ATOM     93  C   UNL A   1      46.565  34.301  30.508  1.00  0.00     0.002 A 
ATOM     94  C   UNL A   1      45.698  35.122  28.397  1.00  0.00     0.091 A 
ATOM     95  F   UNL A   1      44.424  33.657  27.012  1.00  0.00    -0.205 F 
ATOM     96  C   UNL A   1      46.399  35.338  29.595  1.00  0.00     0.022 A 
BRANCH  94  97
ATOM     97  S   UNL A   1      45.623  36.487  27.232  1.00  0.00     0.127 S 
ATOM     98  O   UNL A   1      46.376  37.523  27.938  1.00  0.00    -0.237 OA
ATOM     99  O   UNL A   1      46.300  35.933  26.060  1.00  0.00    -0.237 OA
ATOM    100  O   UNL A   1      44.207  36.769  27.035  1.00  0.00    -0.744 OA
ENDBRANCH  94  97
ENDBRANCH  67  90
ENDBRANCH  41  42
ENDBRANCH  33  36
ENDBRANCH  31  32
ENDBRANCH  30  31
ENDBRANCH  29  30
ENDBRANCH   3  29
TORSDOF 19
ENDMDL
MODEL 2
REMARK VINA RESULT:     -11.8      3.170      8.014
REMARK SMILES O=C(COc1ccc(Br)cc1)NC(=S)Nc1ccc(Cl)cc1C(=O)NCCCNC(=O)c1ccc(-c2c3nc(c(-c4cccc(S(=O)(=O)[O-])c4F)c4ccc([nH]4)c(-c4cccc(S(=O)(=O)[O-])c4F)c4nc(c(-c5cccc(S(=O)(=O)[O-])c5F)c5ccc2[nH]5)C=C4)C=C3)cc1
REMARK SMILES IDX 23 1 24 2 25 3 22 5 16 6 17 7 18 8 21 9 19 10 20 11 15 12
REMARK SMILES IDX 13 14 14 15 12 16 1 17 2 18 3 20 4 21 5 22 6 23 11 24 7 25
REMARK SMILES IDX 10 26 8 27 9 28 26 29 27 30 28 31 29 32 30 33 31 35 32 36
REMARK SMILES IDX 33 37 94 38 34 39 93 40 35 41 36 42 37 43 87 44 38 45 92 46
REMARK SMILES IDX 86 47 88 48 39 49 91 50 85 51 84 52 40 54 72 55 52 56 71 57
REMARK SMILES IDX 53 58 56 59 70 60 89 61 54 62 55 63 69 65 90 66 57 67 41 68
REMARK SMILES IDX 42 69 50 70 43 71 45 72 51 73 44 74 46 75 47 76 48 77 49 78
REMARK SMILES IDX 73 79 74 80 82 81 75 82 77 83 83 84 76 85 78 86 79 87 80 88
REMARK SMILES IDX 81 89 58 90 59 91 67 92 60 93 62 94 68 95 61 96 63 97 64 98
REMARK SMILES IDX 65 99 66 100
REMARK H PARENT 25 4 15 13 12 19 29 34 88 53 56 64
REMARK Flexibility Score: inf
ROOT
ATOM      1  C   UNL A   1      32.544  22.545  25.975  1.00  0.00     0.253 C 
ATOM      2  O   UNL A   1      31.499  23.082  26.366  1.00  0.00    -0.269 OA
ATOM      3  N   UNL A   1      33.688  22.988  26.589  1.00  0.00    -0.352 N 
ATOM      4  H   UNL A   1      33.539  23.720  27.231  1.00  0.00     0.163 HD
ENDROOT
BRANCH   1   5
ATOM      5  C   UNL A   1      32.425  21.519  24.883  1.00  0.00     0.064 A 
ATOM      6  C   UNL A   1      32.123  21.665  23.513  1.00  0.00     0.053 A 
ATOM      7  C   UNL A   1      32.157  20.548  22.648  1.00  0.00     0.028 A 
ATOM      8  C   UNL A   1      32.375  19.266  23.137  1.00  0.00     0.023 A 
ATOM      9  C   UNL A   1      32.623  20.196  25.352  1.00  0.00     0.036 A 
ATOM     10  C   UNL A   1      32.573  19.092  24.498  1.00  0.00     0.041 A 
ATOM     11  Cl  UNL A   1      32.744  17.501  25.130  1.00  0.00    -0.084 Cl
BRANCH   6  12
ATOM     12  N   UNL A   1      31.740  22.867  22.906  1.00  0.00    -0.332 N 
ATOM     13  H   UNL A   1      30.924  22.839  22.357  1.00  0.00     0.169 HD
BRANCH  12  14
ATOM     14  C   UNL A   1      32.374  24.073  22.989  1.00  0.00     0.177 C 
ATOM     15  S   UNL A   1      34.015  24.139  22.673  1.00  0.00    -0.040 S 
BRANCH  14  16
ATOM     16  N   UNL A   1      31.753  25.229  23.423  1.00  0.00    -0.300 N 
ATOM     17  O   UNL A   1      32.744  25.967  25.420  1.00  0.00    -0.271 OA
ATOM     18  C   UNL A   1      31.893  26.070  24.541  1.00  0.00     0.264 C 
ATOM     19  H   UNL A   1      31.048  25.535  22.806  1.00  0.00     0.172 HD
BRANCH  18  20
ATOM     20  C   UNL A   1      30.923  27.256  24.570  1.00  0.00     0.329 C 
BRANCH  20  21
ATOM     21  O   UNL A   1      29.739  27.078  23.799  1.00  0.00    -0.484 OA
BRANCH  21  22
ATOM     22  C   UNL A   1      29.356  28.224  23.150  1.00  0.00     0.120 A 
ATOM     23  C   UNL A   1      30.292  28.960  22.421  1.00  0.00     0.047 A 
ATOM     24  C   UNL A   1      28.011  28.589  23.129  1.00  0.00     0.047 A 
ATOM     25  C   UNL A   1      29.902  30.108  21.732  1.00  0.00     0.019 A 
ATOM     26  C   UNL A   1      27.612  29.724  22.414  1.00  0.00     0.019 A 
ATOM     27  C   UNL A   1      28.562  30.484  21.729  1.00  0.00     0.018 A 
ATOM     28  Br  UNL A   1      28.029  32.020  20.764  1.00  0.00    -0.051 Br
ENDBRANCH  21  22
ENDBRANCH  20  21
ENDBRANCH  18  20
ENDBRANCH  14  16
ENDBRANCH  12  14
ENDBRANCH   6  12
ENDBRANCH   1   5
BRANCH   3  29
ATOM     29  C   UNL A   1      35.068  22.586  26.470  1.00  0.00     0.118 C 
BRANCH  29  30
ATOM     30  C   UNL A   1      36.021  23.597  25.858  1.00  0.00     0.042 C 
BRANCH  30  31
ATOM     31  C   UNL A   1      37.099  23.036  24.946  1.00  0.00     0.118 C 
BRANCH  31  32
ATOM     32  N   UNL A   1      38.118  22.242  25.623  1.00  0.00    -0.352 N 
ATOM     33  C   UNL A   1      39.176  22.583  26.435  1.00  0.00     0.251 C 
ATOM     34  H   UNL A   1      38.032  21.274  25.471  1.00  0.00     0.163 HD
ATOM     35  O   UNL A   1      39.936  21.689  26.814  1.00  0.00    -0.269 OA
BRANCH  33  36
ATOM     36  C   UNL A   1      39.454  23.986  26.830  1.00  0.00     0.039 A 
ATOM     37  C   UNL A   1      39.201  24.382  28.149  1.00  0.00     0.014 A 
ATOM     38  C   UNL A   1      39.935  24.929  25.925  1.00  0.00     0.014 A 
ATOM     39  C   UNL A   1      39.515  25.681  28.569  1.00  0.00     0.010 A 
ATOM     40  C   UNL A   1      40.377  26.170  26.374  1.00  0.00     0.010 A 
ATOM     41  C   UNL A   1      40.160  26.573  27.698  1.00  0.00    -0.014 A 
BRANCH  41  42
ATOM     42  C   UNL A   1      40.610  27.923  28.140  1.00  0.00     0.031 A 
ATOM     43  C   UNL A   1      42.080  28.258  28.205  1.00  0.00     0.074 A 
ATOM     44  C   UNL A   1      39.704  28.813  28.596  1.00  0.00     0.049 A 
ATOM     45  N   UNL A   1      42.660  29.345  28.645  1.00  0.00    -0.248 NA
ATOM     46  C   UNL A   1      43.025  27.221  27.758  1.00  0.00     0.031 C 
ATOM     47  C   UNL A   1      38.261  28.579  28.692  1.00  0.00     0.029 A 
ATOM     48  N   UNL A   1      39.866  30.082  29.096  1.00  0.00    -0.354 N 
ATOM     49  C   UNL A   1      44.028  29.099  28.584  1.00  0.00     0.074 A 
ATOM     50  C   UNL A   1      44.191  27.746  28.102  1.00  0.00     0.031 C 
ATOM     51  C   UNL A   1      37.672  29.668  29.211  1.00  0.00     0.029 A 
ATOM     52  C   UNL A   1      38.692  30.663  29.519  1.00  0.00     0.049 A 
ATOM     53  H   UNL A   1      40.739  30.534  29.147  1.00  0.00     0.167 HD
ATOM     54  C   UNL A   1      45.059  29.930  28.871  1.00  0.00     0.034 A 
ATOM     55  C   UNL A   1      38.459  31.856  30.101  1.00  0.00     0.034 A 
ATOM     56  C   UNL A   1      44.896  31.296  29.289  1.00  0.00     0.049 A 
ATOM     57  C   UNL A   1      39.612  32.795  30.331  1.00  0.00     0.074 A 
ATOM     58  C   UNL A   1      45.870  32.259  29.477  1.00  0.00     0.029 A 
ATOM     59  N   UNL A   1      43.682  31.889  29.596  1.00  0.00    -0.354 N 
ATOM     60  N   UNL A   1      40.887  32.609  30.089  1.00  0.00    -0.248 NA
ATOM     61  C   UNL A   1      39.291  34.122  30.876  1.00  0.00     0.031 C 
ATOM     62  C   UNL A   1      45.247  33.426  29.932  1.00  0.00     0.029 A 
ATOM     63  C   UNL A   1      43.880  33.201  29.990  1.00  0.00     0.049 A 
ATOM     64  H   UNL A   1      42.805  31.443  29.541  1.00  0.00     0.167 HD
ATOM     65  C   UNL A   1      41.516  33.803  30.425  1.00  0.00     0.074 A 
ATOM     66  C   UNL A   1      40.478  34.712  30.862  1.00  0.00     0.031 C 
ATOM     67  C   UNL A   1      42.836  34.111  30.386  1.00  0.00     0.034 A 
BRANCH  54  68
ATOM     68  C   UNL A   1      46.459  29.397  28.699  1.00  0.00     0.023 A 
ATOM     69  C   UNL A   1      47.084  29.453  27.436  1.00  0.00     0.012 A 
ATOM     70  C   UNL A   1      47.175  28.879  29.797  1.00  0.00     0.148 A 
ATOM     71  C   UNL A   1      48.376  28.961  27.256  1.00  0.00     0.002 A 
ATOM     72  C   UNL A   1      48.481  28.438  29.621  1.00  0.00     0.091 A 
ATOM     73  F   UNL A   1      46.563  28.812  30.987  1.00  0.00    -0.205 F 
ATOM     74  C   UNL A   1      49.078  28.463  28.350  1.00  0.00     0.022 A 
BRANCH  72  75
ATOM     75  S   UNL A   1      49.500  27.860  30.984  1.00  0.00     0.127 S 
ATOM     76  O   UNL A   1      49.437  28.996  31.902  1.00  0.00    -0.237 OA
ATOM     77  O   UNL A   1      48.769  26.675  31.432  1.00  0.00    -0.237 OA
ATOM     78  O   UNL A   1      50.811  27.585  30.416  1.00  0.00    -0.744 OA
ENDBRANCH  72  75
ENDBRANCH  54  68
BRANCH  55  79
ATOM     79  C   UNL A   1      37.064  32.247  30.448  1.00  0.00     0.023 A 
ATOM     80  C   UNL A   1      36.589  32.043  31.758  1.00  0.00     0.012 A 
ATOM     81  C   UNL A   1      36.225  32.870  29.502  1.00  0.00     0.148 A 
ATOM     82  C   UNL A   1      35.294  32.426  32.114  1.00  0.00     0.002 A 
ATOM     83  C   UNL A   1      34.959  33.303  29.879  1.00  0.00     0.091 A 
ATOM     84  F   UNL A   1      36.694  33.049  28.259  1.00  0.00    -0.205 F 
ATOM     85  C   UNL A   1      34.484  33.065  31.178  1.00  0.00     0.022 A 
BRANCH  83  86
ATOM     86  S   UNL A   1      33.902  34.263  28.788  1.00  0.00     0.127 S 
ATOM     87  O   UNL A   1      33.479  33.255  27.818  1.00  0.00    -0.237 OA
ATOM     88  O   UNL A   1      32.854  34.713  29.705  1.00  0.00    -0.237 OA
ATOM     89  O   UNL A   1      34.741  35.331  28.263  1.00  0.00    -0.744 OA
ENDBRANCH  83  86
ENDBRANCH  55  79
BRANCH  67  90
ATOM     90  C   UNL A   1      43.242  35.502  30.801  1.00  0.00     0.023 A 
ATOM     91  C   UNL A   1      43.601  35.761  32.139  1.00  0.00     0.012 A 
ATOM     92  C   UNL A   1      43.335  36.535  29.847  1.00  0.00     0.148 A 
ATOM     93  C   UNL A   1      44.011  37.035  32.528  1.00  0.00     0.002 A 
ATOM     94  C   UNL A   1      43.794  37.789  30.232  1.00  0.00     0.091 A 
ATOM     95  F   UNL A   1      42.971  36.274  28.583  1.00  0.00    -0.205 F 
ATOM     96  C   UNL A   1      44.119  38.045  31.574  1.00  0.00     0.022 A 
BRANCH  94  97
ATOM     97  S   UNL A   1      44.061  39.118  29.054  1.00  0.00     0.127 S 
ATOM     98  O   UNL A   1      44.873  38.454  28.036  1.00  0.00    -0.237 OA
ATOM     99  O   UNL A   1      42.697  39.439  28.633  1.00  0.00    -0.237 OA
ATOM    100  O   UNL A   1      44.730  40.180  29.792  1.00  0.00    -0.744 OA
ENDBRANCH  94  97
ENDBRANCH  67  90
ENDBRANCH  41  42
ENDBRANCH  33  36
ENDBRANCH  31  32
ENDBRANCH  30  31
ENDBRANCH  29  30
ENDBRANCH   3  29
TORSDOF 19
ENDMDL
MODEL 3
REMARK VINA RESULT:     -11.0      6.436     11.669
REMARK SMILES O=C(COc1ccc(Br)cc1)NC(=S)Nc1ccc(Cl)cc1C(=O)NCCCNC(=O)c1ccc(-c2c3nc(c(-c4cccc(S(=O)(=O)[O-])c4F)c4ccc([nH]4)c(-c4cccc(S(=O)(=O)[O-])c4F)c4nc(c(-c5cccc(S(=O)(=O)[O-])c5F)c5ccc2[nH]5)C=C4)C=C3)cc1
REMARK SMILES IDX 23 1 24 2 25 3 22 5 16 6 17 7 18 8 21 9 19 10 20 11 15 12
REMARK SMILES IDX 13 14 14 15 12 16 1 17 2 18 3 20 4 21 5 22 6 23 11 24 7 25
REMARK SMILES IDX 10 26 8 27 9 28 26 29 27 30 28 31 29 32 30 33 31 35 32 36
REMARK SMILES IDX 33 37 94 38 34 39 93 40 35 41 36 42 37 43 87 44 38 45 92 46
REMARK SMILES IDX 86 47 88 48 39 49 91 50 85 51 84 52 40 54 72 55 52 56 71 57
REMARK SMILES IDX 53 58 56 59 70 60 89 61 54 62 55 63 69 65 90 66 57 67 41 68
REMARK SMILES IDX 42 69 50 70 43 71 45 72 51 73 44 74 46 75 47 76 48 77 49 78
REMARK SMILES IDX 73 79 74 80 82 81 75 82 77 83 83 84 76 85 78 86 79 87 80 88
REMARK SMILES IDX 81 89 58 90 59 91 67 92 60 93 62 94 68 95 61 96 63 97 64 98
REMARK SMILES IDX 65 99 66 100
REMARK H PARENT 25 4 15 13 12 19 29 34 88 53 56 64
REMARK Flexibility Score: inf
ROOT
ATOM      1  C   UNL A   1      31.837  27.495  26.246  1.00  0.00     0.253 C 
ATOM      2  O   UNL A   1      31.051  26.800  26.903  1.00  0.00    -0.269 OA
ATOM      3  N   UNL A   1      32.964  27.891  26.922  1.00  0.00    -0.352 N 
ATOM      4  H   UNL A   1      32.981  27.613  27.867  1.00  0.00     0.163 HD
ENDROOT
BRANCH   1   5
ATOM      5  C   UNL A   1      31.448  27.830  24.834  1.00  0.00     0.064 A 
ATOM      6  C   UNL A   1      31.754  27.182  23.618  1.00  0.00     0.053 A 
ATOM      7  C   UNL A   1      31.191  27.637  22.403  1.00  0.00     0.028 A 
ATOM      8  C   UNL A   1      30.420  28.791  22.355  1.00  0.00     0.023 A 
ATOM      9  C   UNL A   1      30.676  29.015  24.746  1.00  0.00     0.036 A 
ATOM     10  C   UNL A   1      30.196  29.497  23.526  1.00  0.00     0.041 A 
ATOM     11  Cl  UNL A   1      29.327  30.981  23.465  1.00  0.00    -0.084 Cl
BRANCH   6  12
ATOM     12  N   UNL A   1      32.631  26.099  23.491  1.00  0.00    -0.332 N 
ATOM     13  H   UNL A   1      33.493  26.285  23.054  1.00  0.00     0.169 HD
BRANCH  12  14
ATOM     14  C   UNL A   1      32.425  24.816  23.905  1.00  0.00     0.177 C 
ATOM     15  S   UNL A   1      30.862  24.217  23.910  1.00  0.00    -0.040 S 
BRANCH  14  16
ATOM     16  N   UNL A   1      33.425  24.013  24.420  1.00  0.00    -0.300 N 
ATOM     17  O   UNL A   1      34.818  23.263  22.685  1.00  0.00    -0.271 OA
ATOM     18  C   UNL A   1      34.490  23.279  23.867  1.00  0.00     0.264 C 
ATOM     19  H   UNL A   1      33.383  23.938  25.401  1.00  0.00     0.172 HD
BRANCH  18  20
ATOM     20  C   UNL A   1      35.334  22.516  24.893  1.00  0.00     0.329 C 
BRANCH  20  21
ATOM     21  O   UNL A   1      36.189  21.520  24.342  1.00  0.00    -0.484 OA
BRANCH  21  22
ATOM     22  C   UNL A   1      37.405  21.461  24.973  1.00  0.00     0.120 A 
ATOM     23  C   UNL A   1      37.831  22.524  25.770  1.00  0.00     0.047 A 
ATOM     24  C   UNL A   1      38.163  20.292  24.905  1.00  0.00     0.047 A 
ATOM     25  C   UNL A   1      39.052  22.457  26.440  1.00  0.00     0.019 A 
ATOM     26  C   UNL A   1      39.374  20.210  25.601  1.00  0.00     0.019 A 
ATOM     27  C   UNL A   1      39.817  21.297  26.355  1.00  0.00     0.018 A 
ATOM     28  Br  UNL A   1      41.455  21.194  27.294  1.00  0.00    -0.051 Br
ENDBRANCH  21  22
ENDBRANCH  20  21
ENDBRANCH  18  20
ENDBRANCH  14  16
ENDBRANCH  12  14
ENDBRANCH   6  12
ENDBRANCH   1   5
BRANCH   3  29
ATOM     29  C   UNL A   1      34.127  28.637  26.511  1.00  0.00     0.118 C 
BRANCH  29  30
ATOM     30  C   UNL A   1      33.978  30.146  26.437  1.00  0.00     0.042 C 
BRANCH  30  31
ATOM     31  C   UNL A   1      32.888  30.755  27.302  1.00  0.00     0.118 C 
BRANCH  31  32
ATOM     32  N   UNL A   1      32.830  32.212  27.272  1.00  0.00    -0.352 N 
ATOM     33  C   UNL A   1      33.588  33.187  27.880  1.00  0.00     0.251 C 
ATOM     34  H   UNL A   1      32.108  32.568  26.706  1.00  0.00     0.163 HD
ATOM     35  O   UNL A   1      33.257  34.365  27.732  1.00  0.00    -0.269 OA
BRANCH  33  36
ATOM     36  C   UNL A   1      34.757  32.865  28.736  1.00  0.00     0.039 A 
ATOM     37  C   UNL A   1      34.538  32.311  30.003  1.00  0.00     0.014 A 
ATOM     38  C   UNL A   1      36.064  33.119  28.330  1.00  0.00     0.014 A 
ATOM     39  C   UNL A   1      35.622  31.935  30.806  1.00  0.00     0.010 A 
ATOM     40  C   UNL A   1      37.137  32.619  29.064  1.00  0.00     0.010 A 
ATOM     41  C   UNL A   1      36.935  32.034  30.320  1.00  0.00    -0.014 A 
BRANCH  41  42
ATOM     42  C   UNL A   1      38.106  31.543  31.099  1.00  0.00     0.031 A 
ATOM     43  C   UNL A   1      39.031  30.501  30.519  1.00  0.00     0.074 A 
ATOM     44  C   UNL A   1      38.275  31.944  32.376  1.00  0.00     0.049 A 
ATOM     45  N   UNL A   1      40.044  29.892  31.080  1.00  0.00    -0.248 NA
ATOM     46  C   UNL A   1      38.755  30.050  29.144  1.00  0.00     0.031 C 
ATOM     47  C   UNL A   1      37.392  32.864  33.099  1.00  0.00     0.029 A 
ATOM     48  N   UNL A   1      39.229  31.606  33.306  1.00  0.00    -0.354 N 
ATOM     49  C   UNL A   1      40.485  28.952  30.153  1.00  0.00     0.074 A 
ATOM     50  C   UNL A   1      39.605  29.043  29.011  1.00  0.00     0.031 C 
ATOM     51  C   UNL A   1      37.848  33.020  34.351  1.00  0.00     0.029 A 
ATOM     52  C   UNL A   1      39.031  32.187  34.537  1.00  0.00     0.049 A 
ATOM     53  H   UNL A   1      39.983  31.003  33.109  1.00  0.00     0.167 HD
ATOM     54  C   UNL A   1      41.544  28.111  30.229  1.00  0.00     0.034 A 
ATOM     55  C   UNL A   1      39.715  32.059  35.692  1.00  0.00     0.034 A 
ATOM     56  C   UNL A   1      42.457  28.068  31.339  1.00  0.00     0.049 A 
ATOM     57  C   UNL A   1      40.938  31.184  35.724  1.00  0.00     0.074 A 
ATOM     58  C   UNL A   1      43.633  27.350  31.456  1.00  0.00     0.029 A 
ATOM     59  N   UNL A   1      42.291  28.761  32.527  1.00  0.00    -0.354 N 
ATOM     60  N   UNL A   1      41.446  30.443  34.770  1.00  0.00    -0.248 NA
ATOM     61  C   UNL A   1      41.703  31.157  36.978  1.00  0.00     0.031 C 
ATOM     62  C   UNL A   1      44.160  27.582  32.732  1.00  0.00     0.029 A 
ATOM     63  C   UNL A   1      43.332  28.476  33.393  1.00  0.00     0.049 A 
ATOM     64  H   UNL A   1      41.542  29.369  32.725  1.00  0.00     0.167 HD
ATOM     65  C   UNL A   1      42.605  29.884  35.298  1.00  0.00     0.074 A 
ATOM     66  C   UNL A   1      42.736  30.395  36.646  1.00  0.00     0.031 C 
ATOM     67  C   UNL A   1      43.474  29.019  34.719  1.00  0.00     0.034 A 
BRANCH  54  68
ATOM     68  C   UNL A   1      41.800  27.198  29.056  1.00  0.00     0.023 A 
ATOM     69  C   UNL A   1      41.228  25.909  29.029  1.00  0.00     0.012 A 
ATOM     70  C   UNL A   1      42.571  27.630  27.958  1.00  0.00     0.148 A 
ATOM     71  C   UNL A   1      41.457  25.049  27.957  1.00  0.00     0.002 A 
ATOM     72  C   UNL A   1      42.752  26.786  26.869  1.00  0.00     0.091 A 
ATOM     73  F   UNL A   1      43.125  28.849  28.005  1.00  0.00    -0.205 F 
ATOM     74  C   UNL A   1      42.211  25.490  26.873  1.00  0.00     0.022 A 
BRANCH  72  75
ATOM     75  S   UNL A   1      43.632  27.294  25.387  1.00  0.00     0.127 S 
ATOM     76  O   UNL A   1      44.199  26.026  24.932  1.00  0.00    -0.237 OA
ATOM     77  O   UNL A   1      42.550  27.812  24.549  1.00  0.00    -0.237 OA
ATOM     78  O   UNL A   1      44.598  28.295  25.817  1.00  0.00    -0.744 OA
ENDBRANCH  72  75
ENDBRANCH  54  68
BRANCH  55  79
ATOM     79  C   UNL A   1      39.285  32.831  36.892  1.00  0.00     0.023 A 
ATOM     80  C   UNL A   1      39.787  34.130  37.101  1.00  0.00     0.012 A 
ATOM     81  C   UNL A   1      38.340  32.305  37.795  1.00  0.00     0.148 A 
ATOM     82  C   UNL A   1      39.378  34.881  38.204  1.00  0.00     0.002 A 
ATOM     83  C   UNL A   1      37.891  33.082  38.858  1.00  0.00     0.091 A 
ATOM     84  F   UNL A   1      37.879  31.065  37.582  1.00  0.00    -0.205 F 
ATOM     85  C   UNL A   1      38.423  34.363  39.075  1.00  0.00     0.022 A 
BRANCH  83  86
ATOM     86  S   UNL A   1      36.561  32.556  39.945  1.00  0.00     0.127 S 
ATOM     87  O   UNL A   1      35.421  32.528  39.033  1.00  0.00    -0.237 OA
ATOM     88  O   UNL A   1      37.032  31.242  40.383  1.00  0.00    -0.237 OA
ATOM     89  O   UNL A   1      36.497  33.554  41.004  1.00  0.00    -0.744 OA
ENDBRANCH  83  86
ENDBRANCH  55  79
BRANCH  67  90
ATOM     90  C   UNL A   1      44.668  28.581  35.529  1.00  0.00     0.023 A 
ATOM     91  C   UNL A   1      45.917  29.201  35.333  1.00  0.00     0.012 A 
ATOM     92  C   UNL A   1      44.530  27.604  36.535  1.00  0.00     0.148 A 
ATOM     93  C   UNL A   1      47.021  28.829  36.100  1.00  0.00     0.002 A 
ATOM     94  C   UNL A   1      45.622  27.276  37.330  1.00  0.00     0.091 A 
ATOM     95  F   UNL A   1      43.337  27.012  36.695  1.00  0.00    -0.205 F 
ATOM     96  C   UNL A   1      46.870  27.877  37.105  1.00  0.00     0.022 A 
BRANCH  94  97
ATOM     97  S   UNL A   1      45.496  26.136  38.713  1.00  0.00     0.127 S 
ATOM     98  O   UNL A   1      46.693  26.468  39.482  1.00  0.00    -0.237 OA
ATOM     99  O   UNL A   1      44.237  26.542  39.337  1.00  0.00    -0.237 OA
ATOM    100  O   UNL A   1      45.478  24.800  38.132  1.00  0.00    -0.744 OA
ENDBRANCH  94  97
ENDBRANCH  67  90
ENDBRANCH  41  42
ENDBRANCH  33  36
ENDBRANCH  31  32
ENDBRANCH  30  31
ENDBRANCH  29  30
ENDBRANCH   3  29
TORSDOF 19
ENDMDL
