MODEL 1
REMARK VINA RESULT:     -12.8      0.000      0.000
REMARK SMILES COc1ccc(C(=O)C2=C(NCCCNC(=O)c3ccc(-c4c5nc(c(-c6cccc(S(=O)(=O)[O-])c6F)c6ccc([nH]6)c(-c6cccc(S(=O)(=O)[O-])c6F)c6nc(c(-c7cccc(S(=O)(=O)[O-])c7F)c7ccc4[nH]7)C=C6)C=C5)cc3)C(=O)N(CC(=O)[O-])[C@H]2c2ccccc2)cc1
REMARK SMILES IDX 13 1 12 2 11 3 10 5 9 6 88 7 81 8 83 9 82 10 7 11 8 12 6 13
REMARK SMILES IDX 3 14 4 15 96 16 5 17 95 18 2 19 1 20 89 21 90 22 94 23 91 24
REMARK SMILES IDX 93 25 92 26 84 27 85 28 86 29 87 30 14 31 15 32 16 33 17 35
REMARK SMILES IDX 18 36 19 37 80 38 20 39 79 40 21 41 22 42 23 43 73 44 24 45
REMARK SMILES IDX 78 46 72 47 74 48 25 49 77 50 71 51 70 52 26 54 58 55 38 56
REMARK SMILES IDX 57 57 39 58 42 59 56 60 75 61 40 62 41 63 55 65 76 66 43 67
REMARK SMILES IDX 27 68 28 69 36 70 29 71 31 72 37 73 30 74 32 75 33 76 34 77
REMARK SMILES IDX 35 78 59 79 60 80 68 81 61 82 63 83 69 84 62 85 64 86 65 87
REMARK SMILES IDX 66 88 67 89 44 90 45 91 53 92 46 93 48 94 54 95 47 96 49 97
REMARK SMILES IDX 50 98 51 99 52 100
REMARK H PARENT 11 4 15 34 74 53 42 64
REMARK Flexibility Score: inf
ROOT
ATOM      1  C   UNL A   1      31.613  29.615  26.935  1.00  0.00     0.042 C 
ENDROOT
BRANCH   1   2
ATOM      2  C   UNL A   1      31.837  28.190  27.420  1.00  0.00     0.115 C 
BRANCH   2   3
ATOM      3  N   UNL A   1      31.347  27.239  26.447  1.00  0.00    -0.380 N 
ATOM      4  H   UNL A   1      30.369  27.139  26.421  1.00  0.00     0.160 HD
BRANCH   3   5
ATOM      5  C   UNL A   1      32.034  26.457  25.559  1.00  0.00     0.110 C 
ATOM      6  C   UNL A   1      32.360  25.163  25.446  1.00  0.00     0.056 C 
ATOM      7  C   UNL A   1      33.034  24.800  24.157  1.00  0.00     0.153 C 
ATOM      8  C   UNL A   1      32.549  27.083  24.293  1.00  0.00     0.271 C 
ATOM      9  N   UNL A   1      33.077  26.089  23.509  1.00  0.00    -0.320 N 
ATOM     10  O   UNL A   1      32.468  28.271  24.025  1.00  0.00    -0.267 OA
BRANCH   6  11
ATOM     11  C   UNL A   1      31.890  24.113  26.364  1.00  0.00     0.193 C 
ATOM     12  O   UNL A   1      31.093  24.412  27.250  1.00  0.00    -0.289 OA
BRANCH  11  13
ATOM     13  C   UNL A   1      32.322  22.696  26.175  1.00  0.00     0.023 A 
ATOM     14  C   UNL A   1      33.264  20.122  25.510  1.00  0.00     0.118 A 
ATOM     15  C   UNL A   1      32.156  20.663  24.855  1.00  0.00     0.047 A 
ATOM     16  C   UNL A   1      33.852  20.840  26.547  1.00  0.00     0.047 A 
ATOM     17  C   UNL A   1      31.691  21.942  25.178  1.00  0.00     0.016 A 
ATOM     18  C   UNL A   1      33.363  22.107  26.898  1.00  0.00     0.016 A 
BRANCH  14  19
ATOM     19  O   UNL A   1      33.673  18.909  25.034  1.00  0.00    -0.497 OA
ATOM     20  C   UNL A   1      33.011  18.411  23.875  1.00  0.00     0.278 C 
ENDBRANCH  14  19
ENDBRANCH  11  13
ENDBRANCH   6  11
BRANCH   7  21
ATOM     21  C   UNL A   1      34.422  24.206  24.325  1.00  0.00    -0.021 A 
ATOM     22  C   UNL A   1      35.276  24.607  25.370  1.00  0.00     0.006 A 
ATOM     23  C   UNL A   1      34.861  23.197  23.453  1.00  0.00     0.006 A 
ATOM     24  C   UNL A   1      36.522  24.005  25.549  1.00  0.00     0.000 A 
ATOM     25  C   UNL A   1      36.113  22.605  23.628  1.00  0.00     0.000 A 
ATOM     26  C   UNL A   1      36.939  23.004  24.678  1.00  0.00     0.000 A 
ENDBRANCH   7  21
BRANCH   9  27
ATOM     27  C   UNL A   1      33.613  26.324  22.177  1.00  0.00     0.173 C 
BRANCH  27  28
ATOM     28  C   UNL A   1      32.682  25.942  21.037  1.00  0.00     0.061 C 
ATOM     29  O   UNL A   1      33.002  25.281  20.058  1.00  0.00    -0.548 OA
ATOM     30  O   UNL A   1      31.399  26.325  21.194  1.00  0.00    -0.548 OA
ENDBRANCH  27  28
ENDBRANCH   9  27
ENDBRANCH   3   5
ENDBRANCH   2   3
ENDBRANCH   1   2
BRANCH   1  31
ATOM     31  C   UNL A   1      32.903  30.373  26.638  1.00  0.00     0.118 C 
BRANCH  31  32
ATOM     32  N   UNL A   1      32.793  31.806  26.896  1.00  0.00    -0.352 N 
ATOM     33  C   UNL A   1      33.613  32.627  27.633  1.00  0.00     0.251 C 
ATOM     34  H   UNL A   1      32.017  32.248  26.483  1.00  0.00     0.163 HD
ATOM     35  O   UNL A   1      33.272  33.780  27.881  1.00  0.00    -0.269 OA
BRANCH  33  36
ATOM     36  C   UNL A   1      34.901  32.109  28.143  1.00  0.00     0.039 A 
ATOM     37  C   UNL A   1      36.031  32.932  28.114  1.00  0.00     0.014 A 
ATOM     38  C   UNL A   1      34.981  30.819  28.667  1.00  0.00     0.014 A 
ATOM     39  C   UNL A   1      37.224  32.488  28.692  1.00  0.00     0.010 A 
ATOM     40  C   UNL A   1      36.143  30.412  29.313  1.00  0.00     0.010 A 
ATOM     41  C   UNL A   1      37.275  31.242  29.334  1.00  0.00    -0.014 A 
BRANCH  41  42
ATOM     42  C   UNL A   1      38.488  30.764  30.047  1.00  0.00     0.031 A 
ATOM     43  C   UNL A   1      39.366  29.724  29.406  1.00  0.00     0.074 A 
ATOM     44  C   UNL A   1      38.717  31.155  31.315  1.00  0.00     0.049 A 
ATOM     45  N   UNL A   1      40.356  29.046  29.922  1.00  0.00    -0.248 NA
ATOM     46  C   UNL A   1      39.061  29.377  28.008  1.00  0.00     0.031 C 
ATOM     47  C   UNL A   1      37.905  32.114  32.069  1.00  0.00     0.029 A 
ATOM     48  N   UNL A   1      39.681  30.763  32.211  1.00  0.00    -0.354 N 
ATOM     49  C   UNL A   1      40.758  28.155  28.934  1.00  0.00     0.074 A 
ATOM     50  C   UNL A   1      39.883  28.359  27.800  1.00  0.00     0.031 C 
ATOM     51  C   UNL A   1      38.406  32.236  33.308  1.00  0.00     0.029 A 
ATOM     52  C   UNL A   1      39.543  31.335  33.454  1.00  0.00     0.049 A 
ATOM     53  H   UNL A   1      40.402  30.131  31.985  1.00  0.00     0.167 HD
ATOM     54  C   UNL A   1      41.780  27.265  28.956  1.00  0.00     0.034 A 
ATOM     55  C   UNL A   1      40.247  31.144  34.588  1.00  0.00     0.034 A 
ATOM     56  C   UNL A   1      42.676  27.103  30.068  1.00  0.00     0.049 A 
ATOM     57  C   UNL A   1      41.395  30.172  34.581  1.00  0.00     0.074 A 
ATOM     58  C   UNL A   1      43.790  26.289  30.165  1.00  0.00     0.029 A 
ATOM     59  N   UNL A   1      42.562  27.769  31.279  1.00  0.00    -0.354 N 
ATOM     60  N   UNL A   1      41.841  29.429  33.597  1.00  0.00    -0.248 NA
ATOM     61  C   UNL A   1      42.156  30.032  35.832  1.00  0.00     0.031 C 
ATOM     62  C   UNL A   1      44.340  26.452  31.441  1.00  0.00     0.029 A 
ATOM     63  C   UNL A   1      43.582  27.385  32.131  1.00  0.00     0.049 A 
ATOM     64  H   UNL A   1      41.857  28.420  31.500  1.00  0.00     0.167 HD
ATOM     65  C   UNL A   1      42.961  28.769  34.094  1.00  0.00     0.074 A 
ATOM     66  C   UNL A   1      43.127  29.206  35.465  1.00  0.00     0.031 C 
ATOM     67  C   UNL A   1      43.770  27.876  33.473  1.00  0.00     0.034 A 
BRANCH  54  68
ATOM     68  C   UNL A   1      42.003  26.438  27.716  1.00  0.00     0.023 A 
ATOM     69  C   UNL A   1      42.596  27.032  26.582  1.00  0.00     0.012 A 
ATOM     70  C   UNL A   1      41.648  25.077  27.674  1.00  0.00     0.148 A 
ATOM     71  C   UNL A   1      42.782  26.300  25.410  1.00  0.00     0.002 A 
ATOM     72  C   UNL A   1      41.880  24.340  26.517  1.00  0.00     0.091 A 
ATOM     73  F   UNL A   1      41.063  24.530  28.751  1.00  0.00    -0.205 F 
ATOM     74  C   UNL A   1      42.432  24.953  25.380  1.00  0.00     0.022 A 
BRANCH  72  75
ATOM     75  S   UNL A   1      41.538  22.579  26.416  1.00  0.00     0.127 S 
ATOM     76  O   UNL A   1      42.277  22.202  25.213  1.00  0.00    -0.237 OA
ATOM     77  O   UNL A   1      42.113  22.078  27.665  1.00  0.00    -0.237 OA
ATOM     78  O   UNL A   1      40.089  22.463  26.331  1.00  0.00    -0.744 OA
ENDBRANCH  72  75
ENDBRANCH  54  68
BRANCH  55  79
ATOM     79  C   UNL A   1      39.936  31.957  35.798  1.00  0.00     0.023 A 
ATOM     80  C   UNL A   1      40.707  33.106  36.059  1.00  0.00     0.012 A 
ATOM     81  C   UNL A   1      38.866  31.637  36.655  1.00  0.00     0.148 A 
ATOM     82  C   UNL A   1      40.434  33.910  37.167  1.00  0.00     0.002 A 
ATOM     83  C   UNL A   1      38.568  32.469  37.728  1.00  0.00     0.091 A 
ATOM     84  F   UNL A   1      38.148  30.537  36.390  1.00  0.00    -0.205 F 
ATOM     85  C   UNL A   1      39.360  33.598  37.995  1.00  0.00     0.022 A 
BRANCH  83  86
ATOM     86  S   UNL A   1      37.134  32.217  38.783  1.00  0.00     0.127 S 
ATOM     87  O   UNL A   1      36.084  32.898  38.029  1.00  0.00    -0.237 OA
ATOM     88  O   UNL A   1      37.030  30.759  38.804  1.00  0.00    -0.237 OA
ATOM     89  O   UNL A   1      37.473  32.817  40.066  1.00  0.00    -0.744 OA
ENDBRANCH  83  86
ENDBRANCH  55  79
BRANCH  67  90
ATOM     90  C   UNL A   1      44.948  27.342  34.243  1.00  0.00     0.023 A 
ATOM     91  C   UNL A   1      46.183  28.018  34.198  1.00  0.00     0.012 A 
ATOM     92  C   UNL A   1      44.802  26.223  35.087  1.00  0.00     0.148 A 
ATOM     93  C   UNL A   1      47.262  27.575  34.963  1.00  0.00     0.002 A 
ATOM     94  C   UNL A   1      45.867  25.816  35.882  1.00  0.00     0.091 A 
ATOM     95  F   UNL A   1      43.625  25.582  35.099  1.00  0.00    -0.205 F 
ATOM     96  C   UNL A   1      47.099  26.483  35.813  1.00  0.00     0.022 A 
BRANCH  94  97
ATOM     97  S   UNL A   1      45.720  24.482  37.078  1.00  0.00     0.127 S 
ATOM     98  O   UNL A   1      44.625  24.960  37.922  1.00  0.00    -0.237 OA
ATOM     99  O   UNL A   1      45.382  23.340  36.229  1.00  0.00    -0.237 OA
ATOM    100  O   UNL A   1      47.018  24.385  37.732  1.00  0.00    -0.744 OA
ENDBRANCH  94  97
ENDBRANCH  67  90
ENDBRANCH  41  42
ENDBRANCH  33  36
ENDBRANCH  31  32
ENDBRANCH   1  31
TORSDOF 19
ENDMDL
MODEL 2
REMARK VINA RESULT:     -12.3      2.269      3.644
REMARK SMILES COc1ccc(C(=O)C2=C(NCCCNC(=O)c3ccc(-c4c5nc(c(-c6cccc(S(=O)(=O)[O-])c6F)c6ccc([nH]6)c(-c6cccc(S(=O)(=O)[O-])c6F)c6nc(c(-c7cccc(S(=O)(=O)[O-])c7F)c7ccc4[nH]7)C=C6)C=C5)cc3)C(=O)N(CC(=O)[O-])[C@H]2c2ccccc2)cc1
REMARK SMILES IDX 13 1 12 2 11 3 10 5 9 6 88 7 81 8 83 9 82 10 7 11 8 12 6 13
REMARK SMILES IDX 3 14 4 15 96 16 5 17 95 18 2 19 1 20 89 21 90 22 94 23 91 24
REMARK SMILES IDX 93 25 92 26 84 27 85 28 86 29 87 30 14 31 15 32 16 33 17 35
REMARK SMILES IDX 18 36 19 37 80 38 20 39 79 40 21 41 22 42 23 43 73 44 24 45
REMARK SMILES IDX 78 46 72 47 74 48 25 49 77 50 71 51 70 52 26 54 58 55 38 56
REMARK SMILES IDX 57 57 39 58 42 59 56 60 75 61 40 62 41 63 55 65 76 66 43 67
REMARK SMILES IDX 27 68 28 69 36 70 29 71 31 72 37 73 30 74 32 75 33 76 34 77
REMARK SMILES IDX 35 78 59 79 60 80 68 81 61 82 63 83 69 84 62 85 64 86 65 87
REMARK SMILES IDX 66 88 67 89 44 90 45 91 53 92 46 93 48 94 54 95 47 96 49 97
REMARK SMILES IDX 50 98 51 99 52 100
REMARK H PARENT 11 4 15 34 74 53 42 64
REMARK Flexibility Score: inf
ROOT
ATOM      1  C   UNL A   1      33.667  28.573  24.047  1.00  0.00     0.042 C 
ENDROOT
BRANCH   1   2
ATOM      2  C   UNL A   1      33.669  27.088  23.713  1.00  0.00     0.115 C 
BRANCH   2   3
ATOM      3  N   UNL A   1      34.215  26.322  24.811  1.00  0.00    -0.380 N 
ATOM      4  H   UNL A   1      34.864  26.804  25.371  1.00  0.00     0.160 HD
BRANCH   3   5
ATOM      5  C   UNL A   1      33.968  25.030  25.190  1.00  0.00     0.110 C 
ATOM      6  C   UNL A   1      34.553  23.837  25.030  1.00  0.00     0.056 C 
ATOM      7  C   UNL A   1      33.911  22.719  25.796  1.00  0.00     0.153 C 
ATOM      8  C   UNL A   1      32.796  24.753  26.091  1.00  0.00     0.271 C 
ATOM      9  N   UNL A   1      32.830  23.427  26.440  1.00  0.00    -0.320 N 
ATOM     10  O   UNL A   1      31.989  25.593  26.455  1.00  0.00    -0.267 OA
BRANCH   6  11
ATOM     11  C   UNL A   1      35.857  23.641  24.377  1.00  0.00     0.193 C 
ATOM     12  O   UNL A   1      35.996  23.996  23.209  1.00  0.00    -0.289 OA
BRANCH  11  13
ATOM     13  C   UNL A   1      37.011  23.085  25.145  1.00  0.00     0.023 A 
ATOM     14  C   UNL A   1      39.355  22.010  26.288  1.00  0.00     0.118 A 
ATOM     15  C   UNL A   1      38.510  21.209  25.517  1.00  0.00     0.047 A 
ATOM     16  C   UNL A   1      38.986  23.327  26.547  1.00  0.00     0.047 A 
ATOM     17  C   UNL A   1      37.351  21.741  24.943  1.00  0.00     0.016 A 
ATOM     18  C   UNL A   1      37.804  23.852  26.003  1.00  0.00     0.016 A 
BRANCH  14  19
ATOM     19  O   UNL A   1      40.500  21.395  26.708  1.00  0.00    -0.497 OA
ATOM     20  C   UNL A   1      40.660  20.022  26.364  1.00  0.00     0.278 C 
ENDBRANCH  14  19
ENDBRANCH  11  13
ENDBRANCH   6  11
BRANCH   7  21
ATOM     21  C   UNL A   1      33.404  21.580  24.930  1.00  0.00    -0.021 A 
ATOM     22  C   UNL A   1      33.563  20.233  25.312  1.00  0.00     0.006 A 
ATOM     23  C   UNL A   1      32.718  21.859  23.738  1.00  0.00     0.006 A 
ATOM     24  C   UNL A   1      33.036  19.201  24.536  1.00  0.00     0.000 A 
ATOM     25  C   UNL A   1      32.201  20.822  22.959  1.00  0.00     0.000 A 
ATOM     26  C   UNL A   1      32.354  19.496  23.360  1.00  0.00     0.000 A 
ENDBRANCH   7  21
BRANCH   9  27
ATOM     27  C   UNL A   1      31.879  22.819  27.357  1.00  0.00     0.173 C 
BRANCH  27  28
ATOM     28  C   UNL A   1      30.458  22.715  26.826  1.00  0.00     0.061 C 
ATOM     29  O   UNL A   1      30.093  21.957  25.937  1.00  0.00    -0.548 OA
ATOM     30  O   UNL A   1      29.553  23.488  27.458  1.00  0.00    -0.548 OA
ENDBRANCH  27  28
ENDBRANCH   9  27
ENDBRANCH   3   5
ENDBRANCH   2   3
ENDBRANCH   1   2
BRANCH   1  31
ATOM     31  C   UNL A   1      34.062  28.879  25.488  1.00  0.00     0.118 C 
BRANCH  31  32
ATOM     32  N   UNL A   1      33.419  30.082  26.011  1.00  0.00    -0.352 N 
ATOM     33  C   UNL A   1      33.779  30.875  27.074  1.00  0.00     0.251 C 
ATOM     34  H   UNL A   1      32.607  30.366  25.531  1.00  0.00     0.163 HD
ATOM     35  O   UNL A   1      33.021  31.754  27.474  1.00  0.00    -0.269 OA
BRANCH  33  36
ATOM     36  C   UNL A   1      35.075  30.650  27.749  1.00  0.00     0.039 A 
ATOM     37  C   UNL A   1      36.023  31.677  27.771  1.00  0.00     0.014 A 
ATOM     38  C   UNL A   1      35.340  29.431  28.375  1.00  0.00     0.014 A 
ATOM     39  C   UNL A   1      37.206  31.509  28.498  1.00  0.00     0.010 A 
ATOM     40  C   UNL A   1      36.476  29.298  29.163  1.00  0.00     0.010 A 
ATOM     41  C   UNL A   1      37.420  30.334  29.235  1.00  0.00    -0.014 A 
BRANCH  41  42
ATOM     42  C   UNL A   1      38.613  30.145  30.100  1.00  0.00     0.031 A 
ATOM     43  C   UNL A   1      39.670  29.153  29.702  1.00  0.00     0.074 A 
ATOM     44  C   UNL A   1      38.673  30.754  31.301  1.00  0.00     0.049 A 
ATOM     45  N   UNL A   1      40.687  28.706  30.391  1.00  0.00    -0.248 NA
ATOM     46  C   UNL A   1      39.542  28.557  28.362  1.00  0.00     0.031 C 
ATOM     47  C   UNL A   1      37.681  31.694  31.828  1.00  0.00     0.029 A 
ATOM     48  N   UNL A   1      39.592  30.641  32.315  1.00  0.00    -0.354 N 
ATOM     49  C   UNL A   1      41.287  27.739  29.593  1.00  0.00     0.074 A 
ATOM     50  C   UNL A   1      40.502  27.644  28.382  1.00  0.00     0.031 C 
ATOM     51  C   UNL A   1      38.046  32.072  33.063  1.00  0.00     0.029 A 
ATOM     52  C   UNL A   1      39.270  31.372  33.435  1.00  0.00     0.049 A 
ATOM     53  H   UNL A   1      40.405  30.089  32.246  1.00  0.00     0.167 HD
ATOM     54  C   UNL A   1      42.407  27.015  29.832  1.00  0.00     0.034 A 
ATOM     55  C   UNL A   1      39.885  31.456  34.631  1.00  0.00     0.034 A 
ATOM     56  C   UNL A   1      43.211  27.151  31.016  1.00  0.00     0.049 A 
ATOM     57  C   UNL A   1      41.143  30.665  34.865  1.00  0.00     0.074 A 
ATOM     58  C   UNL A   1      44.405  26.526  31.324  1.00  0.00     0.029 A 
ATOM     59  N   UNL A   1      42.902  27.973  32.091  1.00  0.00    -0.354 N 
ATOM     60  N   UNL A   1      41.767  29.850  34.050  1.00  0.00    -0.248 NA
ATOM     61  C   UNL A   1      41.796  30.825  36.171  1.00  0.00     0.031 C 
ATOM     62  C   UNL A   1      44.811  26.956  32.592  1.00  0.00     0.029 A 
ATOM     63  C   UNL A   1      43.880  27.869  33.065  1.00  0.00     0.049 A 
ATOM     64  H   UNL A   1      42.103  28.545  32.152  1.00  0.00     0.167 HD
ATOM     65  C   UNL A   1      42.911  29.436  34.726  1.00  0.00     0.074 A 
ATOM     66  C   UNL A   1      42.894  30.096  36.015  1.00  0.00     0.031 C 
ATOM     67  C   UNL A   1      43.881  28.581  34.318  1.00  0.00     0.034 A 
BRANCH  54  68
ATOM     68  C   UNL A   1      42.847  26.048  28.764  1.00  0.00     0.023 A 
ATOM     69  C   UNL A   1      42.294  24.750  28.732  1.00  0.00     0.012 A 
ATOM     70  C   UNL A   1      43.786  26.419  27.784  1.00  0.00     0.148 A 
ATOM     71  C   UNL A   1      42.708  23.822  27.777  1.00  0.00     0.002 A 
ATOM     72  C   UNL A   1      44.159  25.504  26.805  1.00  0.00     0.091 A 
ATOM     73  F   UNL A   1      44.322  27.648  27.840  1.00  0.00    -0.205 F 
ATOM     74  C   UNL A   1      43.633  24.202  26.809  1.00  0.00     0.022 A 
BRANCH  72  75
ATOM     75  S   UNL A   1      45.282  25.933  25.470  1.00  0.00     0.127 S 
ATOM     76  O   UNL A   1      46.569  25.960  26.162  1.00  0.00    -0.237 OA
ATOM     77  O   UNL A   1      45.112  24.809  24.547  1.00  0.00    -0.237 OA
ATOM     78  O   UNL A   1      44.813  27.211  24.954  1.00  0.00    -0.744 OA
ENDBRANCH  72  75
ENDBRANCH  54  68
BRANCH  55  79
ATOM     79  C   UNL A   1      39.363  32.393  35.666  1.00  0.00     0.023 A 
ATOM     80  C   UNL A   1      38.399  31.926  36.580  1.00  0.00     0.012 A 
ATOM     81  C   UNL A   1      39.843  33.711  35.787  1.00  0.00     0.148 A 
ATOM     82  C   UNL A   1      37.902  32.762  37.581  1.00  0.00     0.002 A 
ATOM     83  C   UNL A   1      39.382  34.523  36.817  1.00  0.00     0.091 A 
ATOM     84  F   UNL A   1      40.758  34.137  34.905  1.00  0.00    -0.205 F 
ATOM     85  C   UNL A   1      38.400  34.056  37.706  1.00  0.00     0.022 A 
BRANCH  83  86
ATOM     86  S   UNL A   1      40.046  36.164  37.132  1.00  0.00     0.127 S 
ATOM     87  O   UNL A   1      39.184  36.633  38.215  1.00  0.00    -0.237 OA
ATOM     88  O   UNL A   1      41.420  35.859  37.528  1.00  0.00    -0.237 OA
ATOM     89  O   UNL A   1      39.926  36.891  35.876  1.00  0.00    -0.744 OA
ENDBRANCH  83  86
ENDBRANCH  55  79
BRANCH  67  90
ATOM     90  C   UNL A   1      45.041  28.341  35.246  1.00  0.00     0.023 A 
ATOM     91  C   UNL A   1      46.224  29.092  35.103  1.00  0.00     0.012 A 
ATOM     92  C   UNL A   1      44.921  27.435  36.320  1.00  0.00     0.148 A 
ATOM     93  C   UNL A   1      47.279  28.930  36.001  1.00  0.00     0.002 A 
ATOM     94  C   UNL A   1      45.958  27.314  37.237  1.00  0.00     0.091 A 
ATOM     95  F   UNL A   1      43.795  26.715  36.426  1.00  0.00    -0.205 F 
ATOM     96  C   UNL A   1      47.140  28.052  37.074  1.00  0.00     0.022 A 
BRANCH  94  97
ATOM     97  S   UNL A   1      45.829  26.282  38.703  1.00  0.00     0.127 S 
ATOM     98  O   UNL A   1      44.558  26.729  39.271  1.00  0.00    -0.237 OA
ATOM     99  O   UNL A   1      45.802  24.935  38.133  1.00  0.00    -0.237 OA
ATOM    100  O   UNL A   1      47.010  26.574  39.505  1.00  0.00    -0.744 OA
ENDBRANCH  94  97
ENDBRANCH  67  90
ENDBRANCH  41  42
ENDBRANCH  33  36
ENDBRANCH  31  32
ENDBRANCH   1  31
TORSDOF 19
ENDMDL
MODEL 3
REMARK VINA RESULT:     -12.0      1.454      2.859
REMARK SMILES COc1ccc(C(=O)C2=C(NCCCNC(=O)c3ccc(-c4c5nc(c(-c6cccc(S(=O)(=O)[O-])c6F)c6ccc([nH]6)c(-c6cccc(S(=O)(=O)[O-])c6F)c6nc(c(-c7cccc(S(=O)(=O)[O-])c7F)c7ccc4[nH]7)C=C6)C=C5)cc3)C(=O)N(CC(=O)[O-])[C@H]2c2ccccc2)cc1
REMARK SMILES IDX 13 1 12 2 11 3 10 5 9 6 88 7 81 8 83 9 82 10 7 11 8 12 6 13
REMARK SMILES IDX 3 14 4 15 96 16 5 17 95 18 2 19 1 20 89 21 90 22 94 23 91 24
REMARK SMILES IDX 93 25 92 26 84 27 85 28 86 29 87 30 14 31 15 32 16 33 17 35
REMARK SMILES IDX 18 36 19 37 80 38 20 39 79 40 21 41 22 42 23 43 73 44 24 45
REMARK SMILES IDX 78 46 72 47 74 48 25 49 77 50 71 51 70 52 26 54 58 55 38 56
REMARK SMILES IDX 57 57 39 58 42 59 56 60 75 61 40 62 41 63 55 65 76 66 43 67
REMARK SMILES IDX 27 68 28 69 36 70 29 71 31 72 37 73 30 74 32 75 33 76 34 77
REMARK SMILES IDX 35 78 59 79 60 80 68 81 61 82 63 83 69 84 62 85 64 86 65 87
REMARK SMILES IDX 66 88 67 89 44 90 45 91 53 92 46 93 48 94 54 95 47 96 49 97
REMARK SMILES IDX 50 98 51 99 52 100
REMARK H PARENT 11 4 15 34 74 53 42 64
REMARK Flexibility Score: inf
ROOT
ATOM      1  C   UNL A   1      33.131  28.873  23.570  1.00  0.00     0.042 C 
ENDROOT
BRANCH   1   2
ATOM      2  C   UNL A   1      31.726  28.495  23.122  1.00  0.00     0.115 C 
BRANCH   2   3
ATOM      3  N   UNL A   1      31.699  27.135  22.632  1.00  0.00    -0.380 N 
ATOM      4  H   UNL A   1      31.617  27.047  21.656  1.00  0.00     0.160 HD
BRANCH   3   5
ATOM      5  C   UNL A   1      31.769  25.952  23.317  1.00  0.00     0.110 C 
ATOM      6  C   UNL A   1      32.696  25.016  23.557  1.00  0.00     0.056 C 
ATOM      7  C   UNL A   1      32.268  23.948  24.518  1.00  0.00     0.153 C 
ATOM      8  C   UNL A   1      30.575  25.508  24.116  1.00  0.00     0.271 C 
ATOM      9  N   UNL A   1      30.924  24.381  24.815  1.00  0.00    -0.320 N 
ATOM     10  O   UNL A   1      29.503  26.092  24.142  1.00  0.00    -0.267 OA
BRANCH   6  11
ATOM     11  C   UNL A   1      34.102  25.125  23.139  1.00  0.00     0.193 C 
ATOM     12  O   UNL A   1      34.415  25.992  22.327  1.00  0.00    -0.289 OA
BRANCH  11  13
ATOM     13  C   UNL A   1      35.141  24.241  23.746  1.00  0.00     0.023 A 
ATOM     14  C   UNL A   1      36.845  22.431  25.081  1.00  0.00     0.118 A 
ATOM     15  C   UNL A   1      36.292  23.518  25.761  1.00  0.00     0.047 A 
ATOM     16  C   UNL A   1      36.603  22.295  23.717  1.00  0.00     0.047 A 
ATOM     17  C   UNL A   1      35.442  24.413  25.104  1.00  0.00     0.016 A 
ATOM     18  C   UNL A   1      35.780  23.213  23.048  1.00  0.00     0.016 A 
BRANCH  14  19
ATOM     19  O   UNL A   1      37.578  21.582  25.860  1.00  0.00    -0.497 OA
ATOM     20  C   UNL A   1      38.133  20.436  25.221  1.00  0.00     0.278 C 
ENDBRANCH  14  19
ENDBRANCH  11  13
ENDBRANCH   6  11
BRANCH   7  21
ATOM     21  C   UNL A   1      32.296  22.543  23.942  1.00  0.00    -0.021 A 
ATOM     22  C   UNL A   1      32.695  21.434  24.714  1.00  0.00     0.006 A 
ATOM     23  C   UNL A   1      31.873  22.320  22.622  1.00  0.00     0.006 A 
ATOM     24  C   UNL A   1      32.654  20.143  24.189  1.00  0.00     0.000 A 
ATOM     25  C   UNL A   1      31.844  21.027  22.096  1.00  0.00     0.000 A 
ATOM     26  C   UNL A   1      32.228  19.940  22.880  1.00  0.00     0.000 A 
ENDBRANCH   7  21
BRANCH   9  27
ATOM     27  C   UNL A   1      30.029  23.710  25.745  1.00  0.00     0.173 C 
BRANCH  27  28
ATOM     28  C   UNL A   1      30.629  23.420  27.112  1.00  0.00     0.061 C 
ATOM     29  O   UNL A   1      31.655  23.922  27.550  1.00  0.00    -0.548 OA
ATOM     30  O   UNL A   1      29.905  22.592  27.891  1.00  0.00    -0.548 OA
ENDBRANCH  27  28
ENDBRANCH   9  27
ENDBRANCH   3   5
ENDBRANCH   2   3
ENDBRANCH   1   2
BRANCH   1  31
ATOM     31  C   UNL A   1      33.306  28.905  25.084  1.00  0.00     0.118 C 
BRANCH  31  32
ATOM     32  N   UNL A   1      32.607  30.021  25.715  1.00  0.00    -0.352 N 
ATOM     33  C   UNL A   1      32.977  30.789  26.794  1.00  0.00     0.251 C 
ATOM     34  H   UNL A   1      31.742  30.259  25.308  1.00  0.00     0.163 HD
ATOM     35  O   UNL A   1      32.182  31.580  27.292  1.00  0.00    -0.269 OA
BRANCH  33  36
ATOM     36  C   UNL A   1      34.333  30.641  27.365  1.00  0.00     0.039 A 
ATOM     37  C   UNL A   1      35.097  31.784  27.621  1.00  0.00     0.014 A 
ATOM     38  C   UNL A   1      34.835  29.375  27.667  1.00  0.00     0.014 A 
ATOM     39  C   UNL A   1      36.335  31.659  28.259  1.00  0.00     0.010 A 
ATOM     40  C   UNL A   1      36.025  29.260  28.374  1.00  0.00     0.010 A 
ATOM     41  C   UNL A   1      36.787  30.399  28.679  1.00  0.00    -0.014 A 
BRANCH  41  42
ATOM     42  C   UNL A   1      38.046  30.222  29.447  1.00  0.00     0.031 A 
ATOM     43  C   UNL A   1      39.133  29.337  28.899  1.00  0.00     0.074 A 
ATOM     44  C   UNL A   1      38.153  30.736  30.688  1.00  0.00     0.049 A 
ATOM     45  N   UNL A   1      40.220  28.906  29.482  1.00  0.00    -0.248 NA
ATOM     46  C   UNL A   1      38.947  28.842  27.525  1.00  0.00     0.031 C 
ATOM     47  C   UNL A   1      37.145  31.563  31.354  1.00  0.00     0.029 A 
ATOM     48  N   UNL A   1      39.147  30.605  31.627  1.00  0.00    -0.354 N 
ATOM     49  C   UNL A   1      40.821  28.048  28.568  1.00  0.00     0.074 A 
ATOM     50  C   UNL A   1      39.960  27.996  27.407  1.00  0.00     0.031 C 
ATOM     51  C   UNL A   1      37.571  31.866  32.591  1.00  0.00     0.029 A 
ATOM     52  C   UNL A   1      38.859  31.221  32.822  1.00  0.00     0.049 A 
ATOM     53  H   UNL A   1      39.985  30.116  31.460  1.00  0.00     0.167 HD
ATOM     54  C   UNL A   1      41.998  27.383  28.673  1.00  0.00     0.034 A 
ATOM     55  C   UNL A   1      39.550  31.252  33.980  1.00  0.00     0.034 A 
ATOM     56  C   UNL A   1      42.873  27.479  29.809  1.00  0.00     0.049 A 
ATOM     57  C   UNL A   1      40.867  30.530  34.064  1.00  0.00     0.074 A 
ATOM     58  C   UNL A   1      44.122  26.912  29.985  1.00  0.00     0.029 A 
ATOM     59  N   UNL A   1      42.590  28.190  30.967  1.00  0.00    -0.354 N 
ATOM     60  N   UNL A   1      41.482  29.826  33.145  1.00  0.00    -0.248 NA
ATOM     61  C   UNL A   1      41.600  30.630  35.334  1.00  0.00     0.031 C 
ATOM     62  C   UNL A   1      44.588  27.267  31.256  1.00  0.00     0.029 A 
ATOM     63  C   UNL A   1      43.638  28.075  31.863  1.00  0.00     0.049 A 
ATOM     64  H   UNL A   1      41.764  28.701  31.127  1.00  0.00     0.167 HD
ATOM     65  C   UNL A   1      42.694  29.437  33.708  1.00  0.00     0.074 A 
ATOM     66  C   UNL A   1      42.727  29.991  35.047  1.00  0.00     0.031 C 
ATOM     67  C   UNL A   1      43.683  28.683  33.168  1.00  0.00     0.034 A 
BRANCH  54  68
ATOM     68  C   UNL A   1      42.420  26.535  27.501  1.00  0.00     0.023 A 
ATOM     69  C   UNL A   1      43.162  27.118  26.453  1.00  0.00     0.012 A 
ATOM     70  C   UNL A   1      42.102  25.165  27.440  1.00  0.00     0.148 A 
ATOM     71  C   UNL A   1      43.536  26.366  25.340  1.00  0.00     0.002 A 
ATOM     72  C   UNL A   1      42.519  24.409  26.349  1.00  0.00     0.091 A 
ATOM     73  F   UNL A   1      41.375  24.629  28.432  1.00  0.00    -0.205 F 
ATOM     74  C   UNL A   1      43.222  25.011  25.292  1.00  0.00     0.022 A 
BRANCH  72  75
ATOM     75  S   UNL A   1      42.231  22.639  26.242  1.00  0.00     0.127 S 
ATOM     76  O   UNL A   1      40.773  22.571  26.306  1.00  0.00    -0.237 OA
ATOM     77  O   UNL A   1      42.799  22.309  24.934  1.00  0.00    -0.237 OA
ATOM     78  O   UNL A   1      42.942  22.055  27.371  1.00  0.00    -0.744 OA
ENDBRANCH  72  75
ENDBRANCH  54  68
BRANCH  55  79
ATOM     79  C   UNL A   1      39.046  32.067  35.121  1.00  0.00     0.023 A 
ATOM     80  C   UNL A   1      39.095  33.471  35.025  1.00  0.00     0.012 A 
ATOM     81  C   UNL A   1      38.480  31.475  36.266  1.00  0.00     0.148 A 
ATOM     82  C   UNL A   1      38.610  34.272  36.060  1.00  0.00     0.002 A 
ATOM     83  C   UNL A   1      37.954  32.278  37.271  1.00  0.00     0.091 A 
ATOM     84  F   UNL A   1      38.447  30.136  36.338  1.00  0.00    -0.205 F 
ATOM     85  C   UNL A   1      38.031  33.677  37.177  1.00  0.00     0.022 A 
BRANCH  83  86
ATOM     86  S   UNL A   1      37.084  31.608  38.695  1.00  0.00     0.127 S 
ATOM     87  O   UNL A   1      36.815  30.238  38.264  1.00  0.00    -0.237 OA
ATOM     88  O   UNL A   1      38.090  31.736  39.748  1.00  0.00    -0.237 OA
ATOM     89  O   UNL A   1      35.909  32.450  38.875  1.00  0.00    -0.744 OA
ENDBRANCH  83  86
ENDBRANCH  55  79
BRANCH  67  90
ATOM     90  C   UNL A   1      44.918  28.449  33.997  1.00  0.00     0.023 A 
ATOM     91  C   UNL A   1      45.992  29.358  33.932  1.00  0.00     0.012 A 
ATOM     92  C   UNL A   1      44.973  27.376  34.909  1.00  0.00     0.148 A 
ATOM     93  C   UNL A   1      47.111  29.191  34.747  1.00  0.00     0.002 A 
ATOM     94  C   UNL A   1      46.070  27.243  35.751  1.00  0.00     0.091 A 
ATOM     95  F   UNL A   1      43.949  26.511  34.940  1.00  0.00    -0.205 F 
ATOM     96  C   UNL A   1      47.144  28.143  35.664  1.00  0.00     0.022 A 
BRANCH  94  97
ATOM     97  S   UNL A   1      46.155  25.983  37.030  1.00  0.00     0.127 S 
ATOM     98  O   UNL A   1      47.458  26.260  37.634  1.00  0.00    -0.237 OA
ATOM     99  O   UNL A   1      45.008  26.319  37.873  1.00  0.00    -0.237 OA
ATOM    100  O   UNL A   1      46.044  24.704  36.341  1.00  0.00    -0.744 OA
ENDBRANCH  94  97
ENDBRANCH  67  90
ENDBRANCH  41  42
ENDBRANCH  33  36
ENDBRANCH  31  32
ENDBRANCH   1  31
TORSDOF 19
ENDMDL
