MODEL 1
REMARK VINA RESULT:     -13.5      0.000      0.000
REMARK SMILES O=C(NCCCNC(=O)c1cc(Cl)cc(Cl)c1NC(=S)NC(=O)c1cccc2ccccc12)c1ccc(-c2c3nc(c(-c4cccc(S(=O)(=O)[O-])c4F)c4ccc([nH]4)c(-c4cccc(S(=O)(=O)[O-])c4F)c4nc(c(-c5cccc(S(=O)(=O)[O-])c5F)c5ccc2[nH]5)C=C4)C=C3)cc1
REMARK SMILES IDX 5 1 4 2 3 3 1 4 2 5 34 7 35 8 96 9 36 10 95 11 37 12 38 13
REMARK SMILES IDX 39 14 89 15 40 16 94 17 88 18 90 19 41 20 93 21 87 22 86 23
REMARK SMILES IDX 42 25 74 26 54 27 73 28 55 29 58 30 72 31 91 32 56 33 57 34
REMARK SMILES IDX 71 36 92 37 59 38 43 39 44 40 52 41 45 42 47 43 53 44 46 45
REMARK SMILES IDX 48 46 49 47 50 48 51 49 75 50 76 51 84 52 77 53 79 54 85 55
REMARK SMILES IDX 78 56 80 57 81 58 82 59 83 60 60 61 61 62 69 63 62 64 64 65
REMARK SMILES IDX 70 66 63 67 65 68 66 69 67 70 68 71 6 72 7 73 8 74 9 76
REMARK SMILES IDX 10 77 11 78 17 79 12 80 15 81 13 82 14 83 16 84 18 85 19 87
REMARK SMILES IDX 20 88 21 89 22 90 23 92 24 93 25 94 33 95 26 96 28 97 32 98
REMARK SMILES IDX 27 99 29 100 31 101 30 102
REMARK H PARENT 3 6 90 24 58 35 7 75 18 86 21 91
REMARK Flexibility Score: inf
ROOT
ATOM      1  C   UNL A   1      32.562  29.805  25.253  1.00  0.00     0.042 C 
ENDROOT
BRANCH   1   2
ATOM      2  C   UNL A   1      32.182  30.272  26.657  1.00  0.00     0.118 C 
BRANCH   2   3
ATOM      3  N   UNL A   1      32.188  31.720  26.788  1.00  0.00    -0.352 N 
ATOM      4  O   UNL A   1      32.653  33.737  27.623  1.00  0.00    -0.269 OA
ATOM      5  C   UNL A   1      33.019  32.572  27.473  1.00  0.00     0.251 C 
ATOM      6  H   UNL A   1      31.465  32.172  26.297  1.00  0.00     0.163 HD
BRANCH   5   7
ATOM      7  C   UNL A   1      34.320  32.133  28.034  1.00  0.00     0.039 A 
ATOM      8  C   UNL A   1      35.384  33.017  28.221  1.00  0.00     0.014 A 
ATOM      9  C   UNL A   1      34.438  30.814  28.495  1.00  0.00     0.014 A 
ATOM     10  C   UNL A   1      36.590  32.562  28.756  1.00  0.00     0.010 A 
ATOM     11  C   UNL A   1      35.624  30.375  29.097  1.00  0.00     0.010 A 
ATOM     12  C   UNL A   1      36.721  31.240  29.211  1.00  0.00    -0.014 A 
BRANCH  12  13
ATOM     13  C   UNL A   1      37.984  30.818  29.871  1.00  0.00     0.031 A 
ATOM     14  C   UNL A   1      38.321  31.252  31.270  1.00  0.00     0.074 A 
ATOM     15  C   UNL A   1      38.826  30.003  29.206  1.00  0.00     0.049 A 
ATOM     16  N   UNL A   1      39.309  30.857  32.032  1.00  0.00    -0.248 NA
ATOM     17  C   UNL A   1      37.447  32.256  31.895  1.00  0.00     0.031 C 
ATOM     18  C   UNL A   1      38.644  29.556  27.823  1.00  0.00     0.029 A 
ATOM     19  N   UNL A   1      39.985  29.385  29.605  1.00  0.00    -0.354 N 
ATOM     20  C   UNL A   1      39.194  31.579  33.212  1.00  0.00     0.074 A 
ATOM     21  C   UNL A   1      38.043  32.444  33.066  1.00  0.00     0.031 C 
ATOM     22  C   UNL A   1      39.620  28.691  27.511  1.00  0.00     0.029 A 
ATOM     23  C   UNL A   1      40.509  28.537  28.658  1.00  0.00     0.049 A 
ATOM     24  H   UNL A   1      40.401  29.535  30.485  1.00  0.00     0.167 HD
ATOM     25  C   UNL A   1      39.955  31.505  34.329  1.00  0.00     0.034 A 
ATOM     26  C   UNL A   1      41.569  27.708  28.712  1.00  0.00     0.034 A 
ATOM     27  C   UNL A   1      41.053  30.594  34.510  1.00  0.00     0.049 A 
ATOM     28  C   UNL A   1      42.383  27.629  29.972  1.00  0.00     0.074 A 
ATOM     29  C   UNL A   1      41.802  30.364  35.651  1.00  0.00     0.029 A 
ATOM     30  N   UNL A   1      41.563  29.767  33.524  1.00  0.00    -0.354 N 
ATOM     31  N   UNL A   1      42.157  28.196  31.132  1.00  0.00    -0.248 NA
ATOM     32  C   UNL A   1      43.590  26.792  29.933  1.00  0.00     0.031 C 
ATOM     33  C   UNL A   1      42.764  29.390  35.355  1.00  0.00     0.029 A 
ATOM     34  C   UNL A   1      42.628  29.036  34.023  1.00  0.00     0.049 A 
ATOM     35  H   UNL A   1      41.218  29.707  32.603  1.00  0.00     0.167 HD
ATOM     36  C   UNL A   1      43.190  27.783  31.962  1.00  0.00     0.074 A 
ATOM     37  C   UNL A   1      44.030  26.897  31.181  1.00  0.00     0.031 C 
ATOM     38  C   UNL A   1      43.432  28.130  33.248  1.00  0.00     0.034 A 
BRANCH  25  39
ATOM     39  C   UNL A   1      39.566  32.377  35.486  1.00  0.00     0.023 A 
ATOM     40  C   UNL A   1      38.746  31.835  36.496  1.00  0.00     0.012 A 
ATOM     41  C   UNL A   1      40.034  33.697  35.608  1.00  0.00     0.148 A 
ATOM     42  C   UNL A   1      38.397  32.597  37.610  1.00  0.00     0.002 A 
ATOM     43  C   UNL A   1      39.687  34.448  36.726  1.00  0.00     0.091 A 
ATOM     44  F   UNL A   1      40.785  34.213  34.624  1.00  0.00    -0.205 F 
ATOM     45  C   UNL A   1      38.872  33.901  37.730  1.00  0.00     0.022 A 
BRANCH  43  46
ATOM     46  S   UNL A   1      40.291  36.129  36.913  1.00  0.00     0.127 S 
ATOM     47  O   UNL A   1      41.736  35.928  36.982  1.00  0.00    -0.237 OA
ATOM     48  O   UNL A   1      39.829  36.787  35.689  1.00  0.00    -0.237 OA
ATOM     49  O   UNL A   1      39.644  36.609  38.129  1.00  0.00    -0.744 OA
ENDBRANCH  43  46
ENDBRANCH  25  39
BRANCH  26  50
ATOM     50  C   UNL A   1      41.852  26.813  27.560  1.00  0.00     0.023 A 
ATOM     51  C   UNL A   1      42.549  27.330  26.451  1.00  0.00     0.012 A 
ATOM     52  C   UNL A   1      41.524  25.446  27.585  1.00  0.00     0.148 A 
ATOM     53  C   UNL A   1      42.912  26.500  25.390  1.00  0.00     0.002 A 
ATOM     54  C   UNL A   1      41.927  24.617  26.543  1.00  0.00     0.091 A 
ATOM     55  F   UNL A   1      40.856  24.961  28.642  1.00  0.00    -0.205 F 
ATOM     56  C   UNL A   1      42.612  25.139  25.439  1.00  0.00     0.022 A 
BRANCH  54  57
ATOM     57  S   UNL A   1      41.654  22.848  26.672  1.00  0.00     0.127 S 
ATOM     58  O   UNL A   1      42.444  22.488  27.845  1.00  0.00    -0.237 OA
ATOM     59  O   UNL A   1      40.206  22.745  26.859  1.00  0.00    -0.237 OA
ATOM     60  O   UNL A   1      42.124  22.349  25.384  1.00  0.00    -0.744 OA
ENDBRANCH  54  57
ENDBRANCH  26  50
BRANCH  38  61
ATOM     61  C   UNL A   1      44.676  27.585  33.888  1.00  0.00     0.023 A 
ATOM     62  C   UNL A   1      45.853  28.357  33.840  1.00  0.00     0.012 A 
ATOM     63  C   UNL A   1      44.676  26.368  34.592  1.00  0.00     0.148 A 
ATOM     64  C   UNL A   1      47.014  27.922  34.476  1.00  0.00     0.002 A 
ATOM     65  C   UNL A   1      45.835  25.949  35.240  1.00  0.00     0.091 A 
ATOM     66  F   UNL A   1      43.555  25.632  34.619  1.00  0.00    -0.205 F 
ATOM     67  C   UNL A   1      47.005  26.721  35.184  1.00  0.00     0.022 A 
BRANCH  65  68
ATOM     68  S   UNL A   1      45.828  24.430  36.198  1.00  0.00     0.127 S 
ATOM     69  O   UNL A   1      45.529  23.422  35.184  1.00  0.00    -0.237 OA
ATOM     70  O   UNL A   1      47.189  24.364  36.734  1.00  0.00    -0.237 OA
ATOM     71  O   UNL A   1      44.802  24.656  37.210  1.00  0.00    -0.744 OA
ENDBRANCH  65  68
ENDBRANCH  38  61
ENDBRANCH  12  13
ENDBRANCH   5   7
ENDBRANCH   2   3
ENDBRANCH   1   2
BRANCH   1  72
ATOM     72  C   UNL A   1      33.839  28.973  25.183  1.00  0.00     0.118 C 
BRANCH  72  73
ATOM     73  N   UNL A   1      34.003  28.296  23.907  1.00  0.00    -0.352 N 
ATOM     74  C   UNL A   1      33.165  27.601  23.062  1.00  0.00     0.253 C 
ATOM     75  H   UNL A   1      34.926  28.346  23.568  1.00  0.00     0.163 HD
ATOM     76  O   UNL A   1      33.708  27.059  22.092  1.00  0.00    -0.269 OA
BRANCH  74  77
ATOM     77  C   UNL A   1      31.442  27.316  23.399  1.00  0.00     0.066 A 
ATOM     78  C   UNL A   1      29.814  28.391  22.770  1.00  0.00     0.036 A 
ATOM     79  C   UNL A   1      31.762  26.189  23.952  1.00  0.00     0.072 A 
ATOM     80  C   UNL A   1      28.535  28.439  22.590  1.00  0.00     0.043 A 
ATOM     81  C   UNL A   1      30.808  26.991  24.282  1.00  0.00     0.066 A 
ATOM     82  Cl  UNL A   1      27.486  29.731  22.338  1.00  0.00    -0.084 Cl
ATOM     83  C   UNL A   1      29.227  28.103  23.617  1.00  0.00     0.043 A 
ATOM     84  Cl  UNL A   1      31.366  26.564  26.294  1.00  0.00    -0.082 Cl
BRANCH  79  85
ATOM     85  N   UNL A   1      31.940  24.990  23.236  1.00  0.00    -0.330 N 
ATOM     86  H   UNL A   1      32.385  25.140  22.370  1.00  0.00     0.169 HD
BRANCH  85  87
ATOM     87  C   UNL A   1      31.653  23.684  23.437  1.00  0.00     0.177 C 
ATOM     88  S   UNL A   1      32.334  22.574  22.381  1.00  0.00    -0.040 S 
BRANCH  87  89
ATOM     89  N   UNL A   1      30.860  23.189  24.427  1.00  0.00    -0.299 N 
ATOM     90  C   UNL A   1      31.072  22.379  25.520  1.00  0.00     0.258 C 
ATOM     91  H   UNL A   1      29.922  23.476  24.342  1.00  0.00     0.172 HD
ATOM     92  O   UNL A   1      30.182  21.897  26.203  1.00  0.00    -0.269 OA
BRANCH  90  93
ATOM     93  C   UNL A   1      32.465  22.100  25.799  1.00  0.00     0.048 A 
ATOM     94  C   UNL A   1      33.582  23.613  26.361  1.00  0.00     0.014 A 
ATOM     95  C   UNL A   1      33.120  20.348  25.126  1.00  0.00    -0.006 A 
ATOM     96  C   UNL A   1      35.552  23.563  26.311  1.00  0.00     0.001 A 
ATOM     97  C   UNL A   1      35.114  20.296  25.051  1.00  0.00    -0.018 A 
ATOM     98  C   UNL A   1      32.463  19.148  24.790  1.00  0.00     0.009 A 
ATOM     99  C   UNL A   1      36.229  21.825  25.601  1.00  0.00     0.009 A 
ATOM    100  C   UNL A   1      35.604  19.043  24.683  1.00  0.00     0.009 A 
ATOM    101  C   UNL A   1      33.255  18.028  24.463  1.00  0.00     0.001 A 
ATOM    102  C   UNL A   1      34.699  17.981  24.414  1.00  0.00     0.001 A 
ENDBRANCH  90  93
ENDBRANCH  87  89
ENDBRANCH  85  87
ENDBRANCH  79  85
ENDBRANCH  74  77
ENDBRANCH  72  73
ENDBRANCH   1  72
TORSDOF 17
ENDMDL
MODEL 2
REMARK VINA RESULT:     -13.3      4.955     10.259
REMARK SMILES O=C(NCCCNC(=O)c1cc(Cl)cc(Cl)c1NC(=S)NC(=O)c1cccc2ccccc12)c1ccc(-c2c3nc(c(-c4cccc(S(=O)(=O)[O-])c4F)c4ccc([nH]4)c(-c4cccc(S(=O)(=O)[O-])c4F)c4nc(c(-c5cccc(S(=O)(=O)[O-])c5F)c5ccc2[nH]5)C=C4)C=C3)cc1
REMARK SMILES IDX 5 1 4 2 3 3 1 4 2 5 34 7 35 8 96 9 36 10 95 11 37 12 38 13
REMARK SMILES IDX 39 14 89 15 40 16 94 17 88 18 90 19 41 20 93 21 87 22 86 23
REMARK SMILES IDX 42 25 74 26 54 27 73 28 55 29 58 30 72 31 91 32 56 33 57 34
REMARK SMILES IDX 71 36 92 37 59 38 43 39 44 40 52 41 45 42 47 43 53 44 46 45
REMARK SMILES IDX 48 46 49 47 50 48 51 49 75 50 76 51 84 52 77 53 79 54 85 55
REMARK SMILES IDX 78 56 80 57 81 58 82 59 83 60 60 61 61 62 69 63 62 64 64 65
REMARK SMILES IDX 70 66 63 67 65 68 66 69 67 70 68 71 6 72 7 73 8 74 9 76
REMARK SMILES IDX 10 77 11 78 17 79 12 80 15 81 13 82 14 83 16 84 18 85 19 87
REMARK SMILES IDX 20 88 21 89 22 90 23 92 24 93 25 94 33 95 26 96 28 97 32 98
REMARK SMILES IDX 27 99 29 100 31 101 30 102
REMARK H PARENT 3 6 90 24 58 35 7 75 18 86 21 91
REMARK Flexibility Score: inf
ROOT
ATOM      1  C   UNL A   1      36.365  21.864  25.752  1.00  0.00     0.042 C 
ENDROOT
BRANCH   1   2
ATOM      2  C   UNL A   1      37.743  21.812  25.097  1.00  0.00     0.118 C 
BRANCH   2   3
ATOM      3  N   UNL A   1      38.626  20.840  25.723  1.00  0.00    -0.352 N 
ATOM      4  O   UNL A   1      40.478  19.983  26.627  1.00  0.00    -0.269 OA
ATOM      5  C   UNL A   1      39.799  20.987  26.421  1.00  0.00     0.251 C 
ATOM      6  H   UNL A   1      38.329  19.906  25.628  1.00  0.00     0.163 HD
BRANCH   5   7
ATOM      7  C   UNL A   1      40.267  22.304  26.918  1.00  0.00     0.039 A 
ATOM      8  C   UNL A   1      41.262  22.419  27.890  1.00  0.00     0.014 A 
ATOM      9  C   UNL A   1      39.772  23.465  26.307  1.00  0.00     0.014 A 
ATOM     10  C   UNL A   1      41.676  23.679  28.326  1.00  0.00     0.010 A 
ATOM     11  C   UNL A   1      40.238  24.728  26.695  1.00  0.00     0.010 A 
ATOM     12  C   UNL A   1      41.178  24.847  27.727  1.00  0.00    -0.014 A 
BRANCH  12  13
ATOM     13  C   UNL A   1      41.717  26.168  28.145  1.00  0.00     0.031 A 
ATOM     14  C   UNL A   1      43.113  26.595  27.785  1.00  0.00     0.074 A 
ATOM     15  C   UNL A   1      40.921  27.008  28.835  1.00  0.00     0.049 A 
ATOM     16  N   UNL A   1      43.678  27.763  27.951  1.00  0.00    -0.248 NA
ATOM     17  C   UNL A   1      43.988  25.588  27.165  1.00  0.00     0.031 C 
ATOM     18  C   UNL A   1      39.567  26.692  29.296  1.00  0.00     0.029 A 
ATOM     19  N   UNL A   1      41.119  28.303  29.245  1.00  0.00    -0.354 N 
ATOM     20  C   UNL A   1      44.978  27.629  27.484  1.00  0.00     0.074 A 
ATOM     21  C   UNL A   1      45.124  26.261  27.031  1.00  0.00     0.031 C 
ATOM     22  C   UNL A   1      39.036  27.781  29.871  1.00  0.00     0.029 A 
ATOM     23  C   UNL A   1      40.014  28.864  29.841  1.00  0.00     0.049 A 
ATOM     24  H   UNL A   1      41.970  28.783  29.124  1.00  0.00     0.167 HD
ATOM     25  C   UNL A   1      45.951  28.566  27.405  1.00  0.00     0.034 A 
ATOM     26  C   UNL A   1      39.800  30.116  30.290  1.00  0.00     0.034 A 
ATOM     27  C   UNL A   1      45.790  29.944  27.781  1.00  0.00     0.049 A 
ATOM     28  C   UNL A   1      40.889  31.142  30.169  1.00  0.00     0.074 A 
ATOM     29  C   UNL A   1      46.682  30.991  27.622  1.00  0.00     0.029 A 
ATOM     30  N   UNL A   1      44.666  30.468  28.396  1.00  0.00    -0.354 N 
ATOM     31  N   UNL A   1      42.052  31.038  29.573  1.00  0.00    -0.248 NA
ATOM     32  C   UNL A   1      40.636  32.457  30.776  1.00  0.00     0.031 C 
ATOM     33  C   UNL A   1      46.092  32.152  28.137  1.00  0.00     0.029 A 
ATOM     34  C   UNL A   1      44.845  31.819  28.640  1.00  0.00     0.049 A 
ATOM     35  H   UNL A   1      43.857  29.955  28.626  1.00  0.00     0.167 HD
ATOM     36  C   UNL A   1      42.667  32.273  29.728  1.00  0.00     0.074 A 
ATOM     37  C   UNL A   1      41.741  33.119  30.453  1.00  0.00     0.031 C 
ATOM     38  C   UNL A   1      43.902  32.660  29.327  1.00  0.00     0.034 A 
BRANCH  25  39
ATOM     39  C   UNL A   1      47.261  28.149  26.802  1.00  0.00     0.023 A 
ATOM     40  C   UNL A   1      48.360  27.934  27.658  1.00  0.00     0.012 A 
ATOM     41  C   UNL A   1      47.403  27.927  25.422  1.00  0.00     0.148 A 
ATOM     42  C   UNL A   1      49.583  27.505  27.144  1.00  0.00     0.002 A 
ATOM     43  C   UNL A   1      48.625  27.491  24.919  1.00  0.00     0.091 A 
ATOM     44  F   UNL A   1      46.359  28.168  24.614  1.00  0.00    -0.205 F 
ATOM     45  C   UNL A   1      49.715  27.277  25.777  1.00  0.00     0.022 A 
BRANCH  43  46
ATOM     46  S   UNL A   1      48.823  27.180  23.161  1.00  0.00     0.127 S 
ATOM     47  O   UNL A   1      50.275  27.100  23.028  1.00  0.00    -0.237 OA
ATOM     48  O   UNL A   1      48.128  25.906  22.968  1.00  0.00    -0.237 OA
ATOM     49  O   UNL A   1      48.174  28.317  22.520  1.00  0.00    -0.744 OA
ENDBRANCH  43  46
ENDBRANCH  25  39
BRANCH  26  50
ATOM     50  C   UNL A   1      38.454  30.484  30.802  1.00  0.00     0.023 A 
ATOM     51  C   UNL A   1      38.156  30.257  32.159  1.00  0.00     0.012 A 
ATOM     52  C   UNL A   1      37.505  31.133  29.993  1.00  0.00     0.148 A 
ATOM     53  C   UNL A   1      36.938  30.671  32.699  1.00  0.00     0.002 A 
ATOM     54  C   UNL A   1      36.310  31.580  30.549  1.00  0.00     0.091 A 
ATOM     55  F   UNL A   1      37.793  31.342  28.700  1.00  0.00    -0.205 F 
ATOM     56  C   UNL A   1      36.018  31.344  31.897  1.00  0.00     0.022 A 
BRANCH  54  57
ATOM     57  S   UNL A   1      35.188  32.559  29.547  1.00  0.00     0.127 S 
ATOM     58  O   UNL A   1      34.728  31.597  28.551  1.00  0.00    -0.237 OA
ATOM     59  O   UNL A   1      34.164  32.979  30.505  1.00  0.00    -0.237 OA
ATOM     60  O   UNL A   1      36.037  33.645  29.069  1.00  0.00    -0.744 OA
ENDBRANCH  54  57
ENDBRANCH  26  50
BRANCH  38  61
ATOM     61  C   UNL A   1      44.345  34.046  29.695  1.00  0.00     0.023 A 
ATOM     62  C   UNL A   1      44.971  34.244  30.941  1.00  0.00     0.012 A 
ATOM     63  C   UNL A   1      44.220  35.125  28.805  1.00  0.00     0.148 A 
ATOM     64  C   UNL A   1      45.457  35.501  31.299  1.00  0.00     0.002 A 
ATOM     65  C   UNL A   1      44.724  36.373  29.161  1.00  0.00     0.091 A 
ATOM     66  F   UNL A   1      43.609  34.929  27.626  1.00  0.00    -0.205 F 
ATOM     67  C   UNL A   1      45.342  36.565  30.406  1.00  0.00     0.022 A 
BRANCH  65  68
ATOM     68  S   UNL A   1      44.631  37.744  28.004  1.00  0.00     0.127 S 
ATOM     69  O   UNL A   1      45.344  37.221  26.842  1.00  0.00    -0.237 OA
ATOM     70  O   UNL A   1      43.191  37.917  27.803  1.00  0.00    -0.237 OA
ATOM     71  O   UNL A   1      45.267  38.848  28.713  1.00  0.00    -0.744 OA
ENDBRANCH  65  68
ENDBRANCH  38  61
ENDBRANCH  12  13
ENDBRANCH   5   7
ENDBRANCH   2   3
ENDBRANCH   1   2
BRANCH   1  72
ATOM     72  C   UNL A   1      35.874  23.269  26.092  1.00  0.00     0.118 C 
BRANCH  72  73
ATOM     73  N   UNL A   1      34.620  23.268  26.826  1.00  0.00    -0.352 N 
ATOM     74  C   UNL A   1      33.373  22.720  26.617  1.00  0.00     0.253 C 
ATOM     75  H   UNL A   1      34.674  23.774  27.668  1.00  0.00     0.163 HD
ATOM     76  O   UNL A   1      32.502  23.038  27.435  1.00  0.00    -0.269 OA
BRANCH  74  77
ATOM     77  C   UNL A   1      32.945  21.765  25.178  1.00  0.00     0.066 A 
ATOM     78  C   UNL A   1      32.756  19.732  24.994  1.00  0.00     0.036 A 
ATOM     79  C   UNL A   1      32.685  22.869  24.553  1.00  0.00     0.072 A 
ATOM     80  C   UNL A   1      32.306  18.731  24.313  1.00  0.00     0.043 A 
ATOM     81  C   UNL A   1      33.178  21.781  24.068  1.00  0.00     0.066 A 
ATOM     82  Cl  UNL A   1      32.684  17.090  24.347  1.00  0.00    -0.084 Cl
ATOM     83  C   UNL A   1      33.000  19.748  23.953  1.00  0.00     0.043 A 
ATOM     84  Cl  UNL A   1      34.467  23.057  22.949  1.00  0.00    -0.082 Cl
BRANCH  79  85
ATOM     85  N   UNL A   1      31.445  23.533  24.624  1.00  0.00    -0.330 N 
ATOM     86  H   UNL A   1      30.877  23.178  25.345  1.00  0.00     0.169 HD
BRANCH  85  87
ATOM     87  C   UNL A   1      30.837  24.536  23.949  1.00  0.00     0.177 C 
ATOM     88  S   UNL A   1      29.702  25.446  24.782  1.00  0.00    -0.040 S 
BRANCH  87  89
ATOM     89  N   UNL A   1      31.070  24.874  22.651  1.00  0.00    -0.299 N 
ATOM     90  C   UNL A   1      31.514  26.010  22.014  1.00  0.00     0.258 C 
ATOM     91  H   UNL A   1      30.876  24.138  22.026  1.00  0.00     0.172 HD
ATOM     92  O   UNL A   1      31.489  26.176  20.804  1.00  0.00    -0.269 OA
BRANCH  90  93
ATOM     93  C   UNL A   1      32.002  27.044  22.902  1.00  0.00     0.048 A 
ATOM     94  C   UNL A   1      33.516  26.582  24.062  1.00  0.00     0.014 A 
ATOM     95  C   UNL A   1      30.778  28.593  23.136  1.00  0.00    -0.006 A 
ATOM     96  C   UNL A   1      34.005  27.639  25.653  1.00  0.00     0.001 A 
ATOM     97  C   UNL A   1      31.251  29.658  24.758  1.00  0.00    -0.018 A 
ATOM     98  C   UNL A   1      29.732  29.112  22.348  1.00  0.00     0.009 A 
ATOM     99  C   UNL A   1      32.763  29.178  25.927  1.00  0.00     0.009 A 
ATOM    100  C   UNL A   1      30.476  30.810  24.887  1.00  0.00     0.009 A 
ATOM    101  C   UNL A   1      29.140  30.327  22.748  1.00  0.00     0.001 A 
ATOM    102  C   UNL A   1      29.484  31.107  23.916  1.00  0.00     0.001 A 
ENDBRANCH  90  93
ENDBRANCH  87  89
ENDBRANCH  85  87
ENDBRANCH  79  85
ENDBRANCH  74  77
ENDBRANCH  72  73
ENDBRANCH   1  72
TORSDOF 17
ENDMDL
MODEL 3
REMARK VINA RESULT:     -13.2      2.012      2.412
REMARK SMILES O=C(NCCCNC(=O)c1cc(Cl)cc(Cl)c1NC(=S)NC(=O)c1cccc2ccccc12)c1ccc(-c2c3nc(c(-c4cccc(S(=O)(=O)[O-])c4F)c4ccc([nH]4)c(-c4cccc(S(=O)(=O)[O-])c4F)c4nc(c(-c5cccc(S(=O)(=O)[O-])c5F)c5ccc2[nH]5)C=C4)C=C3)cc1
REMARK SMILES IDX 5 1 4 2 3 3 1 4 2 5 34 7 35 8 96 9 36 10 95 11 37 12 38 13
REMARK SMILES IDX 39 14 89 15 40 16 94 17 88 18 90 19 41 20 93 21 87 22 86 23
REMARK SMILES IDX 42 25 74 26 54 27 73 28 55 29 58 30 72 31 91 32 56 33 57 34
REMARK SMILES IDX 71 36 92 37 59 38 43 39 44 40 52 41 45 42 47 43 53 44 46 45
REMARK SMILES IDX 48 46 49 47 50 48 51 49 75 50 76 51 84 52 77 53 79 54 85 55
REMARK SMILES IDX 78 56 80 57 81 58 82 59 83 60 60 61 61 62 69 63 62 64 64 65
REMARK SMILES IDX 70 66 63 67 65 68 66 69 67 70 68 71 6 72 7 73 8 74 9 76
REMARK SMILES IDX 10 77 11 78 17 79 12 80 15 81 13 82 14 83 16 84 18 85 19 87
REMARK SMILES IDX 20 88 21 89 22 90 23 92 24 93 25 94 33 95 26 96 28 97 32 98
REMARK SMILES IDX 27 99 29 100 31 101 30 102
REMARK H PARENT 3 6 90 24 58 35 7 75 18 86 21 91
REMARK Flexibility Score: inf
ROOT
ATOM      1  C   UNL A   1      31.199  31.981  26.697  1.00  0.00     0.042 C 
ENDROOT
BRANCH   1   2
ATOM      2  C   UNL A   1      32.597  32.555  26.919  1.00  0.00     0.118 C 
BRANCH   2   3
ATOM      3  N   UNL A   1      32.576  33.831  27.617  1.00  0.00    -0.352 N 
ATOM      4  O   UNL A   1      32.924  35.330  29.233  1.00  0.00    -0.269 OA
ATOM      5  C   UNL A   1      33.313  34.306  28.673  1.00  0.00     0.251 C 
ATOM      6  H   UNL A   1      31.913  34.469  27.269  1.00  0.00     0.163 HD
BRANCH   5   7
ATOM      7  C   UNL A   1      34.540  33.627  29.156  1.00  0.00     0.039 A 
ATOM      8  C   UNL A   1      35.814  34.159  28.946  1.00  0.00     0.014 A 
ATOM      9  C   UNL A   1      34.403  32.477  29.944  1.00  0.00     0.014 A 
ATOM     10  C   UNL A   1      36.942  33.489  29.420  1.00  0.00     0.010 A 
ATOM     11  C   UNL A   1      35.530  31.842  30.480  1.00  0.00     0.010 A 
ATOM     12  C   UNL A   1      36.814  32.330  30.202  1.00  0.00    -0.014 A 
BRANCH  12  13
ATOM     13  C   UNL A   1      38.032  31.700  30.778  1.00  0.00     0.031 A 
ATOM     14  C   UNL A   1      38.462  31.975  32.192  1.00  0.00     0.074 A 
ATOM     15  C   UNL A   1      38.742  30.842  30.020  1.00  0.00     0.049 A 
ATOM     16  N   UNL A   1      39.413  31.399  32.883  1.00  0.00    -0.248 NA
ATOM     17  C   UNL A   1      37.742  33.028  32.925  1.00  0.00     0.031 C 
ATOM     18  C   UNL A   1      38.464  30.535  28.616  1.00  0.00     0.029 A 
ATOM     19  N   UNL A   1      39.823  30.054  30.326  1.00  0.00    -0.354 N 
ATOM     20  C   UNL A   1      39.426  32.033  34.117  1.00  0.00     0.074 A 
ATOM     21  C   UNL A   1      38.391  33.045  34.082  1.00  0.00     0.031 C 
ATOM     22  C   UNL A   1      39.311  29.581  28.201  1.00  0.00     0.029 A 
ATOM     23  C   UNL A   1      40.206  29.225  29.298  1.00  0.00     0.049 A 
ATOM     24  H   UNL A   1      40.281  30.079  31.198  1.00  0.00     0.167 HD
ATOM     25  C   UNL A   1      40.203  31.774  35.195  1.00  0.00     0.034 A 
ATOM     26  C   UNL A   1      41.152  28.268  29.248  1.00  0.00     0.034 A 
ATOM     27  C   UNL A   1      41.179  30.721  35.264  1.00  0.00     0.049 A 
ATOM     28  C   UNL A   1      41.985  27.986  30.465  1.00  0.00     0.074 A 
ATOM     29  C   UNL A   1      41.926  30.307  36.354  1.00  0.00     0.029 A 
ATOM     30  N   UNL A   1      41.550  29.919  34.198  1.00  0.00    -0.354 N 
ATOM     31  N   UNL A   1      41.868  28.483  31.672  1.00  0.00    -0.248 NA
ATOM     32  C   UNL A   1      43.073  27.009  30.315  1.00  0.00     0.031 C 
ATOM     33  C   UNL A   1      42.746  29.247  35.947  1.00  0.00     0.029 A 
ATOM     34  C   UNL A   1      42.527  29.022  34.598  1.00  0.00     0.049 A 
ATOM     35  H   UNL A   1      41.174  29.976  33.289  1.00  0.00     0.167 HD
ATOM     36  C   UNL A   1      42.863  27.877  32.427  1.00  0.00     0.074 A 
ATOM     37  C   UNL A   1      43.559  26.958  31.550  1.00  0.00     0.031 C 
ATOM     38  C   UNL A   1      43.185  28.086  33.726  1.00  0.00     0.034 A 
BRANCH  25  39
ATOM     39  C   UNL A   1      39.963  32.593  36.429  1.00  0.00     0.023 A 
ATOM     40  C   UNL A   1      40.764  33.731  36.651  1.00  0.00     0.012 A 
ATOM     41  C   UNL A   1      38.938  32.279  37.337  1.00  0.00     0.148 A 
ATOM     42  C   UNL A   1      40.547  34.544  37.763  1.00  0.00     0.002 A 
ATOM     43  C   UNL A   1      38.723  33.100  38.441  1.00  0.00     0.091 A 
ATOM     44  F   UNL A   1      38.205  31.175  37.134  1.00  0.00    -0.205 F 
ATOM     45  C   UNL A   1      39.523  34.233  38.655  1.00  0.00     0.022 A 
BRANCH  43  46
ATOM     46  S   UNL A   1      37.404  32.730  39.603  1.00  0.00     0.127 S 
ATOM     47  O   UNL A   1      36.230  32.705  38.734  1.00  0.00    -0.237 OA
ATOM     48  O   UNL A   1      37.789  31.423  40.138  1.00  0.00    -0.237 OA
ATOM     49  O   UNL A   1      37.470  33.815  40.575  1.00  0.00    -0.744 OA
ENDBRANCH  43  46
ENDBRANCH  25  39
BRANCH  26  50
ATOM     50  C   UNL A   1      41.284  27.440  28.020  1.00  0.00     0.023 A 
ATOM     51  C   UNL A   1      41.931  27.987  26.896  1.00  0.00     0.012 A 
ATOM     52  C   UNL A   1      40.862  26.099  27.982  1.00  0.00     0.148 A 
ATOM     53  C   UNL A   1      42.154  27.212  25.757  1.00  0.00     0.002 A 
ATOM     54  C   UNL A   1      41.127  25.321  26.859  1.00  0.00     0.091 A 
ATOM     55  F   UNL A   1      40.242  25.586  29.055  1.00  0.00    -0.205 F 
ATOM     56  C   UNL A   1      41.763  25.874  25.741  1.00  0.00     0.022 A 
BRANCH  54  57
ATOM     57  S   UNL A   1      40.739  23.569  26.894  1.00  0.00     0.127 S 
ATOM     58  O   UNL A   1      39.290  23.559  26.729  1.00  0.00    -0.237 OA
ATOM     59  O   UNL A   1      41.485  23.039  25.752  1.00  0.00    -0.237 OA
ATOM     60  O   UNL A   1      41.257  23.144  28.190  1.00  0.00    -0.744 OA
ENDBRANCH  54  57
ENDBRANCH  26  50
BRANCH  38  61
ATOM     61  C   UNL A   1      44.367  27.340  34.274  1.00  0.00     0.023 A 
ATOM     62  C   UNL A   1      45.647  27.909  34.134  1.00  0.00     0.012 A 
ATOM     63  C   UNL A   1      44.220  26.134  34.980  1.00  0.00     0.148 A 
ATOM     64  C   UNL A   1      46.766  27.284  34.684  1.00  0.00     0.002 A 
ATOM     65  C   UNL A   1      45.338  25.525  35.542  1.00  0.00     0.091 A 
ATOM     66  F   UNL A   1      42.998  25.591  35.094  1.00  0.00    -0.205 F 
ATOM     67  C   UNL A   1      46.612  26.095  35.395  1.00  0.00     0.022 A 
BRANCH  65  68
ATOM     68  S   UNL A   1      45.154  24.020  36.505  1.00  0.00     0.127 S 
ATOM     69  O   UNL A   1      46.539  23.677  36.817  1.00  0.00    -0.237 OA
ATOM     70  O   UNL A   1      44.363  24.452  37.658  1.00  0.00    -0.237 OA
ATOM     71  O   UNL A   1      44.447  23.111  35.608  1.00  0.00    -0.744 OA
ENDBRANCH  65  68
ENDBRANCH  38  61
ENDBRANCH  12  13
ENDBRANCH   5   7
ENDBRANCH   2   3
ENDBRANCH   1   2
BRANCH   1  72
ATOM     72  C   UNL A   1      31.029  31.207  25.393  1.00  0.00     0.118 C 
BRANCH  72  73
ATOM     73  N   UNL A   1      31.367  29.800  25.523  1.00  0.00    -0.352 N 
ATOM     74  C   UNL A   1      31.028  28.652  24.840  1.00  0.00     0.253 C 
ATOM     75  H   UNL A   1      31.982  29.626  26.272  1.00  0.00     0.163 HD
ATOM     76  O   UNL A   1      31.439  27.593  25.329  1.00  0.00    -0.269 OA
BRANCH  74  77
ATOM     77  C   UNL A   1      29.919  28.625  23.449  1.00  0.00     0.066 A 
ATOM     78  C   UNL A   1      29.260  30.190  22.300  1.00  0.00     0.036 A 
ATOM     79  C   UNL A   1      29.957  27.331  23.475  1.00  0.00     0.072 A 
ATOM     80  C   UNL A   1      28.710  30.587  21.201  1.00  0.00     0.043 A 
ATOM     81  C   UNL A   1      28.964  28.089  23.155  1.00  0.00     0.066 A 
ATOM     82  Cl  UNL A   1      27.998  32.049  20.767  1.00  0.00    -0.084 Cl
ATOM     83  C   UNL A   1      28.349  29.691  22.045  1.00  0.00     0.043 A 
ATOM     84  Cl  UNL A   1      27.768  26.706  24.250  1.00  0.00    -0.082 Cl
BRANCH  79  85
ATOM     85  N   UNL A   1      30.955  26.565  22.842  1.00  0.00    -0.330 N 
ATOM     86  H   UNL A   1      31.590  27.128  22.343  1.00  0.00     0.169 HD
BRANCH  85  87
ATOM     87  C   UNL A   1      31.260  25.252  22.746  1.00  0.00     0.177 C 
ATOM     88  S   UNL A   1      30.728  24.245  23.977  1.00  0.00    -0.040 S 
BRANCH  87  89
ATOM     89  N   UNL A   1      31.960  24.672  21.732  1.00  0.00    -0.299 N 
ATOM     90  C   UNL A   1      33.059  23.845  21.666  1.00  0.00     0.258 C 
ATOM     91  H   UNL A   1      31.599  24.895  20.844  1.00  0.00     0.172 HD
ATOM     92  O   UNL A   1      33.653  23.570  20.636  1.00  0.00    -0.269 OA
BRANCH  90  93
ATOM     93  C   UNL A   1      33.499  23.329  22.946  1.00  0.00     0.048 A 
ATOM     94  C   UNL A   1      34.741  24.446  23.977  1.00  0.00     0.014 A 
ATOM     95  C   UNL A   1      33.148  21.394  23.236  1.00  0.00    -0.006 A 
ATOM     96  C   UNL A   1      35.825  23.743  25.466  1.00  0.00     0.001 A 
ATOM     97  C   UNL A   1      34.259  20.667  24.727  1.00  0.00    -0.018 A 
ATOM     98  C   UNL A   1      32.229  20.494  22.663  1.00  0.00     0.009 A 
ATOM     99  C   UNL A   1      35.516  21.791  25.747  1.00  0.00     0.009 A 
ATOM    100  C   UNL A   1      33.956  19.338  25.022  1.00  0.00     0.009 A 
ATOM    101  C   UNL A   1      32.153  19.192  23.199  1.00  0.00     0.001 A 
ATOM    102  C   UNL A   1      32.948  18.662  24.284  1.00  0.00     0.001 A 
ENDBRANCH  90  93
ENDBRANCH  87  89
ENDBRANCH  85  87
ENDBRANCH  79  85
ENDBRANCH  74  77
ENDBRANCH  72  73
ENDBRANCH   1  72
TORSDOF 17
ENDMDL
