MODEL 1
REMARK VINA RESULT:     -12.4      0.000      0.000
REMARK SMILES C[C@@H](C(=O)NCCCNC(=O)c1ccc(-c2c3nc(c(-c4cccc(S(=O)(=O)[O-])c4F)c4ccc([nH]4)c(-c4cccc(S(=O)(=O)[O-])c4F)c4nc(c(-c5cccc(S(=O)(=O)[O-])c5F)c5ccc2[nH]5)C=C4)C=C3)cc1)c1ccc(-c2ccccc2)c(F)c1
REMARK SMILES IDX 7 1 6 2 5 3 3 4 4 5 2 7 1 8 75 9 76 10 87 11 77 12 85 13
REMARK SMILES IDX 78 14 86 15 79 16 80 17 84 18 81 19 83 20 82 21 8 22 9 23
REMARK SMILES IDX 10 24 11 26 12 27 13 28 74 29 14 30 73 31 15 32 16 33 17 34
REMARK SMILES IDX 67 35 18 36 72 37 66 38 68 39 19 40 71 41 65 42 64 43 20 45
REMARK SMILES IDX 52 46 32 47 51 48 33 49 36 50 50 51 69 52 34 53 35 54 49 56
REMARK SMILES IDX 70 57 37 58 21 59 22 60 30 61 23 62 25 63 31 64 24 65 26 66
REMARK SMILES IDX 27 67 28 68 29 69 53 70 54 71 62 72 55 73 57 74 63 75 56 76
REMARK SMILES IDX 58 77 59 78 60 79 61 80 38 81 39 82 47 83 40 84 42 85 48 86
REMARK SMILES IDX 41 87 43 88 44 89 45 90 46 91
REMARK H PARENT 5 6 9 25 68 44 36 55
REMARK Flexibility Score: inf
ROOT
ATOM      1  C   UNL A   1      32.130  28.263  26.653  1.00  0.00     0.042 C 
ENDROOT
BRANCH   1   2
ATOM      2  C   UNL A   1      32.612  26.838  26.396  1.00  0.00     0.117 C 
BRANCH   2   3
ATOM      3  N   UNL A   1      31.553  25.863  26.567  1.00  0.00    -0.356 N 
ATOM      4  C   UNL A   1      31.273  24.715  25.887  1.00  0.00     0.227 C 
ATOM      5  O   UNL A   1      30.288  24.087  26.283  1.00  0.00    -0.274 OA
ATOM      6  H   UNL A   1      30.928  26.064  27.300  1.00  0.00     0.163 HD
BRANCH   4   7
ATOM      7  C   UNL A   1      32.183  24.245  24.735  1.00  0.00     0.105 C 
ATOM      8  C   UNL A   1      31.601  24.570  23.358  1.00  0.00     0.023 C 
BRANCH   7   9
ATOM      9  C   UNL A   1      32.511  22.754  24.772  1.00  0.00    -0.033 A 
ATOM     10  C   UNL A   1      33.093  22.157  25.899  1.00  0.00     0.005 A 
ATOM     11  C   UNL A   1      32.161  21.928  23.697  1.00  0.00     0.044 A 
ATOM     12  C   UNL A   1      33.356  20.785  25.934  1.00  0.00     0.012 A 
ATOM     13  C   UNL A   1      32.411  20.553  23.747  1.00  0.00     0.131 A 
ATOM     14  C   UNL A   1      33.016  19.949  24.859  1.00  0.00     0.017 A 
ATOM     15  F   UNL A   1      32.039  19.811  22.692  1.00  0.00    -0.206 F 
BRANCH  14  16
ATOM     16  C   UNL A   1      33.297  18.505  24.923  1.00  0.00    -0.015 A 
ATOM     17  C   UNL A   1      34.350  17.942  24.179  1.00  0.00     0.009 A 
ATOM     18  C   UNL A   1      32.507  17.640  25.697  1.00  0.00     0.009 A 
ATOM     19  C   UNL A   1      34.594  16.567  24.196  1.00  0.00     0.001 A 
ATOM     20  C   UNL A   1      32.749  16.263  25.716  1.00  0.00     0.001 A 
ATOM     21  C   UNL A   1      33.790  15.727  24.962  1.00  0.00     0.000 A 
ENDBRANCH  14  16
ENDBRANCH   7   9
ENDBRANCH   4   7
ENDBRANCH   2   3
ENDBRANCH   1   2
BRANCH   1  22
ATOM     22  C   UNL A   1      32.877  29.336  25.868  1.00  0.00     0.118 C 
BRANCH  22  23
ATOM     23  N   UNL A   1      32.477  30.689  26.230  1.00  0.00    -0.352 N 
ATOM     24  C   UNL A   1      33.086  31.578  27.083  1.00  0.00     0.251 C 
ATOM     25  H   UNL A   1      31.651  31.013  25.802  1.00  0.00     0.163 HD
ATOM     26  O   UNL A   1      32.513  32.621  27.392  1.00  0.00    -0.269 OA
BRANCH  24  27
ATOM     27  C   UNL A   1      34.417  31.268  27.645  1.00  0.00     0.039 A 
ATOM     28  C   UNL A   1      35.387  32.274  27.694  1.00  0.00     0.014 A 
ATOM     29  C   UNL A   1      34.702  29.991  28.134  1.00  0.00     0.014 A 
ATOM     30  C   UNL A   1      36.619  32.020  28.303  1.00  0.00     0.010 A 
ATOM     31  C   UNL A   1      35.899  29.762  28.803  1.00  0.00     0.010 A 
ATOM     32  C   UNL A   1      36.869  30.773  28.896  1.00  0.00    -0.014 A 
BRANCH  32  33
ATOM     33  C   UNL A   1      38.127  30.488  29.634  1.00  0.00     0.031 A 
ATOM     34  C   UNL A   1      39.127  29.524  29.059  1.00  0.00     0.074 A 
ATOM     35  C   UNL A   1      38.296  30.975  30.879  1.00  0.00     0.049 A 
ATOM     36  N   UNL A   1      40.192  29.009  29.616  1.00  0.00    -0.248 NA
ATOM     37  C   UNL A   1      38.875  29.050  27.690  1.00  0.00     0.031 C 
ATOM     38  C   UNL A   1      37.358  31.854  31.577  1.00  0.00     0.029 A 
ATOM     39  N   UNL A   1      39.293  30.755  31.798  1.00  0.00    -0.354 N 
ATOM     40  C   UNL A   1      40.705  28.110  28.689  1.00  0.00     0.074 A 
ATOM     41  C   UNL A   1      39.822  28.134  27.543  1.00  0.00     0.031 C 
ATOM     42  C   UNL A   1      37.807  32.076  32.822  1.00  0.00     0.029 A 
ATOM     43  C   UNL A   1      39.045  31.328  33.023  1.00  0.00     0.049 A 
ATOM     44  H   UNL A   1      40.106  30.235  31.600  1.00  0.00     0.167 HD
ATOM     45  C   UNL A   1      41.824  27.352  28.771  1.00  0.00     0.034 A 
ATOM     46  C   UNL A   1      39.721  31.243  34.187  1.00  0.00     0.034 A 
ATOM     47  C   UNL A   1      42.727  27.373  29.890  1.00  0.00     0.049 A 
ATOM     48  C   UNL A   1      40.992  30.441  34.240  1.00  0.00     0.074 A 
ATOM     49  C   UNL A   1      43.942  26.726  30.027  1.00  0.00     0.029 A 
ATOM     50  N   UNL A   1      42.509  28.072  31.068  1.00  0.00    -0.354 N 
ATOM     51  N   UNL A   1      41.552  29.725  33.295  1.00  0.00    -0.248 NA
ATOM     52  C   UNL A   1      41.745  30.462  35.503  1.00  0.00     0.031 C 
ATOM     53  C   UNL A   1      44.451  27.020  31.297  1.00  0.00     0.029 A 
ATOM     54  C   UNL A   1      43.563  27.867  31.941  1.00  0.00     0.049 A 
ATOM     55  H   UNL A   1      41.721  28.631  31.255  1.00  0.00     0.167 HD
ATOM     56  C   UNL A   1      42.737  29.237  33.836  1.00  0.00     0.074 A 
ATOM     57  C   UNL A   1      42.820  29.749  35.188  1.00  0.00     0.031 C 
ATOM     58  C   UNL A   1      43.664  28.430  33.264  1.00  0.00     0.034 A 
BRANCH  45  59
ATOM     59  C   UNL A   1      42.157  26.473  27.594  1.00  0.00     0.023 A 
ATOM     60  C   UNL A   1      42.874  27.011  26.505  1.00  0.00     0.012 A 
ATOM     61  C   UNL A   1      41.790  25.114  27.574  1.00  0.00     0.148 A 
ATOM     62  C   UNL A   1      43.179  26.224  25.396  1.00  0.00     0.002 A 
ATOM     63  C   UNL A   1      42.138  24.324  26.485  1.00  0.00     0.091 A 
ATOM     64  F   UNL A   1      41.088  24.623  28.605  1.00  0.00    -0.205 F 
ATOM     65  C   UNL A   1      42.819  24.879  25.390  1.00  0.00     0.022 A 
BRANCH  63  66
ATOM     66  S   UNL A   1      41.787  22.562  26.429  1.00  0.00     0.127 S 
ATOM     67  O   UNL A   1      42.417  22.175  25.168  1.00  0.00    -0.237 OA
ATOM     68  O   UNL A   1      42.468  22.068  27.626  1.00  0.00    -0.237 OA
ATOM     69  O   UNL A   1      40.336  22.450  26.473  1.00  0.00    -0.744 OA
ENDBRANCH  63  66
ENDBRANCH  45  59
BRANCH  46  70
ATOM     70  C   UNL A   1      39.221  31.987  35.377  1.00  0.00     0.023 A 
ATOM     71  C   UNL A   1      38.383  31.333  36.300  1.00  0.00     0.012 A 
ATOM     72  C   UNL A   1      39.634  33.308  35.638  1.00  0.00     0.148 A 
ATOM     73  C   UNL A   1      37.950  31.987  37.454  1.00  0.00     0.002 A 
ATOM     74  C   UNL A   1      39.244  33.935  36.816  1.00  0.00     0.091 A 
ATOM     75  F   UNL A   1      40.426  33.915  34.742  1.00  0.00    -0.205 F 
ATOM     76  C   UNL A   1      38.390  33.281  37.719  1.00  0.00     0.022 A 
BRANCH  74  77
ATOM     77  S   UNL A   1      39.875  35.543  37.310  1.00  0.00     0.127 S 
ATOM     78  O   UNL A   1      39.137  35.788  38.547  1.00  0.00    -0.237 OA
ATOM     79  O   UNL A   1      41.300  35.266  37.486  1.00  0.00    -0.237 OA
ATOM     80  O   UNL A   1      39.570  36.443  36.206  1.00  0.00    -0.744 OA
ENDBRANCH  74  77
ENDBRANCH  46  70
BRANCH  58  81
ATOM     81  C   UNL A   1      44.882  28.068  34.071  1.00  0.00     0.023 A 
ATOM     82  C   UNL A   1      45.987  28.940  34.098  1.00  0.00     0.012 A 
ATOM     83  C   UNL A   1      44.877  26.925  34.896  1.00  0.00     0.148 A 
ATOM     84  C   UNL A   1      47.077  28.672  34.926  1.00  0.00     0.002 A 
ATOM     85  C   UNL A   1      45.947  26.690  35.751  1.00  0.00     0.091 A 
ATOM     86  F   UNL A   1      43.821  26.102  34.840  1.00  0.00    -0.205 F 
ATOM     87  C   UNL A   1      47.052  27.558  35.761  1.00  0.00     0.022 A 
BRANCH  85  88
ATOM     88  S   UNL A   1      45.960  25.335  36.932  1.00  0.00     0.127 S 
ATOM     89  O   UNL A   1      44.757  25.610  37.714  1.00  0.00    -0.237 OA
ATOM     90  O   UNL A   1      45.866  24.165  36.059  1.00  0.00    -0.237 OA
ATOM     91  O   UNL A   1      47.217  25.449  37.661  1.00  0.00    -0.744 OA
ENDBRANCH  85  88
ENDBRANCH  58  81
ENDBRANCH  32  33
ENDBRANCH  24  27
ENDBRANCH  22  23
ENDBRANCH   1  22
TORSDOF 15
ENDMDL
MODEL 2
REMARK VINA RESULT:     -12.3      4.601     11.048
REMARK SMILES C[C@@H](C(=O)NCCCNC(=O)c1ccc(-c2c3nc(c(-c4cccc(S(=O)(=O)[O-])c4F)c4ccc([nH]4)c(-c4cccc(S(=O)(=O)[O-])c4F)c4nc(c(-c5cccc(S(=O)(=O)[O-])c5F)c5ccc2[nH]5)C=C4)C=C3)cc1)c1ccc(-c2ccccc2)c(F)c1
REMARK SMILES IDX 7 1 6 2 5 3 3 4 4 5 2 7 1 8 75 9 76 10 87 11 77 12 85 13
REMARK SMILES IDX 78 14 86 15 79 16 80 17 84 18 81 19 83 20 82 21 8 22 9 23
REMARK SMILES IDX 10 24 11 26 12 27 13 28 74 29 14 30 73 31 15 32 16 33 17 34
REMARK SMILES IDX 67 35 18 36 72 37 66 38 68 39 19 40 71 41 65 42 64 43 20 45
REMARK SMILES IDX 52 46 32 47 51 48 33 49 36 50 50 51 69 52 34 53 35 54 49 56
REMARK SMILES IDX 70 57 37 58 21 59 22 60 30 61 23 62 25 63 31 64 24 65 26 66
REMARK SMILES IDX 27 67 28 68 29 69 53 70 54 71 62 72 55 73 57 74 63 75 56 76
REMARK SMILES IDX 58 77 59 78 60 79 61 80 38 81 39 82 47 83 40 84 42 85 48 86
REMARK SMILES IDX 41 87 43 88 44 89 45 90 46 91
REMARK H PARENT 5 6 9 25 68 44 36 55
REMARK Flexibility Score: inf
ROOT
ATOM      1  C   UNL A   1      33.396  34.005  28.768  1.00  0.00     0.042 C 
ENDROOT
BRANCH   1   2
ATOM      2  C   UNL A   1      33.987  35.344  29.199  1.00  0.00     0.117 C 
BRANCH   2   3
ATOM      3  N   UNL A   1      34.065  35.469  30.641  1.00  0.00    -0.356 N 
ATOM      4  C   UNL A   1      34.625  34.657  31.582  1.00  0.00     0.227 C 
ATOM      5  O   UNL A   1      34.531  35.048  32.748  1.00  0.00    -0.274 OA
ATOM      6  H   UNL A   1      33.641  36.279  31.003  1.00  0.00     0.163 HD
BRANCH   4   7
ATOM      7  C   UNL A   1      35.360  33.368  31.167  1.00  0.00     0.105 C 
ATOM      8  C   UNL A   1      35.288  32.279  32.239  1.00  0.00     0.023 C 
BRANCH   7   9
ATOM      9  C   UNL A   1      36.829  33.580  30.804  1.00  0.00    -0.033 A 
ATOM     10  C   UNL A   1      37.317  33.305  29.519  1.00  0.00     0.005 A 
ATOM     11  C   UNL A   1      37.713  34.134  31.739  1.00  0.00     0.044 A 
ATOM     12  C   UNL A   1      38.655  33.538  29.190  1.00  0.00     0.012 A 
ATOM     13  C   UNL A   1      39.046  34.380  31.397  1.00  0.00     0.131 A 
ATOM     14  C   UNL A   1      39.550  34.086  30.121  1.00  0.00     0.017 A 
ATOM     15  F   UNL A   1      39.841  34.927  32.330  1.00  0.00    -0.206 F 
BRANCH  14  16
ATOM     16  C   UNL A   1      40.955  34.327  29.748  1.00  0.00    -0.015 A 
ATOM     17  C   UNL A   1      41.320  35.469  29.013  1.00  0.00     0.009 A 
ATOM     18  C   UNL A   1      41.967  33.412  30.081  1.00  0.00     0.009 A 
ATOM     19  C   UNL A   1      42.641  35.681  28.612  1.00  0.00     0.001 A 
ATOM     20  C   UNL A   1      43.290  33.621  29.682  1.00  0.00     0.001 A 
ATOM     21  C   UNL A   1      43.625  34.754  28.944  1.00  0.00     0.000 A 
ENDBRANCH  14  16
ENDBRANCH   7   9
ENDBRANCH   4   7
ENDBRANCH   2   3
ENDBRANCH   1   2
BRANCH   1  22
ATOM     22  C   UNL A   1      34.414  33.013  28.211  1.00  0.00     0.118 C 
BRANCH  22  23
ATOM     23  N   UNL A   1      33.794  31.842  27.605  1.00  0.00    -0.352 N 
ATOM     24  C   UNL A   1      34.304  30.576  27.437  1.00  0.00     0.251 C 
ATOM     25  H   UNL A   1      32.879  31.976  27.268  1.00  0.00     0.163 HD
ATOM     26  O   UNL A   1      33.694  29.756  26.755  1.00  0.00    -0.269 OA
BRANCH  24  27
ATOM     27  C   UNL A   1      35.596  30.212  28.057  1.00  0.00     0.039 A 
ATOM     28  C   UNL A   1      35.616  29.782  29.386  1.00  0.00     0.014 A 
ATOM     29  C   UNL A   1      36.781  30.285  27.321  1.00  0.00     0.014 A 
ATOM     30  C   UNL A   1      36.817  29.350  29.957  1.00  0.00     0.010 A 
ATOM     31  C   UNL A   1      37.960  29.787  27.867  1.00  0.00     0.010 A 
ATOM     32  C   UNL A   1      37.990  29.314  29.188  1.00  0.00    -0.014 A 
BRANCH  32  33
ATOM     33  C   UNL A   1      39.268  28.777  29.723  1.00  0.00     0.031 A 
ATOM     34  C   UNL A   1      39.979  29.507  30.829  1.00  0.00     0.074 A 
ATOM     35  C   UNL A   1      39.857  27.727  29.119  1.00  0.00     0.049 A 
ATOM     36  N   UNL A   1      41.177  29.307  31.313  1.00  0.00    -0.248 NA
ATOM     37  C   UNL A   1      39.260  30.634  31.444  1.00  0.00     0.031 C 
ATOM     38  C   UNL A   1      39.305  26.986  27.984  1.00  0.00     0.029 A 
ATOM     39  N   UNL A   1      41.078  27.137  29.339  1.00  0.00    -0.354 N 
ATOM     40  C   UNL A   1      41.377  30.315  32.249  1.00  0.00     0.074 A 
ATOM     41  C   UNL A   1      40.187  31.136  32.248  1.00  0.00     0.031 C 
ATOM     42  C   UNL A   1      40.193  26.060  27.590  1.00  0.00     0.029 A 
ATOM     43  C   UNL A   1      41.390  26.164  28.420  1.00  0.00     0.049 A 
ATOM     44  H   UNL A   1      41.673  27.387  30.084  1.00  0.00     0.167 HD
ATOM     45  C   UNL A   1      42.445  30.523  33.056  1.00  0.00     0.034 A 
ATOM     46  C   UNL A   1      42.522  25.451  28.242  1.00  0.00     0.034 A 
ATOM     47  C   UNL A   1      43.603  29.671  33.090  1.00  0.00     0.049 A 
ATOM     48  C   UNL A   1      43.674  25.659  29.185  1.00  0.00     0.074 A 
ATOM     49  C   UNL A   1      44.690  29.732  33.944  1.00  0.00     0.029 A 
ATOM     50  N   UNL A   1      43.829  28.609  32.228  1.00  0.00    -0.354 N 
ATOM     51  N   UNL A   1      43.782  26.511  30.177  1.00  0.00    -0.248 NA
ATOM     52  C   UNL A   1      44.847  24.788  29.013  1.00  0.00     0.031 C 
ATOM     53  C   UNL A   1      45.582  28.716  33.585  1.00  0.00     0.029 A 
ATOM     54  C   UNL A   1      45.040  28.010  32.523  1.00  0.00     0.049 A 
ATOM     55  H   UNL A   1      43.217  28.325  31.511  1.00  0.00     0.167 HD
ATOM     56  C   UNL A   1      45.015  26.258  30.767  1.00  0.00     0.074 A 
ATOM     57  C   UNL A   1      45.614  25.165  30.029  1.00  0.00     0.031 C 
ATOM     58  C   UNL A   1      45.600  26.883  31.818  1.00  0.00     0.034 A 
BRANCH  45  59
ATOM     59  C   UNL A   1      42.384  31.693  34.002  1.00  0.00     0.023 A 
ATOM     60  C   UNL A   1      42.850  32.955  33.580  1.00  0.00     0.012 A 
ATOM     61  C   UNL A   1      41.840  31.556  35.294  1.00  0.00     0.148 A 
ATOM     62  C   UNL A   1      42.821  34.049  34.442  1.00  0.00     0.002 A 
ATOM     63  C   UNL A   1      41.771  32.663  36.132  1.00  0.00     0.091 A 
ATOM     64  F   UNL A   1      41.422  30.345  35.691  1.00  0.00    -0.205 F 
ATOM     65  C   UNL A   1      42.274  33.906  35.714  1.00  0.00     0.022 A 
BRANCH  63  66
ATOM     66  S   UNL A   1      41.009  32.588  37.757  1.00  0.00     0.127 S 
ATOM     67  O   UNL A   1      41.918  31.693  38.471  1.00  0.00    -0.237 OA
ATOM     68  O   UNL A   1      41.063  33.984  38.193  1.00  0.00    -0.237 OA
ATOM     69  O   UNL A   1      39.662  32.079  37.536  1.00  0.00    -0.744 OA
ENDBRANCH  63  66
ENDBRANCH  45  59
BRANCH  46  70
ATOM     70  C   UNL A   1      42.584  24.440  27.150  1.00  0.00     0.023 A 
ATOM     71  C   UNL A   1      43.260  24.752  25.956  1.00  0.00     0.012 A 
ATOM     72  C   UNL A   1      42.046  23.148  27.320  1.00  0.00     0.148 A 
ATOM     73  C   UNL A   1      43.385  23.801  24.942  1.00  0.00     0.002 A 
ATOM     74  C   UNL A   1      42.223  22.190  26.330  1.00  0.00     0.091 A 
ATOM     75  F   UNL A   1      41.400  22.876  28.463  1.00  0.00    -0.205 F 
ATOM     76  C   UNL A   1      42.879  22.519  25.133  1.00  0.00     0.022 A 
BRANCH  74  77
ATOM     77  S   UNL A   1      41.732  20.475  26.545  1.00  0.00     0.127 S 
ATOM     78  O   UNL A   1      42.350  19.838  25.386  1.00  0.00    -0.237 OA
ATOM     79  O   UNL A   1      42.347  20.146  27.831  1.00  0.00    -0.237 OA
ATOM     80  O   UNL A   1      40.275  20.480  26.560  1.00  0.00    -0.744 OA
ENDBRANCH  74  77
ENDBRANCH  46  70
BRANCH  58  81
ATOM     81  C   UNL A   1      46.945  26.389  32.277  1.00  0.00     0.023 A 
ATOM     82  C   UNL A   1      48.116  27.031  31.831  1.00  0.00     0.012 A 
ATOM     83  C   UNL A   1      47.038  25.368  33.244  1.00  0.00     0.148 A 
ATOM     84  C   UNL A   1      49.362  26.655  32.332  1.00  0.00     0.002 A 
ATOM     85  C   UNL A   1      48.278  25.030  33.772  1.00  0.00     0.091 A 
ATOM     86  F   UNL A   1      45.911  24.759  33.641  1.00  0.00    -0.205 F 
ATOM     87  C   UNL A   1      49.443  25.667  33.310  1.00  0.00     0.022 A 
BRANCH  85  88
ATOM     88  S   UNL A   1      48.471  23.839  35.104  1.00  0.00     0.127 S 
ATOM     89  O   UNL A   1      48.937  22.657  34.381  1.00  0.00    -0.237 OA
ATOM     90  O   UNL A   1      49.482  24.478  35.945  1.00  0.00    -0.237 OA
ATOM     91  O   UNL A   1      47.158  23.712  35.724  1.00  0.00    -0.744 OA
ENDBRANCH  85  88
ENDBRANCH  58  81
ENDBRANCH  32  33
ENDBRANCH  24  27
ENDBRANCH  22  23
ENDBRANCH   1  22
TORSDOF 15
ENDMDL
MODEL 3
REMARK VINA RESULT:     -12.3      2.686      8.258
REMARK SMILES C[C@@H](C(=O)NCCCNC(=O)c1ccc(-c2c3nc(c(-c4cccc(S(=O)(=O)[O-])c4F)c4ccc([nH]4)c(-c4cccc(S(=O)(=O)[O-])c4F)c4nc(c(-c5cccc(S(=O)(=O)[O-])c5F)c5ccc2[nH]5)C=C4)C=C3)cc1)c1ccc(-c2ccccc2)c(F)c1
REMARK SMILES IDX 7 1 6 2 5 3 3 4 4 5 2 7 1 8 75 9 76 10 87 11 77 12 85 13
REMARK SMILES IDX 78 14 86 15 79 16 80 17 84 18 81 19 83 20 82 21 8 22 9 23
REMARK SMILES IDX 10 24 11 26 12 27 13 28 74 29 14 30 73 31 15 32 16 33 17 34
REMARK SMILES IDX 67 35 18 36 72 37 66 38 68 39 19 40 71 41 65 42 64 43 20 45
REMARK SMILES IDX 52 46 32 47 51 48 33 49 36 50 50 51 69 52 34 53 35 54 49 56
REMARK SMILES IDX 70 57 37 58 21 59 22 60 30 61 23 62 25 63 31 64 24 65 26 66
REMARK SMILES IDX 27 67 28 68 29 69 53 70 54 71 62 72 55 73 57 74 63 75 56 76
REMARK SMILES IDX 58 77 59 78 60 79 61 80 38 81 39 82 47 83 40 84 42 85 48 86
REMARK SMILES IDX 41 87 43 88 44 89 45 90 46 91
REMARK H PARENT 5 6 9 25 68 44 36 55
REMARK Flexibility Score: inf
ROOT
ATOM      1  C   UNL A   1      33.127  27.687  26.496  1.00  0.00     0.042 C 
ENDROOT
BRANCH   1   2
ATOM      2  C   UNL A   1      33.317  26.299  25.891  1.00  0.00     0.117 C 
BRANCH   2   3
ATOM      3  N   UNL A   1      32.082  25.760  25.360  1.00  0.00    -0.356 N 
ATOM      4  C   UNL A   1      31.853  24.861  24.360  1.00  0.00     0.227 C 
ATOM      5  O   UNL A   1      30.668  24.594  24.144  1.00  0.00    -0.274 OA
ATOM      6  H   UNL A   1      31.268  26.099  25.796  1.00  0.00     0.163 HD
BRANCH   4   7
ATOM      7  C   UNL A   1      33.029  24.211  23.607  1.00  0.00     0.105 C 
ATOM      8  C   UNL A   1      32.936  24.405  22.092  1.00  0.00     0.023 C 
BRANCH   7   9
ATOM      9  C   UNL A   1      33.195  22.718  23.885  1.00  0.00    -0.033 A 
ATOM     10  C   UNL A   1      33.975  22.251  24.953  1.00  0.00     0.005 A 
ATOM     11  C   UNL A   1      32.500  21.776  23.117  1.00  0.00     0.044 A 
ATOM     12  C   UNL A   1      34.089  20.884  25.219  1.00  0.00     0.012 A 
ATOM     13  C   UNL A   1      32.606  20.411  23.400  1.00  0.00     0.131 A 
ATOM     14  C   UNL A   1      33.403  19.931  24.450  1.00  0.00     0.017 A 
ATOM     15  F   UNL A   1      31.904  19.557  22.638  1.00  0.00    -0.206 F 
BRANCH  14  16
ATOM     16  C   UNL A   1      33.536  18.496  24.754  1.00  0.00    -0.015 A 
ATOM     17  C   UNL A   1      34.660  17.769  24.325  1.00  0.00     0.009 A 
ATOM     18  C   UNL A   1      32.533  17.801  25.449  1.00  0.00     0.009 A 
ATOM     19  C   UNL A   1      34.772  16.398  24.567  1.00  0.00     0.001 A 
ATOM     20  C   UNL A   1      32.642  16.429  25.693  1.00  0.00     0.001 A 
ATOM     21  C   UNL A   1      33.760  15.727  25.248  1.00  0.00     0.000 A 
ENDBRANCH  14  16
ENDBRANCH   7   9
ENDBRANCH   4   7
ENDBRANCH   2   3
ENDBRANCH   1   2
BRANCH   1  22
ATOM     22  C   UNL A   1      34.293  28.644  26.267  1.00  0.00     0.118 C 
BRANCH  22  23
ATOM     23  N   UNL A   1      33.986  30.017  26.645  1.00  0.00    -0.352 N 
ATOM     24  C   UNL A   1      34.609  30.828  27.564  1.00  0.00     0.251 C 
ATOM     25  H   UNL A   1      33.221  30.422  26.175  1.00  0.00     0.163 HD
ATOM     26  O   UNL A   1      34.107  31.907  27.868  1.00  0.00    -0.269 OA
BRANCH  24  27
ATOM     27  C   UNL A   1      35.868  30.389  28.201  1.00  0.00     0.039 A 
ATOM     28  C   UNL A   1      35.814  29.709  29.421  1.00  0.00     0.014 A 
ATOM     29  C   UNL A   1      37.098  30.638  27.588  1.00  0.00     0.014 A 
ATOM     30  C   UNL A   1      36.990  29.210  29.990  1.00  0.00     0.010 A 
ATOM     31  C   UNL A   1      38.257  30.080  28.118  1.00  0.00     0.010 A 
ATOM     32  C   UNL A   1      38.215  29.360  29.322  1.00  0.00    -0.014 A 
BRANCH  32  33
ATOM     33  C   UNL A   1      39.474  28.767  29.842  1.00  0.00     0.031 A 
ATOM     34  C   UNL A   1      40.233  29.468  30.935  1.00  0.00     0.074 A 
ATOM     35  C   UNL A   1      40.007  27.690  29.234  1.00  0.00     0.049 A 
ATOM     36  N   UNL A   1      41.427  29.217  31.403  1.00  0.00    -0.248 NA
ATOM     37  C   UNL A   1      39.574  30.629  31.555  1.00  0.00     0.031 C 
ATOM     38  C   UNL A   1      39.406  26.970  28.110  1.00  0.00     0.029 A 
ATOM     39  N   UNL A   1      41.203  27.046  29.440  1.00  0.00    -0.354 N 
ATOM     40  C   UNL A   1      41.686  30.217  32.333  1.00  0.00     0.074 A 
ATOM     41  C   UNL A   1      40.533  31.091  32.344  1.00  0.00     0.031 C 
ATOM     42  C   UNL A   1      40.246  26.004  27.708  1.00  0.00     0.029 A 
ATOM     43  C   UNL A   1      41.458  26.056  28.520  1.00  0.00     0.049 A 
ATOM     44  H   UNL A   1      41.818  27.271  30.176  1.00  0.00     0.167 HD
ATOM     45  C   UNL A   1      42.773  30.380  33.124  1.00  0.00     0.034 A 
ATOM     46  C   UNL A   1      42.554  25.293  28.331  1.00  0.00     0.034 A 
ATOM     47  C   UNL A   1      43.891  29.477  33.146  1.00  0.00     0.049 A 
ATOM     48  C   UNL A   1      43.728  25.452  29.257  1.00  0.00     0.074 A 
ATOM     49  C   UNL A   1      44.991  29.491  33.985  1.00  0.00     0.029 A 
ATOM     50  N   UNL A   1      44.057  28.403  32.285  1.00  0.00    -0.354 N 
ATOM     51  N   UNL A   1      43.887  26.301  30.244  1.00  0.00    -0.248 NA
ATOM     52  C   UNL A   1      44.857  24.528  29.073  1.00  0.00     0.031 C 
ATOM     53  C   UNL A   1      45.832  28.434  33.618  1.00  0.00     0.029 A 
ATOM     54  C   UNL A   1      45.244  27.750  32.566  1.00  0.00     0.049 A 
ATOM     55  H   UNL A   1      43.423  28.144  31.578  1.00  0.00     0.167 HD
ATOM     56  C   UNL A   1      45.116  25.995  30.818  1.00  0.00     0.074 A 
ATOM     57  C   UNL A   1      45.654  24.873  30.077  1.00  0.00     0.031 C 
ATOM     58  C   UNL A   1      45.742  26.597  31.858  1.00  0.00     0.034 A 
BRANCH  45  59
ATOM     59  C   UNL A   1      42.777  31.555  34.066  1.00  0.00     0.023 A 
ATOM     60  C   UNL A   1      43.347  32.777  33.652  1.00  0.00     0.012 A 
ATOM     61  C   UNL A   1      42.194  31.464  35.345  1.00  0.00     0.148 A 
ATOM     62  C   UNL A   1      43.380  33.873  34.511  1.00  0.00     0.002 A 
ATOM     63  C   UNL A   1      42.190  32.576  36.179  1.00  0.00     0.091 A 
ATOM     64  F   UNL A   1      41.678  30.290  35.734  1.00  0.00    -0.205 F 
ATOM     65  C   UNL A   1      42.794  33.776  35.770  1.00  0.00     0.022 A 
BRANCH  63  66
ATOM     66  S   UNL A   1      41.385  32.565  37.785  1.00  0.00     0.127 S 
ATOM     67  O   UNL A   1      40.028  32.150  37.434  1.00  0.00    -0.237 OA
ATOM     68  O   UNL A   1      42.159  31.560  38.516  1.00  0.00    -0.237 OA
ATOM     69  O   UNL A   1      41.521  33.920  38.302  1.00  0.00    -0.744 OA
ENDBRANCH  63  66
ENDBRANCH  45  59
BRANCH  46  70
ATOM     70  C   UNL A   1      42.555  24.276  27.242  1.00  0.00     0.023 A 
ATOM     71  C   UNL A   1      43.229  24.552  26.038  1.00  0.00     0.012 A 
ATOM     72  C   UNL A   1      41.962  23.011  27.425  1.00  0.00     0.148 A 
ATOM     73  C   UNL A   1      43.297  23.594  25.026  1.00  0.00     0.002 A 
ATOM     74  C   UNL A   1      42.081  22.042  26.436  1.00  0.00     0.091 A 
ATOM     75  F   UNL A   1      41.319  22.772  28.577  1.00  0.00    -0.205 F 
ATOM     76  C   UNL A   1      42.735  22.336  25.229  1.00  0.00     0.022 A 
BRANCH  74  77
ATOM     77  S   UNL A   1      41.516  20.352  26.665  1.00  0.00     0.127 S 
ATOM     78  O   UNL A   1      42.253  19.948  27.860  1.00  0.00    -0.237 OA
ATOM     79  O   UNL A   1      40.078  20.540  26.862  1.00  0.00    -0.237 OA
ATOM     80  O   UNL A   1      41.867  19.647  25.439  1.00  0.00    -0.744 OA
ENDBRANCH  74  77
ENDBRANCH  46  70
BRANCH  58  81
ATOM     81  C   UNL A   1      47.070  26.044  32.301  1.00  0.00     0.023 A 
ATOM     82  C   UNL A   1      47.129  25.154  33.391  1.00  0.00     0.012 A 
ATOM     83  C   UNL A   1      48.238  26.313  31.559  1.00  0.00     0.148 A 
ATOM     84  C   UNL A   1      48.335  24.549  33.744  1.00  0.00     0.002 A 
ATOM     85  C   UNL A   1      49.426  25.671  31.889  1.00  0.00     0.091 A 
ATOM     86  F   UNL A   1      48.161  27.176  30.537  1.00  0.00    -0.205 F 
ATOM     87  C   UNL A   1      49.478  24.795  32.987  1.00  0.00     0.022 A 
BRANCH  85  88
ATOM     88  S   UNL A   1      50.925  25.851  30.914  1.00  0.00     0.127 S 
ATOM     89  O   UNL A   1      51.873  25.038  31.674  1.00  0.00    -0.237 OA
ATOM     90  O   UNL A   1      50.526  25.281  29.628  1.00  0.00    -0.237 OA
ATOM     91  O   UNL A   1      51.215  27.278  30.881  1.00  0.00    -0.744 OA
ENDBRANCH  85  88
ENDBRANCH  58  81
ENDBRANCH  32  33
ENDBRANCH  24  27
ENDBRANCH  22  23
ENDBRANCH   1  22
TORSDOF 15
ENDMDL
