MODEL 1
REMARK VINA RESULT:     -13.2      0.000      0.000
REMARK SMILES Cc1ccc(C(=O)N2CCCC[C@@H]2C(=O)NCCCNC(=O)c2ccc(-c3c4nc(c(-c5cccc(S(=O)(=O)[O-])c5F)c5ccc([nH]5)c(-c5cccc(S(=O)(=O)[O-])c5F)c5nc(c(-c6cccc(S(=O)(=O)[O-])c6F)c6ccc3[nH]6)C=C5)C=C4)cc2)cc1S(=O)(=O)N1CCCCC1
REMARK SMILES IDX 17 1 16 2 14 3 15 4 13 6 8 7 9 8 10 9 12 10 11 11 6 12 7 13
REMARK SMILES IDX 5 14 1 15 2 16 3 17 87 18 4 19 86 20 88 21 89 22 90 23 91 24
REMARK SMILES IDX 92 25 96 26 93 27 95 28 94 29 18 30 19 31 20 32 21 33 22 35
REMARK SMILES IDX 23 36 24 37 85 38 25 39 84 40 26 41 27 42 28 43 78 44 29 45
REMARK SMILES IDX 83 46 77 47 79 48 30 49 82 50 76 51 75 52 31 54 63 55 43 56
REMARK SMILES IDX 62 57 44 58 47 59 61 60 80 61 45 62 46 63 60 65 81 66 48 67
REMARK SMILES IDX 32 68 33 69 41 70 34 71 36 72 42 73 35 74 37 75 38 76 39 77
REMARK SMILES IDX 40 78 64 79 65 80 73 81 66 82 68 83 74 84 67 85 69 86 70 87
REMARK SMILES IDX 71 88 72 89 49 90 50 91 58 92 51 93 53 94 59 95 52 96 54 97
REMARK SMILES IDX 55 98 56 99 57 100
REMARK H PARENT 16 5 20 34 79 53 47 64
REMARK Flexibility Score: inf
ROOT
ATOM      1  C   UNL A   1      31.781  30.773  26.132  1.00  0.00     0.117 C 
ENDROOT
BRANCH   1   2
ATOM      2  N   UNL A   1      32.362  30.083  24.987  1.00  0.00    -0.354 N 
ATOM      3  C   UNL A   1      31.948  28.961  24.329  1.00  0.00     0.242 C 
ATOM      4  O   UNL A   1      32.727  28.458  23.513  1.00  0.00    -0.273 OA
ATOM      5  H   UNL A   1      33.185  30.490  24.633  1.00  0.00     0.163 HD
BRANCH   3   6
ATOM      6  C   UNL A   1      30.615  28.246  24.676  1.00  0.00     0.174 C 
ATOM      7  N   UNL A   1      30.776  26.904  25.294  1.00  0.00    -0.327 N 
ATOM      8  C   UNL A   1      29.644  25.989  25.230  1.00  0.00     0.120 C 
ATOM      9  C   UNL A   1      29.055  25.880  23.841  1.00  0.00     0.022 C 
ATOM     10  C   UNL A   1      29.796  28.211  23.363  1.00  0.00     0.035 C 
ATOM     11  C   UNL A   1      28.617  27.252  23.361  1.00  0.00     0.004 C 
BRANCH   7  12
ATOM     12  C   UNL A   1      31.764  26.549  26.223  1.00  0.00     0.254 C 
ATOM     13  O   UNL A   1      31.833  27.066  27.338  1.00  0.00    -0.269 OA
BRANCH  12  14
ATOM     14  C   UNL A   1      32.801  25.555  25.888  1.00  0.00     0.041 A 
ATOM     15  C   UNL A   1      35.635  22.786  24.222  1.00  0.00     0.046 C 
ATOM     16  C   UNL A   1      34.600  23.617  24.906  1.00  0.00    -0.031 A 
ATOM     17  C   UNL A   1      34.854  25.007  24.783  1.00  0.00     0.005 A 
ATOM     18  C   UNL A   1      33.435  23.206  25.582  1.00  0.00     0.086 A 
ATOM     19  C   UNL A   1      33.969  25.967  25.263  1.00  0.00     0.014 A 
ATOM     20  C   UNL A   1      32.537  24.195  26.035  1.00  0.00     0.035 A 
BRANCH  18  21
ATOM     21  S   UNL A   1      32.806  21.569  25.981  1.00  0.00     0.243 S 
ATOM     22  O   UNL A   1      33.653  21.073  27.052  1.00  0.00    -0.207 OA
ATOM     23  O   UNL A   1      31.388  21.755  26.207  1.00  0.00    -0.207 OA
BRANCH  21  24
ATOM     24  N   UNL A   1      32.950  20.491  24.688  1.00  0.00    -0.198 NA
ATOM     25  C   UNL A   1      33.302  19.105  25.043  1.00  0.00     0.102 C 
ATOM     26  C   UNL A   1      32.213  20.839  23.455  1.00  0.00     0.102 C 
ATOM     27  C   UNL A   1      33.382  18.157  23.860  1.00  0.00     0.017 C 
ATOM     28  C   UNL A   1      32.300  19.795  22.352  1.00  0.00     0.017 C 
ATOM     29  C   UNL A   1      32.260  18.364  22.860  1.00  0.00     0.003 C 
ENDBRANCH  21  24
ENDBRANCH  18  21
ENDBRANCH  12  14
ENDBRANCH   7  12
ENDBRANCH   3   6
ENDBRANCH   1   2
BRANCH   1  30
ATOM     30  C   UNL A   1      32.548  30.486  27.406  1.00  0.00     0.042 C 
BRANCH  30  31
ATOM     31  C   UNL A   1      34.042  30.504  27.202  1.00  0.00     0.118 C 
BRANCH  31  32
ATOM     32  N   UNL A   1      34.721  31.505  28.000  1.00  0.00    -0.352 N 
ATOM     33  C   UNL A   1      35.783  31.334  28.871  1.00  0.00     0.251 C 
ATOM     34  H   UNL A   1      34.385  32.426  27.910  1.00  0.00     0.163 HD
ATOM     35  O   UNL A   1      36.066  32.233  29.655  1.00  0.00    -0.269 OA
BRANCH  33  36
ATOM     36  C   UNL A   1      36.647  30.135  28.718  1.00  0.00     0.039 A 
ATOM     37  C   UNL A   1      36.931  29.426  29.889  1.00  0.00     0.014 A 
ATOM     38  C   UNL A   1      37.436  29.965  27.587  1.00  0.00     0.014 A 
ATOM     39  C   UNL A   1      38.172  28.825  30.026  1.00  0.00     0.010 A 
ATOM     40  C   UNL A   1      38.713  29.501  27.758  1.00  0.00     0.010 A 
ATOM     41  C   UNL A   1      39.093  29.002  29.003  1.00  0.00    -0.014 A 
BRANCH  41  42
ATOM     42  C   UNL A   1      40.464  28.563  29.050  1.00  0.00     0.031 A 
ATOM     43  C   UNL A   1      40.710  27.143  28.789  1.00  0.00     0.074 A 
ATOM     44  C   UNL A   1      41.431  29.501  29.109  1.00  0.00     0.049 A 
ATOM     45  N   UNL A   1      41.802  26.536  29.069  1.00  0.00    -0.248 NA
ATOM     46  C   UNL A   1      39.687  26.271  28.217  1.00  0.00     0.031 C 
ATOM     47  C   UNL A   1      42.832  29.390  28.737  1.00  0.00     0.029 A 
ATOM     48  N   UNL A   1      41.340  30.772  29.653  1.00  0.00    -0.354 N 
ATOM     49  C   UNL A   1      41.746  25.301  28.458  1.00  0.00     0.074 A 
ATOM     50  C   UNL A   1      40.373  25.138  28.058  1.00  0.00     0.031 C 
ATOM     51  C   UNL A   1      43.509  30.432  29.258  1.00  0.00     0.029 A 
ATOM     52  C   UNL A   1      42.596  31.143  30.140  1.00  0.00     0.049 A 
ATOM     53  H   UNL A   1      40.525  31.322  29.690  1.00  0.00     0.167 HD
ATOM     54  C   UNL A   1      42.921  24.658  28.218  1.00  0.00     0.034 A 
ATOM     55  C   UNL A   1      42.774  31.293  31.492  1.00  0.00     0.034 A 
ATOM     56  C   UNL A   1      44.032  25.446  28.784  1.00  0.00     0.049 A 
ATOM     57  C   UNL A   1      43.664  30.209  32.086  1.00  0.00     0.074 A 
ATOM     58  C   UNL A   1      44.880  26.391  28.228  1.00  0.00     0.029 A 
ATOM     59  N   UNL A   1      44.122  25.601  30.162  1.00  0.00    -0.354 N 
ATOM     60  N   UNL A   1      44.015  29.123  31.450  1.00  0.00    -0.248 NA
ATOM     61  C   UNL A   1      44.251  30.270  33.422  1.00  0.00     0.031 C 
ATOM     62  C   UNL A   1      45.408  27.181  29.288  1.00  0.00     0.029 A 
ATOM     63  C   UNL A   1      44.913  26.694  30.487  1.00  0.00     0.049 A 
ATOM     64  H   UNL A   1      43.684  25.013  30.820  1.00  0.00     0.167 HD
ATOM     65  C   UNL A   1      44.760  28.313  32.263  1.00  0.00     0.074 A 
ATOM     66  C   UNL A   1      44.935  29.111  33.467  1.00  0.00     0.031 C 
ATOM     67  C   UNL A   1      45.132  27.049  31.888  1.00  0.00     0.034 A 
BRANCH  54  68
ATOM     68  C   UNL A   1      43.139  23.515  27.240  1.00  0.00     0.023 A 
ATOM     69  C   UNL A   1      43.925  23.805  26.101  1.00  0.00     0.012 A 
ATOM     70  C   UNL A   1      42.612  22.201  27.301  1.00  0.00     0.148 A 
ATOM     71  C   UNL A   1      44.115  22.895  25.058  1.00  0.00     0.002 A 
ATOM     72  C   UNL A   1      42.775  21.296  26.246  1.00  0.00     0.091 A 
ATOM     73  F   UNL A   1      41.988  21.780  28.400  1.00  0.00    -0.205 F 
ATOM     74  C   UNL A   1      43.524  21.643  25.119  1.00  0.00     0.022 A 
BRANCH  72  75
ATOM     75  S   UNL A   1      42.026  19.654  26.234  1.00  0.00     0.127 S 
ATOM     76  O   UNL A   1      42.439  19.119  27.534  1.00  0.00    -0.237 OA
ATOM     77  O   UNL A   1      40.600  19.960  26.131  1.00  0.00    -0.237 OA
ATOM     78  O   UNL A   1      42.594  18.948  25.092  1.00  0.00    -0.744 OA
ENDBRANCH  72  75
ENDBRANCH  54  68
BRANCH  55  79
ATOM     79  C   UNL A   1      41.558  31.896  32.142  1.00  0.00     0.023 A 
ATOM     80  C   UNL A   1      41.117  33.135  31.603  1.00  0.00     0.012 A 
ATOM     81  C   UNL A   1      40.637  31.109  32.853  1.00  0.00     0.148 A 
ATOM     82  C   UNL A   1      39.758  33.449  31.552  1.00  0.00     0.002 A 
ATOM     83  C   UNL A   1      39.285  31.453  32.834  1.00  0.00     0.091 A 
ATOM     84  F   UNL A   1      41.076  30.015  33.490  1.00  0.00    -0.205 F 
ATOM     85  C   UNL A   1      38.836  32.578  32.121  1.00  0.00     0.022 A 
BRANCH  83  86
ATOM     86  S   UNL A   1      38.060  30.421  33.651  1.00  0.00     0.127 S 
ATOM     87  O   UNL A   1      38.240  30.803  35.048  1.00  0.00    -0.237 OA
ATOM     88  O   UNL A   1      36.802  30.875  33.059  1.00  0.00    -0.237 OA
ATOM     89  O   UNL A   1      38.431  29.058  33.301  1.00  0.00    -0.744 OA
ENDBRANCH  83  86
ENDBRANCH  55  79
BRANCH  67  90
ATOM     90  C   UNL A   1      45.738  25.997  32.803  1.00  0.00     0.023 A 
ATOM     91  C   UNL A   1      47.127  25.830  32.949  1.00  0.00     0.012 A 
ATOM     92  C   UNL A   1      44.914  25.244  33.683  1.00  0.00     0.148 A 
ATOM     93  C   UNL A   1      47.670  24.926  33.868  1.00  0.00     0.002 A 
ATOM     94  C   UNL A   1      45.462  24.459  34.690  1.00  0.00     0.091 A 
ATOM     95  F   UNL A   1      43.581  25.263  33.539  1.00  0.00    -0.205 F 
ATOM     96  C   UNL A   1      46.841  24.262  34.760  1.00  0.00     0.022 A 
BRANCH  94  97
ATOM     97  S   UNL A   1      44.445  23.828  36.032  1.00  0.00     0.127 S 
ATOM     98  O   UNL A   1      43.491  22.984  35.319  1.00  0.00    -0.237 OA
ATOM     99  O   UNL A   1      45.421  23.096  36.843  1.00  0.00    -0.237 OA
ATOM    100  O   UNL A   1      43.896  25.009  36.685  1.00  0.00    -0.744 OA
ENDBRANCH  94  97
ENDBRANCH  67  90
ENDBRANCH  41  42
ENDBRANCH  33  36
ENDBRANCH  31  32
ENDBRANCH  30  31
ENDBRANCH   1  30
TORSDOF 17
ENDMDL
MODEL 2
REMARK VINA RESULT:     -13.2      1.804      2.276
REMARK SMILES Cc1ccc(C(=O)N2CCCC[C@@H]2C(=O)NCCCNC(=O)c2ccc(-c3c4nc(c(-c5cccc(S(=O)(=O)[O-])c5F)c5ccc([nH]5)c(-c5cccc(S(=O)(=O)[O-])c5F)c5nc(c(-c6cccc(S(=O)(=O)[O-])c6F)c6ccc3[nH]6)C=C5)C=C4)cc2)cc1S(=O)(=O)N1CCCCC1
REMARK SMILES IDX 17 1 16 2 14 3 15 4 13 6 8 7 9 8 10 9 12 10 11 11 6 12 7 13
REMARK SMILES IDX 5 14 1 15 2 16 3 17 87 18 4 19 86 20 88 21 89 22 90 23 91 24
REMARK SMILES IDX 92 25 96 26 93 27 95 28 94 29 18 30 19 31 20 32 21 33 22 35
REMARK SMILES IDX 23 36 24 37 85 38 25 39 84 40 26 41 27 42 28 43 78 44 29 45
REMARK SMILES IDX 83 46 77 47 79 48 30 49 82 50 76 51 75 52 31 54 63 55 43 56
REMARK SMILES IDX 62 57 44 58 47 59 61 60 80 61 45 62 46 63 60 65 81 66 48 67
REMARK SMILES IDX 32 68 33 69 41 70 34 71 36 72 42 73 35 74 37 75 38 76 39 77
REMARK SMILES IDX 40 78 64 79 65 80 73 81 66 82 68 83 74 84 67 85 69 86 70 87
REMARK SMILES IDX 71 88 72 89 49 90 50 91 58 92 51 93 53 94 59 95 52 96 54 97
REMARK SMILES IDX 55 98 56 99 57 100
REMARK H PARENT 16 5 20 34 79 53 47 64
REMARK Flexibility Score: inf
ROOT
ATOM      1  C   UNL A   1      32.291  30.526  26.828  1.00  0.00     0.117 C 
ENDROOT
BRANCH   1   2
ATOM      2  N   UNL A   1      32.830  30.208  25.513  1.00  0.00    -0.354 N 
ATOM      3  C   UNL A   1      32.356  29.376  24.540  1.00  0.00     0.242 C 
ATOM      4  O   UNL A   1      33.105  29.122  23.592  1.00  0.00    -0.273 OA
ATOM      5  H   UNL A   1      33.673  30.666  25.291  1.00  0.00     0.163 HD
BRANCH   3   6
ATOM      6  C   UNL A   1      30.988  28.655  24.667  1.00  0.00     0.174 C 
ATOM      7  N   UNL A   1      31.081  27.185  24.864  1.00  0.00    -0.327 N 
ATOM      8  C   UNL A   1      29.908  26.384  24.538  1.00  0.00     0.120 C 
ATOM      9  C   UNL A   1      29.329  26.714  23.180  1.00  0.00     0.022 C 
ATOM     10  C   UNL A   1      30.181  29.046  23.405  1.00  0.00     0.035 C 
ATOM     11  C   UNL A   1      28.960  28.186  23.126  1.00  0.00     0.004 C 
BRANCH   7  12
ATOM     12  C   UNL A   1      32.041  26.527  25.643  1.00  0.00     0.254 C 
ATOM     13  O   UNL A   1      32.070  26.624  26.871  1.00  0.00    -0.269 OA
BRANCH  12  14
ATOM     14  C   UNL A   1      33.097  25.708  25.019  1.00  0.00     0.041 A 
ATOM     15  C   UNL A   1      35.630  23.017  22.824  1.00  0.00     0.046 C 
ATOM     16  C   UNL A   1      34.831  23.893  23.731  1.00  0.00    -0.031 A 
ATOM     17  C   UNL A   1      34.277  25.010  23.055  1.00  0.00     0.005 A 
ATOM     18  C   UNL A   1      34.537  23.724  25.097  1.00  0.00     0.086 A 
ATOM     19  C   UNL A   1      33.419  25.907  23.684  1.00  0.00     0.014 A 
ATOM     20  C   UNL A   1      33.642  24.628  25.709  1.00  0.00     0.035 A 
BRANCH  18  21
ATOM     21  S   UNL A   1      35.081  22.491  26.288  1.00  0.00     0.243 S 
ATOM     22  O   UNL A   1      36.533  22.519  26.247  1.00  0.00    -0.207 OA
ATOM     23  O   UNL A   1      34.386  22.820  27.515  1.00  0.00    -0.207 OA
BRANCH  21  24
ATOM     24  N   UNL A   1      34.598  20.929  25.864  1.00  0.00    -0.198 NA
ATOM     25  C   UNL A   1      33.144  20.702  25.798  1.00  0.00     0.102 C 
ATOM     26  C   UNL A   1      35.570  20.126  25.091  1.00  0.00     0.102 C 
ATOM     27  C   UNL A   1      32.748  19.299  25.373  1.00  0.00     0.017 C 
ATOM     28  C   UNL A   1      35.055  18.763  24.655  1.00  0.00     0.017 C 
ATOM     29  C   UNL A   1      33.596  18.765  24.235  1.00  0.00     0.003 C 
ENDBRANCH  21  24
ENDBRANCH  18  21
ENDBRANCH  12  14
ENDBRANCH   7  12
ENDBRANCH   3   6
ENDBRANCH   1   2
BRANCH   1  30
ATOM     30  C   UNL A   1      33.389  30.837  27.824  1.00  0.00     0.042 C 
BRANCH  30  31
ATOM     31  C   UNL A   1      34.767  30.589  27.264  1.00  0.00     0.118 C 
BRANCH  31  32
ATOM     32  N   UNL A   1      35.746  31.571  27.684  1.00  0.00    -0.352 N 
ATOM     33  C   UNL A   1      36.953  31.361  28.329  1.00  0.00     0.251 C 
ATOM     34  H   UNL A   1      35.525  32.510  27.485  1.00  0.00     0.163 HD
ATOM     35  O   UNL A   1      37.534  32.312  28.838  1.00  0.00    -0.269 OA
BRANCH  33  36
ATOM     36  C   UNL A   1      37.585  30.020  28.240  1.00  0.00     0.039 A 
ATOM     37  C   UNL A   1      37.545  29.241  29.400  1.00  0.00     0.014 A 
ATOM     38  C   UNL A   1      38.493  29.725  27.230  1.00  0.00     0.014 A 
ATOM     39  C   UNL A   1      38.612  28.405  29.686  1.00  0.00     0.010 A 
ATOM     40  C   UNL A   1      39.617  29.015  27.562  1.00  0.00     0.010 A 
ATOM     41  C   UNL A   1      39.696  28.422  28.821  1.00  0.00    -0.014 A 
BRANCH  41  42
ATOM     42  C   UNL A   1      40.935  27.721  29.046  1.00  0.00     0.031 A 
ATOM     43  C   UNL A   1      40.942  26.286  28.750  1.00  0.00     0.074 A 
ATOM     44  C   UNL A   1      42.042  28.449  29.295  1.00  0.00     0.049 A 
ATOM     45  N   UNL A   1      41.842  25.470  29.156  1.00  0.00    -0.248 NA
ATOM     46  C   UNL A   1      39.872  25.645  27.989  1.00  0.00     0.031 C 
ATOM     47  C   UNL A   1      43.437  28.073  29.127  1.00  0.00     0.029 A 
ATOM     48  N   UNL A   1      42.113  29.700  29.885  1.00  0.00    -0.354 N 
ATOM     49  C   UNL A   1      41.646  24.284  28.480  1.00  0.00     0.074 A 
ATOM     50  C   UNL A   1      40.346  24.403  27.874  1.00  0.00     0.031 C 
ATOM     51  C   UNL A   1      44.211  28.950  29.796  1.00  0.00     0.029 A 
ATOM     52  C   UNL A   1      43.326  29.806  30.570  1.00  0.00     0.049 A 
ATOM     53  H   UNL A   1      41.421  30.399  29.831  1.00  0.00     0.167 HD
ATOM     54  C   UNL A   1      42.700  23.429  28.382  1.00  0.00     0.034 A 
ATOM     55  C   UNL A   1      43.319  29.888  31.939  1.00  0.00     0.034 A 
ATOM     56  C   UNL A   1      43.839  23.970  29.144  1.00  0.00     0.049 A 
ATOM     57  C   UNL A   1      43.883  28.636  32.600  1.00  0.00     0.074 A 
ATOM     58  C   UNL A   1      44.928  24.742  28.769  1.00  0.00     0.029 A 
ATOM     59  N   UNL A   1      43.744  24.073  30.527  1.00  0.00    -0.354 N 
ATOM     60  N   UNL A   1      44.114  27.518  31.967  1.00  0.00    -0.248 NA
ATOM     61  C   UNL A   1      44.258  28.551  34.009  1.00  0.00     0.031 C 
ATOM     62  C   UNL A   1      45.427  25.389  29.935  1.00  0.00     0.029 A 
ATOM     63  C   UNL A   1      44.669  24.981  31.021  1.00  0.00     0.049 A 
ATOM     64  H   UNL A   1      43.106  23.568  31.082  1.00  0.00     0.167 HD
ATOM     65  C   UNL A   1      44.557  26.559  32.837  1.00  0.00     0.074 A 
ATOM     66  C   UNL A   1      44.693  27.279  34.094  1.00  0.00     0.031 C 
ATOM     67  C   UNL A   1      44.734  25.255  32.455  1.00  0.00     0.034 A 
BRANCH  54  68
ATOM     68  C   UNL A   1      42.843  22.287  27.388  1.00  0.00     0.023 A 
ATOM     69  C   UNL A   1      42.044  21.144  27.627  1.00  0.00     0.012 A 
ATOM     70  C   UNL A   1      43.713  22.203  26.273  1.00  0.00     0.148 A 
ATOM     71  C   UNL A   1      42.150  19.973  26.872  1.00  0.00     0.002 A 
ATOM     72  C   UNL A   1      43.843  21.022  25.532  1.00  0.00     0.091 A 
ATOM     73  F   UNL A   1      44.393  23.276  25.872  1.00  0.00    -0.205 F 
ATOM     74  C   UNL A   1      43.065  19.902  25.834  1.00  0.00     0.022 A 
BRANCH  72  75
ATOM     75  S   UNL A   1      45.021  20.837  24.177  1.00  0.00     0.127 S 
ATOM     76  O   UNL A   1      44.745  19.475  23.715  1.00  0.00    -0.237 OA
ATOM     77  O   UNL A   1      44.601  21.888  23.250  1.00  0.00    -0.237 OA
ATOM     78  O   UNL A   1      46.348  21.014  24.755  1.00  0.00    -0.744 OA
ENDBRANCH  72  75
ENDBRANCH  54  68
BRANCH  55  79
ATOM     79  C   UNL A   1      42.155  30.703  32.434  1.00  0.00     0.023 A 
ATOM     80  C   UNL A   1      42.026  32.003  31.874  1.00  0.00     0.012 A 
ATOM     81  C   UNL A   1      41.017  30.098  32.993  1.00  0.00     0.148 A 
ATOM     82  C   UNL A   1      40.766  32.561  31.647  1.00  0.00     0.002 A 
ATOM     83  C   UNL A   1      39.766  30.685  32.800  1.00  0.00     0.091 A 
ATOM     84  F   UNL A   1      41.158  28.942  33.654  1.00  0.00    -0.205 F 
ATOM     85  C   UNL A   1      39.632  31.874  32.063  1.00  0.00     0.022 A 
BRANCH  83  86
ATOM     86  S   UNL A   1      38.273  29.895  33.416  1.00  0.00     0.127 S 
ATOM     87  O   UNL A   1      38.498  28.504  33.034  1.00  0.00    -0.237 OA
ATOM     88  O   UNL A   1      38.342  30.142  34.856  1.00  0.00    -0.237 OA
ATOM     89  O   UNL A   1      37.183  30.582  32.741  1.00  0.00    -0.744 OA
ENDBRANCH  83  86
ENDBRANCH  55  79
BRANCH  67  90
ATOM     90  C   UNL A   1      44.980  24.085  33.393  1.00  0.00     0.023 A 
ATOM     91  C   UNL A   1      44.023  23.078  33.616  1.00  0.00     0.012 A 
ATOM     92  C   UNL A   1      46.266  23.871  33.960  1.00  0.00     0.148 A 
ATOM     93  C   UNL A   1      44.299  21.956  34.405  1.00  0.00     0.002 A 
ATOM     94  C   UNL A   1      46.577  22.688  34.619  1.00  0.00     0.091 A 
ATOM     95  F   UNL A   1      47.201  24.829  33.887  1.00  0.00    -0.205 F 
ATOM     96  C   UNL A   1      45.585  21.744  34.882  1.00  0.00     0.022 A 
BRANCH  94  97
ATOM     97  S   UNL A   1      48.282  22.251  34.986  1.00  0.00     0.127 S 
ATOM     98  O   UNL A   1      48.427  22.722  36.361  1.00  0.00    -0.237 OA
ATOM     99  O   UNL A   1      48.267  20.794  34.838  1.00  0.00    -0.237 OA
ATOM    100  O   UNL A   1      49.080  22.942  33.982  1.00  0.00    -0.744 OA
ENDBRANCH  94  97
ENDBRANCH  67  90
ENDBRANCH  41  42
ENDBRANCH  33  36
ENDBRANCH  31  32
ENDBRANCH  30  31
ENDBRANCH   1  30
TORSDOF 17
ENDMDL
MODEL 3
REMARK VINA RESULT:     -13.0      3.875      9.500
REMARK SMILES Cc1ccc(C(=O)N2CCCC[C@@H]2C(=O)NCCCNC(=O)c2ccc(-c3c4nc(c(-c5cccc(S(=O)(=O)[O-])c5F)c5ccc([nH]5)c(-c5cccc(S(=O)(=O)[O-])c5F)c5nc(c(-c6cccc(S(=O)(=O)[O-])c6F)c6ccc3[nH]6)C=C5)C=C4)cc2)cc1S(=O)(=O)N1CCCCC1
REMARK SMILES IDX 17 1 16 2 14 3 15 4 13 6 8 7 9 8 10 9 12 10 11 11 6 12 7 13
REMARK SMILES IDX 5 14 1 15 2 16 3 17 87 18 4 19 86 20 88 21 89 22 90 23 91 24
REMARK SMILES IDX 92 25 96 26 93 27 95 28 94 29 18 30 19 31 20 32 21 33 22 35
REMARK SMILES IDX 23 36 24 37 85 38 25 39 84 40 26 41 27 42 28 43 78 44 29 45
REMARK SMILES IDX 83 46 77 47 79 48 30 49 82 50 76 51 75 52 31 54 63 55 43 56
REMARK SMILES IDX 62 57 44 58 47 59 61 60 80 61 45 62 46 63 60 65 81 66 48 67
REMARK SMILES IDX 32 68 33 69 41 70 34 71 36 72 42 73 35 74 37 75 38 76 39 77
REMARK SMILES IDX 40 78 64 79 65 80 73 81 66 82 68 83 74 84 67 85 69 86 70 87
REMARK SMILES IDX 71 88 72 89 49 90 50 91 58 92 51 93 53 94 59 95 52 96 54 97
REMARK SMILES IDX 55 98 56 99 57 100
REMARK H PARENT 16 5 20 34 79 53 47 64
REMARK Flexibility Score: inf
ROOT
ATOM      1  C   UNL A   1      37.168  21.445  24.811  1.00  0.00     0.117 C 
ENDROOT
BRANCH   1   2
ATOM      2  N   UNL A   1      36.160  21.439  25.863  1.00  0.00    -0.354 N 
ATOM      3  C   UNL A   1      34.888  20.946  25.865  1.00  0.00     0.242 C 
ATOM      4  O   UNL A   1      34.160  21.246  26.817  1.00  0.00    -0.273 OA
ATOM      5  H   UNL A   1      36.442  21.862  26.706  1.00  0.00     0.163 HD
BRANCH   3   6
ATOM      6  C   UNL A   1      34.309  20.151  24.664  1.00  0.00     0.174 C 
ATOM      7  N   UNL A   1      32.825  20.161  24.574  1.00  0.00    -0.327 N 
ATOM      8  C   UNL A   1      32.188  19.107  23.795  1.00  0.00     0.120 C 
ATOM      9  C   UNL A   1      32.702  17.728  24.142  1.00  0.00     0.022 C 
ATOM     10  C   UNL A   1      34.898  18.724  24.772  1.00  0.00     0.035 C 
ATOM     11  C   UNL A   1      34.204  17.671  23.925  1.00  0.00     0.004 C 
BRANCH   7  12
ATOM     12  C   UNL A   1      32.000  21.255  24.866  1.00  0.00     0.254 C 
ATOM     13  O   UNL A   1      31.095  21.192  25.699  1.00  0.00    -0.269 OA
BRANCH  12  14
ATOM     14  C   UNL A   1      32.155  22.537  24.153  1.00  0.00     0.041 A 
ATOM     15  C   UNL A   1      33.321  26.163  22.161  1.00  0.00     0.046 C 
ATOM     16  C   UNL A   1      32.808  25.003  22.949  1.00  0.00    -0.031 A 
ATOM     17  C   UNL A   1      33.001  23.768  22.280  1.00  0.00     0.005 A 
ATOM     18  C   UNL A   1      32.229  24.987  24.232  1.00  0.00     0.086 A 
ATOM     19  C   UNL A   1      32.683  22.548  22.870  1.00  0.00     0.014 A 
ATOM     20  C   UNL A   1      31.941  23.739  24.824  1.00  0.00     0.035 A 
BRANCH  18  21
ATOM     21  S   UNL A   1      31.783  26.321  25.353  1.00  0.00     0.243 S 
ATOM     22  O   UNL A   1      31.085  25.688  26.458  1.00  0.00    -0.207 OA
ATOM     23  O   UNL A   1      33.017  27.039  25.593  1.00  0.00    -0.207 OA
BRANCH  21  24
ATOM     24  N   UNL A   1      30.714  27.422  24.650  1.00  0.00    -0.198 NA
ATOM     25  C   UNL A   1      31.254  28.769  24.392  1.00  0.00     0.102 C 
ATOM     26  C   UNL A   1      29.591  26.849  23.876  1.00  0.00     0.102 C 
ATOM     27  C   UNL A   1      30.278  29.718  23.721  1.00  0.00     0.017 C 
ATOM     28  C   UNL A   1      28.709  27.880  23.187  1.00  0.00     0.017 C 
ATOM     29  C   UNL A   1      29.477  29.058  22.615  1.00  0.00     0.003 C 
ENDBRANCH  21  24
ENDBRANCH  18  21
ENDBRANCH  12  14
ENDBRANCH   7  12
ENDBRANCH   3   6
ENDBRANCH   1   2
BRANCH   1  30
ATOM     30  C   UNL A   1      38.552  21.162  25.360  1.00  0.00     0.042 C 
BRANCH  30  31
ATOM     31  C   UNL A   1      39.015  22.215  26.336  1.00  0.00     0.118 C 
BRANCH  31  32
ATOM     32  N   UNL A   1      40.450  22.417  26.328  1.00  0.00    -0.352 N 
ATOM     33  C   UNL A   1      41.149  23.612  26.299  1.00  0.00     0.251 C 
ATOM     34  H   UNL A   1      40.998  21.600  26.347  1.00  0.00     0.163 HD
ATOM     35  O   UNL A   1      42.346  23.598  26.037  1.00  0.00    -0.269 OA
BRANCH  33  36
ATOM     36  C   UNL A   1      40.464  24.851  26.745  1.00  0.00     0.039 A 
ATOM     37  C   UNL A   1      40.851  26.033  26.108  1.00  0.00     0.014 A 
ATOM     38  C   UNL A   1      39.798  24.899  27.964  1.00  0.00     0.014 A 
ATOM     39  C   UNL A   1      40.875  27.213  26.835  1.00  0.00     0.010 A 
ATOM     40  C   UNL A   1      39.947  26.020  28.736  1.00  0.00     0.010 A 
ATOM     41  C   UNL A   1      40.554  27.147  28.184  1.00  0.00    -0.014 A 
BRANCH  41  42
ATOM     42  C   UNL A   1      40.663  28.249  29.106  1.00  0.00     0.031 A 
ATOM     43  C   UNL A   1      39.679  29.324  28.965  1.00  0.00     0.074 A 
ATOM     44  C   UNL A   1      41.501  28.120  30.155  1.00  0.00     0.049 A 
ATOM     45  N   UNL A   1      39.798  30.485  29.492  1.00  0.00    -0.248 NA
ATOM     46  C   UNL A   1      38.473  29.172  28.155  1.00  0.00     0.031 C 
ATOM     47  C   UNL A   1      41.490  28.834  31.422  1.00  0.00     0.029 A 
ATOM     48  N   UNL A   1      42.651  27.351  30.226  1.00  0.00    -0.354 N 
ATOM     49  C   UNL A   1      38.582  31.120  29.350  1.00  0.00     0.074 A 
ATOM     50  C   UNL A   1      37.845  30.321  28.407  1.00  0.00     0.031 C 
ATOM     51  C   UNL A   1      42.674  28.649  32.039  1.00  0.00     0.029 A 
ATOM     52  C   UNL A   1      43.550  27.968  31.100  1.00  0.00     0.049 A 
ATOM     53  H   UNL A   1      42.809  26.510  29.739  1.00  0.00     0.167 HD
ATOM     54  C   UNL A   1      38.302  32.150  30.194  1.00  0.00     0.034 A 
ATOM     55  C   UNL A   1      44.719  28.487  30.603  1.00  0.00     0.034 A 
ATOM     56  C   UNL A   1      39.474  32.410  31.051  1.00  0.00     0.049 A 
ATOM     57  C   UNL A   1      44.746  30.010  30.652  1.00  0.00     0.074 A 
ATOM     58  C   UNL A   1      39.815  31.969  32.320  1.00  0.00     0.029 A 
ATOM     59  N   UNL A   1      40.644  32.888  30.473  1.00  0.00    -0.354 N 
ATOM     60  N   UNL A   1      43.699  30.751  30.896  1.00  0.00    -0.248 NA
ATOM     61  C   UNL A   1      45.950  30.815  30.460  1.00  0.00     0.031 C 
ATOM     62  C   UNL A   1      41.226  32.099  32.462  1.00  0.00     0.029 A 
ATOM     63  C   UNL A   1      41.735  32.653  31.298  1.00  0.00     0.049 A 
ATOM     64  H   UNL A   1      40.693  33.334  29.596  1.00  0.00     0.167 HD
ATOM     65  C   UNL A   1      44.021  32.078  30.808  1.00  0.00     0.074 A 
ATOM     66  C   UNL A   1      45.461  32.062  30.599  1.00  0.00     0.031 C 
ATOM     67  C   UNL A   1      43.073  33.064  30.878  1.00  0.00     0.034 A 
BRANCH  54  68
ATOM     68  C   UNL A   1      36.925  32.725  30.487  1.00  0.00     0.023 A 
ATOM     69  C   UNL A   1      36.391  32.451  31.768  1.00  0.00     0.012 A 
ATOM     70  C   UNL A   1      36.085  33.465  29.618  1.00  0.00     0.148 A 
ATOM     71  C   UNL A   1      35.093  32.811  32.141  1.00  0.00     0.002 A 
ATOM     72  C   UNL A   1      34.774  33.801  29.977  1.00  0.00     0.091 A 
ATOM     73  F   UNL A   1      36.550  33.904  28.450  1.00  0.00    -0.205 F 
ATOM     74  C   UNL A   1      34.274  33.470  31.238  1.00  0.00     0.022 A 
BRANCH  72  75
ATOM     75  S   UNL A   1      33.635  34.642  28.859  1.00  0.00     0.127 S 
ATOM     76  O   UNL A   1      33.309  33.585  27.900  1.00  0.00    -0.237 OA
ATOM     77  O   UNL A   1      32.536  35.012  29.750  1.00  0.00    -0.237 OA
ATOM     78  O   UNL A   1      34.370  35.763  28.284  1.00  0.00    -0.744 OA
ENDBRANCH  72  75
ENDBRANCH  54  68
BRANCH  55  79
ATOM     79  C   UNL A   1      45.280  27.625  29.505  1.00  0.00     0.023 A 
ATOM     80  C   UNL A   1      45.526  26.268  29.846  1.00  0.00     0.012 A 
ATOM     81  C   UNL A   1      45.108  27.955  28.151  1.00  0.00     0.148 A 
ATOM     82  C   UNL A   1      45.347  25.251  28.906  1.00  0.00     0.002 A 
ATOM     83  C   UNL A   1      44.975  26.933  27.209  1.00  0.00     0.091 A 
ATOM     84  F   UNL A   1      45.025  29.246  27.804  1.00  0.00    -0.205 F 
ATOM     85  C   UNL A   1      45.018  25.584  27.598  1.00  0.00     0.022 A 
BRANCH  83  86
ATOM     86  S   UNL A   1      44.658  27.310  25.480  1.00  0.00     0.127 S 
ATOM     87  O   UNL A   1      45.969  27.776  25.036  1.00  0.00    -0.237 OA
ATOM     88  O   UNL A   1      44.261  26.015  24.930  1.00  0.00    -0.237 OA
ATOM     89  O   UNL A   1      43.595  28.303  25.505  1.00  0.00    -0.744 OA
ENDBRANCH  83  86
ENDBRANCH  55  79
BRANCH  67  90
ATOM     90  C   UNL A   1      43.297  34.531  30.548  1.00  0.00     0.023 A 
ATOM     91  C   UNL A   1      43.700  35.471  31.513  1.00  0.00     0.012 A 
ATOM     92  C   UNL A   1      43.270  34.980  29.199  1.00  0.00     0.148 A 
ATOM     93  C   UNL A   1      43.997  36.796  31.176  1.00  0.00     0.002 A 
ATOM     94  C   UNL A   1      43.705  36.254  28.854  1.00  0.00     0.091 A 
ATOM     95  F   UNL A   1      42.795  34.181  28.233  1.00  0.00    -0.205 F 
ATOM     96  C   UNL A   1      44.030  37.181  29.843  1.00  0.00     0.022 A 
BRANCH  94  97
ATOM     97  S   UNL A   1      44.041  36.686  27.141  1.00  0.00     0.127 S 
ATOM     98  O   UNL A   1      44.702  37.981  27.279  1.00  0.00    -0.237 OA
ATOM     99  O   UNL A   1      44.920  35.595  26.713  1.00  0.00    -0.237 OA
ATOM    100  O   UNL A   1      42.741  36.694  26.486  1.00  0.00    -0.744 OA
ENDBRANCH  94  97
ENDBRANCH  67  90
ENDBRANCH  41  42
ENDBRANCH  33  36
ENDBRANCH  31  32
ENDBRANCH  30  31
ENDBRANCH   1  30
TORSDOF 17
ENDMDL
