MODEL 1
REMARK VINA RESULT:     -13.9      0.000      0.000
REMARK SMILES Cc1ccccc1S(=O)(=O)Nc1ccc(N2CCOCC2)cc1C(=O)NCCCNC(=O)c1ccc(-c2c3nc(c(-c4cccc(S(=O)(=O)[O-])c4F)c4ccc([nH]4)c(-c4cccc(S(=O)(=O)[O-])c4F)c4nc(c(-c5cccc(S(=O)(=O)[O-])c5F)c5ccc2[nH]5)C=C4)C=C3)cc1
REMARK SMILES IDX 28 1 27 2 26 3 24 4 25 5 23 7 12 8 13 9 14 10 22 11 15 12
REMARK SMILES IDX 11 13 8 15 9 16 10 17 7 18 1 19 2 20 3 21 4 22 6 23 5 24
REMARK SMILES IDX 16 25 17 26 21 27 18 28 20 29 19 30 29 31 30 32 31 33 32 35
REMARK SMILES IDX 33 36 34 37 95 38 35 39 94 40 36 41 37 42 38 43 88 44 39 45
REMARK SMILES IDX 93 46 87 47 89 48 40 49 92 50 86 51 85 52 41 54 73 55 53 56
REMARK SMILES IDX 72 57 54 58 57 59 71 60 90 61 55 62 56 63 70 65 91 66 58 67
REMARK SMILES IDX 42 68 43 69 51 70 44 71 46 72 52 73 45 74 47 75 48 76 49 77
REMARK SMILES IDX 50 78 74 79 75 80 83 81 76 82 78 83 84 84 77 85 79 86 80 87
REMARK SMILES IDX 81 88 82 89 59 90 60 91 68 92 61 93 63 94 69 95 62 96 64 97
REMARK SMILES IDX 65 98 66 99 67 100
REMARK H PARENT 26 6 11 14 30 34 89 53 57 64
REMARK Flexibility Score: inf
ROOT
ATOM      1  C   UNL A   1      33.761  29.652  26.634  1.00  0.00     0.042 C 
ENDROOT
BRANCH   1   2
ATOM      2  C   UNL A   1      32.926  29.755  25.383  1.00  0.00     0.118 C 
BRANCH   2   3
ATOM      3  N   UNL A   1      33.577  29.275  24.171  1.00  0.00    -0.352 N 
ATOM      4  C   UNL A   1      33.052  28.759  22.998  1.00  0.00     0.253 C 
ATOM      5  O   UNL A   1      33.788  28.536  22.052  1.00  0.00    -0.269 OA
ATOM      6  H   UNL A   1      34.559  29.327  24.188  1.00  0.00     0.163 HD
BRANCH   4   7
ATOM      7  C   UNL A   1      31.599  28.447  22.911  1.00  0.00     0.066 A 
ATOM      8  C   UNL A   1      31.076  27.279  23.474  1.00  0.00     0.062 A 
ATOM      9  C   UNL A   1      29.693  27.125  23.505  1.00  0.00     0.030 A 
ATOM     10  C   UNL A   1      28.864  28.213  23.175  1.00  0.00     0.028 A 
ATOM     11  C   UNL A   1      30.737  29.408  22.368  1.00  0.00     0.042 A 
ATOM     12  C   UNL A   1      29.380  29.421  22.683  1.00  0.00     0.038 A 
BRANCH   8  13
ATOM     13  N   UNL A   1      31.925  26.244  23.943  1.00  0.00    -0.279 N 
ATOM     14  H   UNL A   1      32.638  25.926  23.345  1.00  0.00     0.180 HD
BRANCH  13  15
ATOM     15  S   UNL A   1      31.787  25.531  25.450  1.00  0.00     0.262 S 
ATOM     16  O   UNL A   1      30.634  24.671  25.354  1.00  0.00    -0.201 OA
ATOM     17  O   UNL A   1      31.782  26.590  26.451  1.00  0.00    -0.201 OA
BRANCH  15  18
ATOM     18  C   UNL A   1      33.236  24.502  25.700  1.00  0.00     0.090 A 
ATOM     19  C   UNL A   1      31.913  22.330  26.209  1.00  0.00     0.046 C 
ATOM     20  C   UNL A   1      33.160  23.108  25.911  1.00  0.00    -0.031 A 
ATOM     21  C   UNL A   1      34.353  22.357  25.904  1.00  0.00     0.005 A 
ATOM     22  C   UNL A   1      35.590  22.953  25.669  1.00  0.00     0.000 A 
ATOM     23  C   UNL A   1      34.494  25.097  25.475  1.00  0.00     0.022 A 
ATOM     24  C   UNL A   1      35.661  24.324  25.457  1.00  0.00     0.001 A 
ENDBRANCH  15  18
ENDBRANCH  13  15
ENDBRANCH   8  13
BRANCH  12  25
ATOM     25  N   UNL A   1      28.636  30.583  22.616  1.00  0.00    -0.367 N 
ATOM     26  C   UNL A   1      27.779  30.965  21.473  1.00  0.00     0.145 C 
ATOM     27  C   UNL A   1      28.762  31.635  23.650  1.00  0.00     0.145 C 
ATOM     28  C   UNL A   1      28.142  32.365  20.949  1.00  0.00     0.181 C 
ATOM     29  C   UNL A   1      29.014  33.022  23.022  1.00  0.00     0.181 C 
ATOM     30  O   UNL A   1      28.060  33.339  22.000  1.00  0.00    -0.378 OA
ENDBRANCH  12  25
ENDBRANCH   4   7
ENDBRANCH   2   3
ENDBRANCH   1   2
BRANCH   1  31
ATOM     31  C   UNL A   1      33.433  30.718  27.653  1.00  0.00     0.118 C 
BRANCH  31  32
ATOM     32  N   UNL A   1      34.506  31.712  27.705  1.00  0.00    -0.352 N 
ATOM     33  C   UNL A   1      35.805  31.641  28.171  1.00  0.00     0.251 C 
ATOM     34  H   UNL A   1      34.257  32.594  27.344  1.00  0.00     0.163 HD
ATOM     35  O   UNL A   1      36.482  32.663  28.219  1.00  0.00    -0.269 OA
BRANCH  33  36
ATOM     36  C   UNL A   1      36.401  30.309  28.413  1.00  0.00     0.039 A 
ATOM     37  C   UNL A   1      36.760  30.051  29.740  1.00  0.00     0.014 A 
ATOM     38  C   UNL A   1      37.028  29.651  27.366  1.00  0.00     0.014 A 
ATOM     39  C   UNL A   1      37.975  29.432  29.995  1.00  0.00     0.010 A 
ATOM     40  C   UNL A   1      38.295  29.172  27.606  1.00  0.00     0.010 A 
ATOM     41  C   UNL A   1      38.798  29.146  28.914  1.00  0.00    -0.014 A 
BRANCH  41  42
ATOM     42  C   UNL A   1      40.194  28.769  29.016  1.00  0.00     0.031 A 
ATOM     43  C   UNL A   1      40.523  27.337  28.855  1.00  0.00     0.074 A 
ATOM     44  C   UNL A   1      41.167  29.711  29.056  1.00  0.00     0.049 A 
ATOM     45  N   UNL A   1      41.696  26.843  29.038  1.00  0.00    -0.248 NA
ATOM     46  C   UNL A   1      39.524  26.331  28.504  1.00  0.00     0.031 C 
ATOM     47  C   UNL A   1      42.580  29.508  28.732  1.00  0.00     0.029 A 
ATOM     48  N   UNL A   1      41.146  31.019  29.554  1.00  0.00    -0.354 N 
ATOM     49  C   UNL A   1      41.684  25.552  28.564  1.00  0.00     0.074 A 
ATOM     50  C   UNL A   1      40.291  25.248  28.358  1.00  0.00     0.031 C 
ATOM     51  C   UNL A   1      43.302  30.480  29.308  1.00  0.00     0.029 A 
ATOM     52  C   UNL A   1      42.397  31.194  30.185  1.00  0.00     0.049 A 
ATOM     53  H   UNL A   1      40.415  31.676  29.481  1.00  0.00     0.167 HD
ATOM     54  C   UNL A   1      42.880  24.965  28.286  1.00  0.00     0.034 A 
ATOM     55  C   UNL A   1      42.572  31.325  31.539  1.00  0.00     0.034 A 
ATOM     56  C   UNL A   1      43.990  25.776  28.819  1.00  0.00     0.049 A 
ATOM     57  C   UNL A   1      43.509  30.284  32.158  1.00  0.00     0.074 A 
ATOM     58  C   UNL A   1      44.925  26.643  28.281  1.00  0.00     0.029 A 
ATOM     59  N   UNL A   1      44.064  25.942  30.190  1.00  0.00    -0.354 N 
ATOM     60  N   UNL A   1      44.093  29.323  31.493  1.00  0.00    -0.248 NA
ATOM     61  C   UNL A   1      43.792  30.191  33.594  1.00  0.00     0.031 C 
ATOM     62  C   UNL A   1      45.540  27.353  29.360  1.00  0.00     0.029 A 
ATOM     63  C   UNL A   1      45.000  26.893  30.548  1.00  0.00     0.049 A 
ATOM     64  H   UNL A   1      43.515  25.441  30.836  1.00  0.00     0.167 HD
ATOM     65  C   UNL A   1      44.652  28.423  32.365  1.00  0.00     0.074 A 
ATOM     66  C   UNL A   1      44.479  29.038  33.670  1.00  0.00     0.031 C 
ATOM     67  C   UNL A   1      45.151  27.212  31.963  1.00  0.00     0.034 A 
BRANCH  54  68
ATOM     68  C   UNL A   1      43.111  23.763  27.384  1.00  0.00     0.023 A 
ATOM     69  C   UNL A   1      43.981  23.953  26.284  1.00  0.00     0.012 A 
ATOM     70  C   UNL A   1      42.482  22.497  27.451  1.00  0.00     0.148 A 
ATOM     71  C   UNL A   1      44.160  22.989  25.285  1.00  0.00     0.002 A 
ATOM     72  C   UNL A   1      42.656  21.531  26.456  1.00  0.00     0.091 A 
ATOM     73  F   UNL A   1      41.689  22.190  28.472  1.00  0.00    -0.205 F 
ATOM     74  C   UNL A   1      43.486  21.780  25.363  1.00  0.00     0.022 A 
BRANCH  72  75
ATOM     75  S   UNL A   1      41.795  19.945  26.482  1.00  0.00     0.127 S 
ATOM     76  O   UNL A   1      40.393  20.361  26.414  1.00  0.00    -0.237 OA
ATOM     77  O   UNL A   1      42.296  19.296  25.272  1.00  0.00    -0.237 OA
ATOM     78  O   UNL A   1      42.169  19.286  27.727  1.00  0.00    -0.744 OA
ENDBRANCH  72  75
ENDBRANCH  54  68
BRANCH  55  79
ATOM     79  C   UNL A   1      41.397  31.932  32.231  1.00  0.00     0.023 A 
ATOM     80  C   UNL A   1      41.035  33.246  31.851  1.00  0.00     0.012 A 
ATOM     81  C   UNL A   1      40.457  31.138  32.910  1.00  0.00     0.148 A 
ATOM     82  C   UNL A   1      39.719  33.689  31.979  1.00  0.00     0.002 A 
ATOM     83  C   UNL A   1      39.149  31.597  33.054  1.00  0.00     0.091 A 
ATOM     84  F   UNL A   1      40.828  29.928  33.347  1.00  0.00    -0.205 F 
ATOM     85  C   UNL A   1      38.767  32.846  32.542  1.00  0.00     0.022 A 
BRANCH  83  86
ATOM     86  S   UNL A   1      37.868  30.563  33.777  1.00  0.00     0.127 S 
ATOM     87  O   UNL A   1      38.056  30.818  35.201  1.00  0.00    -0.237 OA
ATOM     88  O   UNL A   1      36.648  31.131  33.204  1.00  0.00    -0.237 OA
ATOM     89  O   UNL A   1      38.171  29.217  33.312  1.00  0.00    -0.744 OA
ENDBRANCH  83  86
ENDBRANCH  55  79
BRANCH  67  90
ATOM     90  C   UNL A   1      45.812  26.207  32.892  1.00  0.00     0.023 A 
ATOM     91  C   UNL A   1      47.198  25.965  32.821  1.00  0.00     0.012 A 
ATOM     92  C   UNL A   1      45.063  25.366  33.759  1.00  0.00     0.148 A 
ATOM     93  C   UNL A   1      47.818  24.987  33.611  1.00  0.00     0.002 A 
ATOM     94  C   UNL A   1      45.668  24.335  34.471  1.00  0.00     0.091 A 
ATOM     95  F   UNL A   1      43.755  25.585  33.935  1.00  0.00    -0.205 F 
ATOM     96  C   UNL A   1      47.051  24.161  34.423  1.00  0.00     0.022 A 
BRANCH  94  97
ATOM     97  S   UNL A   1      44.722  23.116  35.402  1.00  0.00     0.127 S 
ATOM     98  O   UNL A   1      45.772  22.186  35.825  1.00  0.00    -0.237 OA
ATOM     99  O   UNL A   1      44.161  23.930  36.478  1.00  0.00    -0.237 OA
ATOM    100  O   UNL A   1      43.758  22.551  34.470  1.00  0.00    -0.744 OA
ENDBRANCH  94  97
ENDBRANCH  67  90
ENDBRANCH  41  42
ENDBRANCH  33  36
ENDBRANCH  31  32
ENDBRANCH   1  31
TORSDOF 17
ENDMDL
MODEL 2
REMARK VINA RESULT:     -13.9      1.821      2.435
REMARK SMILES Cc1ccccc1S(=O)(=O)Nc1ccc(N2CCOCC2)cc1C(=O)NCCCNC(=O)c1ccc(-c2c3nc(c(-c4cccc(S(=O)(=O)[O-])c4F)c4ccc([nH]4)c(-c4cccc(S(=O)(=O)[O-])c4F)c4nc(c(-c5cccc(S(=O)(=O)[O-])c5F)c5ccc2[nH]5)C=C4)C=C3)cc1
REMARK SMILES IDX 28 1 27 2 26 3 24 4 25 5 23 7 12 8 13 9 14 10 22 11 15 12
REMARK SMILES IDX 11 13 8 15 9 16 10 17 7 18 1 19 2 20 3 21 4 22 6 23 5 24
REMARK SMILES IDX 16 25 17 26 21 27 18 28 20 29 19 30 29 31 30 32 31 33 32 35
REMARK SMILES IDX 33 36 34 37 95 38 35 39 94 40 36 41 37 42 38 43 88 44 39 45
REMARK SMILES IDX 93 46 87 47 89 48 40 49 92 50 86 51 85 52 41 54 73 55 53 56
REMARK SMILES IDX 72 57 54 58 57 59 71 60 90 61 55 62 56 63 70 65 91 66 58 67
REMARK SMILES IDX 42 68 43 69 51 70 44 71 46 72 52 73 45 74 47 75 48 76 49 77
REMARK SMILES IDX 50 78 74 79 75 80 83 81 76 82 78 83 84 84 77 85 79 86 80 87
REMARK SMILES IDX 81 88 82 89 59 90 60 91 68 92 61 93 63 94 69 95 62 96 64 97
REMARK SMILES IDX 65 98 66 99 67 100
REMARK H PARENT 26 6 11 14 30 34 89 53 57 64
REMARK Flexibility Score: inf
ROOT
ATOM      1  C   UNL A   1      34.553  30.022  27.168  1.00  0.00     0.042 C 
ENDROOT
BRANCH   1   2
ATOM      2  C   UNL A   1      33.416  29.632  26.257  1.00  0.00     0.118 C 
BRANCH   2   3
ATOM      3  N   UNL A   1      32.475  28.676  26.828  1.00  0.00    -0.352 N 
ATOM      4  C   UNL A   1      31.517  27.873  26.231  1.00  0.00     0.253 C 
ATOM      5  O   UNL A   1      30.922  27.045  26.898  1.00  0.00    -0.269 OA
ATOM      6  H   UNL A   1      32.531  28.584  27.805  1.00  0.00     0.163 HD
BRANCH   4   7
ATOM      7  C   UNL A   1      31.197  28.052  24.788  1.00  0.00     0.066 A 
ATOM      8  C   UNL A   1      31.267  26.979  23.895  1.00  0.00     0.062 A 
ATOM      9  C   UNL A   1      30.798  27.170  22.598  1.00  0.00     0.030 A 
ATOM     10  C   UNL A   1      30.084  28.340  22.282  1.00  0.00     0.028 A 
ATOM     11  C   UNL A   1      30.696  29.287  24.359  1.00  0.00     0.042 A 
ATOM     12  C   UNL A   1      29.937  29.394  23.196  1.00  0.00     0.038 A 
BRANCH   8  13
ATOM     13  N   UNL A   1      31.859  25.746  24.270  1.00  0.00    -0.279 N 
ATOM     14  H   UNL A   1      31.304  25.097  24.758  1.00  0.00     0.180 HD
BRANCH  13  15
ATOM     15  S   UNL A   1      33.444  25.329  23.933  1.00  0.00     0.262 S 
ATOM     16  O   UNL A   1      34.222  25.926  24.990  1.00  0.00    -0.201 OA
ATOM     17  O   UNL A   1      33.729  25.715  22.557  1.00  0.00    -0.201 OA
BRANCH  15  18
ATOM     18  C   UNL A   1      33.580  23.545  24.076  1.00  0.00     0.090 A 
ATOM     19  C   UNL A   1      36.145  23.460  23.706  1.00  0.00     0.046 C 
ATOM     20  C   UNL A   1      34.818  22.866  24.074  1.00  0.00    -0.031 A 
ATOM     21  C   UNL A   1      34.836  21.491  24.384  1.00  0.00     0.005 A 
ATOM     22  C   UNL A   1      33.673  20.802  24.715  1.00  0.00     0.000 A 
ATOM     23  C   UNL A   1      32.406  22.834  24.402  1.00  0.00     0.022 A 
ATOM     24  C   UNL A   1      32.457  21.473  24.722  1.00  0.00     0.001 A 
ENDBRANCH  15  18
ENDBRANCH  13  15
ENDBRANCH   8  13
BRANCH  12  25
ATOM     25  N   UNL A   1      29.023  30.416  23.023  1.00  0.00    -0.367 N 
ATOM     26  C   UNL A   1      28.076  30.510  21.891  1.00  0.00     0.145 C 
ATOM     27  C   UNL A   1      29.028  31.605  23.903  1.00  0.00     0.145 C 
ATOM     28  C   UNL A   1      28.203  31.863  21.170  1.00  0.00     0.181 C 
ATOM     29  C   UNL A   1      29.042  32.916  23.088  1.00  0.00     0.181 C 
ATOM     30  O   UNL A   1      28.014  32.948  22.090  1.00  0.00    -0.378 OA
ENDBRANCH  12  25
ENDBRANCH   4   7
ENDBRANCH   2   3
ENDBRANCH   1   2
BRANCH   1  31
ATOM     31  C   UNL A   1      34.239  31.229  28.020  1.00  0.00     0.118 C 
BRANCH  31  32
ATOM     32  N   UNL A   1      35.449  32.024  28.233  1.00  0.00    -0.352 N 
ATOM     33  C   UNL A   1      36.751  31.661  28.518  1.00  0.00     0.251 C 
ATOM     34  H   UNL A   1      35.310  32.996  28.161  1.00  0.00     0.163 HD
ATOM     35  O   UNL A   1      37.575  32.532  28.777  1.00  0.00    -0.269 OA
BRANCH  33  36
ATOM     36  C   UNL A   1      37.157  30.253  28.313  1.00  0.00     0.039 A 
ATOM     37  C   UNL A   1      37.151  29.460  29.465  1.00  0.00     0.014 A 
ATOM     38  C   UNL A   1      37.969  29.937  27.235  1.00  0.00     0.014 A 
ATOM     39  C   UNL A   1      38.209  28.589  29.682  1.00  0.00     0.010 A 
ATOM     40  C   UNL A   1      39.093  29.190  27.505  1.00  0.00     0.010 A 
ATOM     41  C   UNL A   1      39.249  28.589  28.762  1.00  0.00    -0.014 A 
BRANCH  41  42
ATOM     42  C   UNL A   1      40.540  27.966  28.976  1.00  0.00     0.031 A 
ATOM     43  C   UNL A   1      40.634  26.506  28.753  1.00  0.00     0.074 A 
ATOM     44  C   UNL A   1      41.651  28.715  29.173  1.00  0.00     0.049 A 
ATOM     45  N   UNL A   1      41.676  25.803  29.017  1.00  0.00    -0.248 NA
ATOM     46  C   UNL A   1      39.520  25.713  28.239  1.00  0.00     0.031 C 
ATOM     47  C   UNL A   1      43.034  28.280  28.977  1.00  0.00     0.029 A 
ATOM     48  N   UNL A   1      41.802  29.981  29.753  1.00  0.00    -0.354 N 
ATOM     49  C   UNL A   1      41.494  24.559  28.459  1.00  0.00     0.074 A 
ATOM     50  C   UNL A   1      40.100  24.519  28.097  1.00  0.00     0.031 C 
ATOM     51  C   UNL A   1      43.847  29.078  29.684  1.00  0.00     0.029 A 
ATOM     52  C   UNL A   1      42.989  29.899  30.514  1.00  0.00     0.049 A 
ATOM     53  H   UNL A   1      41.207  30.760  29.652  1.00  0.00     0.167 HD
ATOM     54  C   UNL A   1      42.594  23.782  28.261  1.00  0.00     0.034 A 
ATOM     55  C   UNL A   1      43.035  29.931  31.885  1.00  0.00     0.034 A 
ATOM     56  C   UNL A   1      43.763  24.356  28.953  1.00  0.00     0.049 A 
ATOM     57  C   UNL A   1      43.707  28.711  32.522  1.00  0.00     0.074 A 
ATOM     58  C   UNL A   1      44.886  25.067  28.569  1.00  0.00     0.029 A 
ATOM     59  N   UNL A   1      43.715  24.440  30.333  1.00  0.00    -0.354 N 
ATOM     60  N   UNL A   1      44.184  27.695  31.855  1.00  0.00    -0.248 NA
ATOM     61  C   UNL A   1      43.811  28.500  33.970  1.00  0.00     0.031 C 
ATOM     62  C   UNL A   1      45.493  25.603  29.748  1.00  0.00     0.029 A 
ATOM     63  C   UNL A   1      44.756  25.190  30.844  1.00  0.00     0.049 A 
ATOM     64  H   UNL A   1      43.021  24.014  30.887  1.00  0.00     0.167 HD
ATOM     65  C   UNL A   1      44.483  26.668  32.715  1.00  0.00     0.074 A 
ATOM     66  C   UNL A   1      44.278  27.240  34.036  1.00  0.00     0.031 C 
ATOM     67  C   UNL A   1      44.806  25.409  32.285  1.00  0.00     0.034 A 
BRANCH  54  68
ATOM     68  C   UNL A   1      42.711  22.603  27.308  1.00  0.00     0.023 A 
ATOM     69  C   UNL A   1      41.919  21.469  27.604  1.00  0.00     0.012 A 
ATOM     70  C   UNL A   1      43.594  22.461  26.211  1.00  0.00     0.148 A 
ATOM     71  C   UNL A   1      42.043  20.258  26.911  1.00  0.00     0.002 A 
ATOM     72  C   UNL A   1      43.722  21.255  25.517  1.00  0.00     0.091 A 
ATOM     73  F   UNL A   1      44.343  23.483  25.810  1.00  0.00    -0.205 F 
ATOM     74  C   UNL A   1      42.956  20.146  25.874  1.00  0.00     0.022 A 
BRANCH  72  75
ATOM     75  S   UNL A   1      44.903  21.032  24.171  1.00  0.00     0.127 S 
ATOM     76  O   UNL A   1      44.536  22.121  23.263  1.00  0.00    -0.237 OA
ATOM     77  O   UNL A   1      46.187  21.211  24.847  1.00  0.00    -0.237 OA
ATOM     78  O   UNL A   1      44.678  19.696  23.632  1.00  0.00    -0.744 OA
ENDBRANCH  72  75
ENDBRANCH  54  68
BRANCH  55  79
ATOM     79  C   UNL A   1      41.914  30.704  32.496  1.00  0.00     0.023 A 
ATOM     80  C   UNL A   1      41.850  32.086  32.201  1.00  0.00     0.012 A 
ATOM     81  C   UNL A   1      40.767  30.061  32.993  1.00  0.00     0.148 A 
ATOM     82  C   UNL A   1      40.632  32.765  32.225  1.00  0.00     0.002 A 
ATOM     83  C   UNL A   1      39.559  30.752  33.034  1.00  0.00     0.091 A 
ATOM     84  F   UNL A   1      40.853  28.775  33.355  1.00  0.00    -0.205 F 
ATOM     85  C   UNL A   1      39.479  32.084  32.600  1.00  0.00     0.022 A 
BRANCH  83  86
ATOM     86  S   UNL A   1      38.030  29.937  33.514  1.00  0.00     0.127 S 
ATOM     87  O   UNL A   1      38.272  28.571  33.059  1.00  0.00    -0.237 OA
ATOM     88  O   UNL A   1      38.025  30.111  34.967  1.00  0.00    -0.237 OA
ATOM     89  O   UNL A   1      36.983  30.675  32.825  1.00  0.00    -0.744 OA
ENDBRANCH  83  86
ENDBRANCH  55  79
BRANCH  67  90
ATOM     90  C   UNL A   1      45.179  24.258  33.205  1.00  0.00     0.023 A 
ATOM     91  C   UNL A   1      44.207  23.330  33.627  1.00  0.00     0.012 A 
ATOM     92  C   UNL A   1      46.466  24.144  33.796  1.00  0.00     0.148 A 
ATOM     93  C   UNL A   1      44.508  22.308  34.538  1.00  0.00     0.002 A 
ATOM     94  C   UNL A   1      46.736  23.185  34.769  1.00  0.00     0.091 A 
ATOM     95  F   UNL A   1      47.460  24.941  33.389  1.00  0.00    -0.205 F 
ATOM     96  C   UNL A   1      45.767  22.246  35.121  1.00  0.00     0.022 A 
BRANCH  94  97
ATOM     97  S   UNL A   1      48.281  23.155  35.695  1.00  0.00     0.127 S 
ATOM     98  O   UNL A   1      48.008  22.114  36.690  1.00  0.00    -0.237 OA
ATOM     99  O   UNL A   1      49.241  22.772  34.662  1.00  0.00    -0.237 OA
ATOM    100  O   UNL A   1      48.449  24.489  36.250  1.00  0.00    -0.744 OA
ENDBRANCH  94  97
ENDBRANCH  67  90
ENDBRANCH  41  42
ENDBRANCH  33  36
ENDBRANCH  31  32
ENDBRANCH   1  31
TORSDOF 17
ENDMDL
MODEL 3
REMARK VINA RESULT:     -13.9      1.906      2.430
REMARK SMILES Cc1ccccc1S(=O)(=O)Nc1ccc(N2CCOCC2)cc1C(=O)NCCCNC(=O)c1ccc(-c2c3nc(c(-c4cccc(S(=O)(=O)[O-])c4F)c4ccc([nH]4)c(-c4cccc(S(=O)(=O)[O-])c4F)c4nc(c(-c5cccc(S(=O)(=O)[O-])c5F)c5ccc2[nH]5)C=C4)C=C3)cc1
REMARK SMILES IDX 28 1 27 2 26 3 24 4 25 5 23 7 12 8 13 9 14 10 22 11 15 12
REMARK SMILES IDX 11 13 8 15 9 16 10 17 7 18 1 19 2 20 3 21 4 22 6 23 5 24
REMARK SMILES IDX 16 25 17 26 21 27 18 28 20 29 19 30 29 31 30 32 31 33 32 35
REMARK SMILES IDX 33 36 34 37 95 38 35 39 94 40 36 41 37 42 38 43 88 44 39 45
REMARK SMILES IDX 93 46 87 47 89 48 40 49 92 50 86 51 85 52 41 54 73 55 53 56
REMARK SMILES IDX 72 57 54 58 57 59 71 60 90 61 55 62 56 63 70 65 91 66 58 67
REMARK SMILES IDX 42 68 43 69 51 70 44 71 46 72 52 73 45 74 47 75 48 76 49 77
REMARK SMILES IDX 50 78 74 79 75 80 83 81 76 82 78 83 84 84 77 85 79 86 80 87
REMARK SMILES IDX 81 88 82 89 59 90 60 91 68 92 61 93 63 94 69 95 62 96 64 97
REMARK SMILES IDX 65 98 66 99 67 100
REMARK H PARENT 26 6 11 14 30 34 89 53 57 64
REMARK Flexibility Score: inf
ROOT
ATOM      1  C   UNL A   1      34.005  30.128  26.400  1.00  0.00     0.042 C 
ENDROOT
BRANCH   1   2
ATOM      2  C   UNL A   1      33.952  28.629  26.551  1.00  0.00     0.118 C 
BRANCH   2   3
ATOM      3  N   UNL A   1      32.722  28.116  27.142  1.00  0.00    -0.352 N 
ATOM      4  C   UNL A   1      31.582  27.588  26.560  1.00  0.00     0.253 C 
ATOM      5  O   UNL A   1      30.715  27.098  27.262  1.00  0.00    -0.269 OA
ATOM      6  H   UNL A   1      32.698  28.150  28.125  1.00  0.00     0.163 HD
BRANCH   4   7
ATOM      7  C   UNL A   1      31.407  27.655  25.083  1.00  0.00     0.066 A 
ATOM      8  C   UNL A   1      31.350  26.492  24.309  1.00  0.00     0.062 A 
ATOM      9  C   UNL A   1      31.022  26.613  22.962  1.00  0.00     0.030 A 
ATOM     10  C   UNL A   1      30.554  27.844  22.467  1.00  0.00     0.028 A 
ATOM     11  C   UNL A   1      31.169  28.902  24.490  1.00  0.00     0.042 A 
ATOM     12  C   UNL A   1      30.531  29.004  23.256  1.00  0.00     0.038 A 
BRANCH   8  13
ATOM     13  N   UNL A   1      31.683  25.227  24.856  1.00  0.00    -0.279 N 
ATOM     14  H   UNL A   1      30.952  24.671  25.212  1.00  0.00     0.180 HD
BRANCH  13  15
ATOM     15  S   UNL A   1      33.240  24.621  24.934  1.00  0.00     0.262 S 
ATOM     16  O   UNL A   1      33.792  25.160  26.153  1.00  0.00    -0.201 OA
ATOM     17  O   UNL A   1      33.907  24.927  23.675  1.00  0.00    -0.201 OA
BRANCH  15  18
ATOM     18  C   UNL A   1      33.123  22.839  25.112  1.00  0.00     0.090 A 
ATOM     19  C   UNL A   1      32.223  22.410  22.718  1.00  0.00     0.046 C 
ATOM     20  C   UNL A   1      32.778  21.982  24.044  1.00  0.00    -0.031 A 
ATOM     21  C   UNL A   1      32.900  20.589  24.227  1.00  0.00     0.005 A 
ATOM     22  C   UNL A   1      33.375  20.049  25.419  1.00  0.00     0.000 A 
ATOM     23  C   UNL A   1      33.592  22.280  26.318  1.00  0.00     0.022 A 
ATOM     24  C   UNL A   1      33.719  20.894  26.466  1.00  0.00     0.001 A 
ENDBRANCH  15  18
ENDBRANCH  13  15
ENDBRANCH   8  13
BRANCH  12  25
ATOM     25  N   UNL A   1      29.831  30.141  22.899  1.00  0.00    -0.367 N 
ATOM     26  C   UNL A   1      29.208  31.076  23.860  1.00  0.00     0.145 C 
ATOM     27  C   UNL A   1      29.516  30.435  21.484  1.00  0.00     0.145 C 
ATOM     28  C   UNL A   1      27.716  31.283  23.546  1.00  0.00     0.181 C 
ATOM     29  C   UNL A   1      28.016  30.739  21.287  1.00  0.00     0.181 C 
ATOM     30  O   UNL A   1      27.539  31.739  22.196  1.00  0.00    -0.378 OA
ENDBRANCH  12  25
ENDBRANCH   4   7
ENDBRANCH   2   3
ENDBRANCH   1   2
BRANCH   1  31
ATOM     31  C   UNL A   1      33.834  30.860  27.710  1.00  0.00     0.118 C 
BRANCH  31  32
ATOM     32  N   UNL A   1      34.969  31.756  27.938  1.00  0.00    -0.352 N 
ATOM     33  C   UNL A   1      36.276  31.509  28.316  1.00  0.00     0.251 C 
ATOM     34  H   UNL A   1      34.765  32.709  27.797  1.00  0.00     0.163 HD
ATOM     35  O   UNL A   1      37.017  32.455  28.563  1.00  0.00    -0.269 OA
BRANCH  33  36
ATOM     36  C   UNL A   1      36.794  30.127  28.222  1.00  0.00     0.039 A 
ATOM     37  C   UNL A   1      36.795  29.411  29.424  1.00  0.00     0.014 A 
ATOM     38  C   UNL A   1      37.673  29.805  27.201  1.00  0.00     0.014 A 
ATOM     39  C   UNL A   1      37.905  28.641  29.741  1.00  0.00     0.010 A 
ATOM     40  C   UNL A   1      38.836  29.166  27.564  1.00  0.00     0.010 A 
ATOM     41  C   UNL A   1      38.981  28.661  28.865  1.00  0.00    -0.014 A 
BRANCH  41  42
ATOM     42  C   UNL A   1      40.304  28.154  29.170  1.00  0.00     0.031 A 
ATOM     43  C   UNL A   1      40.603  26.759  28.779  1.00  0.00     0.074 A 
ATOM     44  C   UNL A   1      41.283  28.981  29.610  1.00  0.00     0.049 A 
ATOM     45  N   UNL A   1      41.685  26.140  29.090  1.00  0.00    -0.248 NA
ATOM     46  C   UNL A   1      39.664  25.933  28.023  1.00  0.00     0.031 C 
ATOM     47  C   UNL A   1      42.722  28.727  29.549  1.00  0.00     0.029 A 
ATOM     48  N   UNL A   1      41.206  30.161  30.361  1.00  0.00    -0.354 N 
ATOM     49  C   UNL A   1      41.725  24.975  28.360  1.00  0.00     0.074 A 
ATOM     50  C   UNL A   1      40.400  24.839  27.811  1.00  0.00     0.031 C 
ATOM     51  C   UNL A   1      43.339  29.498  30.456  1.00  0.00     0.029 A 
ATOM     52  C   UNL A   1      42.294  30.098  31.259  1.00  0.00     0.049 A 
ATOM     53  H   UNL A   1      40.536  30.879  30.280  1.00  0.00     0.167 HD
ATOM     54  C   UNL A   1      42.928  24.355  28.216  1.00  0.00     0.034 A 
ATOM     55  C   UNL A   1      42.171  29.940  32.616  1.00  0.00     0.034 A 
ATOM     56  C   UNL A   1      43.926  24.945  29.127  1.00  0.00     0.049 A 
ATOM     57  C   UNL A   1      42.906  28.720  33.178  1.00  0.00     0.074 A 
ATOM     58  C   UNL A   1      44.991  25.819  28.992  1.00  0.00     0.029 A 
ATOM     59  N   UNL A   1      43.703  24.827  30.488  1.00  0.00    -0.354 N 
ATOM     60  N   UNL A   1      43.582  27.865  32.459  1.00  0.00    -0.248 NA
ATOM     61  C   UNL A   1      42.862  28.319  34.589  1.00  0.00     0.031 C 
ATOM     62  C   UNL A   1      45.382  26.243  30.301  1.00  0.00     0.029 A 
ATOM     63  C   UNL A   1      44.575  25.603  31.226  1.00  0.00     0.049 A 
ATOM     64  H   UNL A   1      43.005  24.257  30.884  1.00  0.00     0.167 HD
ATOM     65  C   UNL A   1      43.899  26.765  33.215  1.00  0.00     0.074 A 
ATOM     66  C   UNL A   1      43.468  27.119  34.557  1.00  0.00     0.031 C 
ATOM     67  C   UNL A   1      44.424  25.620  32.676  1.00  0.00     0.034 A 
BRANCH  54  68
ATOM     68  C   UNL A   1      43.303  23.342  27.146  1.00  0.00     0.023 A 
ATOM     69  C   UNL A   1      44.060  23.825  26.053  1.00  0.00     0.012 A 
ATOM     70  C   UNL A   1      42.900  21.988  27.057  1.00  0.00     0.148 A 
ATOM     71  C   UNL A   1      44.338  23.047  24.922  1.00  0.00     0.002 A 
ATOM     72  C   UNL A   1      43.173  21.208  25.930  1.00  0.00     0.091 A 
ATOM     73  F   UNL A   1      42.232  21.415  28.053  1.00  0.00    -0.205 F 
ATOM     74  C   UNL A   1      43.883  21.740  24.854  1.00  0.00     0.022 A 
BRANCH  72  75
ATOM     75  S   UNL A   1      42.594  19.507  25.764  1.00  0.00     0.127 S 
ATOM     76  O   UNL A   1      41.163  19.697  25.517  1.00  0.00    -0.237 OA
ATOM     77  O   UNL A   1      43.352  19.028  24.610  1.00  0.00    -0.237 OA
ATOM     78  O   UNL A   1      42.904  18.834  27.020  1.00  0.00    -0.744 OA
ENDBRANCH  72  75
ENDBRANCH  54  68
BRANCH  55  79
ATOM     79  C   UNL A   1      40.898  30.496  33.163  1.00  0.00     0.023 A 
ATOM     80  C   UNL A   1      39.705  29.808  32.838  1.00  0.00     0.012 A 
ATOM     81  C   UNL A   1      40.895  31.386  34.250  1.00  0.00     0.148 A 
ATOM     82  C   UNL A   1      38.596  29.865  33.683  1.00  0.00     0.002 A 
ATOM     83  C   UNL A   1      39.776  31.453  35.077  1.00  0.00     0.091 A 
ATOM     84  F   UNL A   1      41.998  32.101  34.503  1.00  0.00    -0.205 F 
ATOM     85  C   UNL A   1      38.649  30.655  34.826  1.00  0.00     0.022 A 
BRANCH  83  86
ATOM     86  S   UNL A   1      39.773  32.457  36.568  1.00  0.00     0.127 S 
ATOM     87  O   UNL A   1      40.896  31.888  37.306  1.00  0.00    -0.237 OA
ATOM     88  O   UNL A   1      40.001  33.803  36.040  1.00  0.00    -0.237 OA
ATOM     89  O   UNL A   1      38.451  32.262  37.145  1.00  0.00    -0.744 OA
ENDBRANCH  83  86
ENDBRANCH  55  79
BRANCH  67  90
ATOM     90  C   UNL A   1      44.823  24.396  33.485  1.00  0.00     0.023 A 
ATOM     91  C   UNL A   1      43.847  23.498  33.959  1.00  0.00     0.012 A 
ATOM     92  C   UNL A   1      46.157  24.177  33.924  1.00  0.00     0.148 A 
ATOM     93  C   UNL A   1      44.181  22.408  34.774  1.00  0.00     0.002 A 
ATOM     94  C   UNL A   1      46.470  23.147  34.807  1.00  0.00     0.091 A 
ATOM     95  F   UNL A   1      47.147  24.943  33.455  1.00  0.00    -0.205 F 
ATOM     96  C   UNL A   1      45.489  22.242  35.211  1.00  0.00     0.022 A 
BRANCH  94  97
ATOM     97  S   UNL A   1      48.100  22.977  35.555  1.00  0.00     0.127 S 
ATOM     98  O   UNL A   1      48.251  24.268  36.232  1.00  0.00    -0.237 OA
ATOM     99  O   UNL A   1      47.900  21.840  36.451  1.00  0.00    -0.237 OA
ATOM    100  O   UNL A   1      49.031  22.760  34.459  1.00  0.00    -0.744 OA
ENDBRANCH  94  97
ENDBRANCH  67  90
ENDBRANCH  41  42
ENDBRANCH  33  36
ENDBRANCH  31  32
ENDBRANCH   1  31
TORSDOF 17
ENDMDL
