MODEL 1
REMARK VINA RESULT:     -11.9      0.000      0.000
REMARK SMILES Nc1ccc2c(c1)C(=O)N(CCC(=O)NCCCNC(=O)c1ccc(-c3c4nc(c(-c5cccc(S(=O)(=O)[O-])c5F)c5ccc([nH]5)c(-c5cccc(S(=O)(=O)[O-])c5F)c5nc(c(-c6cccc(S(=O)(=O)[O-])c6F)c6ccc3[nH]6)C=C5)C=C4)cc1)C2
REMARK SMILES IDX 17 1 16 2 15 3 13 4 14 5 12 7 11 8 10 9 2 10 3 11 7 12 4 13
REMARK SMILES IDX 6 14 5 15 8 16 85 17 9 18 1 19 18 22 19 23 20 24 21 26 22 27
REMARK SMILES IDX 23 28 84 29 24 30 83 31 25 32 26 33 27 34 77 35 28 36 82 37
REMARK SMILES IDX 76 38 78 39 29 40 81 41 75 42 74 43 30 45 62 46 42 47 61 48
REMARK SMILES IDX 43 49 46 50 60 51 79 52 44 53 45 54 59 56 80 57 47 58 31 59
REMARK SMILES IDX 32 60 40 61 33 62 35 63 41 64 34 65 36 66 37 67 38 68 39 69
REMARK SMILES IDX 63 70 64 71 72 72 65 73 67 74 73 75 66 76 68 77 69 78 70 79
REMARK SMILES IDX 71 80 48 81 49 82 57 83 50 84 52 85 58 86 51 87 53 88 54 89
REMARK SMILES IDX 55 90 56 91
REMARK H PARENT 15 6 1 20 1 21 19 25 78 44 46 55
REMARK Flexibility Score: inf
ROOT
ATOM      1  C   UNL A   1      33.305  29.081  24.093  1.00  0.00     0.042 C 
ENDROOT
BRANCH   1   2
ATOM      2  C   UNL A   1      32.710  28.710  22.733  1.00  0.00     0.117 C 
BRANCH   2   3
ATOM      3  N   UNL A   1      33.351  27.538  22.153  1.00  0.00    -0.356 N 
ATOM      4  C   UNL A   1      32.961  26.233  22.114  1.00  0.00     0.221 C 
ATOM      5  O   UNL A   1      33.727  25.424  21.584  1.00  0.00    -0.275 OA
ATOM      6  H   UNL A   1      34.214  27.720  21.714  1.00  0.00     0.163 HD
BRANCH   4   7
ATOM      7  C   UNL A   1      31.631  25.778  22.675  1.00  0.00     0.121 C 
BRANCH   7   8
ATOM      8  C   UNL A   1      31.627  25.735  24.206  1.00  0.00     0.130 C 
BRANCH   8   9
ATOM      9  N   UNL A   1      32.543  24.743  24.739  1.00  0.00    -0.334 N 
ATOM     10  C   UNL A   1      36.421  22.405  25.593  1.00  0.00     0.032 A 
ATOM     11  C   UNL A   1      35.750  21.482  24.770  1.00  0.00     0.026 A 
ATOM     12  C   UNL A   1      35.799  23.614  25.903  1.00  0.00     0.039 A 
ATOM     13  C   UNL A   1      34.410  21.657  24.401  1.00  0.00     0.008 A 
ATOM     14  C   UNL A   1      34.502  23.807  25.458  1.00  0.00     0.047 A 
ATOM     15  C   UNL A   1      33.786  22.832  24.764  1.00  0.00    -0.016 A 
ATOM     16  C   UNL A   1      33.708  25.042  25.429  1.00  0.00     0.254 C 
ATOM     17  C   UNL A   1      32.411  23.327  24.462  1.00  0.00     0.156 C 
ATOM     18  O   UNL A   1      34.081  26.130  25.830  1.00  0.00    -0.269 OA
BRANCH  10  19
ATOM     19  N   UNL A   1      37.741  22.170  25.957  1.00  0.00    -0.399 N 
ATOM     20  H   UNL A   1      38.442  22.131  25.268  1.00  0.00     0.156 HD
ATOM     21  H   UNL A   1      37.974  22.044  26.906  1.00  0.00     0.156 HD
ENDBRANCH  10  19
ENDBRANCH   8   9
ENDBRANCH   7   8
ENDBRANCH   4   7
ENDBRANCH   2   3
ENDBRANCH   1   2
BRANCH   1  22
ATOM     22  C   UNL A   1      32.332  29.077  25.267  1.00  0.00     0.118 C 
BRANCH  22  23
ATOM     23  N   UNL A   1      31.945  30.424  25.650  1.00  0.00    -0.352 N 
ATOM     24  C   UNL A   1      32.412  31.278  26.621  1.00  0.00     0.251 C 
ATOM     25  H   UNL A   1      31.210  30.795  25.112  1.00  0.00     0.163 HD
ATOM     26  O   UNL A   1      31.714  32.254  26.897  1.00  0.00    -0.269 OA
BRANCH  24  27
ATOM     27  C   UNL A   1      33.684  31.064  27.366  1.00  0.00     0.039 A 
ATOM     28  C   UNL A   1      34.474  32.104  27.857  1.00  0.00     0.014 A 
ATOM     29  C   UNL A   1      34.044  29.746  27.689  1.00  0.00     0.014 A 
ATOM     30  C   UNL A   1      35.666  31.831  28.549  1.00  0.00     0.010 A 
ATOM     31  C   UNL A   1      35.201  29.475  28.436  1.00  0.00     0.010 A 
ATOM     32  C   UNL A   1      36.051  30.513  28.846  1.00  0.00    -0.014 A 
BRANCH  32  33
ATOM     33  C   UNL A   1      37.314  30.219  29.591  1.00  0.00     0.031 A 
ATOM     34  C   UNL A   1      38.391  29.348  28.984  1.00  0.00     0.074 A 
ATOM     35  C   UNL A   1      37.511  30.719  30.829  1.00  0.00     0.049 A 
ATOM     36  N   UNL A   1      39.525  28.937  29.492  1.00  0.00    -0.248 NA
ATOM     37  C   UNL A   1      38.165  28.879  27.613  1.00  0.00     0.031 C 
ATOM     38  C   UNL A   1      36.575  31.573  31.559  1.00  0.00     0.029 A 
ATOM     39  N   UNL A   1      38.567  30.568  31.695  1.00  0.00    -0.354 N 
ATOM     40  C   UNL A   1      40.120  28.138  28.517  1.00  0.00     0.074 A 
ATOM     41  C   UNL A   1      39.227  28.123  27.382  1.00  0.00     0.031 C 
ATOM     42  C   UNL A   1      37.103  31.883  32.754  1.00  0.00     0.029 A 
ATOM     43  C   UNL A   1      38.391  31.210  32.899  1.00  0.00     0.049 A 
ATOM     44  H   UNL A   1      39.374  30.048  31.476  1.00  0.00     0.167 HD
ATOM     45  C   UNL A   1      41.305  27.487  28.553  1.00  0.00     0.034 A 
ATOM     46  C   UNL A   1      39.163  31.239  34.003  1.00  0.00     0.034 A 
ATOM     47  C   UNL A   1      42.222  27.527  29.658  1.00  0.00     0.049 A 
ATOM     48  C   UNL A   1      40.457  30.475  34.031  1.00  0.00     0.074 A 
ATOM     49  C   UNL A   1      43.469  26.932  29.756  1.00  0.00     0.029 A 
ATOM     50  N   UNL A   1      41.996  28.187  30.851  1.00  0.00    -0.354 N 
ATOM     51  N   UNL A   1      41.034  29.793  33.073  1.00  0.00    -0.248 NA
ATOM     52  C   UNL A   1      41.213  30.493  35.294  1.00  0.00     0.031 C 
ATOM     53  C   UNL A   1      43.989  27.215  31.021  1.00  0.00     0.029 A 
ATOM     54  C   UNL A   1      43.074  28.002  31.699  1.00  0.00     0.049 A 
ATOM     55  H   UNL A   1      41.191  28.710  31.065  1.00  0.00     0.167 HD
ATOM     56  C   UNL A   1      42.226  29.319  33.610  1.00  0.00     0.074 A 
ATOM     57  C   UNL A   1      42.302  29.811  34.969  1.00  0.00     0.031 C 
ATOM     58  C   UNL A   1      43.163  28.528  33.033  1.00  0.00     0.034 A 
BRANCH  45  59
ATOM     59  C   UNL A   1      41.729  26.687  27.351  1.00  0.00     0.023 A 
ATOM     60  C   UNL A   1      42.437  27.324  26.315  1.00  0.00     0.012 A 
ATOM     61  C   UNL A   1      41.578  25.286  27.335  1.00  0.00     0.148 A 
ATOM     62  C   UNL A   1      43.001  26.576  25.282  1.00  0.00     0.002 A 
ATOM     63  C   UNL A   1      42.166  24.545  26.317  1.00  0.00     0.091 A 
ATOM     64  F   UNL A   1      40.893  24.708  28.332  1.00  0.00    -0.205 F 
ATOM     65  C   UNL A   1      42.878  25.188  25.291  1.00  0.00     0.022 A 
BRANCH  63  66
ATOM     66  S   UNL A   1      42.111  22.751  26.261  1.00  0.00     0.127 S 
ATOM     67  O   UNL A   1      42.844  22.397  27.477  1.00  0.00    -0.237 OA
ATOM     68  O   UNL A   1      40.674  22.487  26.315  1.00  0.00    -0.237 OA
ATOM     69  O   UNL A   1      42.766  22.364  25.019  1.00  0.00    -0.744 OA
ENDBRANCH  63  66
ENDBRANCH  45  59
BRANCH  46  70
ATOM     70  C   UNL A   1      38.746  32.051  35.179  1.00  0.00     0.023 A 
ATOM     71  C   UNL A   1      38.887  33.451  35.128  1.00  0.00     0.012 A 
ATOM     72  C   UNL A   1      38.206  31.451  36.333  1.00  0.00     0.148 A 
ATOM     73  C   UNL A   1      38.511  34.241  36.215  1.00  0.00     0.002 A 
ATOM     74  C   UNL A   1      37.798  32.246  37.396  1.00  0.00     0.091 A 
ATOM     75  F   UNL A   1      38.093  30.116  36.359  1.00  0.00    -0.205 F 
ATOM     76  C   UNL A   1      37.959  33.640  37.344  1.00  0.00     0.022 A 
BRANCH  74  77
ATOM     77  S   UNL A   1      37.000  31.576  38.859  1.00  0.00     0.127 S 
ATOM     78  O   UNL A   1      36.853  30.168  38.498  1.00  0.00    -0.237 OA
ATOM     79  O   UNL A   1      37.999  31.847  39.893  1.00  0.00    -0.237 OA
ATOM     80  O   UNL A   1      35.756  32.318  39.006  1.00  0.00    -0.744 OA
ENDBRANCH  74  77
ENDBRANCH  46  70
BRANCH  58  81
ATOM     81  C   UNL A   1      44.363  28.144  33.852  1.00  0.00     0.023 A 
ATOM     82  C   UNL A   1      45.435  29.049  33.978  1.00  0.00     0.012 A 
ATOM     83  C   UNL A   1      44.391  26.931  34.569  1.00  0.00     0.148 A 
ATOM     84  C   UNL A   1      46.526  28.745  34.789  1.00  0.00     0.002 A 
ATOM     85  C   UNL A   1      45.466  26.649  35.403  1.00  0.00     0.091 A 
ATOM     86  F   UNL A   1      43.361  26.084  34.430  1.00  0.00    -0.205 F 
ATOM     87  C   UNL A   1      46.537  27.552  35.509  1.00  0.00     0.022 A 
BRANCH  85  88
ATOM     88  S   UNL A   1      45.543  25.170  36.417  1.00  0.00     0.127 S 
ATOM     89  O   UNL A   1      46.776  25.392  37.172  1.00  0.00    -0.237 OA
ATOM     90  O   UNL A   1      44.316  25.273  37.209  1.00  0.00    -0.237 OA
ATOM     91  O   UNL A   1      45.576  24.046  35.492  1.00  0.00    -0.744 OA
ENDBRANCH  85  88
ENDBRANCH  58  81
ENDBRANCH  32  33
ENDBRANCH  24  27
ENDBRANCH  22  23
ENDBRANCH   1  22
TORSDOF 16
ENDMDL
MODEL 2
REMARK VINA RESULT:     -11.7      1.859      2.302
REMARK SMILES Nc1ccc2c(c1)C(=O)N(CCC(=O)NCCCNC(=O)c1ccc(-c3c4nc(c(-c5cccc(S(=O)(=O)[O-])c5F)c5ccc([nH]5)c(-c5cccc(S(=O)(=O)[O-])c5F)c5nc(c(-c6cccc(S(=O)(=O)[O-])c6F)c6ccc3[nH]6)C=C5)C=C4)cc1)C2
REMARK SMILES IDX 17 1 16 2 15 3 13 4 14 5 12 7 11 8 10 9 2 10 3 11 7 12 4 13
REMARK SMILES IDX 6 14 5 15 8 16 85 17 9 18 1 19 18 22 19 23 20 24 21 26 22 27
REMARK SMILES IDX 23 28 84 29 24 30 83 31 25 32 26 33 27 34 77 35 28 36 82 37
REMARK SMILES IDX 76 38 78 39 29 40 81 41 75 42 74 43 30 45 62 46 42 47 61 48
REMARK SMILES IDX 43 49 46 50 60 51 79 52 44 53 45 54 59 56 80 57 47 58 31 59
REMARK SMILES IDX 32 60 40 61 33 62 35 63 41 64 34 65 36 66 37 67 38 68 39 69
REMARK SMILES IDX 63 70 64 71 72 72 65 73 67 74 73 75 66 76 68 77 69 78 70 79
REMARK SMILES IDX 71 80 48 81 49 82 57 83 50 84 52 85 58 86 51 87 53 88 54 89
REMARK SMILES IDX 55 90 56 91
REMARK H PARENT 15 6 1 20 1 21 19 25 78 44 46 55
REMARK Flexibility Score: inf
ROOT
ATOM      1  C   UNL A   1      32.502  27.836  25.776  1.00  0.00     0.042 C 
ENDROOT
BRANCH   1   2
ATOM      2  C   UNL A   1      33.213  26.495  25.583  1.00  0.00     0.117 C 
BRANCH   2   3
ATOM      3  N   UNL A   1      32.730  25.477  26.506  1.00  0.00    -0.356 N 
ATOM      4  C   UNL A   1      31.727  24.563  26.384  1.00  0.00     0.221 C 
ATOM      5  O   UNL A   1      31.499  23.833  27.353  1.00  0.00    -0.275 OA
ATOM      6  H   UNL A   1      33.211  25.444  27.365  1.00  0.00     0.163 HD
BRANCH   4   7
ATOM      7  C   UNL A   1      30.924  24.420  25.109  1.00  0.00     0.121 C 
BRANCH   7   8
ATOM      8  C   UNL A   1      30.967  22.996  24.548  1.00  0.00     0.130 C 
BRANCH   8   9
ATOM      9  N   UNL A   1      32.314  22.566  24.220  1.00  0.00    -0.334 N 
ATOM     10  C   UNL A   1      36.785  21.531  24.647  1.00  0.00     0.032 A 
ATOM     11  C   UNL A   1      36.874  22.710  23.885  1.00  0.00     0.026 A 
ATOM     12  C   UNL A   1      35.526  21.047  25.002  1.00  0.00     0.039 A 
ATOM     13  C   UNL A   1      35.743  23.314  23.319  1.00  0.00     0.008 A 
ATOM     14  C   UNL A   1      34.415  21.706  24.503  1.00  0.00     0.047 A 
ATOM     15  C   UNL A   1      34.506  22.790  23.631  1.00  0.00    -0.016 A 
ATOM     16  C   UNL A   1      33.006  21.571  24.894  1.00  0.00     0.254 C 
ATOM     17  C   UNL A   1      33.140  23.250  23.245  1.00  0.00     0.156 C 
ATOM     18  O   UNL A   1      32.579  20.807  25.742  1.00  0.00    -0.269 OA
BRANCH  10  19
ATOM     19  N   UNL A   1      37.940  20.953  25.159  1.00  0.00    -0.399 N 
ATOM     20  H   UNL A   1      38.154  21.046  26.116  1.00  0.00     0.156 HD
ATOM     21  H   UNL A   1      38.543  20.449  24.565  1.00  0.00     0.156 HD
ENDBRANCH  10  19
ENDBRANCH   8   9
ENDBRANCH   7   8
ENDBRANCH   4   7
ENDBRANCH   2   3
ENDBRANCH   1   2
BRANCH   1  22
ATOM     22  C   UNL A   1      33.121  29.026  25.052  1.00  0.00     0.118 C 
BRANCH  22  23
ATOM     23  N   UNL A   1      32.639  30.289  25.583  1.00  0.00    -0.352 N 
ATOM     24  C   UNL A   1      33.026  31.044  26.665  1.00  0.00     0.251 C 
ATOM     25  H   UNL A   1      31.896  30.679  25.070  1.00  0.00     0.163 HD
ATOM     26  O   UNL A   1      32.260  31.935  27.035  1.00  0.00    -0.269 OA
BRANCH  24  27
ATOM     27  C   UNL A   1      34.290  30.817  27.421  1.00  0.00     0.039 A 
ATOM     28  C   UNL A   1      35.229  31.818  27.671  1.00  0.00     0.014 A 
ATOM     29  C   UNL A   1      34.488  29.557  28.007  1.00  0.00     0.014 A 
ATOM     30  C   UNL A   1      36.403  31.534  28.388  1.00  0.00     0.010 A 
ATOM     31  C   UNL A   1      35.631  29.290  28.778  1.00  0.00     0.010 A 
ATOM     32  C   UNL A   1      36.625  30.265  28.949  1.00  0.00    -0.014 A 
BRANCH  32  33
ATOM     33  C   UNL A   1      37.870  29.961  29.721  1.00  0.00     0.031 A 
ATOM     34  C   UNL A   1      38.934  29.047  29.154  1.00  0.00     0.074 A 
ATOM     35  C   UNL A   1      38.061  30.490  30.947  1.00  0.00     0.049 A 
ATOM     36  N   UNL A   1      40.050  28.624  29.691  1.00  0.00    -0.248 NA
ATOM     37  C   UNL A   1      38.716  28.546  27.794  1.00  0.00     0.031 C 
ATOM     38  C   UNL A   1      37.136  31.387  31.640  1.00  0.00     0.029 A 
ATOM     39  N   UNL A   1      39.101  30.338  31.834  1.00  0.00    -0.354 N 
ATOM     40  C   UNL A   1      40.638  27.783  28.748  1.00  0.00     0.074 A 
ATOM     41  C   UNL A   1      39.763  27.758  27.600  1.00  0.00     0.031 C 
ATOM     42  C   UNL A   1      37.655  31.718  32.833  1.00  0.00     0.029 A 
ATOM     43  C   UNL A   1      38.923  31.018  33.016  1.00  0.00     0.049 A 
ATOM     44  H   UNL A   1      39.897  29.793  31.641  1.00  0.00     0.167 HD
ATOM     45  C   UNL A   1      41.806  27.105  28.820  1.00  0.00     0.034 A 
ATOM     46  C   UNL A   1      39.679  31.059  34.131  1.00  0.00     0.034 A 
ATOM     47  C   UNL A   1      42.709  27.153  29.937  1.00  0.00     0.049 A 
ATOM     48  C   UNL A   1      40.953  30.265  34.200  1.00  0.00     0.074 A 
ATOM     49  C   UNL A   1      43.938  26.531  30.071  1.00  0.00     0.029 A 
ATOM     50  N   UNL A   1      42.482  27.851  31.108  1.00  0.00    -0.354 N 
ATOM     51  N   UNL A   1      41.527  29.542  33.269  1.00  0.00    -0.248 NA
ATOM     52  C   UNL A   1      41.691  30.300  35.473  1.00  0.00     0.031 C 
ATOM     53  C   UNL A   1      44.447  26.836  31.334  1.00  0.00     0.029 A 
ATOM     54  C   UNL A   1      43.542  27.665  31.977  1.00  0.00     0.049 A 
ATOM     55  H   UNL A   1      41.686  28.400  31.295  1.00  0.00     0.167 HD
ATOM     56  C   UNL A   1      42.699  29.054  33.838  1.00  0.00     0.074 A 
ATOM     57  C   UNL A   1      42.768  29.582  35.183  1.00  0.00     0.031 C 
ATOM     58  C   UNL A   1      43.625  28.226  33.297  1.00  0.00     0.034 A 
BRANCH  45  59
ATOM     59  C   UNL A   1      42.228  26.261  27.647  1.00  0.00     0.023 A 
ATOM     60  C   UNL A   1      43.188  26.763  26.748  1.00  0.00     0.012 A 
ATOM     61  C   UNL A   1      41.805  24.921  27.541  1.00  0.00     0.148 A 
ATOM     62  C   UNL A   1      43.731  25.938  25.763  1.00  0.00     0.002 A 
ATOM     63  C   UNL A   1      42.371  24.098  26.575  1.00  0.00     0.091 A 
ATOM     64  F   UNL A   1      40.885  24.473  28.408  1.00  0.00    -0.205 F 
ATOM     65  C   UNL A   1      43.334  24.605  25.687  1.00  0.00     0.022 A 
BRANCH  63  66
ATOM     66  S   UNL A   1      41.969  22.354  26.423  1.00  0.00     0.127 S 
ATOM     67  O   UNL A   1      42.750  21.974  25.247  1.00  0.00    -0.237 OA
ATOM     68  O   UNL A   1      42.467  21.815  27.689  1.00  0.00    -0.237 OA
ATOM     69  O   UNL A   1      40.525  22.285  26.247  1.00  0.00    -0.744 OA
ENDBRANCH  63  66
ENDBRANCH  45  59
BRANCH  46  70
ATOM     70  C   UNL A   1      39.266  31.914  35.277  1.00  0.00     0.023 A 
ATOM     71  C   UNL A   1      38.384  31.388  36.240  1.00  0.00     0.012 A 
ATOM     72  C   UNL A   1      39.746  33.229  35.425  1.00  0.00     0.148 A 
ATOM     73  C   UNL A   1      37.971  32.163  37.324  1.00  0.00     0.002 A 
ATOM     74  C   UNL A   1      39.363  33.983  36.526  1.00  0.00     0.091 A 
ATOM     75  F   UNL A   1      40.576  33.709  34.489  1.00  0.00    -0.205 F 
ATOM     76  C   UNL A   1      38.467  33.457  37.471  1.00  0.00     0.022 A 
BRANCH  74  77
ATOM     77  S   UNL A   1      40.011  35.627  36.850  1.00  0.00     0.127 S 
ATOM     78  O   UNL A   1      39.369  35.954  38.121  1.00  0.00    -0.237 OA
ATOM     79  O   UNL A   1      41.449  35.368  36.934  1.00  0.00    -0.237 OA
ATOM     80  O   UNL A   1      39.605  36.443  35.715  1.00  0.00    -0.744 OA
ENDBRANCH  74  77
ENDBRANCH  46  70
BRANCH  58  81
ATOM     81  C   UNL A   1      44.803  27.835  34.144  1.00  0.00     0.023 A 
ATOM     82  C   UNL A   1      45.947  28.656  34.161  1.00  0.00     0.012 A 
ATOM     83  C   UNL A   1      44.743  26.711  34.992  1.00  0.00     0.148 A 
ATOM     84  C   UNL A   1      47.024  28.353  34.992  1.00  0.00     0.002 A 
ATOM     85  C   UNL A   1      45.805  26.434  35.844  1.00  0.00     0.091 A 
ATOM     86  F   UNL A   1      43.645  25.943  34.956  1.00  0.00    -0.205 F 
ATOM     87  C   UNL A   1      46.949  27.250  35.840  1.00  0.00     0.022 A 
BRANCH  85  88
ATOM     88  S   UNL A   1      45.777  25.075  37.017  1.00  0.00     0.127 S 
ATOM     89  O   UNL A   1      45.827  23.915  36.127  1.00  0.00    -0.237 OA
ATOM     90  O   UNL A   1      47.000  25.305  37.787  1.00  0.00    -0.237 OA
ATOM     91  O   UNL A   1      44.543  25.221  37.777  1.00  0.00    -0.744 OA
ENDBRANCH  85  88
ENDBRANCH  58  81
ENDBRANCH  32  33
ENDBRANCH  24  27
ENDBRANCH  22  23
ENDBRANCH   1  22
TORSDOF 16
ENDMDL
MODEL 3
REMARK VINA RESULT:     -11.7      4.142     10.160
REMARK SMILES Nc1ccc2c(c1)C(=O)N(CCC(=O)NCCCNC(=O)c1ccc(-c3c4nc(c(-c5cccc(S(=O)(=O)[O-])c5F)c5ccc([nH]5)c(-c5cccc(S(=O)(=O)[O-])c5F)c5nc(c(-c6cccc(S(=O)(=O)[O-])c6F)c6ccc3[nH]6)C=C5)C=C4)cc1)C2
REMARK SMILES IDX 17 1 16 2 15 3 13 4 14 5 12 7 11 8 10 9 2 10 3 11 7 12 4 13
REMARK SMILES IDX 6 14 5 15 8 16 85 17 9 18 1 19 18 22 19 23 20 24 21 26 22 27
REMARK SMILES IDX 23 28 84 29 24 30 83 31 25 32 26 33 27 34 77 35 28 36 82 37
REMARK SMILES IDX 76 38 78 39 29 40 81 41 75 42 74 43 30 45 62 46 42 47 61 48
REMARK SMILES IDX 43 49 46 50 60 51 79 52 44 53 45 54 59 56 80 57 47 58 31 59
REMARK SMILES IDX 32 60 40 61 33 62 35 63 41 64 34 65 36 66 37 67 38 68 39 69
REMARK SMILES IDX 63 70 64 71 72 72 65 73 67 74 73 75 66 76 68 77 69 78 70 79
REMARK SMILES IDX 71 80 48 81 49 82 57 83 50 84 52 85 58 86 51 87 53 88 54 89
REMARK SMILES IDX 55 90 56 91
REMARK H PARENT 15 6 1 20 1 21 19 25 78 44 46 55
REMARK Flexibility Score: inf
ROOT
ATOM      1  C   UNL A   1      34.407  34.536  27.950  1.00  0.00     0.042 C 
ENDROOT
BRANCH   1   2
ATOM      2  C   UNL A   1      33.204  34.655  28.889  1.00  0.00     0.117 C 
BRANCH   2   3
ATOM      3  N   UNL A   1      33.097  35.981  29.482  1.00  0.00    -0.356 N 
ATOM      4  C   UNL A   1      33.036  36.376  30.784  1.00  0.00     0.221 C 
ATOM      5  O   UNL A   1      32.904  37.582  31.009  1.00  0.00    -0.275 OA
ATOM      6  H   UNL A   1      33.062  36.718  28.829  1.00  0.00     0.163 HD
BRANCH   4   7
ATOM      7  C   UNL A   1      33.146  35.389  31.926  1.00  0.00     0.121 C 
BRANCH   7   8
ATOM      8  C   UNL A   1      34.359  35.661  32.819  1.00  0.00     0.130 C 
BRANCH   8   9
ATOM      9  N   UNL A   1      35.353  34.606  32.749  1.00  0.00    -0.334 N 
ATOM     10  C   UNL A   1      37.488  30.578  33.424  1.00  0.00     0.032 A 
ATOM     11  C   UNL A   1      38.303  31.424  34.197  1.00  0.00     0.026 A 
ATOM     12  C   UNL A   1      36.405  31.124  32.735  1.00  0.00     0.039 A 
ATOM     13  C   UNL A   1      38.174  32.819  34.153  1.00  0.00     0.008 A 
ATOM     14  C   UNL A   1      36.241  32.498  32.771  1.00  0.00     0.047 A 
ATOM     15  C   UNL A   1      37.133  33.350  33.420  1.00  0.00    -0.016 A 
ATOM     16  C   UNL A   1      35.087  33.304  32.352  1.00  0.00     0.254 C 
ATOM     17  C   UNL A   1      36.705  34.768  33.244  1.00  0.00     0.156 C 
ATOM     18  O   UNL A   1      34.059  32.865  31.867  1.00  0.00    -0.269 OA
BRANCH  10  19
ATOM     19  N   UNL A   1      37.677  29.203  33.477  1.00  0.00    -0.399 N 
ATOM     20  H   UNL A   1      38.085  28.732  32.715  1.00  0.00     0.156 HD
ATOM     21  H   UNL A   1      37.404  28.699  34.279  1.00  0.00     0.156 HD
ENDBRANCH  10  19
ENDBRANCH   8   9
ENDBRANCH   7   8
ENDBRANCH   4   7
ENDBRANCH   2   3
ENDBRANCH   1   2
BRANCH   1  22
ATOM     22  C   UNL A   1      35.258  33.282  28.117  1.00  0.00     0.118 C 
BRANCH  22  23
ATOM     23  N   UNL A   1      34.482  32.073  27.908  1.00  0.00    -0.352 N 
ATOM     24  C   UNL A   1      34.834  30.744  27.861  1.00  0.00     0.251 C 
ATOM     25  H   UNL A   1      33.521  32.235  27.774  1.00  0.00     0.163 HD
ATOM     26  O   UNL A   1      34.010  29.957  27.397  1.00  0.00    -0.269 OA
BRANCH  24  27
ATOM     27  C   UNL A   1      36.159  30.226  28.307  1.00  0.00     0.039 A 
ATOM     28  C   UNL A   1      36.348  29.517  29.494  1.00  0.00     0.014 A 
ATOM     29  C   UNL A   1      37.247  30.362  27.432  1.00  0.00     0.014 A 
ATOM     30  C   UNL A   1      37.626  29.059  29.856  1.00  0.00     0.010 A 
ATOM     31  C   UNL A   1      38.511  29.849  27.765  1.00  0.00     0.010 A 
ATOM     32  C   UNL A   1      38.728  29.222  29.001  1.00  0.00    -0.014 A 
BRANCH  32  33
ATOM     33  C   UNL A   1      40.088  28.728  29.379  1.00  0.00     0.031 A 
ATOM     34  C   UNL A   1      40.887  29.407  30.470  1.00  0.00     0.074 A 
ATOM     35  C   UNL A   1      40.634  27.671  28.743  1.00  0.00     0.049 A 
ATOM     36  N   UNL A   1      42.098  29.160  30.901  1.00  0.00    -0.248 NA
ATOM     37  C   UNL A   1      40.231  30.510  31.178  1.00  0.00     0.031 C 
ATOM     38  C   UNL A   1      40.001  26.905  27.670  1.00  0.00     0.029 A 
ATOM     39  N   UNL A   1      41.857  27.064  28.906  1.00  0.00    -0.354 N 
ATOM     40  C   UNL A   1      42.353  30.100  31.898  1.00  0.00     0.074 A 
ATOM     41  C   UNL A   1      41.170  30.921  32.017  1.00  0.00     0.031 C 
ATOM     42  C   UNL A   1      40.831  25.923  27.282  1.00  0.00     0.029 A 
ATOM     43  C   UNL A   1      42.076  26.019  28.040  1.00  0.00     0.049 A 
ATOM     44  H   UNL A   1      42.515  27.351  29.579  1.00  0.00     0.167 HD
ATOM     45  C   UNL A   1      43.460  30.260  32.658  1.00  0.00     0.034 A 
ATOM     46  C   UNL A   1      43.159  25.238  27.856  1.00  0.00     0.034 A 
ATOM     47  C   UNL A   1      44.627  29.425  32.582  1.00  0.00     0.049 A 
ATOM     48  C   UNL A   1      44.391  25.462  28.687  1.00  0.00     0.074 A 
ATOM     49  C   UNL A   1      45.778  29.491  33.350  1.00  0.00     0.029 A 
ATOM     50  N   UNL A   1      44.800  28.386  31.688  1.00  0.00    -0.354 N 
ATOM     51  N   UNL A   1      44.579  26.302  29.674  1.00  0.00    -0.248 NA
ATOM     52  C   UNL A   1      45.560  24.620  28.384  1.00  0.00     0.031 C 
ATOM     53  C   UNL A   1      46.656  28.502  32.906  1.00  0.00     0.029 A 
ATOM     54  C   UNL A   1      46.043  27.809  31.875  1.00  0.00     0.049 A 
ATOM     55  H   UNL A   1      44.137  28.098  31.019  1.00  0.00     0.167 HD
ATOM     56  C   UNL A   1      45.877  26.077  30.121  1.00  0.00     0.074 A 
ATOM     57  C   UNL A   1      46.422  25.006  29.315  1.00  0.00     0.031 C 
ATOM     58  C   UNL A   1      46.563  26.717  31.099  1.00  0.00     0.034 A 
BRANCH  45  59
ATOM     59  C   UNL A   1      43.482  31.359  33.686  1.00  0.00     0.023 A 
ATOM     60  C   UNL A   1      43.975  32.628  33.327  1.00  0.00     0.012 A 
ATOM     61  C   UNL A   1      42.861  31.180  34.938  1.00  0.00     0.148 A 
ATOM     62  C   UNL A   1      43.838  33.710  34.196  1.00  0.00     0.002 A 
ATOM     63  C   UNL A   1      42.704  32.269  35.787  1.00  0.00     0.091 A 
ATOM     64  F   UNL A   1      42.408  29.959  35.255  1.00  0.00    -0.205 F 
ATOM     65  C   UNL A   1      43.191  33.533  35.417  1.00  0.00     0.022 A 
BRANCH  63  66
ATOM     66  S   UNL A   1      41.841  32.162  37.359  1.00  0.00     0.127 S 
ATOM     67  O   UNL A   1      41.921  33.544  37.831  1.00  0.00    -0.237 OA
ATOM     68  O   UNL A   1      40.506  31.733  36.945  1.00  0.00    -0.237 OA
ATOM     69  O   UNL A   1      42.581  31.198  38.162  1.00  0.00    -0.744 OA
ENDBRANCH  63  66
ENDBRANCH  45  59
BRANCH  46  70
ATOM     70  C   UNL A   1      43.120  24.139  26.854  1.00  0.00     0.023 A 
ATOM     71  C   UNL A   1      43.775  24.314  25.620  1.00  0.00     0.012 A 
ATOM     72  C   UNL A   1      42.454  22.927  27.117  1.00  0.00     0.148 A 
ATOM     73  C   UNL A   1      43.754  23.306  24.656  1.00  0.00     0.002 A 
ATOM     74  C   UNL A   1      42.469  21.912  26.169  1.00  0.00     0.091 A 
ATOM     75  F   UNL A   1      41.830  22.789  28.295  1.00  0.00    -0.205 F 
ATOM     76  C   UNL A   1      43.109  22.103  24.933  1.00  0.00     0.022 A 
BRANCH  74  77
ATOM     77  S   UNL A   1      41.740  20.297  26.463  1.00  0.00     0.127 S 
ATOM     78  O   UNL A   1      40.313  20.603  26.417  1.00  0.00    -0.237 OA
ATOM     79  O   UNL A   1      42.244  19.531  25.323  1.00  0.00    -0.237 OA
ATOM     80  O   UNL A   1      42.247  19.864  27.758  1.00  0.00    -0.744 OA
ENDBRANCH  74  77
ENDBRANCH  46  70
BRANCH  58  81
ATOM     81  C   UNL A   1      47.976  26.283  31.371  1.00  0.00     0.023 A 
ATOM     82  C   UNL A   1      48.230  25.361  32.404  1.00  0.00     0.012 A 
ATOM     83  C   UNL A   1      49.036  26.713  30.548  1.00  0.00     0.148 A 
ATOM     84  C   UNL A   1      49.521  24.889  32.630  1.00  0.00     0.002 A 
ATOM     85  C   UNL A   1      50.315  26.212  30.755  1.00  0.00     0.091 A 
ATOM     86  F   UNL A   1      48.769  27.593  29.573  1.00  0.00    -0.205 F 
ATOM     87  C   UNL A   1      50.561  25.305  31.801  1.00  0.00     0.022 A 
BRANCH  85  88
ATOM     88  S   UNL A   1      51.705  26.639  29.702  1.00  0.00     0.127 S 
ATOM     89  O   UNL A   1      52.826  26.061  30.443  1.00  0.00    -0.237 OA
ATOM     90  O   UNL A   1      51.375  25.945  28.457  1.00  0.00    -0.237 OA
ATOM     91  O   UNL A   1      51.709  28.092  29.606  1.00  0.00    -0.744 OA
ENDBRANCH  85  88
ENDBRANCH  58  81
ENDBRANCH  32  33
ENDBRANCH  24  27
ENDBRANCH  22  23
ENDBRANCH   1  22
TORSDOF 16
ENDMDL
