MODEL 1
REMARK VINA RESULT:     -10.3      0.000      0.000
REMARK SMILES C[C@@H](C(=O)NCCCNC(=O)c1ccc(-c2c3nc(c(-c4cccc(S(=O)(=O)[O-])c4F)c4ccc([nH]4)c(-c4cccc(S(=O)(=O)[O-])c4F)c4nc(c(-c5cccc(S(=O)(=O)[O-])c5F)c5ccc2[nH]5)C=C4)C=C3)cc1)[C@H](C)[N@@H+](C)[C@@H](C)C1CC1
REMARK SMILES IDX 6 1 5 2 3 3 4 4 2 6 1 7 75 8 76 9 77 10 78 11 79 13 80 14
REMARK SMILES IDX 81 15 82 16 83 17 7 18 8 19 9 20 10 21 11 23 12 24 13 25
REMARK SMILES IDX 74 26 14 27 73 28 15 29 16 30 17 31 67 32 18 33 72 34 66 35
REMARK SMILES IDX 68 36 19 37 71 38 65 39 64 40 20 42 52 43 32 44 51 45 33 46
REMARK SMILES IDX 36 47 50 48 69 49 34 50 35 51 49 53 70 54 37 55 21 56 22 57
REMARK SMILES IDX 30 58 23 59 25 60 31 61 24 62 26 63 27 64 28 65 29 66 53 67
REMARK SMILES IDX 54 68 62 69 55 70 57 71 63 72 56 73 58 74 59 75 60 76 61 77
REMARK SMILES IDX 38 78 39 79 47 80 40 81 42 82 48 83 41 84 43 85 44 86 45 87
REMARK SMILES IDX 46 88
REMARK H PARENT 5 5 77 12 9 22 68 41 36 52
REMARK Flexibility Score: inf
ROOT
ATOM      1  C   UNL A   1      31.655  28.150  27.037  1.00  0.00     0.117 C 
ENDROOT
BRANCH   1   2
ATOM      2  N   UNL A   1      31.230  26.765  27.088  1.00  0.00    -0.356 N 
ATOM      3  C   UNL A   1      30.606  26.034  26.122  1.00  0.00     0.228 C 
ATOM      4  O   UNL A   1      29.868  25.131  26.504  1.00  0.00    -0.275 OA
ATOM      5  H   UNL A   1      31.417  26.291  27.930  1.00  0.00     0.163 HD
BRANCH   3   6
ATOM      6  C   UNL A   1      30.860  26.371  24.663  1.00  0.00     0.133 C 
ATOM      7  C   UNL A   1      29.506  26.433  23.935  1.00  0.00     0.024 C 
BRANCH   6   8
ATOM      8  C   UNL A   1      31.846  25.410  23.926  1.00  0.00     0.193 C 
ATOM      9  C   UNL A   1      31.786  25.496  22.392  1.00  0.00     0.076 C 
BRANCH   8  10
ATOM     10  N   UNL A   1      32.150  24.042  24.436  1.00  0.00    -0.332 N 
ATOM     11  C   UNL A   1      31.783  23.041  23.413  1.00  0.00     0.333 C 
ATOM     12  H   UNL A   1      31.576  24.064  25.279  1.00  0.00     0.348 HD
BRANCH  10  13
ATOM     13  C   UNL A   1      33.435  23.663  25.064  1.00  0.00     0.184 C 
ATOM     14  C   UNL A   1      34.712  24.201  24.380  1.00  0.00     0.075 C 
BRANCH  13  15
ATOM     15  C   UNL A   1      33.637  23.492  26.553  1.00  0.00     0.047 C 
ATOM     16  C   UNL A   1      32.928  22.595  27.533  1.00  0.00     0.010 C 
ATOM     17  C   UNL A   1      34.332  22.272  27.115  1.00  0.00     0.010 C 
ENDBRANCH  13  15
ENDBRANCH  10  13
ENDBRANCH   8  10
ENDBRANCH   6   8
ENDBRANCH   3   6
ENDBRANCH   1   2
BRANCH   1  18
ATOM     18  C   UNL A   1      33.167  28.236  27.226  1.00  0.00     0.042 C 
BRANCH  18  19
ATOM     19  C   UNL A   1      33.847  29.170  26.230  1.00  0.00     0.118 C 
BRANCH  19  20
ATOM     20  N   UNL A   1      33.874  30.550  26.699  1.00  0.00    -0.352 N 
ATOM     21  C   UNL A   1      34.705  31.124  27.628  1.00  0.00     0.251 C 
ATOM     22  H   UNL A   1      33.209  31.152  26.295  1.00  0.00     0.163 HD
ATOM     23  O   UNL A   1      34.459  32.243  28.072  1.00  0.00    -0.269 OA
BRANCH  21  24
ATOM     24  C   UNL A   1      35.886  30.373  28.098  1.00  0.00     0.039 A 
ATOM     25  C   UNL A   1      37.050  30.382  27.329  1.00  0.00     0.014 A 
ATOM     26  C   UNL A   1      35.843  29.694  29.318  1.00  0.00     0.014 A 
ATOM     27  C   UNL A   1      38.199  29.756  27.818  1.00  0.00     0.010 A 
ATOM     28  C   UNL A   1      37.009  29.148  29.840  1.00  0.00     0.010 A 
ATOM     29  C   UNL A   1      38.196  29.165  29.093  1.00  0.00    -0.014 A 
BRANCH  29  30
ATOM     30  C   UNL A   1      39.425  28.566  29.671  1.00  0.00     0.031 A 
ATOM     31  C   UNL A   1      40.078  29.198  30.869  1.00  0.00     0.074 A 
ATOM     32  C   UNL A   1      40.009  27.518  29.058  1.00  0.00     0.049 A 
ATOM     33  N   UNL A   1      41.197  28.878  31.464  1.00  0.00    -0.248 NA
ATOM     34  C   UNL A   1      39.401  30.368  31.456  1.00  0.00     0.031 C 
ATOM     35  C   UNL A   1      39.518  26.871  27.839  1.00  0.00     0.029 A 
ATOM     36  N   UNL A   1      41.163  26.836  29.352  1.00  0.00    -0.354 N 
ATOM     37  C   UNL A   1      41.379  29.824  32.465  1.00  0.00     0.074 A 
ATOM     38  C   UNL A   1      40.275  30.754  32.374  1.00  0.00     0.031 C 
ATOM     39  C   UNL A   1      40.367  25.893  27.487  1.00  0.00     0.029 A 
ATOM     40  C   UNL A   1      41.481  25.867  28.430  1.00  0.00     0.049 A 
ATOM     41  H   UNL A   1      41.712  27.024  30.148  1.00  0.00     0.167 HD
ATOM     42  C   UNL A   1      42.361  29.898  33.394  1.00  0.00     0.034 A 
ATOM     43  C   UNL A   1      42.558  25.062  28.340  1.00  0.00     0.034 A 
ATOM     44  C   UNL A   1      43.438  28.952  33.500  1.00  0.00     0.049 A 
ATOM     45  C   UNL A   1      43.619  25.139  29.402  1.00  0.00     0.074 A 
ATOM     46  C   UNL A   1      44.429  28.880  34.462  1.00  0.00     0.029 A 
ATOM     47  N   UNL A   1      43.677  27.922  32.602  1.00  0.00    -0.354 N 
ATOM     48  N   UNL A   1      43.688  25.935  30.442  1.00  0.00    -0.248 NA
ATOM     49  C   UNL A   1      44.734  24.185  29.304  1.00  0.00     0.031 C 
ATOM     50  C   UNL A   1      45.289  27.831  34.125  1.00  0.00     0.029 A 
ATOM     51  C   UNL A   1      44.809  27.221  32.977  1.00  0.00     0.049 A 
ATOM     52  H   UNL A   1      43.122  27.720  31.814  1.00  0.00     0.167 HD
ATOM     53  C   UNL A   1      44.831  25.558  31.138  1.00  0.00     0.074 A 
ATOM     54  C   UNL A   1      45.413  24.449  30.411  1.00  0.00     0.031 C 
ATOM     55  C   UNL A   1      45.354  26.088  32.271  1.00  0.00     0.034 A 
BRANCH  42  56
ATOM     56  C   UNL A   1      42.292  31.024  34.394  1.00  0.00     0.023 A 
ATOM     57  C   UNL A   1      41.646  30.823  35.632  1.00  0.00     0.012 A 
ATOM     58  C   UNL A   1      42.895  32.268  34.125  1.00  0.00     0.148 A 
ATOM     59  C   UNL A   1      41.560  31.855  36.566  1.00  0.00     0.002 A 
ATOM     60  C   UNL A   1      42.850  33.276  35.083  1.00  0.00     0.091 A 
ATOM     61  F   UNL A   1      43.486  32.451  32.937  1.00  0.00    -0.205 F 
ATOM     62  C   UNL A   1      42.170  33.075  36.296  1.00  0.00     0.022 A 
BRANCH  60  63
ATOM     63  S   UNL A   1      43.677  34.854  34.865  1.00  0.00     0.127 S 
ATOM     64  O   UNL A   1      45.057  34.434  34.623  1.00  0.00    -0.237 OA
ATOM     65  O   UNL A   1      42.992  35.401  33.692  1.00  0.00    -0.237 OA
ATOM     66  O   UNL A   1      43.455  35.598  36.097  1.00  0.00    -0.744 OA
ENDBRANCH  60  63
ENDBRANCH  42  56
BRANCH  43  67
ATOM     67  C   UNL A   1      42.658  24.086  27.218  1.00  0.00     0.023 A 
ATOM     68  C   UNL A   1      43.383  24.428  26.060  1.00  0.00     0.012 A 
ATOM     69  C   UNL A   1      42.077  22.808  27.313  1.00  0.00     0.148 A 
ATOM     70  C   UNL A   1      43.503  23.522  25.004  1.00  0.00     0.002 A 
ATOM     71  C   UNL A   1      42.247  21.890  26.283  1.00  0.00     0.091 A 
ATOM     72  F   UNL A   1      41.384  22.506  28.421  1.00  0.00    -0.205 F 
ATOM     73  C   UNL A   1      42.944  22.252  25.120  1.00  0.00     0.022 A 
BRANCH  71  74
ATOM     74  S   UNL A   1      41.686  20.188  26.403  1.00  0.00     0.127 S 
ATOM     75  O   UNL A   1      42.195  19.797  27.714  1.00  0.00    -0.237 OA
ATOM     76  O   UNL A   1      40.233  20.345  26.326  1.00  0.00    -0.237 OA
ATOM     77  O   UNL A   1      42.275  19.496  25.264  1.00  0.00    -0.744 OA
ENDBRANCH  71  74
ENDBRANCH  43  67
BRANCH  55  78
ATOM     78  C   UNL A   1      46.602  25.458  32.832  1.00  0.00     0.023 A 
ATOM     79  C   UNL A   1      47.868  25.952  32.466  1.00  0.00     0.012 A 
ATOM     80  C   UNL A   1      46.509  24.432  33.795  1.00  0.00     0.148 A 
ATOM     81  C   UNL A   1      49.026  25.419  33.032  1.00  0.00     0.002 A 
ATOM     82  C   UNL A   1      47.663  23.942  34.391  1.00  0.00     0.091 A 
ATOM     83  F   UNL A   1      45.294  23.964  34.115  1.00  0.00    -0.205 F 
ATOM     84  C   UNL A   1      48.923  24.425  34.003  1.00  0.00     0.022 A 
BRANCH  82  85
ATOM     85  S   UNL A   1      47.625  22.735  35.721  1.00  0.00     0.127 S 
ATOM     86  O   UNL A   1      47.075  21.562  35.043  1.00  0.00    -0.237 OA
ATOM     87  O   UNL A   1      49.039  22.626  36.080  1.00  0.00    -0.237 OA
ATOM     88  O   UNL A   1      46.778  23.305  36.761  1.00  0.00    -0.744 OA
ENDBRANCH  82  85
ENDBRANCH  55  78
ENDBRANCH  29  30
ENDBRANCH  21  24
ENDBRANCH  19  20
ENDBRANCH  18  19
ENDBRANCH   1  18
TORSDOF 17
ENDMDL
MODEL 2
REMARK VINA RESULT:     -10.1      1.633      2.039
REMARK SMILES C[C@@H](C(=O)NCCCNC(=O)c1ccc(-c2c3nc(c(-c4cccc(S(=O)(=O)[O-])c4F)c4ccc([nH]4)c(-c4cccc(S(=O)(=O)[O-])c4F)c4nc(c(-c5cccc(S(=O)(=O)[O-])c5F)c5ccc2[nH]5)C=C4)C=C3)cc1)[C@H](C)[N@@H+](C)[C@@H](C)C1CC1
REMARK SMILES IDX 6 1 5 2 3 3 4 4 2 6 1 7 75 8 76 9 77 10 78 11 79 13 80 14
REMARK SMILES IDX 81 15 82 16 83 17 7 18 8 19 9 20 10 21 11 23 12 24 13 25
REMARK SMILES IDX 74 26 14 27 73 28 15 29 16 30 17 31 67 32 18 33 72 34 66 35
REMARK SMILES IDX 68 36 19 37 71 38 65 39 64 40 20 42 52 43 32 44 51 45 33 46
REMARK SMILES IDX 36 47 50 48 69 49 34 50 35 51 49 53 70 54 37 55 21 56 22 57
REMARK SMILES IDX 30 58 23 59 25 60 31 61 24 62 26 63 27 64 28 65 29 66 53 67
REMARK SMILES IDX 54 68 62 69 55 70 57 71 63 72 56 73 58 74 59 75 60 76 61 77
REMARK SMILES IDX 38 78 39 79 47 80 40 81 42 82 48 83 41 84 43 85 44 86 45 87
REMARK SMILES IDX 46 88
REMARK H PARENT 5 5 77 12 9 22 68 41 36 52
REMARK Flexibility Score: inf
ROOT
ATOM      1  C   UNL A   1      31.620  27.695  26.263  1.00  0.00     0.117 C 
ENDROOT
BRANCH   1   2
ATOM      2  N   UNL A   1      31.180  26.415  26.778  1.00  0.00    -0.356 N 
ATOM      3  C   UNL A   1      30.970  25.253  26.097  1.00  0.00     0.228 C 
ATOM      4  O   UNL A   1      30.122  24.492  26.552  1.00  0.00    -0.275 OA
ATOM      5  H   UNL A   1      31.011  26.379  27.747  1.00  0.00     0.163 HD
BRANCH   3   6
ATOM      6  C   UNL A   1      31.785  24.976  24.845  1.00  0.00     0.133 C 
ATOM      7  C   UNL A   1      30.936  24.115  23.893  1.00  0.00     0.024 C 
BRANCH   6   8
ATOM      8  C   UNL A   1      33.179  24.318  25.097  1.00  0.00     0.193 C 
ATOM      9  C   UNL A   1      34.365  25.293  25.003  1.00  0.00     0.076 C 
BRANCH   8  10
ATOM     10  N   UNL A   1      33.501  22.939  24.631  1.00  0.00    -0.332 N 
ATOM     11  C   UNL A   1      34.797  22.947  23.923  1.00  0.00     0.333 C 
ATOM     12  H   UNL A   1      32.672  22.775  24.061  1.00  0.00     0.348 HD
BRANCH  10  13
ATOM     13  C   UNL A   1      33.411  21.737  25.489  1.00  0.00     0.184 C 
ATOM     14  C   UNL A   1      33.303  21.992  27.009  1.00  0.00     0.075 C 
BRANCH  13  15
ATOM     15  C   UNL A   1      32.706  20.459  25.092  1.00  0.00     0.047 C 
ATOM     16  C   UNL A   1      32.469  19.863  23.729  1.00  0.00     0.010 C 
ATOM     17  C   UNL A   1      33.484  19.241  24.642  1.00  0.00     0.010 C 
ENDBRANCH  13  15
ENDBRANCH  10  13
ENDBRANCH   8  10
ENDBRANCH   6   8
ENDBRANCH   3   6
ENDBRANCH   1   2
BRANCH   1  18
ATOM     18  C   UNL A   1      32.779  28.222  27.104  1.00  0.00     0.042 C 
BRANCH  18  19
ATOM     19  C   UNL A   1      33.768  29.067  26.307  1.00  0.00     0.118 C 
BRANCH  19  20
ATOM     20  N   UNL A   1      33.785  30.457  26.746  1.00  0.00    -0.352 N 
ATOM     21  C   UNL A   1      34.633  31.065  27.638  1.00  0.00     0.251 C 
ATOM     22  H   UNL A   1      33.096  31.039  26.350  1.00  0.00     0.163 HD
ATOM     23  O   UNL A   1      34.379  32.188  28.066  1.00  0.00    -0.269 OA
BRANCH  21  24
ATOM     24  C   UNL A   1      35.840  30.344  28.088  1.00  0.00     0.039 A 
ATOM     25  C   UNL A   1      37.005  30.424  27.324  1.00  0.00     0.014 A 
ATOM     26  C   UNL A   1      35.819  29.623  29.284  1.00  0.00     0.014 A 
ATOM     27  C   UNL A   1      38.176  29.827  27.797  1.00  0.00     0.010 A 
ATOM     28  C   UNL A   1      37.004  29.105  29.792  1.00  0.00     0.010 A 
ATOM     29  C   UNL A   1      38.192  29.193  29.051  1.00  0.00    -0.014 A 
BRANCH  29  30
ATOM     30  C   UNL A   1      39.441  28.623  29.615  1.00  0.00     0.031 A 
ATOM     31  C   UNL A   1      40.114  29.290  30.782  1.00  0.00     0.074 A 
ATOM     32  C   UNL A   1      40.024  27.567  29.012  1.00  0.00     0.049 A 
ATOM     33  N   UNL A   1      41.250  28.997  31.358  1.00  0.00    -0.248 NA
ATOM     34  C   UNL A   1      39.435  30.465  31.357  1.00  0.00     0.031 C 
ATOM     35  C   UNL A   1      39.513  26.886  27.820  1.00  0.00     0.029 A 
ATOM     36  N   UNL A   1      41.193  26.907  29.295  1.00  0.00    -0.354 N 
ATOM     37  C   UNL A   1      41.443  29.968  32.332  1.00  0.00     0.074 A 
ATOM     38  C   UNL A   1      40.325  30.883  32.245  1.00  0.00     0.031 C 
ATOM     39  C   UNL A   1      40.366  25.911  27.471  1.00  0.00     0.029 A 
ATOM     40  C   UNL A   1      41.501  25.920  28.388  1.00  0.00     0.049 A 
ATOM     41  H   UNL A   1      41.758  27.120  30.073  1.00  0.00     0.167 HD
ATOM     42  C   UNL A   1      42.445  30.076  33.237  1.00  0.00     0.034 A 
ATOM     43  C   UNL A   1      42.587  25.127  28.291  1.00  0.00     0.034 A 
ATOM     44  C   UNL A   1      43.536  29.146  33.338  1.00  0.00     0.049 A 
ATOM     45  C   UNL A   1      43.671  25.241  29.327  1.00  0.00     0.074 A 
ATOM     46  C   UNL A   1      44.550  29.108  34.279  1.00  0.00     0.029 A 
ATOM     47  N   UNL A   1      43.767  28.098  32.459  1.00  0.00    -0.354 N 
ATOM     48  N   UNL A   1      43.754  26.062  30.346  1.00  0.00    -0.248 NA
ATOM     49  C   UNL A   1      44.795  24.298  29.224  1.00  0.00     0.031 C 
ATOM     50  C   UNL A   1      45.415  28.061  33.946  1.00  0.00     0.029 A 
ATOM     51  C   UNL A   1      44.916  27.419  32.824  1.00  0.00     0.049 A 
ATOM     52  H   UNL A   1      43.197  27.871  31.689  1.00  0.00     0.167 HD
ATOM     53  C   UNL A   1      44.917  25.715  31.024  1.00  0.00     0.074 A 
ATOM     54  C   UNL A   1      45.496  24.596  30.308  1.00  0.00     0.031 C 
ATOM     55  C   UNL A   1      45.459  26.278  32.131  1.00  0.00     0.034 A 
BRANCH  42  56
ATOM     56  C   UNL A   1      42.385  31.224  34.211  1.00  0.00     0.023 A 
ATOM     57  C   UNL A   1      41.790  31.038  35.477  1.00  0.00     0.012 A 
ATOM     58  C   UNL A   1      42.947  32.475  33.892  1.00  0.00     0.148 A 
ATOM     59  C   UNL A   1      41.712  32.089  36.389  1.00  0.00     0.002 A 
ATOM     60  C   UNL A   1      42.912  33.504  34.826  1.00  0.00     0.091 A 
ATOM     61  F   UNL A   1      43.491  32.643  32.678  1.00  0.00    -0.205 F 
ATOM     62  C   UNL A   1      42.282  33.317  36.068  1.00  0.00     0.022 A 
BRANCH  60  63
ATOM     63  S   UNL A   1      43.692  35.096  34.541  1.00  0.00     0.127 S 
ATOM     64  O   UNL A   1      44.964  34.698  33.940  1.00  0.00    -0.237 OA
ATOM     65  O   UNL A   1      42.755  35.736  33.617  1.00  0.00    -0.237 OA
ATOM     66  O   UNL A   1      43.788  35.736  35.845  1.00  0.00    -0.744 OA
ENDBRANCH  60  63
ENDBRANCH  42  56
BRANCH  43  67
ATOM     67  C   UNL A   1      42.673  24.126  27.190  1.00  0.00     0.023 A 
ATOM     68  C   UNL A   1      43.406  24.432  26.027  1.00  0.00     0.012 A 
ATOM     69  C   UNL A   1      42.071  22.859  27.310  1.00  0.00     0.148 A 
ATOM     70  C   UNL A   1      43.513  23.503  24.990  1.00  0.00     0.002 A 
ATOM     71  C   UNL A   1      42.228  21.918  26.299  1.00  0.00     0.091 A 
ATOM     72  F   UNL A   1      41.371  22.593  28.422  1.00  0.00    -0.205 F 
ATOM     73  C   UNL A   1      42.934  22.244  25.131  1.00  0.00     0.022 A 
BRANCH  71  74
ATOM     74  S   UNL A   1      41.639  20.228  26.453  1.00  0.00     0.127 S 
ATOM     75  O   UNL A   1      40.197  20.400  26.298  1.00  0.00    -0.237 OA
ATOM     76  O   UNL A   1      42.308  19.574  25.329  1.00  0.00    -0.237 OA
ATOM     77  O   UNL A   1      42.083  19.772  27.764  1.00  0.00    -0.744 OA
ENDBRANCH  71  74
ENDBRANCH  43  67
BRANCH  55  78
ATOM     78  C   UNL A   1      46.728  25.675  32.677  1.00  0.00     0.023 A 
ATOM     79  C   UNL A   1      46.669  24.742  33.730  1.00  0.00     0.012 A 
ATOM     80  C   UNL A   1      47.970  25.969  32.079  1.00  0.00     0.148 A 
ATOM     81  C   UNL A   1      47.832  24.129  34.197  1.00  0.00     0.002 A 
ATOM     82  C   UNL A   1      49.115  25.316  32.515  1.00  0.00     0.091 A 
ATOM     83  F   UNL A   1      48.004  26.874  31.090  1.00  0.00    -0.205 F 
ATOM     84  C   UNL A   1      49.051  24.405  33.581  1.00  0.00     0.022 A 
BRANCH  82  85
ATOM     85  S   UNL A   1      50.711  25.532  31.719  1.00  0.00     0.127 S 
ATOM     86  O   UNL A   1      50.415  25.129  30.345  1.00  0.00    -0.237 OA
ATOM     87  O   UNL A   1      50.954  26.963  31.897  1.00  0.00    -0.237 OA
ATOM     88  O   UNL A   1      51.640  24.666  32.434  1.00  0.00    -0.744 OA
ENDBRANCH  82  85
ENDBRANCH  55  78
ENDBRANCH  29  30
ENDBRANCH  21  24
ENDBRANCH  19  20
ENDBRANCH  18  19
ENDBRANCH   1  18
TORSDOF 17
ENDMDL
MODEL 3
REMARK VINA RESULT:     -10.1      3.585      8.533
REMARK SMILES C[C@@H](C(=O)NCCCNC(=O)c1ccc(-c2c3nc(c(-c4cccc(S(=O)(=O)[O-])c4F)c4ccc([nH]4)c(-c4cccc(S(=O)(=O)[O-])c4F)c4nc(c(-c5cccc(S(=O)(=O)[O-])c5F)c5ccc2[nH]5)C=C4)C=C3)cc1)[C@H](C)[N@@H+](C)[C@@H](C)C1CC1
REMARK SMILES IDX 6 1 5 2 3 3 4 4 2 6 1 7 75 8 76 9 77 10 78 11 79 13 80 14
REMARK SMILES IDX 81 15 82 16 83 17 7 18 8 19 9 20 10 21 11 23 12 24 13 25
REMARK SMILES IDX 74 26 14 27 73 28 15 29 16 30 17 31 67 32 18 33 72 34 66 35
REMARK SMILES IDX 68 36 19 37 71 38 65 39 64 40 20 42 52 43 32 44 51 45 33 46
REMARK SMILES IDX 36 47 50 48 69 49 34 50 35 51 49 53 70 54 37 55 21 56 22 57
REMARK SMILES IDX 30 58 23 59 25 60 31 61 24 62 26 63 27 64 28 65 29 66 53 67
REMARK SMILES IDX 54 68 62 69 55 70 57 71 63 72 56 73 58 74 59 75 60 76 61 77
REMARK SMILES IDX 38 78 39 79 47 80 40 81 42 82 48 83 41 84 43 85 44 86 45 87
REMARK SMILES IDX 46 88
REMARK H PARENT 5 5 77 12 9 22 68 41 36 52
REMARK Flexibility Score: inf
ROOT
ATOM      1  C   UNL A   1      31.561  30.418  25.581  1.00  0.00     0.117 C 
ENDROOT
BRANCH   1   2
ATOM      2  N   UNL A   1      31.786  29.284  26.454  1.00  0.00    -0.356 N 
ATOM      3  C   UNL A   1      31.432  27.982  26.260  1.00  0.00     0.228 C 
ATOM      4  O   UNL A   1      31.206  27.317  27.266  1.00  0.00    -0.275 OA
ATOM      5  H   UNL A   1      32.254  29.479  27.297  1.00  0.00     0.163 HD
BRANCH   3   6
ATOM      6  C   UNL A   1      31.346  27.446  24.842  1.00  0.00     0.133 C 
ATOM      7  C   UNL A   1      30.054  26.621  24.711  1.00  0.00     0.024 C 
BRANCH   6   8
ATOM      8  C   UNL A   1      32.585  26.618  24.374  1.00  0.00     0.193 C 
ATOM      9  C   UNL A   1      33.847  27.459  24.116  1.00  0.00     0.076 C 
BRANCH   8  10
ATOM     10  N   UNL A   1      32.457  25.442  23.466  1.00  0.00    -0.332 N 
ATOM     11  C   UNL A   1      32.937  25.803  22.117  1.00  0.00     0.333 C 
ATOM     12  H   UNL A   1      31.454  25.283  23.566  1.00  0.00     0.348 HD
BRANCH  10  13
ATOM     13  C   UNL A   1      32.922  24.080  23.811  1.00  0.00     0.184 C 
ATOM     14  C   UNL A   1      34.225  23.612  23.126  1.00  0.00     0.075 C 
BRANCH  13  15
ATOM     15  C   UNL A   1      32.756  23.444  25.174  1.00  0.00     0.047 C 
ATOM     16  C   UNL A   1      31.907  23.863  26.345  1.00  0.00     0.010 C 
ATOM     17  C   UNL A   1      31.506  22.669  25.530  1.00  0.00     0.010 C 
ENDBRANCH  13  15
ENDBRANCH  10  13
ENDBRANCH   8  10
ENDBRANCH   6   8
ENDBRANCH   3   6
ENDBRANCH   1   2
BRANCH   1  18
ATOM     18  C   UNL A   1      31.325  31.675  26.414  1.00  0.00     0.042 C 
BRANCH  18  19
ATOM     19  C   UNL A   1      32.557  32.121  27.196  1.00  0.00     0.118 C 
BRANCH  19  20
ATOM     20  N   UNL A   1      32.491  33.528  27.574  1.00  0.00    -0.352 N 
ATOM     21  C   UNL A   1      33.254  34.206  28.490  1.00  0.00     0.251 C 
ATOM     22  H   UNL A   1      31.808  34.063  27.110  1.00  0.00     0.163 HD
ATOM     23  O   UNL A   1      32.930  35.335  28.852  1.00  0.00    -0.269 OA
BRANCH  21  24
ATOM     24  C   UNL A   1      34.457  33.556  29.047  1.00  0.00     0.039 A 
ATOM     25  C   UNL A   1      35.714  34.092  28.765  1.00  0.00     0.014 A 
ATOM     26  C   UNL A   1      34.328  32.439  29.876  1.00  0.00     0.014 A 
ATOM     27  C   UNL A   1      36.845  33.540  29.369  1.00  0.00     0.010 A 
ATOM     28  C   UNL A   1      35.444  31.948  30.542  1.00  0.00     0.010 A 
ATOM     29  C   UNL A   1      36.715  32.487  30.290  1.00  0.00    -0.014 A 
BRANCH  29  30
ATOM     30  C   UNL A   1      37.891  31.936  31.009  1.00  0.00     0.031 A 
ATOM     31  C   UNL A   1      38.673  30.799  30.413  1.00  0.00     0.074 A 
ATOM     32  C   UNL A   1      38.190  32.389  32.243  1.00  0.00     0.049 A 
ATOM     33  N   UNL A   1      39.671  30.127  30.923  1.00  0.00    -0.248 NA
ATOM     34  C   UNL A   1      38.256  30.332  29.079  1.00  0.00     0.031 C 
ATOM     35  C   UNL A   1      37.453  33.429  32.964  1.00  0.00     0.029 A 
ATOM     36  N   UNL A   1      39.169  32.006  33.125  1.00  0.00    -0.354 N 
ATOM     37  C   UNL A   1      39.975  29.137  29.997  1.00  0.00     0.074 A 
ATOM     38  C   UNL A   1      39.031  29.271  28.909  1.00  0.00     0.031 C 
ATOM     39  C   UNL A   1      38.000  33.596  34.177  1.00  0.00     0.029 A 
ATOM     40  C   UNL A   1      39.101  32.651  34.337  1.00  0.00     0.049 A 
ATOM     41  H   UNL A   1      39.855  31.332  32.910  1.00  0.00     0.167 HD
ATOM     42  C   UNL A   1      40.968  28.217  30.034  1.00  0.00     0.034 A 
ATOM     43  C   UNL A   1      39.829  32.486  35.460  1.00  0.00     0.034 A 
ATOM     44  C   UNL A   1      41.923  28.110  31.102  1.00  0.00     0.049 A 
ATOM     45  C   UNL A   1      40.947  31.481  35.466  1.00  0.00     0.074 A 
ATOM     46  C   UNL A   1      43.024  27.277  31.192  1.00  0.00     0.029 A 
ATOM     47  N   UNL A   1      41.881  28.846  32.277  1.00  0.00    -0.354 N 
ATOM     48  N   UNL A   1      41.327  30.666  34.512  1.00  0.00    -0.248 NA
ATOM     49  C   UNL A   1      41.763  31.397  36.686  1.00  0.00     0.031 C 
ATOM     50  C   UNL A   1      43.626  27.484  32.436  1.00  0.00     0.029 A 
ATOM     51  C   UNL A   1      42.926  28.475  33.105  1.00  0.00     0.049 A 
ATOM     52  H   UNL A   1      41.208  29.532  32.490  1.00  0.00     0.167 HD
ATOM     53  C   UNL A   1      42.442  29.996  35.002  1.00  0.00     0.074 A 
ATOM     54  C   UNL A   1      42.687  30.515  36.332  1.00  0.00     0.031 C 
ATOM     55  C   UNL A   1      43.188  29.033  34.408  1.00  0.00     0.034 A 
BRANCH  42  56
ATOM     56  C   UNL A   1      41.089  27.275  28.862  1.00  0.00     0.023 A 
ATOM     57  C   UNL A   1      40.259  26.137  28.790  1.00  0.00     0.012 A 
ATOM     58  C   UNL A   1      41.997  27.535  27.817  1.00  0.00     0.148 A 
ATOM     59  C   UNL A   1      40.364  25.247  27.722  1.00  0.00     0.002 A 
ATOM     60  C   UNL A   1      42.058  26.671  26.729  1.00  0.00     0.091 A 
ATOM     61  F   UNL A   1      42.792  28.609  27.910  1.00  0.00    -0.205 F 
ATOM     62  C   UNL A   1      41.254  25.520  26.688  1.00  0.00     0.022 A 
BRANCH  60  63
ATOM     63  S   UNL A   1      43.111  26.979  25.308  1.00  0.00     0.127 S 
ATOM     64  O   UNL A   1      44.374  27.343  25.950  1.00  0.00    -0.237 OA
ATOM     65  O   UNL A   1      43.119  25.675  24.644  1.00  0.00    -0.237 OA
ATOM     66  O   UNL A   1      42.464  28.040  24.551  1.00  0.00    -0.744 OA
ENDBRANCH  60  63
ENDBRANCH  42  56
BRANCH  43  67
ATOM     67  C   UNL A   1      39.540  33.327  36.656  1.00  0.00     0.023 A 
ATOM     68  C   UNL A   1      39.952  34.673  36.677  1.00  0.00     0.012 A 
ATOM     69  C   UNL A   1      38.821  32.811  37.751  1.00  0.00     0.148 A 
ATOM     70  C   UNL A   1      39.677  35.483  37.781  1.00  0.00     0.002 A 
ATOM     71  C   UNL A   1      38.501  33.637  38.822  1.00  0.00     0.091 A 
ATOM     72  F   UNL A   1      38.445  31.524  37.713  1.00  0.00    -0.205 F 
ATOM     73  C   UNL A   1      38.944  34.968  38.847  1.00  0.00     0.022 A 
BRANCH  71  74
ATOM     74  S   UNL A   1      37.442  33.102  40.171  1.00  0.00     0.127 S 
ATOM     75  O   UNL A   1      37.441  34.280  41.034  1.00  0.00    -0.237 OA
ATOM     76  O   UNL A   1      36.181  32.842  39.478  1.00  0.00    -0.237 OA
ATOM     77  O   UNL A   1      38.078  31.914  40.725  1.00  0.00    -0.744 OA
ENDBRANCH  71  74
ENDBRANCH  43  67
BRANCH  55  78
ATOM     78  C   UNL A   1      44.375  28.495  35.165  1.00  0.00     0.023 A 
ATOM     79  C   UNL A   1      45.652  29.049  34.961  1.00  0.00     0.012 A 
ATOM     80  C   UNL A   1      44.199  27.500  36.149  1.00  0.00     0.148 A 
ATOM     81  C   UNL A   1      46.744  28.602  35.706  1.00  0.00     0.002 A 
ATOM     82  C   UNL A   1      45.280  27.097  36.922  1.00  0.00     0.091 A 
ATOM     83  F   UNL A   1      42.976  26.974  36.314  1.00  0.00    -0.205 F 
ATOM     84  C   UNL A   1      46.555  27.639  36.694  1.00  0.00     0.022 A 
BRANCH  82  85
ATOM     85  S   UNL A   1      45.115  25.937  38.283  1.00  0.00     0.127 S 
ATOM     86  O   UNL A   1      44.076  26.573  39.092  1.00  0.00    -0.237 OA
ATOM     87  O   UNL A   1      44.693  24.716  37.598  1.00  0.00    -0.237 OA
ATOM     88  O   UNL A   1      46.429  25.858  38.909  1.00  0.00    -0.744 OA
ENDBRANCH  82  85
ENDBRANCH  55  78
ENDBRANCH  29  30
ENDBRANCH  21  24
ENDBRANCH  19  20
ENDBRANCH  18  19
ENDBRANCH   1  18
TORSDOF 17
ENDMDL
