MODEL 1
REMARK VINA RESULT:     -11.4      0.000      0.000
REMARK SMILES C[C@@H]1C[C@@]([NH2+]Cc2cccs2)(C(=O)NCCCNC(=O)c2ccc(-c3c4nc(c(-c5cccc(S(=O)(=O)[O-])c5F)c5ccc([nH]5)c(-c5cccc(S(=O)(=O)[O-])c5F)c5nc(c(-c6cccc(S(=O)(=O)[O-])c6F)c6ccc3[nH]6)C=C5)C=C4)cc2)CS1
REMARK SMILES IDX 16 1 15 2 14 3 12 4 13 5 4 7 1 8 2 9 3 10 85 11 84 12 5 13
REMARK SMILES IDX 6 16 7 17 8 18 11 19 9 20 10 21 17 22 18 23 19 24 20 26
REMARK SMILES IDX 21 27 22 28 83 29 23 30 82 31 24 32 25 33 26 34 76 35 27 36
REMARK SMILES IDX 81 37 75 38 77 39 28 40 80 41 74 42 73 43 29 45 61 46 41 47
REMARK SMILES IDX 60 48 42 49 45 50 59 51 78 52 43 53 44 54 58 56 79 57 46 58
REMARK SMILES IDX 30 59 31 60 39 61 32 62 34 63 40 64 33 65 35 66 36 67 37 68
REMARK SMILES IDX 38 69 62 70 63 71 71 72 64 73 66 74 72 75 65 76 67 77 68 78
REMARK SMILES IDX 69 79 70 80 47 81 48 82 56 83 49 84 51 85 57 86 50 87 52 88
REMARK SMILES IDX 53 89 54 90 55 91
REMARK H PARENT 14 6 5 14 5 15 18 25 77 44 45 55
REMARK Flexibility Score: inf
ROOT
ATOM      1  C   UNL A   1      32.106  30.992  26.392  1.00  0.00     0.042 C 
ENDROOT
BRANCH   1   2
ATOM      2  C   UNL A   1      32.575  29.605  25.964  1.00  0.00     0.118 C 
BRANCH   2   3
ATOM      3  N   UNL A   1      33.333  29.646  24.728  1.00  0.00    -0.351 N 
ATOM      4  C   UNL A   1      33.571  28.686  23.792  1.00  0.00     0.282 C 
ATOM      5  O   UNL A   1      34.240  29.036  22.813  1.00  0.00    -0.268 OA
ATOM      6  H   UNL A   1      33.746  30.518  24.532  1.00  0.00     0.163 HD
BRANCH   4   7
ATOM      7  C   UNL A   1      32.987  27.250  23.911  1.00  0.00     0.185 C 
ATOM      8  C   UNL A   1      33.416  24.162  26.115  1.00  0.00     0.019 C 
ATOM      9  C   UNL A   1      33.922  25.163  25.092  1.00  0.00     0.050 C 
ATOM     10  C   UNL A   1      33.365  26.585  25.275  1.00  0.00     0.094 C 
ATOM     11  S   UNL A   1      33.460  24.683  23.415  1.00  0.00    -0.151 SA
ATOM     12  C   UNL A   1      33.667  26.375  22.831  1.00  0.00     0.148 C 
BRANCH   7  13
ATOM     13  N   UNL A   1      31.491  27.299  23.855  1.00  0.00    -0.328 N 
ATOM     14  H   UNL A   1      31.179  27.970  24.557  1.00  0.00     0.347 HD
ATOM     15  H   UNL A   1      31.190  26.337  24.012  1.00  0.00     0.347 HD
BRANCH  13  16
ATOM     16  C   UNL A   1      30.878  27.682  22.577  1.00  0.00     0.309 C 
BRANCH  16  17
ATOM     17  C   UNL A   1      29.567  28.396  22.738  1.00  0.00     0.059 A 
ATOM     18  C   UNL A   1      28.392  27.941  23.309  1.00  0.00     0.021 A 
ATOM     19  S   UNL A   1      29.387  29.997  22.145  1.00  0.00    -0.143 S 
ATOM     20  C   UNL A   1      27.309  28.841  23.107  1.00  0.00     0.012 A 
ATOM     21  C   UNL A   1      27.711  29.997  22.478  1.00  0.00     0.065 A 
ENDBRANCH  16  17
ENDBRANCH  13  16
ENDBRANCH   7  13
ENDBRANCH   4   7
ENDBRANCH   2   3
ENDBRANCH   1   2
BRANCH   1  22
ATOM     22  C   UNL A   1      33.101  31.748  27.268  1.00  0.00     0.118 C 
BRANCH  22  23
ATOM     23  N   UNL A   1      32.710  33.132  27.505  1.00  0.00    -0.352 N 
ATOM     24  C   UNL A   1      33.189  34.037  28.425  1.00  0.00     0.251 C 
ATOM     25  H   UNL A   1      31.996  33.472  26.918  1.00  0.00     0.163 HD
ATOM     26  O   UNL A   1      32.615  35.106  28.583  1.00  0.00    -0.269 OA
BRANCH  24  27
ATOM     27  C   UNL A   1      34.376  33.701  29.241  1.00  0.00     0.039 A 
ATOM     28  C   UNL A   1      34.211  32.894  30.369  1.00  0.00     0.014 A 
ATOM     29  C   UNL A   1      35.647  34.162  28.887  1.00  0.00     0.014 A 
ATOM     30  C   UNL A   1      35.332  32.473  31.090  1.00  0.00     0.010 A 
ATOM     31  C   UNL A   1      36.767  33.680  29.560  1.00  0.00     0.010 A 
ATOM     32  C   UNL A   1      36.624  32.819  30.658  1.00  0.00    -0.014 A 
BRANCH  32  33
ATOM     33  C   UNL A   1      37.834  32.244  31.300  1.00  0.00     0.031 A 
ATOM     34  C   UNL A   1      38.555  31.084  30.672  1.00  0.00     0.074 A 
ATOM     35  C   UNL A   1      38.220  32.704  32.509  1.00  0.00     0.049 A 
ATOM     36  N   UNL A   1      39.562  30.391  31.138  1.00  0.00    -0.248 NA
ATOM     37  C   UNL A   1      38.071  30.629  29.359  1.00  0.00     0.031 C 
ATOM     38  C   UNL A   1      37.556  33.773  33.258  1.00  0.00     0.029 A 
ATOM     39  N   UNL A   1      39.239  32.303  33.338  1.00  0.00    -0.354 N 
ATOM     40  C   UNL A   1      39.815  29.405  30.193  1.00  0.00     0.074 A 
ATOM     41  C   UNL A   1      38.834  29.568  29.142  1.00  0.00     0.031 C 
ATOM     42  C   UNL A   1      38.173  33.933  34.439  1.00  0.00     0.029 A 
ATOM     43  C   UNL A   1      39.249  32.955  34.551  1.00  0.00     0.049 A 
ATOM     44  H   UNL A   1      39.897  31.615  33.091  1.00  0.00     0.167 HD
ATOM     45  C   UNL A   1      40.793  28.468  30.186  1.00  0.00     0.034 A 
ATOM     46  C   UNL A   1      40.017  32.768  35.643  1.00  0.00     0.034 A 
ATOM     47  C   UNL A   1      41.781  28.323  31.222  1.00  0.00     0.049 A 
ATOM     48  C   UNL A   1      41.095  31.720  35.610  1.00  0.00     0.074 A 
ATOM     49  C   UNL A   1      42.857  27.454  31.267  1.00  0.00     0.029 A 
ATOM     50  N   UNL A   1      41.808  29.054  32.399  1.00  0.00    -0.354 N 
ATOM     51  N   UNL A   1      41.420  30.903  34.637  1.00  0.00    -0.248 NA
ATOM     52  C   UNL A   1      41.930  31.583  36.812  1.00  0.00     0.031 C 
ATOM     53  C   UNL A   1      43.517  27.637  32.487  1.00  0.00     0.029 A 
ATOM     54  C   UNL A   1      42.871  28.642  33.188  1.00  0.00     0.049 A 
ATOM     55  H   UNL A   1      41.167  29.761  32.640  1.00  0.00     0.167 HD
ATOM     56  C   UNL A   1      42.508  30.173  35.100  1.00  0.00     0.074 A 
ATOM     57  C   UNL A   1      42.808  30.667  36.428  1.00  0.00     0.031 C 
ATOM     58  C   UNL A   1      43.187  29.170  34.489  1.00  0.00     0.034 A 
BRANCH  45  59
ATOM     59  C   UNL A   1      40.882  27.555  28.990  1.00  0.00     0.023 A 
ATOM     60  C   UNL A   1      39.983  26.474  28.878  1.00  0.00     0.012 A 
ATOM     61  C   UNL A   1      41.795  27.804  27.947  1.00  0.00     0.148 A 
ATOM     62  C   UNL A   1      40.011  25.638  27.763  1.00  0.00     0.002 A 
ATOM     63  C   UNL A   1      41.789  26.993  26.819  1.00  0.00     0.091 A 
ATOM     64  F   UNL A   1      42.653  28.827  28.079  1.00  0.00    -0.205 F 
ATOM     65  C   UNL A   1      40.906  25.903  26.730  1.00  0.00     0.022 A 
BRANCH  63  66
ATOM     66  S   UNL A   1      42.845  27.294  25.397  1.00  0.00     0.127 S 
ATOM     67  O   UNL A   1      42.752  26.019  24.686  1.00  0.00    -0.237 OA
ATOM     68  O   UNL A   1      42.163  28.409  24.739  1.00  0.00    -0.237 OA
ATOM     69  O   UNL A   1      44.160  27.612  25.932  1.00  0.00    -0.744 OA
ENDBRANCH  63  66
ENDBRANCH  45  59
BRANCH  46  70
ATOM     70  C   UNL A   1      39.802  33.605  36.857  1.00  0.00     0.023 A 
ATOM     71  C   UNL A   1      40.327  34.911  36.908  1.00  0.00     0.012 A 
ATOM     72  C   UNL A   1      39.063  33.121  37.955  1.00  0.00     0.148 A 
ATOM     73  C   UNL A   1      40.153  35.703  38.043  1.00  0.00     0.002 A 
ATOM     74  C   UNL A   1      38.841  33.938  39.057  1.00  0.00     0.091 A 
ATOM     75  F   UNL A   1      38.581  31.871  37.894  1.00  0.00    -0.205 F 
ATOM     76  C   UNL A   1      39.402  35.222  39.112  1.00  0.00     0.022 A 
BRANCH  74  77
ATOM     77  S   UNL A   1      37.768  33.449  40.412  1.00  0.00     0.127 S 
ATOM     78  O   UNL A   1      37.704  34.675  41.202  1.00  0.00    -0.237 OA
ATOM     79  O   UNL A   1      36.533  33.100  39.711  1.00  0.00    -0.237 OA
ATOM     80  O   UNL A   1      38.431  32.318  41.049  1.00  0.00    -0.744 OA
ENDBRANCH  74  77
ENDBRANCH  46  70
BRANCH  58  81
ATOM     81  C   UNL A   1      44.332  28.542  35.238  1.00  0.00     0.023 A 
ATOM     82  C   UNL A   1      45.648  28.988  35.002  1.00  0.00     0.012 A 
ATOM     83  C   UNL A   1      44.097  27.573  36.233  1.00  0.00     0.148 A 
ATOM     84  C   UNL A   1      46.716  28.460  35.726  1.00  0.00     0.002 A 
ATOM     85  C   UNL A   1      45.160  27.087  36.985  1.00  0.00     0.091 A 
ATOM     86  F   UNL A   1      42.840  27.153  36.433  1.00  0.00    -0.205 F 
ATOM     87  C   UNL A   1      46.471  27.520  36.726  1.00  0.00     0.022 A 
BRANCH  85  88
ATOM     88  S   UNL A   1      44.938  25.944  38.354  1.00  0.00     0.127 S 
ATOM     89  O   UNL A   1      46.222  26.053  39.044  1.00  0.00    -0.237 OA
ATOM     90  O   UNL A   1      43.808  26.538  39.070  1.00  0.00    -0.237 OA
ATOM     91  O   UNL A   1      44.665  24.645  37.756  1.00  0.00    -0.744 OA
ENDBRANCH  85  88
ENDBRANCH  58  81
ENDBRANCH  32  33
ENDBRANCH  24  27
ENDBRANCH  22  23
ENDBRANCH   1  22
TORSDOF 16
ENDMDL
MODEL 2
REMARK VINA RESULT:     -11.3      6.751     11.634
REMARK SMILES C[C@@H]1C[C@@]([NH2+]Cc2cccs2)(C(=O)NCCCNC(=O)c2ccc(-c3c4nc(c(-c5cccc(S(=O)(=O)[O-])c5F)c5ccc([nH]5)c(-c5cccc(S(=O)(=O)[O-])c5F)c5nc(c(-c6cccc(S(=O)(=O)[O-])c6F)c6ccc3[nH]6)C=C5)C=C4)cc2)CS1
REMARK SMILES IDX 16 1 15 2 14 3 12 4 13 5 4 7 1 8 2 9 3 10 85 11 84 12 5 13
REMARK SMILES IDX 6 16 7 17 8 18 11 19 9 20 10 21 17 22 18 23 19 24 20 26
REMARK SMILES IDX 21 27 22 28 83 29 23 30 82 31 24 32 25 33 26 34 76 35 27 36
REMARK SMILES IDX 81 37 75 38 77 39 28 40 80 41 74 42 73 43 29 45 61 46 41 47
REMARK SMILES IDX 60 48 42 49 45 50 59 51 78 52 43 53 44 54 58 56 79 57 46 58
REMARK SMILES IDX 30 59 31 60 39 61 32 62 34 63 40 64 33 65 35 66 36 67 37 68
REMARK SMILES IDX 38 69 62 70 63 71 71 72 64 73 66 74 72 75 65 76 67 77 68 78
REMARK SMILES IDX 69 79 70 80 47 81 48 82 56 83 49 84 51 85 57 86 50 87 52 88
REMARK SMILES IDX 53 89 54 90 55 91
REMARK H PARENT 14 6 5 14 5 15 18 25 77 44 45 55
REMARK Flexibility Score: inf
ROOT
ATOM      1  C   UNL A   1      37.369  20.481  25.005  1.00  0.00     0.042 C 
ENDROOT
BRANCH   1   2
ATOM      2  C   UNL A   1      36.273  21.534  25.132  1.00  0.00     0.118 C 
BRANCH   2   3
ATOM      3  N   UNL A   1      35.589  21.453  26.409  1.00  0.00    -0.351 N 
ATOM      4  C   UNL A   1      34.439  22.037  26.847  1.00  0.00     0.282 C 
ATOM      5  O   UNL A   1      34.087  21.748  27.996  1.00  0.00    -0.268 OA
ATOM      6  H   UNL A   1      36.032  20.877  27.073  1.00  0.00     0.163 HD
BRANCH   4   7
ATOM      7  C   UNL A   1      33.583  22.965  25.939  1.00  0.00     0.185 C 
ATOM      8  C   UNL A   1      33.675  26.542  24.609  1.00  0.00     0.019 C 
ATOM      9  C   UNL A   1      33.552  25.529  25.734  1.00  0.00     0.050 C 
ATOM     10  C   UNL A   1      34.373  24.247  25.517  1.00  0.00     0.094 C 
ATOM     11  S   UNL A   1      31.847  24.976  25.939  1.00  0.00    -0.151 SA
ATOM     12  C   UNL A   1      32.393  23.480  26.783  1.00  0.00     0.148 C 
BRANCH   7  13
ATOM     13  N   UNL A   1      33.217  22.247  24.676  1.00  0.00    -0.328 N 
ATOM     14  H   UNL A   1      34.058  21.784  24.331  1.00  0.00     0.347 HD
ATOM     15  H   UNL A   1      32.839  22.970  24.063  1.00  0.00     0.347 HD
BRANCH  13  16
ATOM     16  C   UNL A   1      32.158  21.235  24.760  1.00  0.00     0.309 C 
BRANCH  16  17
ATOM     17  C   UNL A   1      32.479  19.975  24.008  1.00  0.00     0.059 A 
ATOM     18  C   UNL A   1      32.108  19.608  22.727  1.00  0.00     0.021 A 
ATOM     19  S   UNL A   1      33.414  18.746  24.758  1.00  0.00    -0.143 S 
ATOM     20  C   UNL A   1      32.447  18.258  22.432  1.00  0.00     0.012 A 
ATOM     21  C   UNL A   1      33.153  17.670  23.455  1.00  0.00     0.065 A 
ENDBRANCH  16  17
ENDBRANCH  13  16
ENDBRANCH   7  13
ENDBRANCH   4   7
ENDBRANCH   2   3
ENDBRANCH   1   2
BRANCH   1  22
ATOM     22  C   UNL A   1      38.673  20.842  25.710  1.00  0.00     0.118 C 
BRANCH  22  23
ATOM     23  N   UNL A   1      39.598  19.720  25.802  1.00  0.00    -0.352 N 
ATOM     24  C   UNL A   1      40.953  19.714  26.044  1.00  0.00     0.251 C 
ATOM     25  H   UNL A   1      39.193  18.832  25.671  1.00  0.00     0.163 HD
ATOM     26  O   UNL A   1      41.590  18.677  25.916  1.00  0.00    -0.269 OA
BRANCH  24  27
ATOM     27  C   UNL A   1      41.640  20.967  26.427  1.00  0.00     0.039 A 
ATOM     28  C   UNL A   1      42.052  21.843  25.420  1.00  0.00     0.014 A 
ATOM     29  C   UNL A   1      41.859  21.286  27.769  1.00  0.00     0.014 A 
ATOM     30  C   UNL A   1      42.602  23.082  25.763  1.00  0.00     0.010 A 
ATOM     31  C   UNL A   1      42.335  22.549  28.109  1.00  0.00     0.010 A 
ATOM     32  C   UNL A   1      42.698  23.466  27.111  1.00  0.00    -0.014 A 
BRANCH  32  33
ATOM     33  C   UNL A   1      43.114  24.840  27.496  1.00  0.00     0.031 A 
ATOM     34  C   UNL A   1      42.108  25.823  28.027  1.00  0.00     0.074 A 
ATOM     35  C   UNL A   1      44.383  25.234  27.264  1.00  0.00     0.049 A 
ATOM     36  N   UNL A   1      42.267  27.089  28.316  1.00  0.00    -0.248 NA
ATOM     37  C   UNL A   1      40.739  25.327  28.243  1.00  0.00     0.031 C 
ATOM     38  C   UNL A   1      45.434  24.396  26.680  1.00  0.00     0.029 A 
ATOM     39  N   UNL A   1      44.996  26.448  27.453  1.00  0.00    -0.354 N 
ATOM     40  C   UNL A   1      41.020  27.547  28.722  1.00  0.00     0.074 A 
ATOM     41  C   UNL A   1      40.105  26.432  28.609  1.00  0.00     0.031 C 
ATOM     42  C   UNL A   1      46.553  25.124  26.545  1.00  0.00     0.029 A 
ATOM     43  C   UNL A   1      46.293  26.488  26.993  1.00  0.00     0.049 A 
ATOM     44  H   UNL A   1      44.551  27.217  27.876  1.00  0.00     0.167 HD
ATOM     45  C   UNL A   1      40.675  28.776  29.175  1.00  0.00     0.034 A 
ATOM     46  C   UNL A   1      47.167  27.511  26.912  1.00  0.00     0.034 A 
ATOM     47  C   UNL A   1      41.591  29.876  29.307  1.00  0.00     0.049 A 
ATOM     48  C   UNL A   1      46.757  28.865  27.421  1.00  0.00     0.074 A 
ATOM     49  C   UNL A   1      41.352  31.136  29.828  1.00  0.00     0.029 A 
ATOM     50  N   UNL A   1      42.917  29.856  28.905  1.00  0.00    -0.354 N 
ATOM     51  N   UNL A   1      45.616  29.236  27.951  1.00  0.00    -0.248 NA
ATOM     52  C   UNL A   1      47.760  29.938  27.346  1.00  0.00     0.031 C 
ATOM     53  C   UNL A   1      42.525  31.888  29.712  1.00  0.00     0.029 A 
ATOM     54  C   UNL A   1      43.505  31.087  29.147  1.00  0.00     0.049 A 
ATOM     55  H   UNL A   1      43.375  29.080  28.506  1.00  0.00     0.167 HD
ATOM     56  C   UNL A   1      45.772  30.574  28.293  1.00  0.00     0.074 A 
ATOM     57  C   UNL A   1      47.127  30.941  27.939  1.00  0.00     0.031 C 
ATOM     58  C   UNL A   1      44.868  31.428  28.832  1.00  0.00     0.034 A 
BRANCH  45  59
ATOM     59  C   UNL A   1      39.248  28.984  29.618  1.00  0.00     0.023 A 
ATOM     60  C   UNL A   1      38.858  28.571  30.908  1.00  0.00     0.012 A 
ATOM     61  C   UNL A   1      38.319  29.651  28.796  1.00  0.00     0.148 A 
ATOM     62  C   UNL A   1      37.558  28.789  31.362  1.00  0.00     0.002 A 
ATOM     63  C   UNL A   1      37.038  29.904  29.271  1.00  0.00     0.091 A 
ATOM     64  F   UNL A   1      38.704  30.023  27.566  1.00  0.00    -0.205 F 
ATOM     65  C   UNL A   1      36.653  29.464  30.549  1.00  0.00     0.022 A 
BRANCH  63  66
ATOM     66  S   UNL A   1      35.818  30.835  28.336  1.00  0.00     0.127 S 
ATOM     67  O   UNL A   1      36.632  31.920  27.789  1.00  0.00    -0.237 OA
ATOM     68  O   UNL A   1      35.372  29.850  27.350  1.00  0.00    -0.237 OA
ATOM     69  O   UNL A   1      34.801  31.243  29.294  1.00  0.00    -0.744 OA
ENDBRANCH  63  66
ENDBRANCH  45  59
BRANCH  46  70
ATOM     70  C   UNL A   1      48.524  27.288  26.338  1.00  0.00     0.023 A 
ATOM     71  C   UNL A   1      49.562  26.812  27.162  1.00  0.00     0.012 A 
ATOM     72  C   UNL A   1      48.786  27.528  24.974  1.00  0.00     0.148 A 
ATOM     73  C   UNL A   1      50.844  26.616  26.648  1.00  0.00     0.002 A 
ATOM     74  C   UNL A   1      50.050  27.271  24.456  1.00  0.00     0.091 A 
ATOM     75  F   UNL A   1      47.790  27.993  24.208  1.00  0.00    -0.205 F 
ATOM     76  C   UNL A   1      51.086  26.835  25.294  1.00  0.00     0.022 A 
BRANCH  74  77
ATOM     77  S   UNL A   1      50.407  27.390  22.699  1.00  0.00     0.127 S 
ATOM     78  O   UNL A   1      50.280  28.826  22.464  1.00  0.00    -0.237 OA
ATOM     79  O   UNL A   1      51.773  26.872  22.632  1.00  0.00    -0.237 OA
ATOM     80  O   UNL A   1      49.417  26.549  22.039  1.00  0.00    -0.744 OA
ENDBRANCH  74  77
ENDBRANCH  46  70
BRANCH  58  81
ATOM     81  C   UNL A   1      45.309  32.845  29.090  1.00  0.00     0.023 A 
ATOM     82  C   UNL A   1      46.005  33.153  30.276  1.00  0.00     0.012 A 
ATOM     83  C   UNL A   1      45.112  33.849  28.122  1.00  0.00     0.148 A 
ATOM     84  C   UNL A   1      46.473  34.446  30.508  1.00  0.00     0.002 A 
ATOM     85  C   UNL A   1      45.625  35.123  28.338  1.00  0.00     0.091 A 
ATOM     86  F   UNL A   1      44.437  33.538  27.007  1.00  0.00    -0.205 F 
ATOM     87  C   UNL A   1      46.296  35.426  29.534  1.00  0.00     0.022 A 
BRANCH  85  88
ATOM     88  S   UNL A   1      45.528  36.429  27.108  1.00  0.00     0.127 S 
ATOM     89  O   UNL A   1      46.233  37.521  27.776  1.00  0.00    -0.237 OA
ATOM     90  O   UNL A   1      46.246  35.840  25.977  1.00  0.00    -0.237 OA
ATOM     91  O   UNL A   1      44.109  36.660  26.874  1.00  0.00    -0.744 OA
ENDBRANCH  85  88
ENDBRANCH  58  81
ENDBRANCH  32  33
ENDBRANCH  24  27
ENDBRANCH  22  23
ENDBRANCH   1  22
TORSDOF 16
ENDMDL
MODEL 3
REMARK VINA RESULT:     -11.3      6.179     12.029
REMARK SMILES C[C@@H]1C[C@@]([NH2+]Cc2cccs2)(C(=O)NCCCNC(=O)c2ccc(-c3c4nc(c(-c5cccc(S(=O)(=O)[O-])c5F)c5ccc([nH]5)c(-c5cccc(S(=O)(=O)[O-])c5F)c5nc(c(-c6cccc(S(=O)(=O)[O-])c6F)c6ccc3[nH]6)C=C5)C=C4)cc2)CS1
REMARK SMILES IDX 16 1 15 2 14 3 12 4 13 5 4 7 1 8 2 9 3 10 85 11 84 12 5 13
REMARK SMILES IDX 6 16 7 17 8 18 11 19 9 20 10 21 17 22 18 23 19 24 20 26
REMARK SMILES IDX 21 27 22 28 83 29 23 30 82 31 24 32 25 33 26 34 76 35 27 36
REMARK SMILES IDX 81 37 75 38 77 39 28 40 80 41 74 42 73 43 29 45 61 46 41 47
REMARK SMILES IDX 60 48 42 49 45 50 59 51 78 52 43 53 44 54 58 56 79 57 46 58
REMARK SMILES IDX 30 59 31 60 39 61 32 62 34 63 40 64 33 65 35 66 36 67 37 68
REMARK SMILES IDX 38 69 62 70 63 71 71 72 64 73 66 74 72 75 65 76 67 77 68 78
REMARK SMILES IDX 69 79 70 80 47 81 48 82 56 83 49 84 51 85 57 86 50 87 52 88
REMARK SMILES IDX 53 89 54 90 55 91
REMARK H PARENT 14 6 5 14 5 15 18 25 77 44 45 55
REMARK Flexibility Score: inf
ROOT
ATOM      1  C   UNL A   1      37.677  20.698  25.072  1.00  0.00     0.042 C 
ENDROOT
BRANCH   1   2
ATOM      2  C   UNL A   1      36.642  21.805  25.244  1.00  0.00     0.118 C 
BRANCH   2   3
ATOM      3  N   UNL A   1      35.843  21.620  26.440  1.00  0.00    -0.351 N 
ATOM      4  C   UNL A   1      34.596  22.065  26.761  1.00  0.00     0.282 C 
ATOM      5  O   UNL A   1      34.160  21.712  27.863  1.00  0.00    -0.268 OA
ATOM      6  H   UNL A   1      36.276  21.080  27.141  1.00  0.00     0.163 HD
BRANCH   4   7
ATOM      7  C   UNL A   1      33.741  22.914  25.778  1.00  0.00     0.185 C 
ATOM      8  C   UNL A   1      33.748  26.427  24.283  1.00  0.00     0.019 C 
ATOM      9  C   UNL A   1      33.620  25.463  25.450  1.00  0.00     0.050 C 
ATOM     10  C   UNL A   1      34.497  24.206  25.325  1.00  0.00     0.094 C 
ATOM     11  S   UNL A   1      31.931  24.853  25.618  1.00  0.00    -0.151 SA
ATOM     12  C   UNL A   1      32.500  23.420  26.552  1.00  0.00     0.148 C 
BRANCH   7  13
ATOM     13  N   UNL A   1      33.451  22.125  24.538  1.00  0.00    -0.328 N 
ATOM     14  H   UNL A   1      34.308  21.636  24.278  1.00  0.00     0.347 HD
ATOM     15  H   UNL A   1      33.123  22.813  23.860  1.00  0.00     0.347 HD
BRANCH  13  16
ATOM     16  C   UNL A   1      32.379  21.126  24.612  1.00  0.00     0.309 C 
BRANCH  16  17
ATOM     17  C   UNL A   1      32.745  19.814  23.981  1.00  0.00     0.059 A 
ATOM     18  C   UNL A   1      32.176  19.185  22.888  1.00  0.00     0.021 A 
ATOM     19  S   UNL A   1      34.019  18.872  24.643  1.00  0.00    -0.143 S 
ATOM     20  C   UNL A   1      32.674  17.865  22.704  1.00  0.00     0.012 A 
ATOM     21  C   UNL A   1      33.676  17.564  23.598  1.00  0.00     0.065 A 
ENDBRANCH  16  17
ENDBRANCH  13  16
ENDBRANCH   7  13
ENDBRANCH   4   7
ENDBRANCH   2   3
ENDBRANCH   1   2
BRANCH   1  22
ATOM     22  C   UNL A   1      39.007  20.967  25.771  1.00  0.00     0.118 C 
BRANCH  22  23
ATOM     23  N   UNL A   1      39.864  19.790  25.832  1.00  0.00    -0.352 N 
ATOM     24  C   UNL A   1      41.224  19.700  26.016  1.00  0.00     0.251 C 
ATOM     25  H   UNL A   1      39.399  18.928  25.727  1.00  0.00     0.163 HD
ATOM     26  O   UNL A   1      41.789  18.624  25.870  1.00  0.00    -0.269 OA
BRANCH  24  27
ATOM     27  C   UNL A   1      42.004  20.910  26.358  1.00  0.00     0.039 A 
ATOM     28  C   UNL A   1      42.450  21.738  25.325  1.00  0.00     0.014 A 
ATOM     29  C   UNL A   1      42.278  21.237  27.689  1.00  0.00     0.014 A 
ATOM     30  C   UNL A   1      43.090  22.942  25.631  1.00  0.00     0.010 A 
ATOM     31  C   UNL A   1      42.847  22.471  27.993  1.00  0.00     0.010 A 
ATOM     32  C   UNL A   1      43.246  23.343  26.969  1.00  0.00    -0.014 A 
BRANCH  32  33
ATOM     33  C   UNL A   1      43.763  24.692  27.317  1.00  0.00     0.031 A 
ATOM     34  C   UNL A   1      42.830  25.769  27.798  1.00  0.00     0.074 A 
ATOM     35  C   UNL A   1      45.064  24.976  27.096  1.00  0.00     0.049 A 
ATOM     36  N   UNL A   1      43.085  27.027  28.048  1.00  0.00    -0.248 NA
ATOM     37  C   UNL A   1      41.423  25.390  28.003  1.00  0.00     0.031 C 
ATOM     38  C   UNL A   1      46.054  24.040  26.559  1.00  0.00     0.029 A 
ATOM     39  N   UNL A   1      45.767  26.144  27.258  1.00  0.00    -0.354 N 
ATOM     40  C   UNL A   1      41.872  27.596  28.416  1.00  0.00     0.074 A 
ATOM     41  C   UNL A   1      40.873  26.553  28.322  1.00  0.00     0.031 C 
ATOM     42  C   UNL A   1      47.229  24.672  26.422  1.00  0.00     0.029 A 
ATOM     43  C   UNL A   1      47.071  26.066  26.821  1.00  0.00     0.049 A 
ATOM     44  H   UNL A   1      45.378  26.960  27.647  1.00  0.00     0.167 HD
ATOM     45  C   UNL A   1      41.617  28.862  28.823  1.00  0.00     0.034 A 
ATOM     46  C   UNL A   1      48.024  27.014  26.723  1.00  0.00     0.034 A 
ATOM     47  C   UNL A   1      42.616  29.890  28.936  1.00  0.00     0.049 A 
ATOM     48  C   UNL A   1      47.715  28.413  27.180  1.00  0.00     0.074 A 
ATOM     49  C   UNL A   1      42.469  31.182  29.411  1.00  0.00     0.029 A 
ATOM     50  N   UNL A   1      43.943  29.752  28.560  1.00  0.00    -0.354 N 
ATOM     51  N   UNL A   1      46.599  28.890  27.677  1.00  0.00    -0.248 NA
ATOM     52  C   UNL A   1      48.801  29.400  27.090  1.00  0.00     0.031 C 
ATOM     53  C   UNL A   1      43.700  31.835  29.293  1.00  0.00     0.029 A 
ATOM     54  C   UNL A   1      44.622  30.941  28.773  1.00  0.00     0.049 A 
ATOM     55  H   UNL A   1      44.343  28.930  28.195  1.00  0.00     0.167 HD
ATOM     56  C   UNL A   1      46.855  30.222  27.979  1.00  0.00     0.074 A 
ATOM     57  C   UNL A   1      48.241  30.469  27.639  1.00  0.00     0.031 C 
ATOM     58  C   UNL A   1      46.013  31.163  28.473  1.00  0.00     0.034 A 
BRANCH  45  59
ATOM     59  C   UNL A   1      40.205  29.197  29.232  1.00  0.00     0.023 A 
ATOM     60  C   UNL A   1      39.264  29.547  28.242  1.00  0.00     0.012 A 
ATOM     61  C   UNL A   1      39.791  29.095  30.574  1.00  0.00     0.148 A 
ATOM     62  C   UNL A   1      37.941  29.821  28.584  1.00  0.00     0.002 A 
ATOM     63  C   UNL A   1      38.460  29.326  30.902  1.00  0.00     0.091 A 
ATOM     64  F   UNL A   1      40.704  28.776  31.503  1.00  0.00    -0.205 F 
ATOM     65  C   UNL A   1      37.537  29.700  29.910  1.00  0.00     0.022 A 
BRANCH  63  66
ATOM     66  S   UNL A   1      37.818  29.122  32.567  1.00  0.00     0.127 S 
ATOM     67  O   UNL A   1      38.691  30.013  33.331  1.00  0.00    -0.237 OA
ATOM     68  O   UNL A   1      36.440  29.595  32.424  1.00  0.00    -0.237 OA
ATOM     69  O   UNL A   1      37.948  27.706  32.879  1.00  0.00    -0.744 OA
ENDBRANCH  63  66
ENDBRANCH  45  59
BRANCH  46  70
ATOM     70  C   UNL A   1      49.368  26.666  26.182  1.00  0.00     0.023 A 
ATOM     71  C   UNL A   1      50.237  25.854  26.937  1.00  0.00     0.012 A 
ATOM     72  C   UNL A   1      49.784  27.120  24.914  1.00  0.00     0.148 A 
ATOM     73  C   UNL A   1      51.507  25.533  26.456  1.00  0.00     0.002 A 
ATOM     74  C   UNL A   1      51.025  26.745  24.416  1.00  0.00     0.091 A 
ATOM     75  F   UNL A   1      48.949  27.903  24.216  1.00  0.00    -0.205 F 
ATOM     76  C   UNL A   1      51.897  25.969  25.193  1.00  0.00     0.022 A 
BRANCH  74  77
ATOM     77  S   UNL A   1      51.546  27.144  22.744  1.00  0.00     0.127 S 
ATOM     78  O   UNL A   1      50.377  26.753  21.963  1.00  0.00    -0.237 OA
ATOM     79  O   UNL A   1      51.774  28.586  22.833  1.00  0.00    -0.237 OA
ATOM     80  O   UNL A   1      52.755  26.364  22.512  1.00  0.00    -0.744 OA
ENDBRANCH  74  77
ENDBRANCH  46  70
BRANCH  58  81
ATOM     81  C   UNL A   1      46.561  32.548  28.693  1.00  0.00     0.023 A 
ATOM     82  C   UNL A   1      47.010  32.925  29.975  1.00  0.00     0.012 A 
ATOM     83  C   UNL A   1      46.712  33.444  27.616  1.00  0.00     0.148 A 
ATOM     84  C   UNL A   1      47.574  34.181  30.188  1.00  0.00     0.002 A 
ATOM     85  C   UNL A   1      47.321  34.675  27.826  1.00  0.00     0.091 A 
ATOM     86  F   UNL A   1      46.268  33.071  26.408  1.00  0.00    -0.205 F 
ATOM     87  C   UNL A   1      47.742  35.051  29.112  1.00  0.00     0.022 A 
BRANCH  85  88
ATOM     88  S   UNL A   1      47.665  35.827  26.490  1.00  0.00     0.127 S 
ATOM     89  O   UNL A   1      48.543  36.793  27.148  1.00  0.00    -0.237 OA
ATOM     90  O   UNL A   1      48.328  34.969  25.508  1.00  0.00    -0.237 OA
ATOM     91  O   UNL A   1      46.374  36.352  26.066  1.00  0.00    -0.744 OA
ENDBRANCH  85  88
ENDBRANCH  58  81
ENDBRANCH  32  33
ENDBRANCH  24  27
ENDBRANCH  22  23
ENDBRANCH   1  22
TORSDOF 16
ENDMDL
