MODEL 1
REMARK VINA RESULT:     -12.8      0.000      0.000
REMARK SMILES O=C(NCCCNC(=O)c1ccc(-c2c3nc(c(-c4cccc(S(=O)(=O)[O-])c4F)c4ccc([nH]4)c(-c4cccc(S(=O)(=O)[O-])c4F)c4nc(c(-c5cccc(S(=O)(=O)[O-])c5F)c5ccc2[nH]5)C=C4)C=C3)cc1)C1=Cc2cc(Cl)cc(Cl)c2O[C@@H]1C(F)(F)F
REMARK SMILES IDX 6 1 5 2 4 3 3 4 1 5 2 6 73 8 74 9 84 10 75 11 83 12 76 13
REMARK SMILES IDX 82 14 77 15 80 16 78 17 79 18 81 19 85 20 86 21 87 22 88 23
REMARK SMILES IDX 7 24 8 25 9 27 10 28 11 29 72 30 12 31 71 32 13 33 14 34
REMARK SMILES IDX 15 35 65 36 16 37 70 38 64 39 66 40 17 41 69 42 63 43 62 44
REMARK SMILES IDX 18 46 50 47 30 48 49 49 31 50 34 51 48 52 67 53 32 54 33 55
REMARK SMILES IDX 47 57 68 58 35 59 19 60 20 61 28 62 21 63 23 64 29 65 22 66
REMARK SMILES IDX 24 67 25 68 26 69 27 70 51 71 52 72 60 73 53 74 55 75 61 76
REMARK SMILES IDX 54 77 56 78 57 79 58 80 59 81 36 82 37 83 45 84 38 85 40 86
REMARK SMILES IDX 46 87 39 88 41 89 42 90 43 91 44 92
REMARK H PARENT 3 7 7 26 66 45 34 56
REMARK Flexibility Score: inf
ROOT
ATOM      1  C   UNL A   1      32.661  29.486  25.998  1.00  0.00     0.118 C 
ENDROOT
BRANCH   1   2
ATOM      2  C   UNL A   1      31.796  28.371  26.569  1.00  0.00     0.042 C 
BRANCH   2   3
ATOM      3  C   UNL A   1      32.506  27.027  26.538  1.00  0.00     0.118 C 
BRANCH   3   4
ATOM      4  N   UNL A   1      31.722  25.935  27.121  1.00  0.00    -0.352 N 
ATOM      5  O   UNL A   1      30.642  23.936  27.102  1.00  0.00    -0.270 OA
ATOM      6  C   UNL A   1      31.020  24.931  26.499  1.00  0.00     0.251 C 
ATOM      7  H   UNL A   1      31.693  25.920  28.105  1.00  0.00     0.163 HD
BRANCH   6   8
ATOM      8  C   UNL A   1      30.835  25.051  25.040  1.00  0.00     0.067 C 
ATOM      9  C   UNL A   1      29.844  25.843  24.610  1.00  0.00     0.025 C 
ATOM     10  C   UNL A   1      31.984  24.637  24.179  1.00  0.00     0.314 C 
ATOM     11  C   UNL A   1      30.266  26.780  23.557  1.00  0.00     0.020 A 
ATOM     12  O   UNL A   1      32.468  25.725  23.357  1.00  0.00    -0.474 OA
ATOM     13  C   UNL A   1      29.480  27.926  23.380  1.00  0.00     0.032 A 
ATOM     14  C   UNL A   1      31.606  26.771  23.113  1.00  0.00     0.146 A 
ATOM     15  C   UNL A   1      30.061  29.086  22.871  1.00  0.00     0.043 A 
ATOM     16  C   UNL A   1      32.161  27.940  22.577  1.00  0.00     0.085 A 
ATOM     17  Cl  UNL A   1      29.151  30.545  22.847  1.00  0.00    -0.084 Cl
ATOM     18  C   UNL A   1      31.399  29.105  22.485  1.00  0.00     0.045 A 
ATOM     19  Cl  UNL A   1      33.842  28.031  22.180  1.00  0.00    -0.080 Cl
BRANCH  10  20
ATOM     20  C   UNL A   1      31.640  23.413  23.317  1.00  0.00     0.429 C 
ATOM     21  F   UNL A   1      31.879  22.262  23.995  1.00  0.00    -0.167 F 
ATOM     22  F   UNL A   1      30.336  23.389  22.960  1.00  0.00    -0.167 F 
ATOM     23  F   UNL A   1      32.372  23.361  22.179  1.00  0.00    -0.167 F 
ENDBRANCH  10  20
ENDBRANCH   6   8
ENDBRANCH   3   4
ENDBRANCH   2   3
ENDBRANCH   1   2
BRANCH   1  24
ATOM     24  N   UNL A   1      32.321  30.821  26.494  1.00  0.00    -0.352 N 
ATOM     25  C   UNL A   1      33.065  31.713  27.246  1.00  0.00     0.251 C 
ATOM     26  H   UNL A   1      31.418  31.132  26.255  1.00  0.00     0.163 HD
ATOM     27  O   UNL A   1      32.562  32.758  27.628  1.00  0.00    -0.269 OA
BRANCH  25  28
ATOM     28  C   UNL A   1      34.456  31.370  27.623  1.00  0.00     0.039 A 
ATOM     29  C   UNL A   1      35.423  32.377  27.681  1.00  0.00     0.014 A 
ATOM     30  C   UNL A   1      34.780  30.070  27.997  1.00  0.00     0.014 A 
ATOM     31  C   UNL A   1      36.672  32.104  28.255  1.00  0.00     0.010 A 
ATOM     32  C   UNL A   1      35.959  29.839  28.689  1.00  0.00     0.010 A 
ATOM     33  C   UNL A   1      36.919  30.852  28.838  1.00  0.00    -0.014 A 
BRANCH  33  34
ATOM     34  C   UNL A   1      38.144  30.546  29.629  1.00  0.00     0.031 A 
ATOM     35  C   UNL A   1      39.163  29.588  29.065  1.00  0.00     0.074 A 
ATOM     36  C   UNL A   1      38.259  30.975  30.903  1.00  0.00     0.049 A 
ATOM     37  N   UNL A   1      40.136  28.960  29.672  1.00  0.00    -0.248 NA
ATOM     38  C   UNL A   1      39.021  29.238  27.641  1.00  0.00     0.031 C 
ATOM     39  C   UNL A   1      37.310  31.846  31.602  1.00  0.00     0.029 A 
ATOM     40  N   UNL A   1      39.212  30.702  31.854  1.00  0.00    -0.354 N 
ATOM     41  C   UNL A   1      40.661  28.082  28.730  1.00  0.00     0.074 A 
ATOM     42  C   UNL A   1      39.874  28.231  27.526  1.00  0.00     0.031 C 
ATOM     43  C   UNL A   1      37.736  32.049  32.859  1.00  0.00     0.029 A 
ATOM     44  C   UNL A   1      38.958  31.284  33.077  1.00  0.00     0.049 A 
ATOM     45  H   UNL A   1      40.002  30.141  31.680  1.00  0.00     0.167 HD
ATOM     46  C   UNL A   1      41.725  27.253  28.840  1.00  0.00     0.034 A 
ATOM     47  C   UNL A   1      39.628  31.201  34.244  1.00  0.00     0.034 A 
ATOM     48  C   UNL A   1      42.570  27.191  30.001  1.00  0.00     0.049 A 
ATOM     49  C   UNL A   1      40.866  30.347  34.314  1.00  0.00     0.074 A 
ATOM     50  C   UNL A   1      43.734  26.465  30.183  1.00  0.00     0.029 A 
ATOM     51  N   UNL A   1      42.355  27.907  31.169  1.00  0.00    -0.354 N 
ATOM     52  N   UNL A   1      41.412  29.608  33.378  1.00  0.00    -0.248 NA
ATOM     53  C   UNL A   1      41.597  30.337  35.590  1.00  0.00     0.031 C 
ATOM     54  C   UNL A   1      44.226  26.749  31.461  1.00  0.00     0.029 A 
ATOM     55  C   UNL A   1      43.373  27.656  32.070  1.00  0.00     0.049 A 
ATOM     56  H   UNL A   1      41.591  28.506  31.333  1.00  0.00     0.167 HD
ATOM     57  C   UNL A   1      42.571  29.082  33.936  1.00  0.00     0.074 A 
ATOM     58  C   UNL A   1      42.654  29.595  35.288  1.00  0.00     0.031 C 
ATOM     59  C   UNL A   1      43.477  28.239  33.383  1.00  0.00     0.034 A 
BRANCH  46  60
ATOM     60  C   UNL A   1      42.075  26.406  27.643  1.00  0.00     0.023 A 
ATOM     61  C   UNL A   1      42.762  26.990  26.558  1.00  0.00     0.012 A 
ATOM     62  C   UNL A   1      41.744  25.038  27.592  1.00  0.00     0.148 A 
ATOM     63  C   UNL A   1      43.064  26.243  25.421  1.00  0.00     0.002 A 
ATOM     64  C   UNL A   1      42.093  24.287  26.475  1.00  0.00     0.091 A 
ATOM     65  F   UNL A   1      41.071  24.501  28.619  1.00  0.00    -0.205 F 
ATOM     66  C   UNL A   1      42.738  24.891  25.383  1.00  0.00     0.022 A 
BRANCH  64  67
ATOM     67  S   UNL A   1      41.789  22.519  26.372  1.00  0.00     0.127 S 
ATOM     68  O   UNL A   1      40.329  22.472  26.330  1.00  0.00    -0.237 OA
ATOM     69  O   UNL A   1      42.445  22.162  25.113  1.00  0.00    -0.237 OA
ATOM     70  O   UNL A   1      42.408  21.943  27.557  1.00  0.00    -0.744 OA
ENDBRANCH  64  67
ENDBRANCH  46  60
BRANCH  47  71
ATOM     71  C   UNL A   1      39.199  32.024  35.411  1.00  0.00     0.023 A 
ATOM     72  C   UNL A   1      38.330  31.449  36.360  1.00  0.00     0.012 A 
ATOM     73  C   UNL A   1      39.664  33.337  35.615  1.00  0.00     0.148 A 
ATOM     74  C   UNL A   1      37.910  32.174  37.475  1.00  0.00     0.002 A 
ATOM     75  C   UNL A   1      39.281  34.037  36.755  1.00  0.00     0.091 A 
ATOM     76  F   UNL A   1      40.483  33.870  34.698  1.00  0.00    -0.205 F 
ATOM     77  C   UNL A   1      38.393  33.464  37.678  1.00  0.00     0.022 A 
BRANCH  75  78
ATOM     78  S   UNL A   1      39.949  35.654  37.165  1.00  0.00     0.127 S 
ATOM     79  O   UNL A   1      39.253  35.957  38.413  1.00  0.00    -0.237 OA
ATOM     80  O   UNL A   1      41.376  35.365  37.310  1.00  0.00    -0.237 OA
ATOM     81  O   UNL A   1      39.624  36.512  36.034  1.00  0.00    -0.744 OA
ENDBRANCH  75  78
ENDBRANCH  47  71
BRANCH  59  82
ATOM     82  C   UNL A   1      44.676  27.857  34.209  1.00  0.00     0.023 A 
ATOM     83  C   UNL A   1      45.827  28.666  34.187  1.00  0.00     0.012 A 
ATOM     84  C   UNL A   1      44.616  26.755  35.085  1.00  0.00     0.148 A 
ATOM     85  C   UNL A   1      46.912  28.374  35.012  1.00  0.00     0.002 A 
ATOM     86  C   UNL A   1      45.683  26.496  35.936  1.00  0.00     0.091 A 
ATOM     87  F   UNL A   1      43.517  25.987  35.073  1.00  0.00    -0.205 F 
ATOM     88  C   UNL A   1      46.834  27.299  35.897  1.00  0.00     0.022 A 
BRANCH  86  89
ATOM     89  S   UNL A   1      45.629  25.194  37.173  1.00  0.00     0.127 S 
ATOM     90  O   UNL A   1      45.563  23.995  36.339  1.00  0.00    -0.237 OA
ATOM     91  O   UNL A   1      46.900  25.379  37.875  1.00  0.00    -0.237 OA
ATOM     92  O   UNL A   1      44.448  25.458  37.983  1.00  0.00    -0.744 OA
ENDBRANCH  86  89
ENDBRANCH  59  82
ENDBRANCH  33  34
ENDBRANCH  25  28
ENDBRANCH   1  24
TORSDOF 14
ENDMDL
MODEL 2
REMARK VINA RESULT:     -12.7      5.203      7.589
REMARK SMILES O=C(NCCCNC(=O)c1ccc(-c2c3nc(c(-c4cccc(S(=O)(=O)[O-])c4F)c4ccc([nH]4)c(-c4cccc(S(=O)(=O)[O-])c4F)c4nc(c(-c5cccc(S(=O)(=O)[O-])c5F)c5ccc2[nH]5)C=C4)C=C3)cc1)C1=Cc2cc(Cl)cc(Cl)c2O[C@@H]1C(F)(F)F
REMARK SMILES IDX 6 1 5 2 4 3 3 4 1 5 2 6 73 8 74 9 84 10 75 11 83 12 76 13
REMARK SMILES IDX 82 14 77 15 80 16 78 17 79 18 81 19 85 20 86 21 87 22 88 23
REMARK SMILES IDX 7 24 8 25 9 27 10 28 11 29 72 30 12 31 71 32 13 33 14 34
REMARK SMILES IDX 15 35 65 36 16 37 70 38 64 39 66 40 17 41 69 42 63 43 62 44
REMARK SMILES IDX 18 46 50 47 30 48 49 49 31 50 34 51 48 52 67 53 32 54 33 55
REMARK SMILES IDX 47 57 68 58 35 59 19 60 20 61 28 62 21 63 23 64 29 65 22 66
REMARK SMILES IDX 24 67 25 68 26 69 27 70 51 71 52 72 60 73 53 74 55 75 61 76
REMARK SMILES IDX 54 77 56 78 57 79 58 80 59 81 36 82 37 83 45 84 38 85 40 86
REMARK SMILES IDX 46 87 39 88 41 89 42 90 43 91 44 92
REMARK H PARENT 3 7 7 26 66 45 34 56
REMARK Flexibility Score: inf
ROOT
ATOM      1  C   UNL A   1      37.280  21.559  25.008  1.00  0.00     0.118 C 
ENDROOT
BRANCH   1   2
ATOM      2  C   UNL A   1      36.005  21.400  25.825  1.00  0.00     0.042 C 
BRANCH   2   3
ATOM      3  C   UNL A   1      34.776  21.260  24.941  1.00  0.00     0.118 C 
BRANCH   3   4
ATOM      4  N   UNL A   1      34.768  22.176  23.798  1.00  0.00    -0.352 N 
ATOM      5  O   UNL A   1      34.523  24.190  22.772  1.00  0.00    -0.270 OA
ATOM      6  C   UNL A   1      34.222  23.432  23.684  1.00  0.00     0.251 C 
ATOM      7  H   UNL A   1      35.221  21.841  22.989  1.00  0.00     0.163 HD
BRANCH   6   8
ATOM      8  C   UNL A   1      33.334  23.874  24.776  1.00  0.00     0.067 C 
ATOM      9  C   UNL A   1      33.782  24.851  25.575  1.00  0.00     0.025 C 
ATOM     10  C   UNL A   1      31.888  23.514  24.656  1.00  0.00     0.314 C 
ATOM     11  C   UNL A   1      32.802  25.929  25.780  1.00  0.00     0.020 A 
ATOM     12  O   UNL A   1      31.036  24.684  24.626  1.00  0.00    -0.474 OA
ATOM     13  C   UNL A   1      33.306  27.172  26.183  1.00  0.00     0.032 A 
ATOM     14  C   UNL A   1      31.541  25.852  25.150  1.00  0.00     0.146 A 
ATOM     15  C   UNL A   1      32.611  28.335  25.855  1.00  0.00     0.043 A 
ATOM     16  C   UNL A   1      30.846  27.033  24.857  1.00  0.00     0.085 A 
ATOM     17  Cl  UNL A   1      33.330  29.866  26.169  1.00  0.00    -0.084 Cl
ATOM     18  C   UNL A   1      31.394  28.274  25.181  1.00  0.00     0.045 A 
ATOM     19  Cl  UNL A   1      29.383  27.003  23.934  1.00  0.00    -0.080 Cl
BRANCH  10  20
ATOM     20  C   UNL A   1      31.446  22.546  25.764  1.00  0.00     0.429 C 
ATOM     21  F   UNL A   1      31.455  21.264  25.317  1.00  0.00    -0.167 F 
ATOM     22  F   UNL A   1      32.268  22.587  26.837  1.00  0.00    -0.167 F 
ATOM     23  F   UNL A   1      30.192  22.803  26.204  1.00  0.00    -0.167 F 
ENDBRANCH  10  20
ENDBRANCH   6   8
ENDBRANCH   3   4
ENDBRANCH   2   3
ENDBRANCH   1   2
BRANCH   1  24
ATOM     24  N   UNL A   1      38.350  20.633  25.383  1.00  0.00    -0.352 N 
ATOM     25  C   UNL A   1      39.506  20.850  26.112  1.00  0.00     0.251 C 
ATOM     26  H   UNL A   1      38.227  19.709  25.066  1.00  0.00     0.163 HD
ATOM     27  O   UNL A   1      40.320  19.950  26.249  1.00  0.00    -0.269 OA
BRANCH  25  28
ATOM     28  C   UNL A   1      39.772  22.192  26.681  1.00  0.00     0.039 A 
ATOM     29  C   UNL A   1      40.770  22.346  27.648  1.00  0.00     0.014 A 
ATOM     30  C   UNL A   1      39.091  23.305  26.198  1.00  0.00     0.014 A 
ATOM     31  C   UNL A   1      41.180  23.634  28.018  1.00  0.00     0.010 A 
ATOM     32  C   UNL A   1      39.593  24.571  26.459  1.00  0.00     0.010 A 
ATOM     33  C   UNL A   1      40.651  24.756  27.364  1.00  0.00    -0.014 A 
BRANCH  33  34
ATOM     34  C   UNL A   1      41.167  26.139  27.564  1.00  0.00     0.031 A 
ATOM     35  C   UNL A   1      42.559  26.480  27.095  1.00  0.00     0.074 A 
ATOM     36  C   UNL A   1      40.476  27.024  28.311  1.00  0.00     0.049 A 
ATOM     37  N   UNL A   1      43.314  27.500  27.408  1.00  0.00    -0.248 NA
ATOM     38  C   UNL A   1      43.213  25.501  26.208  1.00  0.00     0.031 C 
ATOM     39  C   UNL A   1      39.149  26.801  28.893  1.00  0.00     0.029 A 
ATOM     40  N   UNL A   1      40.813  28.283  28.744  1.00  0.00    -0.354 N 
ATOM     41  C   UNL A   1      44.552  27.242  26.831  1.00  0.00     0.074 A 
ATOM     42  C   UNL A   1      44.458  25.953  26.184  1.00  0.00     0.031 C 
ATOM     43  C   UNL A   1      38.780  27.889  29.587  1.00  0.00     0.029 A 
ATOM     44  C   UNL A   1      39.860  28.868  29.548  1.00  0.00     0.049 A 
ATOM     45  H   UNL A   1      41.658  28.727  28.503  1.00  0.00     0.167 HD
ATOM     46  C   UNL A   1      45.659  28.022  26.808  1.00  0.00     0.034 A 
ATOM     47  C   UNL A   1      39.861  30.053  30.191  1.00  0.00     0.034 A 
ATOM     48  C   UNL A   1      45.710  29.349  27.357  1.00  0.00     0.049 A 
ATOM     49  C   UNL A   1      41.066  30.946  30.069  1.00  0.00     0.074 A 
ATOM     50  C   UNL A   1      46.743  30.266  27.299  1.00  0.00     0.029 A 
ATOM     51  N   UNL A   1      44.669  29.957  28.043  1.00  0.00    -0.354 N 
ATOM     52  N   UNL A   1      42.190  30.733  29.425  1.00  0.00    -0.248 NA
ATOM     53  C   UNL A   1      40.997  32.255  30.736  1.00  0.00     0.031 C 
ATOM     54  C   UNL A   1      46.322  31.434  27.944  1.00  0.00     0.029 A 
ATOM     55  C   UNL A   1      45.027  31.244  28.397  1.00  0.00     0.049 A 
ATOM     56  H   UNL A   1      43.804  29.534  28.247  1.00  0.00     0.167 HD
ATOM     57  C   UNL A   1      42.940  31.894  29.573  1.00  0.00     0.074 A 
ATOM     58  C   UNL A   1      42.140  32.811  30.357  1.00  0.00     0.031 C 
ATOM     59  C   UNL A   1      44.184  32.169  29.111  1.00  0.00     0.034 A 
BRANCH  46  60
ATOM     60  C   UNL A   1      46.875  27.483  26.097  1.00  0.00     0.023 A 
ATOM     61  C   UNL A   1      47.758  26.627  26.788  1.00  0.00     0.012 A 
ATOM     62  C   UNL A   1      47.139  27.805  24.753  1.00  0.00     0.148 A 
ATOM     63  C   UNL A   1      48.911  26.144  26.171  1.00  0.00     0.002 A 
ATOM     64  C   UNL A   1      48.265  27.279  24.128  1.00  0.00     0.091 A 
ATOM     65  F   UNL A   1      46.304  28.638  24.115  1.00  0.00    -0.205 F 
ATOM     66  C   UNL A   1      49.160  26.463  24.839  1.00  0.00     0.022 A 
BRANCH  64  67
ATOM     67  S   UNL A   1      48.623  27.567  22.390  1.00  0.00     0.127 S 
ATOM     68  O   UNL A   1      49.895  28.281  22.465  1.00  0.00    -0.237 OA
ATOM     69  O   UNL A   1      48.718  26.205  21.862  1.00  0.00    -0.237 OA
ATOM     70  O   UNL A   1      47.496  28.333  21.878  1.00  0.00    -0.744 OA
ENDBRANCH  64  67
ENDBRANCH  46  60
BRANCH  47  71
ATOM     71  C   UNL A   1      38.644  30.506  30.924  1.00  0.00     0.023 A 
ATOM     72  C   UNL A   1      38.570  30.282  32.313  1.00  0.00     0.012 A 
ATOM     73  C   UNL A   1      37.589  31.183  30.282  1.00  0.00     0.148 A 
ATOM     74  C   UNL A   1      37.458  30.699  33.045  1.00  0.00     0.002 A 
ATOM     75  C   UNL A   1      36.506  31.640  31.026  1.00  0.00     0.091 A 
ATOM     76  F   UNL A   1      37.673  31.380  28.959  1.00  0.00    -0.205 F 
ATOM     77  C   UNL A   1      36.431  31.385  32.405  1.00  0.00     0.022 A 
BRANCH  75  78
ATOM     78  S   UNL A   1      35.197  32.643  30.312  1.00  0.00     0.127 S 
ATOM     79  O   UNL A   1      34.292  32.805  31.447  1.00  0.00    -0.237 OA
ATOM     80  O   UNL A   1      35.921  33.853  29.922  1.00  0.00    -0.237 OA
ATOM     81  O   UNL A   1      34.677  31.870  29.192  1.00  0.00    -0.744 OA
ENDBRANCH  75  78
ENDBRANCH  47  71
BRANCH  59  82
ATOM     82  C   UNL A   1      44.747  33.538  29.384  1.00  0.00     0.023 A 
ATOM     83  C   UNL A   1      45.510  33.761  30.546  1.00  0.00     0.012 A 
ATOM     84  C   UNL A   1      44.607  34.569  28.435  1.00  0.00     0.148 A 
ATOM     85  C   UNL A   1      46.111  34.998  30.770  1.00  0.00     0.002 A 
ATOM     86  C   UNL A   1      45.246  35.785  28.643  1.00  0.00     0.091 A 
ATOM     87  F   UNL A   1      43.859  34.339  27.346  1.00  0.00    -0.205 F 
ATOM     88  C   UNL A   1      45.992  36.005  29.813  1.00  0.00     0.022 A 
BRANCH  86  89
ATOM     89  S   UNL A   1      45.226  37.100  27.420  1.00  0.00     0.127 S 
ATOM     90  O   UNL A   1      43.801  37.194  27.106  1.00  0.00    -0.237 OA
ATOM     91  O   UNL A   1      45.760  38.236  28.175  1.00  0.00    -0.237 OA
ATOM     92  O   UNL A   1      46.078  36.647  26.329  1.00  0.00    -0.744 OA
ENDBRANCH  86  89
ENDBRANCH  59  82
ENDBRANCH  33  34
ENDBRANCH  25  28
ENDBRANCH   1  24
TORSDOF 14
ENDMDL
MODEL 3
REMARK VINA RESULT:     -12.6      1.775      8.233
REMARK SMILES O=C(NCCCNC(=O)c1ccc(-c2c3nc(c(-c4cccc(S(=O)(=O)[O-])c4F)c4ccc([nH]4)c(-c4cccc(S(=O)(=O)[O-])c4F)c4nc(c(-c5cccc(S(=O)(=O)[O-])c5F)c5ccc2[nH]5)C=C4)C=C3)cc1)C1=Cc2cc(Cl)cc(Cl)c2O[C@@H]1C(F)(F)F
REMARK SMILES IDX 6 1 5 2 4 3 3 4 1 5 2 6 73 8 74 9 84 10 75 11 83 12 76 13
REMARK SMILES IDX 82 14 77 15 80 16 78 17 79 18 81 19 85 20 86 21 87 22 88 23
REMARK SMILES IDX 7 24 8 25 9 27 10 28 11 29 72 30 12 31 71 32 13 33 14 34
REMARK SMILES IDX 15 35 65 36 16 37 70 38 64 39 66 40 17 41 69 42 63 43 62 44
REMARK SMILES IDX 18 46 50 47 30 48 49 49 31 50 34 51 48 52 67 53 32 54 33 55
REMARK SMILES IDX 47 57 68 58 35 59 19 60 20 61 28 62 21 63 23 64 29 65 22 66
REMARK SMILES IDX 24 67 25 68 26 69 27 70 51 71 52 72 60 73 53 74 55 75 61 76
REMARK SMILES IDX 54 77 56 78 57 79 58 80 59 81 36 82 37 83 45 84 38 85 40 86
REMARK SMILES IDX 46 87 39 88 41 89 42 90 43 91 44 92
REMARK H PARENT 3 7 7 26 66 45 34 56
REMARK Flexibility Score: inf
ROOT
ATOM      1  C   UNL A   1      32.527  30.748  26.312  1.00  0.00     0.118 C 
ENDROOT
BRANCH   1   2
ATOM      2  C   UNL A   1      31.402  29.870  26.842  1.00  0.00     0.042 C 
BRANCH   2   3
ATOM      3  C   UNL A   1      31.927  28.590  27.471  1.00  0.00     0.118 C 
BRANCH   3   4
ATOM      4  N   UNL A   1      31.098  27.415  27.191  1.00  0.00    -0.352 N 
ATOM      5  O   UNL A   1      30.711  25.283  26.505  1.00  0.00    -0.270 OA
ATOM      6  C   UNL A   1      31.381  26.304  26.432  1.00  0.00     0.251 C 
ATOM      7  H   UNL A   1      30.206  27.424  27.606  1.00  0.00     0.163 HD
BRANCH   6   8
ATOM      8  C   UNL A   1      32.598  26.356  25.601  1.00  0.00     0.067 C 
ATOM      9  C   UNL A   1      33.702  25.777  26.092  1.00  0.00     0.025 C 
ATOM     10  C   UNL A   1      32.411  26.662  24.150  1.00  0.00     0.314 C 
ATOM     11  C   UNL A   1      34.370  24.890  25.127  1.00  0.00     0.020 A 
ATOM     12  O   UNL A   1      32.895  25.594  23.301  1.00  0.00    -0.474 OA
ATOM     13  C   UNL A   1      35.216  23.907  25.654  1.00  0.00     0.032 A 
ATOM     14  C   UNL A   1      33.823  24.728  23.836  1.00  0.00     0.146 A 
ATOM     15  C   UNL A   1      35.420  22.722  24.947  1.00  0.00     0.043 A 
ATOM     16  C   UNL A   1      34.065  23.542  23.130  1.00  0.00     0.085 A 
ATOM     17  Cl  UNL A   1      36.290  21.436  25.686  1.00  0.00    -0.084 Cl
ATOM     18  C   UNL A   1      34.836  22.528  23.698  1.00  0.00     0.045 A 
ATOM     19  Cl  UNL A   1      33.278  23.222  21.624  1.00  0.00    -0.080 Cl
BRANCH  10  20
ATOM     20  C   UNL A   1      33.053  28.002  23.761  1.00  0.00     0.429 C 
ATOM     21  F   UNL A   1      33.739  27.889  22.595  1.00  0.00    -0.167 F 
ATOM     22  F   UNL A   1      32.131  28.975  23.575  1.00  0.00    -0.167 F 
ATOM     23  F   UNL A   1      33.928  28.446  24.694  1.00  0.00    -0.167 F 
ENDBRANCH  10  20
ENDBRANCH   6   8
ENDBRANCH   3   4
ENDBRANCH   2   3
ENDBRANCH   1   2
BRANCH   1  24
ATOM     24  N   UNL A   1      32.535  32.107  26.859  1.00  0.00    -0.352 N 
ATOM     25  C   UNL A   1      33.480  32.755  27.633  1.00  0.00     0.251 C 
ATOM     26  H   UNL A   1      31.739  32.644  26.641  1.00  0.00     0.163 HD
ATOM     27  O   UNL A   1      33.258  33.878  28.058  1.00  0.00    -0.269 OA
BRANCH  25  28
ATOM     28  C   UNL A   1      34.742  32.060  27.982  1.00  0.00     0.039 A 
ATOM     29  C   UNL A   1      35.899  32.807  28.217  1.00  0.00     0.014 A 
ATOM     30  C   UNL A   1      34.756  30.680  28.156  1.00  0.00     0.014 A 
ATOM     31  C   UNL A   1      37.026  32.182  28.767  1.00  0.00     0.010 A 
ATOM     32  C   UNL A   1      35.817  30.094  28.829  1.00  0.00     0.010 A 
ATOM     33  C   UNL A   1      36.964  30.835  29.155  1.00  0.00    -0.014 A 
BRANCH  33  34
ATOM     34  C   UNL A   1      38.048  30.152  29.914  1.00  0.00     0.031 A 
ATOM     35  C   UNL A   1      38.309  30.553  31.345  1.00  0.00     0.074 A 
ATOM     36  C   UNL A   1      38.900  29.317  29.286  1.00  0.00     0.049 A 
ATOM     37  N   UNL A   1      39.353  30.316  32.095  1.00  0.00    -0.248 NA
ATOM     38  C   UNL A   1      37.285  31.394  31.990  1.00  0.00     0.031 C 
ATOM     39  C   UNL A   1      38.811  28.899  27.883  1.00  0.00     0.029 A 
ATOM     40  N   UNL A   1      40.039  28.695  29.738  1.00  0.00    -0.354 N 
ATOM     41  C   UNL A   1      39.151  31.046  33.261  1.00  0.00     0.074 A 
ATOM     42  C   UNL A   1      37.906  31.764  33.101  1.00  0.00     0.031 C 
ATOM     43  C   UNL A   1      39.837  28.081  27.598  1.00  0.00     0.029 A 
ATOM     44  C   UNL A   1      40.687  27.954  28.775  1.00  0.00     0.049 A 
ATOM     45  H   UNL A   1      40.363  28.774  30.665  1.00  0.00     0.167 HD
ATOM     46  C   UNL A   1      39.911  31.090  34.380  1.00  0.00     0.034 A 
ATOM     47  C   UNL A   1      41.841  27.259  28.832  1.00  0.00     0.034 A 
ATOM     48  C   UNL A   1      41.087  30.288  34.575  1.00  0.00     0.049 A 
ATOM     49  C   UNL A   1      42.619  27.244  30.120  1.00  0.00     0.074 A 
ATOM     50  C   UNL A   1      41.874  30.174  35.707  1.00  0.00     0.029 A 
ATOM     51  N   UNL A   1      41.629  29.442  33.621  1.00  0.00    -0.354 N 
ATOM     52  N   UNL A   1      42.354  27.854  31.251  1.00  0.00    -0.248 NA
ATOM     53  C   UNL A   1      43.838  26.423  30.153  1.00  0.00     0.031 C 
ATOM     54  C   UNL A   1      42.890  29.251  35.438  1.00  0.00     0.029 A 
ATOM     55  C   UNL A   1      42.730  28.786  34.142  1.00  0.00     0.049 A 
ATOM     56  H   UNL A   1      41.282  29.324  32.707  1.00  0.00     0.167 HD
ATOM     57  C   UNL A   1      43.346  27.456  32.140  1.00  0.00     0.074 A 
ATOM     58  C   UNL A   1      44.212  26.545  31.419  1.00  0.00     0.031 C 
ATOM     59  C   UNL A   1      43.531  27.823  33.431  1.00  0.00     0.034 A 
BRANCH  46  60
ATOM     60  C   UNL A   1      39.442  31.978  35.505  1.00  0.00     0.023 A 
ATOM     61  C   UNL A   1      38.530  31.471  36.454  1.00  0.00     0.012 A 
ATOM     62  C   UNL A   1      39.911  33.298  35.638  1.00  0.00     0.148 A 
ATOM     63  C   UNL A   1      38.048  32.279  37.482  1.00  0.00     0.002 A 
ATOM     64  C   UNL A   1      39.465  34.083  36.696  1.00  0.00     0.091 A 
ATOM     65  F   UNL A   1      40.760  33.775  34.718  1.00  0.00    -0.205 F 
ATOM     66  C   UNL A   1      38.522  33.581  37.609  1.00  0.00     0.022 A 
BRANCH  64  67
ATOM     67  S   UNL A   1      40.083  35.745  36.988  1.00  0.00     0.127 S 
ATOM     68  O   UNL A   1      41.523  35.514  37.077  1.00  0.00    -0.237 OA
ATOM     69  O   UNL A   1      39.654  36.455  35.782  1.00  0.00    -0.237 OA
ATOM     70  O   UNL A   1      39.437  36.196  38.212  1.00  0.00    -0.744 OA
ENDBRANCH  64  67
ENDBRANCH  46  60
BRANCH  47  71
ATOM     71  C   UNL A   1      42.278  26.442  27.663  1.00  0.00     0.023 A 
ATOM     72  C   UNL A   1      43.131  27.032  26.709  1.00  0.00     0.012 A 
ATOM     73  C   UNL A   1      41.901  25.095  27.506  1.00  0.00     0.148 A 
ATOM     74  C   UNL A   1      43.578  26.305  25.605  1.00  0.00     0.002 A 
ATOM     75  C   UNL A   1      42.391  24.361  26.430  1.00  0.00     0.091 A 
ATOM     76  F   UNL A   1      41.084  24.553  28.420  1.00  0.00    -0.205 F 
ATOM     77  C   UNL A   1      43.216  24.968  25.470  1.00  0.00     0.022 A 
BRANCH  75  78
ATOM     78  S   UNL A   1      42.082  22.600  26.241  1.00  0.00     0.127 S 
ATOM     79  O   UNL A   1      42.667  22.062  27.467  1.00  0.00    -0.237 OA
ATOM     80  O   UNL A   1      40.621  22.553  26.183  1.00  0.00    -0.237 OA
ATOM     81  O   UNL A   1      42.743  22.217  25.002  1.00  0.00    -0.744 OA
ENDBRANCH  75  78
ENDBRANCH  47  71
BRANCH  59  82
ATOM     82  C   UNL A   1      44.678  27.201  34.181  1.00  0.00     0.023 A 
ATOM     83  C   UNL A   1      45.930  27.843  34.202  1.00  0.00     0.012 A 
ATOM     84  C   UNL A   1      44.479  26.036  34.949  1.00  0.00     0.148 A 
ATOM     85  C   UNL A   1      46.977  27.324  34.963  1.00  0.00     0.002 A 
ATOM     86  C   UNL A   1      45.513  25.551  35.740  1.00  0.00     0.091 A 
ATOM     87  F   UNL A   1      43.284  25.431  34.896  1.00  0.00    -0.205 F 
ATOM     88  C   UNL A   1      46.765  26.188  35.743  1.00  0.00     0.022 A 
BRANCH  86  89
ATOM     89  S   UNL A   1      45.299  24.152  36.847  1.00  0.00     0.127 S 
ATOM     90  O   UNL A   1      44.883  23.100  35.920  1.00  0.00    -0.237 OA
ATOM     91  O   UNL A   1      46.644  23.983  37.399  1.00  0.00    -0.237 OA
ATOM     92  O   UNL A   1      44.295  24.561  37.820  1.00  0.00    -0.744 OA
ENDBRANCH  86  89
ENDBRANCH  59  82
ENDBRANCH  33  34
ENDBRANCH  25  28
ENDBRANCH   1  24
TORSDOF 14
ENDMDL
