MODEL 1
REMARK VINA RESULT:     -12.6      0.000      0.000
REMARK SMILES COC(=O)c1ccc([C@H]2CC(=O)Nc3c(C(=O)NCCCNC(=O)c4ccc(-c5c6nc(c(-c7cccc(S(=O)(=O)[O-])c7F)c7ccc([nH]7)c(-c7cccc(S(=O)(=O)[O-])c7F)c7nc(c(-c8cccc(S(=O)(=O)[O-])c8F)c8ccc5[nH]8)C=C7)C=C6)cc4)cn(-c4ccccc4)c32)cc1
REMARK SMILES IDX 20 1 19 2 18 3 16 4 17 5 15 7 9 8 10 9 96 10 11 11 14 12
REMARK SMILES IDX 89 13 12 14 13 15 88 16 8 18 5 19 6 20 98 21 7 22 97 23 3 24
REMARK SMILES IDX 4 25 2 26 1 27 90 28 91 29 95 30 92 31 94 32 93 33 21 34
REMARK SMILES IDX 22 35 23 36 24 38 25 39 26 40 87 41 27 42 86 43 28 44 29 45
REMARK SMILES IDX 30 46 80 47 31 48 85 49 79 50 81 51 32 52 84 53 78 54 77 55
REMARK SMILES IDX 33 57 65 58 45 59 64 60 46 61 49 62 63 63 82 64 47 65 48 66
REMARK SMILES IDX 62 68 83 69 50 70 34 71 35 72 43 73 36 74 38 75 44 76 37 77
REMARK SMILES IDX 39 78 40 79 41 80 42 81 66 82 67 83 75 84 68 85 70 86 76 87
REMARK SMILES IDX 69 88 71 89 72 90 73 91 74 92 51 93 52 94 60 95 53 96 55 97
REMARK SMILES IDX 61 98 54 99 56 100 57 101 58 102 59 103
REMARK H PARENT 18 6 13 17 22 37 81 56 49 67
REMARK Flexibility Score: inf
ROOT
ATOM      1  C   UNL A   1      35.155  29.856  27.621  1.00  0.00     0.042 C 
ENDROOT
BRANCH   1   2
ATOM      2  C   UNL A   1      33.873  29.876  26.775  1.00  0.00     0.118 C 
BRANCH   2   3
ATOM      3  N   UNL A   1      32.721  29.379  27.483  1.00  0.00    -0.352 N 
ATOM      4  C   UNL A   1      32.055  28.186  27.449  1.00  0.00     0.254 C 
ATOM      5  O   UNL A   1      31.271  28.000  28.382  1.00  0.00    -0.269 OA
ATOM      6  H   UNL A   1      32.337  30.027  28.116  1.00  0.00     0.163 HD
BRANCH   4   7
ATOM      7  C   UNL A   1      32.205  27.162  26.402  1.00  0.00     0.081 A 
ATOM      8  C   UNL A   1      31.522  24.599  23.772  1.00  0.00     0.078 C 
ATOM      9  C   UNL A   1      30.017  24.850  23.619  1.00  0.00     0.115 C 
ATOM     10  C   UNL A   1      32.105  25.536  24.800  1.00  0.00     0.055 A 
ATOM     11  C   UNL A   1      29.642  26.301  23.732  1.00  0.00     0.225 C 
ATOM     12  C   UNL A   1      31.468  26.657  25.287  1.00  0.00     0.076 A 
ATOM     13  N   UNL A   1      33.355  25.482  25.384  1.00  0.00    -0.317 N 
ATOM     14  O   UNL A   1      28.685  26.778  23.125  1.00  0.00    -0.275 OA
ATOM     15  N   UNL A   1      30.329  27.058  24.636  1.00  0.00    -0.324 N 
ATOM     16  C   UNL A   1      33.339  26.348  26.445  1.00  0.00     0.107 A 
ATOM     17  H   UNL A   1      29.982  27.957  24.837  1.00  0.00     0.170 HD
BRANCH   8  18
ATOM     18  C   UNL A   1      31.694  23.104  24.030  1.00  0.00    -0.038 A 
ATOM     19  C   UNL A   1      32.166  20.359  24.433  1.00  0.00     0.060 A 
ATOM     20  C   UNL A   1      32.258  20.907  23.149  1.00  0.00     0.016 A 
ATOM     21  C   UNL A   1      31.772  21.167  25.501  1.00  0.00     0.016 A 
ATOM     22  C   UNL A   1      32.035  22.270  22.953  1.00  0.00     0.005 A 
ATOM     23  C   UNL A   1      31.496  22.518  25.289  1.00  0.00     0.005 A 
BRANCH  19  24
ATOM     24  C   UNL A   1      32.526  18.927  24.614  1.00  0.00     0.337 C 
ATOM     25  O   UNL A   1      32.528  18.362  25.684  1.00  0.00    -0.246 OA
BRANCH  24  26
ATOM     26  O   UNL A   1      32.836  18.377  23.410  1.00  0.00    -0.465 OA
ATOM     27  C   UNL A   1      33.450  17.093  23.496  1.00  0.00     0.282 C 
ENDBRANCH  24  26
ENDBRANCH  19  24
ENDBRANCH   8  18
BRANCH  13  28
ATOM     28  C   UNL A   1      34.428  24.633  25.031  1.00  0.00     0.045 A 
ATOM     29  C   UNL A   1      34.833  24.553  23.696  1.00  0.00     0.026 A 
ATOM     30  C   UNL A   1      34.990  23.797  26.002  1.00  0.00     0.026 A 
ATOM     31  C   UNL A   1      35.748  23.576  23.313  1.00  0.00     0.002 A 
ATOM     32  C   UNL A   1      35.877  22.797  25.602  1.00  0.00     0.002 A 
ATOM     33  C   UNL A   1      36.245  22.680  24.260  1.00  0.00     0.000 A 
ENDBRANCH  13  28
ENDBRANCH   4   7
ENDBRANCH   2   3
ENDBRANCH   1   2
BRANCH   1  34
ATOM     34  C   UNL A   1      35.847  31.201  27.627  1.00  0.00     0.118 C 
BRANCH  34  35
ATOM     35  N   UNL A   1      35.509  31.976  28.843  1.00  0.00    -0.352 N 
ATOM     36  C   UNL A   1      35.757  31.693  30.179  1.00  0.00     0.251 C 
ATOM     37  H   UNL A   1      35.037  32.825  28.677  1.00  0.00     0.163 HD
ATOM     38  O   UNL A   1      35.131  32.249  31.072  1.00  0.00    -0.269 OA
BRANCH  36  39
ATOM     39  C   UNL A   1      36.821  30.732  30.498  1.00  0.00     0.039 A 
ATOM     40  C   UNL A   1      36.653  29.354  30.674  1.00  0.00     0.014 A 
ATOM     41  C   UNL A   1      38.081  31.269  30.535  1.00  0.00     0.014 A 
ATOM     42  C   UNL A   1      37.805  28.577  30.834  1.00  0.00     0.010 A 
ATOM     43  C   UNL A   1      39.014  30.441  30.033  1.00  0.00     0.010 A 
ATOM     44  C   UNL A   1      39.027  29.177  30.547  1.00  0.00    -0.014 A 
BRANCH  44  45
ATOM     45  C   UNL A   1      40.340  28.575  30.558  1.00  0.00     0.031 A 
ATOM     46  C   UNL A   1      40.940  28.536  31.901  1.00  0.00     0.074 A 
ATOM     47  C   UNL A   1      40.800  27.851  29.507  1.00  0.00     0.049 A 
ATOM     48  N   UNL A   1      41.781  29.382  32.393  1.00  0.00    -0.248 NA
ATOM     49  C   UNL A   1      40.360  27.619  32.896  1.00  0.00     0.031 C 
ATOM     50  C   UNL A   1      40.116  27.487  28.251  1.00  0.00     0.029 A 
ATOM     51  N   UNL A   1      41.967  27.167  29.401  1.00  0.00    -0.354 N 
ATOM     52  C   UNL A   1      42.069  28.886  33.657  1.00  0.00     0.074 A 
ATOM     53  C   UNL A   1      40.962  28.042  34.011  1.00  0.00     0.031 C 
ATOM     54  C   UNL A   1      40.785  26.482  27.638  1.00  0.00     0.029 A 
ATOM     55  C   UNL A   1      42.023  26.251  28.354  1.00  0.00     0.049 A 
ATOM     56  H   UNL A   1      42.719  27.308  30.019  1.00  0.00     0.167 HD
ATOM     57  C   UNL A   1      43.343  28.916  34.136  1.00  0.00     0.034 A 
ATOM     58  C   UNL A   1      43.011  25.347  28.135  1.00  0.00     0.034 A 
ATOM     59  C   UNL A   1      44.193  29.724  33.290  1.00  0.00     0.049 A 
ATOM     60  C   UNL A   1      44.204  25.842  28.866  1.00  0.00     0.074 A 
ATOM     61  C   UNL A   1      44.168  31.029  32.838  1.00  0.00     0.029 A 
ATOM     62  N   UNL A   1      45.015  29.040  32.422  1.00  0.00    -0.354 N 
ATOM     63  N   UNL A   1      44.810  26.959  28.567  1.00  0.00    -0.248 NA
ATOM     64  C   UNL A   1      44.413  25.361  30.222  1.00  0.00     0.031 C 
ATOM     65  C   UNL A   1      44.581  30.953  31.473  1.00  0.00     0.029 A 
ATOM     66  C   UNL A   1      44.919  29.628  31.188  1.00  0.00     0.049 A 
ATOM     67  H   UNL A   1      45.574  28.263  32.649  1.00  0.00     0.167 HD
ATOM     68  C   UNL A   1      45.065  27.553  29.798  1.00  0.00     0.074 A 
ATOM     69  C   UNL A   1      44.902  26.476  30.776  1.00  0.00     0.031 C 
ATOM     70  C   UNL A   1      45.076  28.913  29.937  1.00  0.00     0.034 A 
BRANCH  57  71
ATOM     71  C   UNL A   1      43.938  27.905  35.089  1.00  0.00     0.023 A 
ATOM     72  C   UNL A   1      44.662  28.422  36.185  1.00  0.00     0.012 A 
ATOM     73  C   UNL A   1      44.060  26.517  34.840  1.00  0.00     0.148 A 
ATOM     74  C   UNL A   1      45.509  27.616  36.951  1.00  0.00     0.002 A 
ATOM     75  C   UNL A   1      44.842  25.705  35.652  1.00  0.00     0.091 A 
ATOM     76  F   UNL A   1      43.541  25.980  33.734  1.00  0.00    -0.205 F 
ATOM     77  C   UNL A   1      45.596  26.255  36.689  1.00  0.00     0.022 A 
BRANCH  75  78
ATOM     78  S   UNL A   1      44.955  23.932  35.379  1.00  0.00     0.127 S 
ATOM     79  O   UNL A   1      45.738  23.511  36.537  1.00  0.00    -0.237 OA
ATOM     80  O   UNL A   1      43.547  23.537  35.403  1.00  0.00    -0.237 OA
ATOM     81  O   UNL A   1      45.596  23.776  34.079  1.00  0.00    -0.744 OA
ENDBRANCH  75  78
ENDBRANCH  57  71
BRANCH  58  82
ATOM     82  C   UNL A   1      42.928  23.961  27.612  1.00  0.00     0.023 A 
ATOM     83  C   UNL A   1      41.742  23.217  27.775  1.00  0.00     0.012 A 
ATOM     84  C   UNL A   1      43.894  23.483  26.698  1.00  0.00     0.148 A 
ATOM     85  C   UNL A   1      41.510  22.055  27.026  1.00  0.00     0.002 A 
ATOM     86  C   UNL A   1      43.657  22.330  25.952  1.00  0.00     0.091 A 
ATOM     87  F   UNL A   1      45.000  24.211  26.495  1.00  0.00    -0.205 F 
ATOM     88  C   UNL A   1      42.461  21.619  26.106  1.00  0.00     0.022 A 
BRANCH  86  89
ATOM     89  S   UNL A   1      44.814  21.729  24.714  1.00  0.00     0.127 S 
ATOM     90  O   UNL A   1      44.152  20.507  24.254  1.00  0.00    -0.237 OA
ATOM     91  O   UNL A   1      44.816  22.823  23.746  1.00  0.00    -0.237 OA
ATOM     92  O   UNL A   1      46.071  21.512  25.417  1.00  0.00    -0.744 OA
ENDBRANCH  86  89
ENDBRANCH  58  82
BRANCH  70  93
ATOM     93  C   UNL A   1      45.021  29.751  28.678  1.00  0.00     0.023 A 
ATOM     94  C   UNL A   1      43.831  29.947  27.943  1.00  0.00     0.012 A 
ATOM     95  C   UNL A   1      46.157  30.496  28.326  1.00  0.00     0.148 A 
ATOM     96  C   UNL A   1      43.780  30.847  26.875  1.00  0.00     0.002 A 
ATOM     97  C   UNL A   1      46.093  31.421  27.290  1.00  0.00     0.091 A 
ATOM     98  F   UNL A   1      47.277  30.312  29.040  1.00  0.00    -0.205 F 
ATOM     99  C   UNL A   1      44.909  31.593  26.555  1.00  0.00     0.022 A 
BRANCH  97 100
ATOM    100  S   UNL A   1      47.475  32.495  26.903  1.00  0.00     0.127 S 
ATOM    101  O   UNL A   1      47.717  33.155  28.185  1.00  0.00    -0.237 OA
ATOM    102  O   UNL A   1      48.510  31.542  26.501  1.00  0.00    -0.237 OA
ATOM    103  O   UNL A   1      47.020  33.368  25.828  1.00  0.00    -0.744 OA
ENDBRANCH  97 100
ENDBRANCH  70  93
ENDBRANCH  44  45
ENDBRANCH  36  39
ENDBRANCH  34  35
ENDBRANCH   1  34
TORSDOF 17
ENDMDL
MODEL 2
REMARK VINA RESULT:     -12.6      3.691      8.013
REMARK SMILES COC(=O)c1ccc([C@H]2CC(=O)Nc3c(C(=O)NCCCNC(=O)c4ccc(-c5c6nc(c(-c7cccc(S(=O)(=O)[O-])c7F)c7ccc([nH]7)c(-c7cccc(S(=O)(=O)[O-])c7F)c7nc(c(-c8cccc(S(=O)(=O)[O-])c8F)c8ccc5[nH]8)C=C7)C=C6)cc4)cn(-c4ccccc4)c32)cc1
REMARK SMILES IDX 20 1 19 2 18 3 16 4 17 5 15 7 9 8 10 9 96 10 11 11 14 12
REMARK SMILES IDX 89 13 12 14 13 15 88 16 8 18 5 19 6 20 98 21 7 22 97 23 3 24
REMARK SMILES IDX 4 25 2 26 1 27 90 28 91 29 95 30 92 31 94 32 93 33 21 34
REMARK SMILES IDX 22 35 23 36 24 38 25 39 26 40 87 41 27 42 86 43 28 44 29 45
REMARK SMILES IDX 30 46 80 47 31 48 85 49 79 50 81 51 32 52 84 53 78 54 77 55
REMARK SMILES IDX 33 57 65 58 45 59 64 60 46 61 49 62 63 63 82 64 47 65 48 66
REMARK SMILES IDX 62 68 83 69 50 70 34 71 35 72 43 73 36 74 38 75 44 76 37 77
REMARK SMILES IDX 39 78 40 79 41 80 42 81 66 82 67 83 75 84 68 85 70 86 76 87
REMARK SMILES IDX 69 88 71 89 72 90 73 91 74 92 51 93 52 94 60 95 53 96 55 97
REMARK SMILES IDX 61 98 54 99 56 100 57 101 58 102 59 103
REMARK H PARENT 18 6 13 17 22 37 81 56 49 67
REMARK Flexibility Score: inf
ROOT
ATOM      1  C   UNL A   1      31.984  29.228  24.577  1.00  0.00     0.042 C 
ENDROOT
BRANCH   1   2
ATOM      2  C   UNL A   1      30.934  29.559  23.506  1.00  0.00     0.118 C 
BRANCH   2   3
ATOM      3  N   UNL A   1      29.802  28.669  23.530  1.00  0.00    -0.352 N 
ATOM      4  C   UNL A   1      29.681  27.327  23.761  1.00  0.00     0.254 C 
ATOM      5  O   UNL A   1      28.531  26.936  23.970  1.00  0.00    -0.269 OA
ATOM      6  H   UNL A   1      28.945  29.115  23.343  1.00  0.00     0.163 HD
BRANCH   4   7
ATOM      7  C   UNL A   1      30.794  26.365  23.761  1.00  0.00     0.081 A 
ATOM      8  C   UNL A   1      33.325  23.811  22.747  1.00  0.00     0.078 C 
ATOM      9  C   UNL A   1      33.078  23.859  21.234  1.00  0.00     0.115 C 
ATOM     10  C   UNL A   1      32.420  24.788  23.455  1.00  0.00     0.055 A 
ATOM     11  C   UNL A   1      32.781  25.242  20.724  1.00  0.00     0.225 C 
ATOM     12  C   UNL A   1      31.718  25.797  22.831  1.00  0.00     0.076 A 
ATOM     13  N   UNL A   1      32.174  24.888  24.809  1.00  0.00    -0.317 N 
ATOM     14  O   UNL A   1      33.097  25.601  19.591  1.00  0.00    -0.275 OA
ATOM     15  N   UNL A   1      32.034  26.058  21.521  1.00  0.00    -0.324 N 
ATOM     16  C   UNL A   1      31.091  25.712  24.961  1.00  0.00     0.107 A 
ATOM     17  H   UNL A   1      31.696  26.894  21.129  1.00  0.00     0.170 HD
BRANCH   8  18
ATOM     18  C   UNL A   1      33.215  22.347  23.164  1.00  0.00    -0.038 A 
ATOM     19  C   UNL A   1      33.030  19.698  24.097  1.00  0.00     0.060 A 
ATOM     20  C   UNL A   1      34.146  20.479  24.416  1.00  0.00     0.016 A 
ATOM     21  C   UNL A   1      32.042  20.217  23.258  1.00  0.00     0.016 A 
ATOM     22  C   UNL A   1      34.231  21.796  23.962  1.00  0.00     0.005 A 
ATOM     23  C   UNL A   1      32.159  21.515  22.762  1.00  0.00     0.005 A 
BRANCH  19  24
ATOM     24  C   UNL A   1      32.926  18.341  24.698  1.00  0.00     0.337 C 
ATOM     25  O   UNL A   1      32.324  18.100  25.720  1.00  0.00    -0.246 OA
BRANCH  24  26
ATOM     26  O   UNL A   1      33.595  17.445  23.925  1.00  0.00    -0.465 OA
ATOM     27  C   UNL A   1      33.769  16.167  24.532  1.00  0.00     0.282 C 
ENDBRANCH  24  26
ENDBRANCH  19  24
ENDBRANCH   8  18
BRANCH  13  28
ATOM     28  C   UNL A   1      32.839  24.205  25.852  1.00  0.00     0.045 A 
ATOM     29  C   UNL A   1      34.215  24.385  26.028  1.00  0.00     0.026 A 
ATOM     30  C   UNL A   1      32.137  23.267  26.617  1.00  0.00     0.026 A 
ATOM     31  C   UNL A   1      34.907  23.568  26.917  1.00  0.00     0.002 A 
ATOM     32  C   UNL A   1      32.846  22.428  27.477  1.00  0.00     0.002 A 
ATOM     33  C   UNL A   1      34.228  22.570  27.616  1.00  0.00     0.000 A 
ENDBRANCH  13  28
ENDBRANCH   4   7
ENDBRANCH   2   3
ENDBRANCH   1   2
BRANCH   1  34
ATOM     34  C   UNL A   1      31.557  29.699  25.949  1.00  0.00     0.118 C 
BRANCH  34  35
ATOM     35  N   UNL A   1      31.530  31.178  26.028  1.00  0.00    -0.352 N 
ATOM     36  C   UNL A   1      32.251  32.041  26.842  1.00  0.00     0.251 C 
ATOM     37  H   UNL A   1      30.905  31.617  25.405  1.00  0.00     0.163 HD
ATOM     38  O   UNL A   1      31.882  33.193  27.028  1.00  0.00    -0.269 OA
BRANCH  36  39
ATOM     39  C   UNL A   1      33.495  31.547  27.447  1.00  0.00     0.039 A 
ATOM     40  C   UNL A   1      34.146  30.352  27.117  1.00  0.00     0.014 A 
ATOM     41  C   UNL A   1      34.072  32.404  28.346  1.00  0.00     0.014 A 
ATOM     42  C   UNL A   1      35.395  30.115  27.699  1.00  0.00     0.010 A 
ATOM     43  C   UNL A   1      35.415  32.404  28.278  1.00  0.00     0.010 A 
ATOM     44  C   UNL A   1      36.014  31.181  28.344  1.00  0.00    -0.014 A 
BRANCH  44  45
ATOM     45  C   UNL A   1      37.325  31.216  28.951  1.00  0.00     0.031 A 
ATOM     46  C   UNL A   1      38.020  29.921  28.885  1.00  0.00     0.074 A 
ATOM     47  C   UNL A   1      37.943  32.388  29.244  1.00  0.00     0.049 A 
ATOM     48  N   UNL A   1      38.073  29.027  29.813  1.00  0.00    -0.248 NA
ATOM     49  C   UNL A   1      38.489  29.450  27.571  1.00  0.00     0.031 C 
ATOM     50  C   UNL A   1      37.498  33.771  28.984  1.00  0.00     0.029 A 
ATOM     51  N   UNL A   1      39.191  32.582  29.738  1.00  0.00    -0.354 N 
ATOM     52  C   UNL A   1      38.872  28.024  29.282  1.00  0.00     0.074 A 
ATOM     53  C   UNL A   1      38.809  28.184  27.856  1.00  0.00     0.031 C 
ATOM     54  C   UNL A   1      38.543  34.622  29.110  1.00  0.00     0.029 A 
ATOM     55  C   UNL A   1      39.678  33.882  29.624  1.00  0.00     0.049 A 
ATOM     56  H   UNL A   1      39.715  31.858  30.148  1.00  0.00     0.167 HD
ATOM     57  C   UNL A   1      39.796  27.396  30.059  1.00  0.00     0.034 A 
ATOM     58  C   UNL A   1      40.942  34.289  29.900  1.00  0.00     0.034 A 
ATOM     59  C   UNL A   1      39.615  27.735  31.453  1.00  0.00     0.049 A 
ATOM     60  C   UNL A   1      41.528  33.262  30.796  1.00  0.00     0.074 A 
ATOM     61  C   UNL A   1      38.572  27.647  32.355  1.00  0.00     0.029 A 
ATOM     62  N   UNL A   1      40.482  28.672  31.968  1.00  0.00    -0.354 N 
ATOM     63  N   UNL A   1      41.072  33.018  31.995  1.00  0.00    -0.248 NA
ATOM     64  C   UNL A   1      42.283  32.181  30.183  1.00  0.00     0.031 C 
ATOM     65  C   UNL A   1      38.631  28.863  33.102  1.00  0.00     0.029 A 
ATOM     66  C   UNL A   1      39.751  29.585  32.682  1.00  0.00     0.049 A 
ATOM     67  H   UNL A   1      41.458  28.686  31.845  1.00  0.00     0.167 HD
ATOM     68  C   UNL A   1      41.061  31.631  32.084  1.00  0.00     0.074 A 
ATOM     69  C   UNL A   1      41.919  31.177  30.989  1.00  0.00     0.031 C 
ATOM     70  C   UNL A   1      40.120  30.979  32.832  1.00  0.00     0.034 A 
BRANCH  57  71
ATOM     71  C   UNL A   1      41.108  26.831  29.565  1.00  0.00     0.023 A 
ATOM     72  C   UNL A   1      42.239  27.667  29.685  1.00  0.00     0.012 A 
ATOM     73  C   UNL A   1      41.252  25.672  28.765  1.00  0.00     0.148 A 
ATOM     74  C   UNL A   1      43.427  27.399  28.997  1.00  0.00     0.002 A 
ATOM     75  C   UNL A   1      42.459  25.368  28.147  1.00  0.00     0.091 A 
ATOM     76  F   UNL A   1      40.191  24.918  28.470  1.00  0.00    -0.205 F 
ATOM     77  C   UNL A   1      43.540  26.245  28.232  1.00  0.00     0.022 A 
BRANCH  75  78
ATOM     78  S   UNL A   1      42.667  23.868  27.179  1.00  0.00     0.127 S 
ATOM     79  O   UNL A   1      44.033  24.028  26.691  1.00  0.00    -0.237 OA
ATOM     80  O   UNL A   1      42.485  22.831  28.194  1.00  0.00    -0.237 OA
ATOM     81  O   UNL A   1      41.616  23.904  26.169  1.00  0.00    -0.744 OA
ENDBRANCH  75  78
ENDBRANCH  57  71
BRANCH  58  82
ATOM     82  C   UNL A   1      41.777  35.311  29.222  1.00  0.00     0.023 A 
ATOM     83  C   UNL A   1      41.432  35.760  27.932  1.00  0.00     0.012 A 
ATOM     84  C   UNL A   1      42.726  36.058  29.955  1.00  0.00     0.148 A 
ATOM     85  C   UNL A   1      41.987  36.934  27.402  1.00  0.00     0.002 A 
ATOM     86  C   UNL A   1      43.272  37.226  29.427  1.00  0.00     0.091 A 
ATOM     87  F   UNL A   1      43.022  35.671  31.204  1.00  0.00    -0.205 F 
ATOM     88  C   UNL A   1      42.896  37.673  28.155  1.00  0.00     0.022 A 
BRANCH  86  89
ATOM     89  S   UNL A   1      44.417  38.259  30.353  1.00  0.00     0.127 S 
ATOM     90  O   UNL A   1      45.651  37.476  30.282  1.00  0.00    -0.237 OA
ATOM     91  O   UNL A   1      44.426  39.486  29.561  1.00  0.00    -0.237 OA
ATOM     92  O   UNL A   1      43.850  38.380  31.689  1.00  0.00    -0.744 OA
ENDBRANCH  86  89
ENDBRANCH  58  82
BRANCH  70  93
ATOM     93  C   UNL A   1      39.231  31.813  33.730  1.00  0.00     0.023 A 
ATOM     94  C   UNL A   1      39.666  32.319  34.975  1.00  0.00     0.012 A 
ATOM     95  C   UNL A   1      37.992  32.237  33.228  1.00  0.00     0.148 A 
ATOM     96  C   UNL A   1      38.877  33.210  35.708  1.00  0.00     0.002 A 
ATOM     97  C   UNL A   1      37.226  33.154  33.940  1.00  0.00     0.091 A 
ATOM     98  F   UNL A   1      37.596  31.759  32.039  1.00  0.00    -0.205 F 
ATOM     99  C   UNL A   1      37.660  33.637  35.185  1.00  0.00     0.022 A 
BRANCH  97 100
ATOM    100  S   UNL A   1      35.708  33.832  33.269  1.00  0.00     0.127 S 
ATOM    101  O   UNL A   1      34.690  33.056  33.975  1.00  0.00    -0.237 OA
ATOM    102  O   UNL A   1      35.790  35.238  33.667  1.00  0.00    -0.237 OA
ATOM    103  O   UNL A   1      35.770  33.616  31.829  1.00  0.00    -0.744 OA
ENDBRANCH  97 100
ENDBRANCH  70  93
ENDBRANCH  44  45
ENDBRANCH  36  39
ENDBRANCH  34  35
ENDBRANCH   1  34
TORSDOF 17
ENDMDL
MODEL 3
REMARK VINA RESULT:     -12.0      1.650      2.083
REMARK SMILES COC(=O)c1ccc([C@H]2CC(=O)Nc3c(C(=O)NCCCNC(=O)c4ccc(-c5c6nc(c(-c7cccc(S(=O)(=O)[O-])c7F)c7ccc([nH]7)c(-c7cccc(S(=O)(=O)[O-])c7F)c7nc(c(-c8cccc(S(=O)(=O)[O-])c8F)c8ccc5[nH]8)C=C7)C=C6)cc4)cn(-c4ccccc4)c32)cc1
REMARK SMILES IDX 20 1 19 2 18 3 16 4 17 5 15 7 9 8 10 9 96 10 11 11 14 12
REMARK SMILES IDX 89 13 12 14 13 15 88 16 8 18 5 19 6 20 98 21 7 22 97 23 3 24
REMARK SMILES IDX 4 25 2 26 1 27 90 28 91 29 95 30 92 31 94 32 93 33 21 34
REMARK SMILES IDX 22 35 23 36 24 38 25 39 26 40 87 41 27 42 86 43 28 44 29 45
REMARK SMILES IDX 30 46 80 47 31 48 85 49 79 50 81 51 32 52 84 53 78 54 77 55
REMARK SMILES IDX 33 57 65 58 45 59 64 60 46 61 49 62 63 63 82 64 47 65 48 66
REMARK SMILES IDX 62 68 83 69 50 70 34 71 35 72 43 73 36 74 38 75 44 76 37 77
REMARK SMILES IDX 39 78 40 79 41 80 42 81 66 82 67 83 75 84 68 85 70 86 76 87
REMARK SMILES IDX 69 88 71 89 72 90 73 91 74 92 51 93 52 94 60 95 53 96 55 97
REMARK SMILES IDX 61 98 54 99 56 100 57 101 58 102 59 103
REMARK H PARENT 18 6 13 17 22 37 81 56 49 67
REMARK Flexibility Score: inf
ROOT
ATOM      1  C   UNL A   1      34.655  30.116  27.697  1.00  0.00     0.042 C 
ENDROOT
BRANCH   1   2
ATOM      2  C   UNL A   1      33.446  30.136  26.748  1.00  0.00     0.118 C 
BRANCH   2   3
ATOM      3  N   UNL A   1      32.283  29.492  27.301  1.00  0.00    -0.352 N 
ATOM      4  C   UNL A   1      31.800  28.215  27.215  1.00  0.00     0.254 C 
ATOM      5  O   UNL A   1      30.921  27.935  28.032  1.00  0.00    -0.269 OA
ATOM      6  H   UNL A   1      31.724  30.088  27.849  1.00  0.00     0.163 HD
BRANCH   4   7
ATOM      7  C   UNL A   1      32.242  27.208  26.238  1.00  0.00     0.081 A 
ATOM      8  C   UNL A   1      32.404  24.850  23.345  1.00  0.00     0.078 C 
ATOM      9  C   UNL A   1      31.153  25.340  22.604  1.00  0.00     0.115 C 
ATOM     10  C   UNL A   1      32.616  25.657  24.601  1.00  0.00     0.055 A 
ATOM     11  C   UNL A   1      30.962  26.828  22.681  1.00  0.00     0.225 C 
ATOM     12  C   UNL A   1      31.987  26.853  24.879  1.00  0.00     0.076 A 
ATOM     13  N   UNL A   1      33.481  25.392  25.644  1.00  0.00    -0.317 N 
ATOM     14  O   UNL A   1      30.425  27.465  21.776  1.00  0.00    -0.275 OA
ATOM     15  N   UNL A   1      31.295  27.444  23.852  1.00  0.00    -0.324 N 
ATOM     16  C   UNL A   1      33.132  26.224  26.675  1.00  0.00     0.107 A 
ATOM     17  H   UNL A   1      31.018  28.381  23.969  1.00  0.00     0.170 HD
BRANCH   8  18
ATOM     18  C   UNL A   1      32.251  23.341  23.517  1.00  0.00    -0.038 A 
ATOM     19  C   UNL A   1      32.138  20.545  23.817  1.00  0.00     0.060 A 
ATOM     20  C   UNL A   1      32.739  21.106  22.685  1.00  0.00     0.016 A 
ATOM     21  C   UNL A   1      31.535  21.377  24.762  1.00  0.00     0.016 A 
ATOM     22  C   UNL A   1      32.804  22.493  22.543  1.00  0.00     0.005 A 
ATOM     23  C   UNL A   1      31.554  22.760  24.588  1.00  0.00     0.005 A 
BRANCH  19  24
ATOM     24  C   UNL A   1      32.196  19.067  23.983  1.00  0.00     0.337 C 
ATOM     25  O   UNL A   1      32.307  18.289  23.063  1.00  0.00    -0.246 OA
BRANCH  24  26
ATOM     26  O   UNL A   1      32.112  18.751  25.302  1.00  0.00    -0.465 OA
ATOM     27  C   UNL A   1      32.753  17.526  25.649  1.00  0.00     0.282 C 
ENDBRANCH  24  26
ENDBRANCH  19  24
ENDBRANCH   8  18
BRANCH  13  28
ATOM     28  C   UNL A   1      34.479  24.394  25.694  1.00  0.00     0.045 A 
ATOM     29  C   UNL A   1      35.504  24.395  24.742  1.00  0.00     0.026 A 
ATOM     30  C   UNL A   1      34.363  23.351  26.619  1.00  0.00     0.026 A 
ATOM     31  C   UNL A   1      36.369  23.307  24.663  1.00  0.00     0.002 A 
ATOM     32  C   UNL A   1      35.211  22.250  26.508  1.00  0.00     0.002 A 
ATOM     33  C   UNL A   1      36.202  22.223  25.525  1.00  0.00     0.000 A 
ENDBRANCH  13  28
ENDBRANCH   4   7
ENDBRANCH   2   3
ENDBRANCH   1   2
BRANCH   1  34
ATOM     34  C   UNL A   1      35.172  31.509  27.980  1.00  0.00     0.118 C 
BRANCH  34  35
ATOM     35  N   UNL A   1      35.021  31.860  29.411  1.00  0.00    -0.352 N 
ATOM     36  C   UNL A   1      35.850  31.583  30.490  1.00  0.00     0.251 C 
ATOM     37  H   UNL A   1      34.207  32.370  29.631  1.00  0.00     0.163 HD
ATOM     38  O   UNL A   1      35.435  31.640  31.640  1.00  0.00    -0.269 OA
BRANCH  36  39
ATOM     39  C   UNL A   1      37.256  31.256  30.217  1.00  0.00     0.039 A 
ATOM     40  C   UNL A   1      38.346  32.113  30.408  1.00  0.00     0.014 A 
ATOM     41  C   UNL A   1      37.474  29.962  29.823  1.00  0.00     0.014 A 
ATOM     42  C   UNL A   1      39.627  31.579  30.227  1.00  0.00     0.010 A 
ATOM     43  C   UNL A   1      38.611  29.449  30.326  1.00  0.00     0.010 A 
ATOM     44  C   UNL A   1      39.736  30.196  30.133  1.00  0.00    -0.014 A 
BRANCH  44  45
ATOM     45  C   UNL A   1      40.939  29.402  30.023  1.00  0.00     0.031 A 
ATOM     46  C   UNL A   1      41.499  29.030  31.332  1.00  0.00     0.074 A 
ATOM     47  C   UNL A   1      41.301  28.815  28.855  1.00  0.00     0.049 A 
ATOM     48  N   UNL A   1      42.452  29.630  31.961  1.00  0.00    -0.248 NA
ATOM     49  C   UNL A   1      40.764  28.051  32.150  1.00  0.00     0.031 C 
ATOM     50  C   UNL A   1      40.594  28.794  27.560  1.00  0.00     0.029 A 
ATOM     51  N   UNL A   1      42.349  27.987  28.616  1.00  0.00    -0.354 N 
ATOM     52  C   UNL A   1      42.634  28.877  33.112  1.00  0.00     0.074 A 
ATOM     53  C   UNL A   1      41.402  28.167  33.318  1.00  0.00     0.031 C 
ATOM     54  C   UNL A   1      41.110  27.823  26.769  1.00  0.00     0.029 A 
ATOM     55  C   UNL A   1      42.282  27.277  27.421  1.00  0.00     0.049 A 
ATOM     56  H   UNL A   1      43.101  27.895  29.243  1.00  0.00     0.167 HD
ATOM     57  C   UNL A   1      43.888  28.620  33.576  1.00  0.00     0.034 A 
ATOM     58  C   UNL A   1      43.121  26.283  27.034  1.00  0.00     0.034 A 
ATOM     59  C   UNL A   1      44.870  29.423  32.883  1.00  0.00     0.049 A 
ATOM     60  C   UNL A   1      44.361  26.445  27.832  1.00  0.00     0.074 A 
ATOM     61  C   UNL A   1      45.058  30.776  32.674  1.00  0.00     0.029 A 
ATOM     62  N   UNL A   1      45.592  28.786  31.899  1.00  0.00    -0.354 N 
ATOM     63  N   UNL A   1      45.140  27.488  27.734  1.00  0.00    -0.248 NA
ATOM     64  C   UNL A   1      44.466  25.702  29.077  1.00  0.00     0.031 C 
ATOM     65  C   UNL A   1      45.481  30.882  31.314  1.00  0.00     0.029 A 
ATOM     66  C   UNL A   1      45.613  29.593  30.792  1.00  0.00     0.049 A 
ATOM     67  H   UNL A   1      46.018  27.902  31.976  1.00  0.00     0.167 HD
ATOM     68  C   UNL A   1      45.460  27.804  29.049  1.00  0.00     0.074 A 
ATOM     69  C   UNL A   1      45.113  26.608  29.818  1.00  0.00     0.031 C 
ATOM     70  C   UNL A   1      45.681  29.098  29.431  1.00  0.00     0.034 A 
BRANCH  57  71
ATOM     71  C   UNL A   1      44.299  27.374  34.327  1.00  0.00     0.023 A 
ATOM     72  C   UNL A   1      44.194  26.153  33.625  1.00  0.00     0.012 A 
ATOM     73  C   UNL A   1      44.517  27.292  35.723  1.00  0.00     0.148 A 
ATOM     74  C   UNL A   1      44.241  24.921  34.286  1.00  0.00     0.002 A 
ATOM     75  C   UNL A   1      44.642  26.065  36.363  1.00  0.00     0.091 A 
ATOM     76  F   UNL A   1      44.468  28.390  36.480  1.00  0.00    -0.205 F 
ATOM     77  C   UNL A   1      44.471  24.876  35.654  1.00  0.00     0.022 A 
BRANCH  75  78
ATOM     78  S   UNL A   1      44.979  25.954  38.124  1.00  0.00     0.127 S 
ATOM     79  O   UNL A   1      44.069  26.965  38.656  1.00  0.00    -0.237 OA
ATOM     80  O   UNL A   1      44.607  24.569  38.412  1.00  0.00    -0.237 OA
ATOM     81  O   UNL A   1      46.402  26.232  38.270  1.00  0.00    -0.744 OA
ENDBRANCH  75  78
ENDBRANCH  57  71
BRANCH  58  82
ATOM     82  C   UNL A   1      42.833  25.043  26.271  1.00  0.00     0.023 A 
ATOM     83  C   UNL A   1      43.691  24.643  25.227  1.00  0.00     0.012 A 
ATOM     84  C   UNL A   1      41.897  24.104  26.760  1.00  0.00     0.148 A 
ATOM     85  C   UNL A   1      43.644  23.341  24.711  1.00  0.00     0.002 A 
ATOM     86  C   UNL A   1      41.856  22.809  26.248  1.00  0.00     0.091 A 
ATOM     87  F   UNL A   1      41.113  24.456  27.788  1.00  0.00    -0.205 F 
ATOM     88  C   UNL A   1      42.736  22.421  25.230  1.00  0.00     0.022 A 
BRANCH  86  89
ATOM     89  S   UNL A   1      40.745  21.552  26.894  1.00  0.00     0.127 S 
ATOM     90  O   UNL A   1      41.174  20.365  26.154  1.00  0.00    -0.237 OA
ATOM     91  O   UNL A   1      41.090  21.545  28.314  1.00  0.00    -0.237 OA
ATOM     92  O   UNL A   1      39.400  22.011  26.579  1.00  0.00    -0.744 OA
ENDBRANCH  86  89
ENDBRANCH  58  82
BRANCH  70  93
ATOM     93  C   UNL A   1      45.782  30.147  28.344  1.00  0.00     0.023 A 
ATOM     94  C   UNL A   1      44.647  30.742  27.750  1.00  0.00     0.012 A 
ATOM     95  C   UNL A   1      47.050  30.666  28.038  1.00  0.00     0.148 A 
ATOM     96  C   UNL A   1      44.774  31.814  26.862  1.00  0.00     0.002 A 
ATOM     97  C   UNL A   1      47.171  31.757  27.185  1.00  0.00     0.091 A 
ATOM     98  F   UNL A   1      48.119  30.101  28.618  1.00  0.00    -0.205 F 
ATOM     99  C   UNL A   1      46.037  32.329  26.587  1.00  0.00     0.022 A 
BRANCH  97 100
ATOM    100  S   UNL A   1      48.754  32.541  26.882  1.00  0.00     0.127 S 
ATOM    101  O   UNL A   1      49.557  31.426  26.383  1.00  0.00    -0.237 OA
ATOM    102  O   UNL A   1      48.417  33.549  25.876  1.00  0.00    -0.237 OA
ATOM    103  O   UNL A   1      49.183  33.095  28.161  1.00  0.00    -0.744 OA
ENDBRANCH  97 100
ENDBRANCH  70  93
ENDBRANCH  44  45
ENDBRANCH  36  39
ENDBRANCH  34  35
ENDBRANCH   1  34
TORSDOF 17
ENDMDL
