MODEL 1
REMARK VINA RESULT:     -13.8      0.000      0.000
REMARK SMILES Cc1ccccc1[C@@H]1[NH2+][C@@H](C(=O)NCCCNC(=O)c2ccc(-c3c4nc(c(-c5cccc(S(=O)(=O)[O-])c5F)c5ccc([nH]5)c(-c5cccc(S(=O)(=O)[O-])c5F)c5nc(c(-c6cccc(S(=O)(=O)[O-])c6F)c6ccc3[nH]6)C=C5)C=C4)cc2)CC2=c3ccccc3=N[C@H]21
REMARK SMILES IDX 16 1 15 2 14 3 13 4 11 5 12 6 10 8 8 9 9 10 92 11 84 14
REMARK SMILES IDX 91 15 83 16 85 17 90 18 86 19 89 20 87 21 88 22 7 23 1 24
REMARK SMILES IDX 2 25 3 26 4 27 6 28 5 29 17 30 18 31 19 33 20 34 21 35 82 36
REMARK SMILES IDX 22 37 81 38 23 39 24 40 25 41 75 42 26 43 80 44 74 45 76 46
REMARK SMILES IDX 27 47 79 48 73 49 72 50 28 52 60 53 40 54 59 55 41 56 44 57
REMARK SMILES IDX 58 58 77 59 42 60 43 61 57 63 78 64 45 65 29 66 30 67 38 68
REMARK SMILES IDX 31 69 33 70 39 71 32 72 34 73 35 74 36 75 37 76 61 77 62 78
REMARK SMILES IDX 70 79 63 80 65 81 71 82 64 83 66 84 67 85 68 86 69 87 46 88
REMARK SMILES IDX 47 89 55 90 48 91 50 92 56 93 49 94 51 95 52 96 53 97 54 98
REMARK H PARENT 13 7 9 12 9 13 17 32 76 51 44 62
REMARK Flexibility Score: inf
ROOT
ATOM      1  C   UNL A   1      40.868  21.457  27.248  1.00  0.00     0.118 C 
ENDROOT
BRANCH   1   2
ATOM      2  C   UNL A   1      40.009  22.415  26.478  1.00  0.00     0.042 C 
BRANCH   2   3
ATOM      3  C   UNL A   1      38.737  21.830  25.875  1.00  0.00     0.118 C 
BRANCH   3   4
ATOM      4  N   UNL A   1      37.849  22.790  25.218  1.00  0.00    -0.351 N 
ATOM      5  C   UNL A   1      36.635  23.278  25.646  1.00  0.00     0.278 C 
ATOM      6  O   UNL A   1      36.488  24.506  25.580  1.00  0.00    -0.268 OA
ATOM      7  H   UNL A   1      38.164  23.135  24.352  1.00  0.00     0.163 HD
BRANCH   5   8
ATOM      8  C   UNL A   1      35.418  22.351  26.001  1.00  0.00     0.277 C 
ATOM      9  C   UNL A   1      33.416  21.613  24.541  1.00  0.00     0.243 C 
ATOM     10  N   UNL A   1      34.885  21.701  24.764  1.00  0.00    -0.327 N 
ATOM     11  C   UNL A   1      32.420  22.210  25.587  1.00  0.00     0.196 C 
ATOM     12  H   UNL A   1      35.273  22.213  23.972  1.00  0.00     0.347 HD
ATOM     13  H   UNL A   1      35.163  20.725  24.874  1.00  0.00     0.347 HD
ATOM     14  C   UNL A   1      33.121  23.297  26.297  1.00  0.00    -0.024 C 
ATOM     15  N   UNL A   1      31.235  22.893  24.969  1.00  0.00    -0.270 NA
ATOM     16  C   UNL A   1      34.377  22.927  26.948  1.00  0.00     0.109 C 
ATOM     17  C   UNL A   1      32.547  24.478  26.147  1.00  0.00     0.002 A 
ATOM     18  C   UNL A   1      31.366  24.128  25.353  1.00  0.00     0.066 A 
ATOM     19  C   UNL A   1      32.876  25.816  26.506  1.00  0.00     0.010 A 
ATOM     20  C   UNL A   1      30.442  25.248  25.074  1.00  0.00     0.028 A 
ATOM     21  C   UNL A   1      32.033  26.794  26.145  1.00  0.00     0.001 A 
ATOM     22  C   UNL A   1      30.786  26.491  25.459  1.00  0.00     0.002 A 
BRANCH   9  23
ATOM     23  C   UNL A   1      32.983  20.179  24.210  1.00  0.00     0.015 A 
ATOM     24  C   UNL A   1      31.904  20.734  21.927  1.00  0.00     0.045 C 
ATOM     25  C   UNL A   1      32.382  19.781  22.990  1.00  0.00    -0.042 A 
ATOM     26  C   UNL A   1      32.270  18.409  22.698  1.00  0.00     0.004 A 
ATOM     27  C   UNL A   1      32.671  17.439  23.613  1.00  0.00     0.000 A 
ATOM     28  C   UNL A   1      33.320  19.178  25.146  1.00  0.00     0.010 A 
ATOM     29  C   UNL A   1      33.166  17.824  24.850  1.00  0.00     0.001 A 
ENDBRANCH   9  23
ENDBRANCH   5   8
ENDBRANCH   3   4
ENDBRANCH   2   3
ENDBRANCH   1   2
BRANCH   1  30
ATOM     30  N   UNL A   1      41.614  20.508  26.460  1.00  0.00    -0.352 N 
ATOM     31  C   UNL A   1      42.782  20.742  25.754  1.00  0.00     0.251 C 
ATOM     32  H   UNL A   1      41.254  19.592  26.421  1.00  0.00     0.163 HD
ATOM     33  O   UNL A   1      43.184  19.858  25.000  1.00  0.00    -0.269 OA
BRANCH  31  34
ATOM     34  C   UNL A   1      43.593  21.968  26.018  1.00  0.00     0.039 A 
ATOM     35  C   UNL A   1      44.144  22.108  27.295  1.00  0.00     0.014 A 
ATOM     36  C   UNL A   1      43.616  23.061  25.154  1.00  0.00     0.014 A 
ATOM     37  C   UNL A   1      44.404  23.380  27.798  1.00  0.00     0.010 A 
ATOM     38  C   UNL A   1      43.763  24.321  25.669  1.00  0.00     0.010 A 
ATOM     39  C   UNL A   1      44.061  24.472  27.020  1.00  0.00    -0.014 A 
BRANCH  39  40
ATOM     40  C   UNL A   1      43.892  25.828  27.491  1.00  0.00     0.031 A 
ATOM     41  C   UNL A   1      42.586  26.480  27.409  1.00  0.00     0.074 A 
ATOM     42  C   UNL A   1      44.853  26.288  28.320  1.00  0.00     0.049 A 
ATOM     43  N   UNL A   1      42.396  27.722  27.674  1.00  0.00    -0.248 NA
ATOM     44  C   UNL A   1      41.378  25.757  27.051  1.00  0.00     0.031 C 
ATOM     45  C   UNL A   1      44.761  27.306  29.358  1.00  0.00     0.029 A 
ATOM     46  N   UNL A   1      46.197  25.951  28.312  1.00  0.00    -0.354 N 
ATOM     47  C   UNL A   1      41.041  27.892  27.837  1.00  0.00     0.074 A 
ATOM     48  C   UNL A   1      40.447  26.669  27.344  1.00  0.00     0.031 C 
ATOM     49  C   UNL A   1      46.004  27.668  29.724  1.00  0.00     0.029 A 
ATOM     50  C   UNL A   1      46.920  27.054  28.779  1.00  0.00     0.049 A 
ATOM     51  H   UNL A   1      46.577  25.087  28.028  1.00  0.00     0.167 HD
ATOM     52  C   UNL A   1      40.603  28.977  28.537  1.00  0.00     0.034 A 
ATOM     53  C   UNL A   1      47.701  27.744  27.886  1.00  0.00     0.034 A 
ATOM     54  C   UNL A   1      41.742  29.812  28.979  1.00  0.00     0.049 A 
ATOM     55  C   UNL A   1      47.212  29.163  27.607  1.00  0.00     0.074 A 
ATOM     56  C   UNL A   1      42.399  29.990  30.188  1.00  0.00     0.029 A 
ATOM     57  N   UNL A   1      42.566  30.386  28.019  1.00  0.00    -0.354 N 
ATOM     58  N   UNL A   1      46.177  29.734  28.165  1.00  0.00    -0.248 NA
ATOM     59  C   UNL A   1      47.827  30.021  26.599  1.00  0.00     0.031 C 
ATOM     60  C   UNL A   1      43.634  30.662  29.935  1.00  0.00     0.029 A 
ATOM     61  C   UNL A   1      43.719  30.920  28.580  1.00  0.00     0.049 A 
ATOM     62  H   UNL A   1      42.357  30.412  27.058  1.00  0.00     0.167 HD
ATOM     63  C   UNL A   1      45.857  30.887  27.487  1.00  0.00     0.074 A 
ATOM     64  C   UNL A   1      46.956  31.042  26.543  1.00  0.00     0.031 C 
ATOM     65  C   UNL A   1      44.683  31.574  27.695  1.00  0.00     0.034 A 
BRANCH  52  66
ATOM     66  C   UNL A   1      39.194  29.125  29.086  1.00  0.00     0.023 A 
ATOM     67  C   UNL A   1      38.143  29.260  28.153  1.00  0.00     0.012 A 
ATOM     68  C   UNL A   1      38.817  29.188  30.449  1.00  0.00     0.148 A 
ATOM     69  C   UNL A   1      36.829  29.558  28.535  1.00  0.00     0.002 A 
ATOM     70  C   UNL A   1      37.526  29.567  30.831  1.00  0.00     0.091 A 
ATOM     71  F   UNL A   1      39.670  28.782  31.395  1.00  0.00    -0.205 F 
ATOM     72  C   UNL A   1      36.528  29.756  29.873  1.00  0.00     0.022 A 
BRANCH  70  73
ATOM     73  S   UNL A   1      37.097  29.935  32.543  1.00  0.00     0.127 S 
ATOM     74  O   UNL A   1      35.771  30.545  32.405  1.00  0.00    -0.237 OA
ATOM     75  O   UNL A   1      37.092  28.613  33.161  1.00  0.00    -0.237 OA
ATOM     76  O   UNL A   1      38.120  30.858  33.022  1.00  0.00    -0.744 OA
ENDBRANCH  70  73
ENDBRANCH  52  66
BRANCH  53  77
ATOM     77  C   UNL A   1      48.295  26.815  26.853  1.00  0.00     0.023 A 
ATOM     78  C   UNL A   1      47.546  26.617  25.662  1.00  0.00     0.012 A 
ATOM     79  C   UNL A   1      49.671  26.527  26.830  1.00  0.00     0.148 A 
ATOM     80  C   UNL A   1      48.186  26.346  24.449  1.00  0.00     0.002 A 
ATOM     81  C   UNL A   1      50.295  26.214  25.622  1.00  0.00     0.091 A 
ATOM     82  F   UNL A   1      50.375  26.616  27.965  1.00  0.00    -0.205 F 
ATOM     83  C   UNL A   1      49.567  26.185  24.423  1.00  0.00     0.022 A 
BRANCH  81  84
ATOM     84  S   UNL A   1      52.070  25.929  25.562  1.00  0.00     0.127 S 
ATOM     85  O   UNL A   1      52.339  26.049  24.132  1.00  0.00    -0.237 OA
ATOM     86  O   UNL A   1      52.607  27.021  26.375  1.00  0.00    -0.237 OA
ATOM     87  O   UNL A   1      52.251  24.609  26.148  1.00  0.00    -0.744 OA
ENDBRANCH  81  84
ENDBRANCH  53  77
BRANCH  65  88
ATOM     88  C   UNL A   1      44.274  32.880  27.007  1.00  0.00     0.023 A 
ATOM     89  C   UNL A   1      44.165  32.995  25.610  1.00  0.00     0.012 A 
ATOM     90  C   UNL A   1      44.048  34.081  27.740  1.00  0.00     0.148 A 
ATOM     91  C   UNL A   1      43.699  34.162  24.988  1.00  0.00     0.002 A 
ATOM     92  C   UNL A   1      43.585  35.242  27.125  1.00  0.00     0.091 A 
ATOM     93  F   UNL A   1      44.356  34.146  29.038  1.00  0.00    -0.205 F 
ATOM     94  C   UNL A   1      43.378  35.277  25.748  1.00  0.00     0.022 A 
BRANCH  92  95
ATOM     95  S   UNL A   1      43.243  36.744  28.054  1.00  0.00     0.127 S 
ATOM     96  O   UNL A   1      42.331  36.250  29.086  1.00  0.00    -0.237 OA
ATOM     97  O   UNL A   1      44.574  37.109  28.542  1.00  0.00    -0.237 OA
ATOM     98  O   UNL A   1      42.668  37.686  27.105  1.00  0.00    -0.744 OA
ENDBRANCH  92  95
ENDBRANCH  65  88
ENDBRANCH  39  40
ENDBRANCH  31  34
ENDBRANCH   1  30
TORSDOF 14
ENDMDL
MODEL 2
REMARK VINA RESULT:     -13.7      5.490     11.106
REMARK SMILES Cc1ccccc1[C@@H]1[NH2+][C@@H](C(=O)NCCCNC(=O)c2ccc(-c3c4nc(c(-c5cccc(S(=O)(=O)[O-])c5F)c5ccc([nH]5)c(-c5cccc(S(=O)(=O)[O-])c5F)c5nc(c(-c6cccc(S(=O)(=O)[O-])c6F)c6ccc3[nH]6)C=C5)C=C4)cc2)CC2=c3ccccc3=N[C@H]21
REMARK SMILES IDX 16 1 15 2 14 3 13 4 11 5 12 6 10 8 8 9 9 10 92 11 84 14
REMARK SMILES IDX 91 15 83 16 85 17 90 18 86 19 89 20 87 21 88 22 7 23 1 24
REMARK SMILES IDX 2 25 3 26 4 27 6 28 5 29 17 30 18 31 19 33 20 34 21 35 82 36
REMARK SMILES IDX 22 37 81 38 23 39 24 40 25 41 75 42 26 43 80 44 74 45 76 46
REMARK SMILES IDX 27 47 79 48 73 49 72 50 28 52 60 53 40 54 59 55 41 56 44 57
REMARK SMILES IDX 58 58 77 59 42 60 43 61 57 63 78 64 45 65 29 66 30 67 38 68
REMARK SMILES IDX 31 69 33 70 39 71 32 72 34 73 35 74 36 75 37 76 61 77 62 78
REMARK SMILES IDX 70 79 63 80 65 81 71 82 64 83 66 84 67 85 68 86 69 87 46 88
REMARK SMILES IDX 47 89 55 90 48 91 50 92 56 93 49 94 51 95 52 96 53 97 54 98
REMARK H PARENT 13 7 9 12 9 13 17 32 76 51 44 62
REMARK Flexibility Score: inf
ROOT
ATOM      1  C   UNL A   1      34.398  32.256  29.140  1.00  0.00     0.118 C 
ENDROOT
BRANCH   1   2
ATOM      2  C   UNL A   1      34.235  31.957  27.679  1.00  0.00     0.042 C 
BRANCH   2   3
ATOM      3  C   UNL A   1      32.988  31.169  27.298  1.00  0.00     0.118 C 
BRANCH   3   4
ATOM      4  N   UNL A   1      33.134  29.712  27.304  1.00  0.00    -0.351 N 
ATOM      5  C   UNL A   1      33.667  28.892  26.335  1.00  0.00     0.278 C 
ATOM      6  O   UNL A   1      34.484  28.047  26.725  1.00  0.00    -0.268 OA
ATOM      7  H   UNL A   1      32.808  29.257  28.113  1.00  0.00     0.163 HD
BRANCH   5   8
ATOM      8  C   UNL A   1      33.139  28.863  24.855  1.00  0.00     0.277 C 
ATOM      9  C   UNL A   1      31.026  27.742  23.873  1.00  0.00     0.243 C 
ATOM     10  N   UNL A   1      31.654  28.683  24.840  1.00  0.00    -0.327 N 
ATOM     11  C   UNL A   1      31.912  26.924  22.877  1.00  0.00     0.196 C 
ATOM     12  H   UNL A   1      31.387  28.369  25.773  1.00  0.00     0.347 HD
ATOM     13  H   UNL A   1      31.312  29.594  24.535  1.00  0.00     0.347 HD
ATOM     14  C   UNL A   1      33.243  26.767  23.493  1.00  0.00    -0.024 C 
ATOM     15  N   UNL A   1      31.443  25.513  22.674  1.00  0.00    -0.270 NA
ATOM     16  C   UNL A   1      33.920  28.006  23.871  1.00  0.00     0.109 C 
ATOM     17  C   UNL A   1      33.579  25.507  23.703  1.00  0.00     0.002 A 
ATOM     18  C   UNL A   1      32.432  24.800  23.125  1.00  0.00     0.066 A 
ATOM     19  C   UNL A   1      34.655  24.841  24.355  1.00  0.00     0.010 A 
ATOM     20  C   UNL A   1      32.536  23.325  23.127  1.00  0.00     0.028 A 
ATOM     21  C   UNL A   1      34.642  23.501  24.393  1.00  0.00     0.001 A 
ATOM     22  C   UNL A   1      33.589  22.745  23.733  1.00  0.00     0.002 A 
BRANCH   9  23
ATOM     23  C   UNL A   1      29.894  28.416  23.088  1.00  0.00     0.015 A 
ATOM     24  C   UNL A   1      28.017  26.830  23.891  1.00  0.00     0.045 C 
ATOM     25  C   UNL A   1      28.528  28.051  23.173  1.00  0.00    -0.042 A 
ATOM     26  C   UNL A   1      27.556  28.902  22.614  1.00  0.00     0.004 A 
ATOM     27  C   UNL A   1      27.916  30.054  21.918  1.00  0.00     0.000 A 
ATOM     28  C   UNL A   1      30.236  29.551  22.323  1.00  0.00     0.010 A 
ATOM     29  C   UNL A   1      29.258  30.361  21.745  1.00  0.00     0.001 A 
ENDBRANCH   9  23
ENDBRANCH   5   8
ENDBRANCH   3   4
ENDBRANCH   2   3
ENDBRANCH   1   2
BRANCH   1  30
ATOM     30  N   UNL A   1      33.743  33.448  29.614  1.00  0.00    -0.352 N 
ATOM     31  C   UNL A   1      34.091  34.214  30.714  1.00  0.00     0.251 C 
ATOM     32  H   UNL A   1      32.961  33.753  29.098  1.00  0.00     0.163 HD
ATOM     33  O   UNL A   1      33.315  35.099  31.067  1.00  0.00    -0.269 OA
BRANCH  31  34
ATOM     34  C   UNL A   1      35.433  34.056  31.351  1.00  0.00     0.039 A 
ATOM     35  C   UNL A   1      36.541  34.517  30.633  1.00  0.00     0.014 A 
ATOM     36  C   UNL A   1      35.646  33.271  32.482  1.00  0.00     0.014 A 
ATOM     37  C   UNL A   1      37.790  33.940  30.847  1.00  0.00     0.010 A 
ATOM     38  C   UNL A   1      36.840  32.617  32.631  1.00  0.00     0.010 A 
ATOM     39  C   UNL A   1      37.878  32.888  31.744  1.00  0.00    -0.014 A 
BRANCH  39  40
ATOM     40  C   UNL A   1      38.957  31.930  31.822  1.00  0.00     0.031 A 
ATOM     41  C   UNL A   1      38.859  30.649  31.123  1.00  0.00     0.074 A 
ATOM     42  C   UNL A   1      40.149  32.418  32.225  1.00  0.00     0.049 A 
ATOM     43  N   UNL A   1      39.710  29.699  31.264  1.00  0.00    -0.248 NA
ATOM     44  C   UNL A   1      37.796  30.361  30.176  1.00  0.00     0.031 C 
ATOM     45  C   UNL A   1      41.490  31.936  31.920  1.00  0.00     0.029 A 
ATOM     46  N   UNL A   1      40.371  33.458  33.113  1.00  0.00    -0.354 N 
ATOM     47  C   UNL A   1      39.508  28.825  30.221  1.00  0.00     0.074 A 
ATOM     48  C   UNL A   1      38.248  29.227  29.634  1.00  0.00     0.031 C 
ATOM     49  C   UNL A   1      42.363  32.516  32.763  1.00  0.00     0.029 A 
ATOM     50  C   UNL A   1      41.583  33.213  33.770  1.00  0.00     0.049 A 
ATOM     51  H   UNL A   1      39.781  34.234  33.257  1.00  0.00     0.167 HD
ATOM     52  C   UNL A   1      40.522  27.982  29.875  1.00  0.00     0.034 A 
ATOM     53  C   UNL A   1      41.543  32.878  35.100  1.00  0.00     0.034 A 
ATOM     54  C   UNL A   1      41.690  28.174  30.762  1.00  0.00     0.049 A 
ATOM     55  C   UNL A   1      41.990  31.447  35.389  1.00  0.00     0.074 A 
ATOM     56  C   UNL A   1      42.915  28.811  30.624  1.00  0.00     0.029 A 
ATOM     57  N   UNL A   1      41.549  27.929  32.122  1.00  0.00    -0.354 N 
ATOM     58  N   UNL A   1      42.415  30.590  34.500  1.00  0.00    -0.248 NA
ATOM     59  C   UNL A   1      41.907  30.854  36.720  1.00  0.00     0.031 C 
ATOM     60  C   UNL A   1      43.494  28.960  31.922  1.00  0.00     0.029 A 
ATOM     61  C   UNL A   1      42.640  28.390  32.847  1.00  0.00     0.049 A 
ATOM     62  H   UNL A   1      40.768  27.483  32.523  1.00  0.00     0.167 HD
ATOM     63  C   UNL A   1      42.461  29.329  35.050  1.00  0.00     0.074 A 
ATOM     64  C   UNL A   1      42.176  29.564  36.459  1.00  0.00     0.031 C 
ATOM     65  C   UNL A   1      42.643  28.193  34.296  1.00  0.00     0.034 A 
BRANCH  52  66
ATOM     66  C   UNL A   1      40.582  27.215  28.565  1.00  0.00     0.023 A 
ATOM     67  C   UNL A   1      39.677  26.144  28.395  1.00  0.00     0.012 A 
ATOM     68  C   UNL A   1      41.487  27.428  27.498  1.00  0.00     0.148 A 
ATOM     69  C   UNL A   1      39.740  25.270  27.303  1.00  0.00     0.002 A 
ATOM     70  C   UNL A   1      41.608  26.510  26.450  1.00  0.00     0.091 A 
ATOM     71  F   UNL A   1      42.172  28.574  27.424  1.00  0.00    -0.205 F 
ATOM     72  C   UNL A   1      40.735  25.425  26.351  1.00  0.00     0.022 A 
BRANCH  70  73
ATOM     73  S   UNL A   1      42.939  26.600  25.237  1.00  0.00     0.127 S 
ATOM     74  O   UNL A   1      42.801  25.324  24.530  1.00  0.00    -0.237 OA
ATOM     75  O   UNL A   1      42.571  27.772  24.447  1.00  0.00    -0.237 OA
ATOM     76  O   UNL A   1      44.174  26.715  26.006  1.00  0.00    -0.744 OA
ENDBRANCH  70  73
ENDBRANCH  52  66
BRANCH  53  77
ATOM     77  C   UNL A   1      40.414  33.592  35.807  1.00  0.00     0.023 A 
ATOM     78  C   UNL A   1      39.152  32.940  35.820  1.00  0.00     0.012 A 
ATOM     79  C   UNL A   1      40.663  34.581  36.776  1.00  0.00     0.148 A 
ATOM     80  C   UNL A   1      38.262  33.121  36.883  1.00  0.00     0.002 A 
ATOM     81  C   UNL A   1      39.749  34.786  37.809  1.00  0.00     0.091 A 
ATOM     82  F   UNL A   1      41.809  35.272  36.721  1.00  0.00    -0.205 F 
ATOM     83  C   UNL A   1      38.581  34.016  37.900  1.00  0.00     0.022 A 
BRANCH  81  84
ATOM     84  S   UNL A   1      40.095  35.986  39.104  1.00  0.00     0.127 S 
ATOM     85  O   UNL A   1      39.009  35.726  40.043  1.00  0.00    -0.237 OA
ATOM     86  O   UNL A   1      41.419  35.585  39.581  1.00  0.00    -0.237 OA
ATOM     87  O   UNL A   1      40.074  37.275  38.427  1.00  0.00    -0.744 OA
ENDBRANCH  81  84
ENDBRANCH  53  77
BRANCH  65  88
ATOM     88  C   UNL A   1      42.740  26.763  34.839  1.00  0.00     0.023 A 
ATOM     89  C   UNL A   1      41.630  26.079  35.365  1.00  0.00     0.012 A 
ATOM     90  C   UNL A   1      43.980  26.064  34.909  1.00  0.00     0.148 A 
ATOM     91  C   UNL A   1      41.699  24.739  35.773  1.00  0.00     0.002 A 
ATOM     92  C   UNL A   1      44.052  24.734  35.313  1.00  0.00     0.091 A 
ATOM     93  F   UNL A   1      45.127  26.702  34.663  1.00  0.00    -0.205 F 
ATOM     94  C   UNL A   1      42.904  24.055  35.717  1.00  0.00     0.022 A 
BRANCH  92  95
ATOM     95  S   UNL A   1      45.607  23.829  35.349  1.00  0.00     0.127 S 
ATOM     96  O   UNL A   1      45.179  22.532  35.875  1.00  0.00    -0.237 OA
ATOM     97  O   UNL A   1      45.985  23.819  33.936  1.00  0.00    -0.237 OA
ATOM     98  O   UNL A   1      46.500  24.592  36.208  1.00  0.00    -0.744 OA
ENDBRANCH  92  95
ENDBRANCH  65  88
ENDBRANCH  39  40
ENDBRANCH  31  34
ENDBRANCH   1  30
TORSDOF 14
ENDMDL
MODEL 3
REMARK VINA RESULT:     -13.2      4.643      9.966
REMARK SMILES Cc1ccccc1[C@@H]1[NH2+][C@@H](C(=O)NCCCNC(=O)c2ccc(-c3c4nc(c(-c5cccc(S(=O)(=O)[O-])c5F)c5ccc([nH]5)c(-c5cccc(S(=O)(=O)[O-])c5F)c5nc(c(-c6cccc(S(=O)(=O)[O-])c6F)c6ccc3[nH]6)C=C5)C=C4)cc2)CC2=c3ccccc3=N[C@H]21
REMARK SMILES IDX 16 1 15 2 14 3 13 4 11 5 12 6 10 8 8 9 9 10 92 11 84 14
REMARK SMILES IDX 91 15 83 16 85 17 90 18 86 19 89 20 87 21 88 22 7 23 1 24
REMARK SMILES IDX 2 25 3 26 4 27 6 28 5 29 17 30 18 31 19 33 20 34 21 35 82 36
REMARK SMILES IDX 22 37 81 38 23 39 24 40 25 41 75 42 26 43 80 44 74 45 76 46
REMARK SMILES IDX 27 47 79 48 73 49 72 50 28 52 60 53 40 54 59 55 41 56 44 57
REMARK SMILES IDX 58 58 77 59 42 60 43 61 57 63 78 64 45 65 29 66 30 67 38 68
REMARK SMILES IDX 31 69 33 70 39 71 32 72 34 73 35 74 36 75 37 76 61 77 62 78
REMARK SMILES IDX 70 79 63 80 65 81 71 82 64 83 66 84 67 85 68 86 69 87 46 88
REMARK SMILES IDX 47 89 55 90 48 91 50 92 56 93 49 94 51 95 52 96 53 97 54 98
REMARK H PARENT 13 7 9 12 9 13 17 32 76 51 44 62
REMARK Flexibility Score: inf
ROOT
ATOM      1  C   UNL A   1      34.901  33.263  28.732  1.00  0.00     0.118 C 
ENDROOT
BRANCH   1   2
ATOM      2  C   UNL A   1      33.834  32.473  28.035  1.00  0.00     0.042 C 
BRANCH   2   3
ATOM      3  C   UNL A   1      34.280  31.153  27.419  1.00  0.00     0.118 C 
BRANCH   3   4
ATOM      4  N   UNL A   1      33.358  30.030  27.594  1.00  0.00    -0.351 N 
ATOM      5  C   UNL A   1      33.196  28.913  26.806  1.00  0.00     0.278 C 
ATOM      6  O   UNL A   1      33.164  27.827  27.399  1.00  0.00    -0.268 OA
ATOM      7  H   UNL A   1      32.775  30.080  28.385  1.00  0.00     0.163 HD
BRANCH   5   8
ATOM      8  C   UNL A   1      32.858  28.990  25.273  1.00  0.00     0.277 C 
ATOM      9  C   UNL A   1      30.960  27.851  23.936  1.00  0.00     0.243 C 
ATOM     10  N   UNL A   1      31.401  28.732  25.052  1.00  0.00    -0.327 N 
ATOM     11  C   UNL A   1      32.014  27.177  22.998  1.00  0.00     0.196 C 
ATOM     12  H   UNL A   1      31.042  28.320  25.912  1.00  0.00     0.347 HD
ATOM     13  H   UNL A   1      31.040  29.648  24.782  1.00  0.00     0.347 HD
ATOM     14  C   UNL A   1      33.266  27.037  23.765  1.00  0.00    -0.024 C 
ATOM     15  N   UNL A   1      31.667  25.767  22.618  1.00  0.00    -0.270 NA
ATOM     16  C   UNL A   1      33.809  28.271  24.329  1.00  0.00     0.109 C 
ATOM     17  C   UNL A   1      33.656  25.783  23.909  1.00  0.00     0.002 A 
ATOM     18  C   UNL A   1      32.637  25.071  23.132  1.00  0.00     0.066 A 
ATOM     19  C   UNL A   1      34.684  25.120  24.637  1.00  0.00     0.010 A 
ATOM     20  C   UNL A   1      32.837  23.610  23.023  1.00  0.00     0.028 A 
ATOM     21  C   UNL A   1      34.754  23.783  24.560  1.00  0.00     0.001 A 
ATOM     22  C   UNL A   1      33.843  23.035  23.709  1.00  0.00     0.002 A 
BRANCH   9  23
ATOM     23  C   UNL A   1      29.892  28.532  23.071  1.00  0.00     0.015 A 
ATOM     24  C   UNL A   1      27.919  27.059  23.857  1.00  0.00     0.045 C 
ATOM     25  C   UNL A   1      28.510  28.225  23.110  1.00  0.00    -0.042 A 
ATOM     26  C   UNL A   1      27.599  29.086  22.470  1.00  0.00     0.004 A 
ATOM     27  C   UNL A   1      28.036  30.189  21.742  1.00  0.00     0.000 A 
ATOM     28  C   UNL A   1      30.313  29.617  22.273  1.00  0.00     0.010 A 
ATOM     29  C   UNL A   1      29.395  30.436  21.616  1.00  0.00     0.001 A 
ENDBRANCH   9  23
ENDBRANCH   5   8
ENDBRANCH   3   4
ENDBRANCH   2   3
ENDBRANCH   1   2
BRANCH   1  30
ATOM     30  N   UNL A   1      35.068  32.991  30.138  1.00  0.00    -0.352 N 
ATOM     31  C   UNL A   1      35.746  31.927  30.709  1.00  0.00     0.251 C 
ATOM     32  H   UNL A   1      34.655  33.633  30.760  1.00  0.00     0.163 HD
ATOM     33  O   UNL A   1      35.638  31.763  31.923  1.00  0.00    -0.269 OA
BRANCH  31  34
ATOM     34  C   UNL A   1      36.688  31.104  29.893  1.00  0.00     0.039 A 
ATOM     35  C   UNL A   1      36.610  29.715  30.034  1.00  0.00     0.014 A 
ATOM     36  C   UNL A   1      37.772  31.649  29.208  1.00  0.00     0.014 A 
ATOM     37  C   UNL A   1      37.736  28.933  29.789  1.00  0.00     0.010 A 
ATOM     38  C   UNL A   1      38.917  30.912  29.068  1.00  0.00     0.010 A 
ATOM     39  C   UNL A   1      38.916  29.575  29.455  1.00  0.00    -0.014 A 
BRANCH  39  40
ATOM     40  C   UNL A   1      40.243  29.007  29.538  1.00  0.00     0.031 A 
ATOM     41  C   UNL A   1      40.459  27.591  29.246  1.00  0.00     0.074 A 
ATOM     42  C   UNL A   1      41.264  29.890  29.516  1.00  0.00     0.049 A 
ATOM     43  N   UNL A   1      41.577  26.991  29.437  1.00  0.00    -0.248 NA
ATOM     44  C   UNL A   1      39.421  26.749  28.676  1.00  0.00     0.031 C 
ATOM     45  C   UNL A   1      42.632  29.700  29.054  1.00  0.00     0.029 A 
ATOM     46  N   UNL A   1      41.266  31.180  30.021  1.00  0.00    -0.354 N 
ATOM     47  C   UNL A   1      41.518  25.808  28.738  1.00  0.00     0.074 A 
ATOM     48  C   UNL A   1      40.128  25.659  28.367  1.00  0.00     0.031 C 
ATOM     49  C   UNL A   1      43.386  30.725  29.491  1.00  0.00     0.029 A 
ATOM     50  C   UNL A   1      42.572  31.482  30.426  1.00  0.00     0.049 A 
ATOM     51  H   UNL A   1      40.488  31.781  30.083  1.00  0.00     0.167 HD
ATOM     52  C   UNL A   1      42.689  25.191  28.408  1.00  0.00     0.034 A 
ATOM     53  C   UNL A   1      42.824  31.594  31.770  1.00  0.00     0.034 A 
ATOM     54  C   UNL A   1      43.848  25.953  28.923  1.00  0.00     0.049 A 
ATOM     55  C   UNL A   1      43.735  30.498  32.320  1.00  0.00     0.074 A 
ATOM     56  C   UNL A   1      44.778  26.806  28.347  1.00  0.00     0.029 A 
ATOM     57  N   UNL A   1      43.979  26.130  30.294  1.00  0.00    -0.354 N 
ATOM     58  N   UNL A   1      44.282  29.542  31.618  1.00  0.00    -0.248 NA
ATOM     59  C   UNL A   1      44.028  30.364  33.744  1.00  0.00     0.031 C 
ATOM     60  C   UNL A   1      45.453  27.509  29.392  1.00  0.00     0.029 A 
ATOM     61  C   UNL A   1      44.958  27.065  30.604  1.00  0.00     0.049 A 
ATOM     62  H   UNL A   1      43.443  25.650  30.966  1.00  0.00     0.167 HD
ATOM     63  C   UNL A   1      44.798  28.582  32.458  1.00  0.00     0.074 A 
ATOM     64  C   UNL A   1      44.651  29.175  33.781  1.00  0.00     0.031 C 
ATOM     65  C   UNL A   1      45.224  27.352  32.013  1.00  0.00     0.034 A 
BRANCH  52  66
ATOM     66  C   UNL A   1      42.807  24.087  27.371  1.00  0.00     0.023 A 
ATOM     67  C   UNL A   1      43.303  24.440  26.097  1.00  0.00     0.012 A 
ATOM     68  C   UNL A   1      42.428  22.732  27.527  1.00  0.00     0.148 A 
ATOM     69  C   UNL A   1      43.312  23.549  25.017  1.00  0.00     0.002 A 
ATOM     70  C   UNL A   1      42.357  21.864  26.432  1.00  0.00     0.091 A 
ATOM     71  F   UNL A   1      42.231  22.233  28.751  1.00  0.00    -0.205 F 
ATOM     72  C   UNL A   1      42.797  22.273  25.172  1.00  0.00     0.022 A 
BRANCH  70  73
ATOM     73  S   UNL A   1      41.609  20.228  26.547  1.00  0.00     0.127 S 
ATOM     74  O   UNL A   1      40.183  20.547  26.670  1.00  0.00    -0.237 OA
ATOM     75  O   UNL A   1      41.983  19.617  25.275  1.00  0.00    -0.237 OA
ATOM     76  O   UNL A   1      42.177  19.611  27.740  1.00  0.00    -0.744 OA
ENDBRANCH  70  73
ENDBRANCH  52  66
BRANCH  53  77
ATOM     77  C   UNL A   1      41.636  32.178  32.499  1.00  0.00     0.023 A 
ATOM     78  C   UNL A   1      41.180  33.451  32.065  1.00  0.00     0.012 A 
ATOM     79  C   UNL A   1      40.748  31.365  33.226  1.00  0.00     0.148 A 
ATOM     80  C   UNL A   1      39.832  33.805  32.171  1.00  0.00     0.002 A 
ATOM     81  C   UNL A   1      39.414  31.746  33.365  1.00  0.00     0.091 A 
ATOM     82  F   UNL A   1      41.188  30.203  33.725  1.00  0.00    -0.205 F 
ATOM     83  C   UNL A   1      38.940  32.932  32.786  1.00  0.00     0.022 A 
BRANCH  81  84
ATOM     84  S   UNL A   1      38.246  30.674  34.216  1.00  0.00     0.127 S 
ATOM     85  O   UNL A   1      37.956  29.680  33.187  1.00  0.00    -0.237 OA
ATOM     86  O   UNL A   1      39.025  30.168  35.347  1.00  0.00    -0.237 OA
ATOM     87  O   UNL A   1      37.150  31.553  34.597  1.00  0.00    -0.744 OA
ENDBRANCH  81  84
ENDBRANCH  53  77
BRANCH  65  88
ATOM     88  C   UNL A   1      45.840  26.249  32.879  1.00  0.00     0.023 A 
ATOM     89  C   UNL A   1      47.220  25.983  32.895  1.00  0.00     0.012 A 
ATOM     90  C   UNL A   1      45.039  25.374  33.670  1.00  0.00     0.148 A 
ATOM     91  C   UNL A   1      47.793  25.039  33.758  1.00  0.00     0.002 A 
ATOM     92  C   UNL A   1      45.605  24.434  34.529  1.00  0.00     0.091 A 
ATOM     93  F   UNL A   1      43.710  25.380  33.544  1.00  0.00    -0.205 F 
ATOM     94  C   UNL A   1      46.988  24.285  34.599  1.00  0.00     0.022 A 
BRANCH  92  95
ATOM     95  S   UNL A   1      44.600  23.367  35.572  1.00  0.00     0.127 S 
ATOM     96  O   UNL A   1      45.626  22.615  36.296  1.00  0.00    -0.237 OA
ATOM     97  O   UNL A   1      43.869  24.338  36.385  1.00  0.00    -0.237 OA
ATOM     98  O   UNL A   1      43.767  22.586  34.670  1.00  0.00    -0.744 OA
ENDBRANCH  92  95
ENDBRANCH  65  88
ENDBRANCH  39  40
ENDBRANCH  31  34
ENDBRANCH   1  30
TORSDOF 14
ENDMDL
