MODEL 1
REMARK VINA RESULT:     -11.4      0.000      0.000
REMARK SMILES O=C(NCCCNC(=O)[C@@H](Cc1ccccc1Br)CC(F)(F)F)c1ccc(-c2c3nc(c(-c4cccc(S(=O)(=O)[O-])c4F)c4ccc([nH]4)c(-c4cccc(S(=O)(=O)[O-])c4F)c4nc(c(-c5cccc(S(=O)(=O)[O-])c5F)c5ccc2[nH]5)C=C4)C=C3)cc1
REMARK SMILES IDX 4 1 3 2 1 3 2 4 24 6 25 7 86 8 26 9 85 10 27 11 28 12 29 13
REMARK SMILES IDX 79 14 30 15 84 16 78 17 80 18 31 19 83 20 77 21 76 22 32 24
REMARK SMILES IDX 64 25 44 26 63 27 45 28 48 29 62 30 81 31 46 32 47 33 61 35
REMARK SMILES IDX 82 36 49 37 33 38 34 39 42 40 35 41 37 42 43 43 36 44 38 45
REMARK SMILES IDX 39 46 40 47 41 48 65 49 66 50 74 51 67 52 69 53 75 54 68 55
REMARK SMILES IDX 70 56 71 57 72 58 73 59 50 60 51 61 59 62 52 63 54 64 60 65
REMARK SMILES IDX 53 66 55 67 56 68 57 69 58 70 5 71 6 72 7 73 8 74 9 76 10 77
REMARK SMILES IDX 11 78 12 79 13 80 17 81 14 82 16 83 18 84 15 85 19 86 20 87
REMARK SMILES IDX 21 88 22 89 23 90
REMARK H PARENT 3 5 80 23 48 34 7 75
REMARK Flexibility Score: inf
ROOT
ATOM      1  C   UNL A   1      33.554  29.162  24.658  1.00  0.00     0.118 C 
ENDROOT
BRANCH   1   2
ATOM      2  N   UNL A   1      32.859  30.291  25.255  1.00  0.00    -0.352 N 
ATOM      3  O   UNL A   1      32.036  31.579  26.883  1.00  0.00    -0.269 OA
ATOM      4  C   UNL A   1      32.959  30.860  26.505  1.00  0.00     0.251 C 
ATOM      5  H   UNL A   1      32.205  30.725  24.662  1.00  0.00     0.163 HD
BRANCH   4   6
ATOM      6  C   UNL A   1      34.124  30.626  27.402  1.00  0.00     0.039 A 
ATOM      7  C   UNL A   1      34.413  29.371  27.934  1.00  0.00     0.014 A 
ATOM      8  C   UNL A   1      35.030  31.673  27.626  1.00  0.00     0.014 A 
ATOM      9  C   UNL A   1      35.497  29.192  28.790  1.00  0.00     0.010 A 
ATOM     10  C   UNL A   1      36.193  31.461  28.380  1.00  0.00     0.010 A 
ATOM     11  C   UNL A   1      36.432  30.219  28.985  1.00  0.00    -0.014 A 
BRANCH  11  12
ATOM     12  C   UNL A   1      37.697  29.915  29.711  1.00  0.00     0.031 A 
ATOM     13  C   UNL A   1      37.972  30.459  31.085  1.00  0.00     0.074 A 
ATOM     14  C   UNL A   1      38.610  29.123  29.108  1.00  0.00     0.049 A 
ATOM     15  N   UNL A   1      39.007  30.247  31.857  1.00  0.00    -0.248 NA
ATOM     16  C   UNL A   1      36.967  31.362  31.667  1.00  0.00     0.031 C 
ATOM     17  C   UNL A   1      38.487  28.580  27.751  1.00  0.00     0.029 A 
ATOM     18  N   UNL A   1      39.812  28.629  29.549  1.00  0.00    -0.354 N 
ATOM     19  C   UNL A   1      38.803  31.018  32.996  1.00  0.00     0.074 A 
ATOM     20  C   UNL A   1      37.545  31.710  32.811  1.00  0.00     0.031 C 
ATOM     21  C   UNL A   1      39.542  27.796  27.488  1.00  0.00     0.029 A 
ATOM     22  C   UNL A   1      40.452  27.831  28.626  1.00  0.00     0.049 A 
ATOM     23  H   UNL A   1      40.181  28.824  30.440  1.00  0.00     0.167 HD
ATOM     24  C   UNL A   1      39.583  31.128  34.098  1.00  0.00     0.034 A 
ATOM     25  C   UNL A   1      41.645  27.209  28.675  1.00  0.00     0.034 A 
ATOM     26  C   UNL A   1      40.818  30.411  34.290  1.00  0.00     0.049 A 
ATOM     27  C   UNL A   1      42.473  27.328  29.921  1.00  0.00     0.074 A 
ATOM     28  C   UNL A   1      41.645  30.409  35.400  1.00  0.00     0.029 A 
ATOM     29  N   UNL A   1      41.410  29.580  33.351  1.00  0.00    -0.354 N 
ATOM     30  N   UNL A   1      42.194  27.957  31.038  1.00  0.00    -0.248 NA
ATOM     31  C   UNL A   1      43.767  26.633  29.927  1.00  0.00     0.031 C 
ATOM     32  C   UNL A   1      42.749  29.595  35.124  1.00  0.00     0.029 A 
ATOM     33  C   UNL A   1      42.595  29.067  33.852  1.00  0.00     0.049 A 
ATOM     34  H   UNL A   1      41.042  29.383  32.460  1.00  0.00     0.167 HD
ATOM     35  C   UNL A   1      43.265  27.713  31.887  1.00  0.00     0.074 A 
ATOM     36  C   UNL A   1      44.183  26.855  31.168  1.00  0.00     0.031 C 
ATOM     37  C   UNL A   1      43.476  28.174  33.144  1.00  0.00     0.034 A 
BRANCH  24  38
ATOM     38  C   UNL A   1      39.114  32.032  35.209  1.00  0.00     0.023 A 
ATOM     39  C   UNL A   1      38.190  31.548  36.157  1.00  0.00     0.012 A 
ATOM     40  C   UNL A   1      39.648  33.327  35.363  1.00  0.00     0.148 A 
ATOM     41  C   UNL A   1      37.784  32.348  37.226  1.00  0.00     0.002 A 
ATOM     42  C   UNL A   1      39.269  34.103  36.454  1.00  0.00     0.091 A 
ATOM     43  F   UNL A   1      40.512  33.777  34.443  1.00  0.00    -0.205 F 
ATOM     44  C   UNL A   1      38.330  33.619  37.379  1.00  0.00     0.022 A 
BRANCH  42  45
ATOM     45  S   UNL A   1      39.973  35.723  36.784  1.00  0.00     0.127 S 
ATOM     46  O   UNL A   1      41.390  35.400  36.948  1.00  0.00    -0.237 OA
ATOM     47  O   UNL A   1      39.653  36.454  35.558  1.00  0.00    -0.237 OA
ATOM     48  O   UNL A   1      39.303  36.216  37.979  1.00  0.00    -0.744 OA
ENDBRANCH  42  45
ENDBRANCH  24  38
BRANCH  25  49
ATOM     49  C   UNL A   1      42.106  26.392  27.517  1.00  0.00     0.023 A 
ATOM     50  C   UNL A   1      42.923  26.979  26.531  1.00  0.00     0.012 A 
ATOM     51  C   UNL A   1      41.773  25.028  27.408  1.00  0.00     0.148 A 
ATOM     52  C   UNL A   1      43.377  26.229  25.445  1.00  0.00     0.002 A 
ATOM     53  C   UNL A   1      42.280  24.273  26.358  1.00  0.00     0.091 A 
ATOM     54  F   UNL A   1      40.980  24.490  28.345  1.00  0.00    -0.205 F 
ATOM     55  C   UNL A   1      43.067  24.875  25.365  1.00  0.00     0.022 A 
BRANCH  53  56
ATOM     56  S   UNL A   1      42.050  22.493  26.265  1.00  0.00     0.127 S 
ATOM     57  O   UNL A   1      40.596  22.383  26.188  1.00  0.00    -0.237 OA
ATOM     58  O   UNL A   1      42.761  22.160  25.028  1.00  0.00    -0.237 OA
ATOM     59  O   UNL A   1      42.668  21.958  27.469  1.00  0.00    -0.744 OA
ENDBRANCH  53  56
ENDBRANCH  25  49
BRANCH  37  60
ATOM     60  C   UNL A   1      44.737  27.735  33.840  1.00  0.00     0.023 A 
ATOM     61  C   UNL A   1      45.898  28.530  33.755  1.00  0.00     0.012 A 
ATOM     62  C   UNL A   1      44.752  26.569  34.628  1.00  0.00     0.148 A 
ATOM     63  C   UNL A   1      47.064  28.152  34.418  1.00  0.00     0.002 A 
ATOM     64  C   UNL A   1      45.904  26.224  35.326  1.00  0.00     0.091 A 
ATOM     65  F   UNL A   1      43.644  25.816  34.678  1.00  0.00    -0.205 F 
ATOM     66  C   UNL A   1      47.064  27.007  35.211  1.00  0.00     0.022 A 
BRANCH  64  67
ATOM     67  S   UNL A   1      45.962  24.821  36.445  1.00  0.00     0.127 S 
ATOM     68  O   UNL A   1      45.010  25.226  37.480  1.00  0.00    -0.237 OA
ATOM     69  O   UNL A   1      45.502  23.724  35.591  1.00  0.00    -0.237 OA
ATOM     70  O   UNL A   1      47.346  24.709  36.877  1.00  0.00    -0.744 OA
ENDBRANCH  64  67
ENDBRANCH  37  60
ENDBRANCH  11  12
ENDBRANCH   4   6
ENDBRANCH   1   2
BRANCH   1  71
ATOM     71  C   UNL A   1      33.092  28.929  23.231  1.00  0.00     0.042 C 
BRANCH  71  72
ATOM     72  C   UNL A   1      32.028  27.849  23.109  1.00  0.00     0.117 C 
BRANCH  72  73
ATOM     73  N   UNL A   1      32.330  26.979  21.988  1.00  0.00    -0.356 N 
ATOM     74  C   UNL A   1      32.953  25.779  21.928  1.00  0.00     0.223 C 
ATOM     75  H   UNL A   1      32.027  27.322  21.117  1.00  0.00     0.163 HD
ATOM     76  O   UNL A   1      33.278  25.373  20.808  1.00  0.00    -0.275 OA
BRANCH  74  77
ATOM     77  C   UNL A   1      33.198  24.895  23.147  1.00  0.00     0.092 C 
BRANCH  77  78
ATOM     78  C   UNL A   1      33.535  23.406  22.861  1.00  0.00     0.050 C 
BRANCH  78  79
ATOM     79  C   UNL A   1      34.618  22.640  23.595  1.00  0.00    -0.033 A 
ATOM     80  C   UNL A   1      35.961  22.915  23.251  1.00  0.00     0.005 A 
ATOM     81  C   UNL A   1      34.400  21.605  24.522  1.00  0.00     0.021 A 
ATOM     82  C   UNL A   1      37.030  22.265  23.879  1.00  0.00     0.000 A 
ATOM     83  C   UNL A   1      35.474  20.993  25.187  1.00  0.00     0.016 A 
ATOM     84  Br  UNL A   1      32.694  20.843  24.861  1.00  0.00    -0.051 Br
ATOM     85  C   UNL A   1      36.786  21.329  24.875  1.00  0.00     0.001 A 
ENDBRANCH  78  79
ENDBRANCH  77  78
BRANCH  77  86
ATOM     86  C   UNL A   1      33.977  25.579  24.273  1.00  0.00     0.129 C 
BRANCH  86  87
ATOM     87  C   UNL A   1      33.395  25.352  25.655  1.00  0.00     0.389 C 
ATOM     88  F   UNL A   1      33.404  26.484  26.388  1.00  0.00    -0.171 F 
ATOM     89  F   UNL A   1      32.105  24.954  25.545  1.00  0.00    -0.171 F 
ATOM     90  F   UNL A   1      34.047  24.394  26.340  1.00  0.00    -0.171 F 
ENDBRANCH  86  87
ENDBRANCH  77  86
ENDBRANCH  74  77
ENDBRANCH  72  73
ENDBRANCH  71  72
ENDBRANCH   1  71
TORSDOF 17
ENDMDL
MODEL 2
REMARK VINA RESULT:     -11.3      4.816      9.875
REMARK SMILES O=C(NCCCNC(=O)[C@@H](Cc1ccccc1Br)CC(F)(F)F)c1ccc(-c2c3nc(c(-c4cccc(S(=O)(=O)[O-])c4F)c4ccc([nH]4)c(-c4cccc(S(=O)(=O)[O-])c4F)c4nc(c(-c5cccc(S(=O)(=O)[O-])c5F)c5ccc2[nH]5)C=C4)C=C3)cc1
REMARK SMILES IDX 4 1 3 2 1 3 2 4 24 6 25 7 86 8 26 9 85 10 27 11 28 12 29 13
REMARK SMILES IDX 79 14 30 15 84 16 78 17 80 18 31 19 83 20 77 21 76 22 32 24
REMARK SMILES IDX 64 25 44 26 63 27 45 28 48 29 62 30 81 31 46 32 47 33 61 35
REMARK SMILES IDX 82 36 49 37 33 38 34 39 42 40 35 41 37 42 43 43 36 44 38 45
REMARK SMILES IDX 39 46 40 47 41 48 65 49 66 50 74 51 67 52 69 53 75 54 68 55
REMARK SMILES IDX 70 56 71 57 72 58 73 59 50 60 51 61 59 62 52 63 54 64 60 65
REMARK SMILES IDX 53 66 55 67 56 68 57 69 58 70 5 71 6 72 7 73 8 74 9 76 10 77
REMARK SMILES IDX 11 78 12 79 13 80 17 81 14 82 16 83 18 84 15 85 19 86 20 87
REMARK SMILES IDX 21 88 22 89 23 90
REMARK H PARENT 3 5 80 23 48 34 7 75
REMARK Flexibility Score: inf
ROOT
ATOM      1  C   UNL A   1      35.895  21.889  25.776  1.00  0.00     0.118 C 
ENDROOT
BRANCH   1   2
ATOM      2  N   UNL A   1      36.991  20.936  25.710  1.00  0.00    -0.352 N 
ATOM      3  O   UNL A   1      39.075  20.211  25.370  1.00  0.00    -0.269 OA
ATOM      4  C   UNL A   1      38.354  21.113  25.792  1.00  0.00     0.251 C 
ATOM      5  H   UNL A   1      36.710  20.001  25.585  1.00  0.00     0.163 HD
BRANCH   4   6
ATOM      6  C   UNL A   1      38.970  22.346  26.354  1.00  0.00     0.039 A 
ATOM      7  C   UNL A   1      40.155  22.318  27.087  1.00  0.00     0.014 A 
ATOM      8  C   UNL A   1      38.408  23.592  26.037  1.00  0.00     0.014 A 
ATOM      9  C   UNL A   1      40.691  23.488  27.619  1.00  0.00     0.010 A 
ATOM     10  C   UNL A   1      39.020  24.780  26.461  1.00  0.00     0.010 A 
ATOM     11  C   UNL A   1      40.163  24.740  27.272  1.00  0.00    -0.014 A 
BRANCH  11  12
ATOM     12  C   UNL A   1      40.906  25.971  27.665  1.00  0.00     0.031 A 
ATOM     13  C   UNL A   1      42.319  26.219  27.217  1.00  0.00     0.074 A 
ATOM     14  C   UNL A   1      40.278  26.881  28.441  1.00  0.00     0.049 A 
ATOM     15  N   UNL A   1      43.079  27.261  27.444  1.00  0.00    -0.248 NA
ATOM     16  C   UNL A   1      42.971  25.167  26.422  1.00  0.00     0.031 C 
ATOM     17  C   UNL A   1      38.927  26.729  28.991  1.00  0.00     0.029 A 
ATOM     18  N   UNL A   1      40.679  28.111  28.898  1.00  0.00    -0.354 N 
ATOM     19  C   UNL A   1      44.307  26.977  26.858  1.00  0.00     0.074 A 
ATOM     20  C   UNL A   1      44.194  25.659  26.270  1.00  0.00     0.031 C 
ATOM     21  C   UNL A   1      38.596  27.836  29.670  1.00  0.00     0.029 A 
ATOM     22  C   UNL A   1      39.730  28.751  29.665  1.00  0.00     0.049 A 
ATOM     23  H   UNL A   1      41.560  28.500  28.697  1.00  0.00     0.167 HD
ATOM     24  C   UNL A   1      45.420  27.747  26.805  1.00  0.00     0.034 A 
ATOM     25  C   UNL A   1      39.767  29.932  30.310  1.00  0.00     0.034 A 
ATOM     26  C   UNL A   1      45.516  29.071  27.364  1.00  0.00     0.049 A 
ATOM     27  C   UNL A   1      41.005  30.775  30.207  1.00  0.00     0.074 A 
ATOM     28  C   UNL A   1      46.580  29.954  27.302  1.00  0.00     0.029 A 
ATOM     29  N   UNL A   1      44.519  29.701  28.093  1.00  0.00    -0.354 N 
ATOM     30  N   UNL A   1      42.106  30.540  29.535  1.00  0.00    -0.248 NA
ATOM     31  C   UNL A   1      40.999  32.054  30.928  1.00  0.00     0.031 C 
ATOM     32  C   UNL A   1      46.236  31.107  28.015  1.00  0.00     0.029 A 
ATOM     33  C   UNL A   1      44.946  30.955  28.497  1.00  0.00     0.049 A 
ATOM     34  H   UNL A   1      43.637  29.313  28.295  1.00  0.00     0.167 HD
ATOM     35  C   UNL A   1      42.913  31.653  29.731  1.00  0.00     0.074 A 
ATOM     36  C   UNL A   1      42.163  32.573  30.560  1.00  0.00     0.031 C 
ATOM     37  C   UNL A   1      44.170  31.883  29.280  1.00  0.00     0.034 A 
BRANCH  24  38
ATOM     38  C   UNL A   1      46.625  27.199  26.084  1.00  0.00     0.023 A 
ATOM     39  C   UNL A   1      46.737  27.362  24.689  1.00  0.00     0.012 A 
ATOM     40  C   UNL A   1      47.683  26.598  26.796  1.00  0.00     0.148 A 
ATOM     41  C   UNL A   1      47.869  26.912  24.009  1.00  0.00     0.002 A 
ATOM     42  C   UNL A   1      48.825  26.189  26.117  1.00  0.00     0.091 A 
ATOM     43  F   UNL A   1      47.552  26.435  28.120  1.00  0.00    -0.205 F 
ATOM     44  C   UNL A   1      48.915  26.336  24.723  1.00  0.00     0.022 A 
BRANCH  42  45
ATOM     45  S   UNL A   1      50.261  25.506  26.955  1.00  0.00     0.127 S 
ATOM     46  O   UNL A   1      50.603  26.587  27.880  1.00  0.00    -0.237 OA
ATOM     47  O   UNL A   1      49.707  24.312  27.591  1.00  0.00    -0.237 OA
ATOM     48  O   UNL A   1      51.245  25.240  25.915  1.00  0.00    -0.744 OA
ENDBRANCH  42  45
ENDBRANCH  24  38
BRANCH  25  49
ATOM     49  C   UNL A   1      38.579  30.396  31.080  1.00  0.00     0.023 A 
ATOM     50  C   UNL A   1      38.503  30.143  32.464  1.00  0.00     0.012 A 
ATOM     51  C   UNL A   1      37.544  31.122  30.458  1.00  0.00     0.148 A 
ATOM     52  C   UNL A   1      37.405  30.581  33.207  1.00  0.00     0.002 A 
ATOM     53  C   UNL A   1      36.486  31.608  31.216  1.00  0.00     0.091 A 
ATOM     54  F   UNL A   1      37.624  31.338  29.138  1.00  0.00    -0.205 F 
ATOM     55  C   UNL A   1      36.405  31.323  32.586  1.00  0.00     0.022 A 
BRANCH  53  56
ATOM     56  S   UNL A   1      35.236  32.697  30.521  1.00  0.00     0.127 S 
ATOM     57  O   UNL A   1      34.214  32.681  31.563  1.00  0.00    -0.237 OA
ATOM     58  O   UNL A   1      35.970  33.958  30.395  1.00  0.00    -0.237 OA
ATOM     59  O   UNL A   1      34.861  32.096  29.249  1.00  0.00    -0.744 OA
ENDBRANCH  53  56
ENDBRANCH  25  49
BRANCH  37  60
ATOM     60  C   UNL A   1      44.808  33.197  29.645  1.00  0.00     0.023 A 
ATOM     61  C   UNL A   1      45.581  33.299  30.819  1.00  0.00     0.012 A 
ATOM     62  C   UNL A   1      44.692  34.311  28.792  1.00  0.00     0.148 A 
ATOM     63  C   UNL A   1      46.201  34.501  31.155  1.00  0.00     0.002 A 
ATOM     64  C   UNL A   1      45.355  35.491  29.109  1.00  0.00     0.091 A 
ATOM     65  F   UNL A   1      43.935  34.199  27.692  1.00  0.00    -0.205 F 
ATOM     66  C   UNL A   1      46.098  35.592  30.296  1.00  0.00     0.022 A 
BRANCH  64  67
ATOM     67  S   UNL A   1      45.354  36.914  28.012  1.00  0.00     0.127 S 
ATOM     68  O   UNL A   1      43.931  37.253  27.966  1.00  0.00    -0.237 OA
ATOM     69  O   UNL A   1      46.183  37.872  28.748  1.00  0.00    -0.237 OA
ATOM     70  O   UNL A   1      45.930  36.456  26.759  1.00  0.00    -0.744 OA
ENDBRANCH  64  67
ENDBRANCH  37  60
ENDBRANCH  11  12
ENDBRANCH   4   6
ENDBRANCH   1   2
BRANCH   1  71
ATOM     71  C   UNL A   1      34.590  21.198  26.123  1.00  0.00     0.042 C 
BRANCH  71  72
ATOM     72  C   UNL A   1      33.399  21.727  25.339  1.00  0.00     0.117 C 
BRANCH  72  73
ATOM     73  N   UNL A   1      32.315  22.056  26.246  1.00  0.00    -0.356 N 
ATOM     74  C   UNL A   1      31.805  23.245  26.640  1.00  0.00     0.223 C 
ATOM     75  H   UNL A   1      31.870  21.273  26.643  1.00  0.00     0.163 HD
ATOM     76  O   UNL A   1      31.031  23.232  27.601  1.00  0.00    -0.275 OA
BRANCH  74  77
ATOM     77  C   UNL A   1      32.081  24.561  25.917  1.00  0.00     0.092 C 
BRANCH  77  78
ATOM     78  C   UNL A   1      30.979  25.650  26.025  1.00  0.00     0.050 C 
BRANCH  78  79
ATOM     79  C   UNL A   1      31.267  27.137  25.959  1.00  0.00    -0.033 A 
ATOM     80  C   UNL A   1      31.555  27.802  27.172  1.00  0.00     0.005 A 
ATOM     81  C   UNL A   1      31.176  27.935  24.805  1.00  0.00     0.021 A 
ATOM     82  C   UNL A   1      31.841  29.171  27.213  1.00  0.00     0.000 A 
ATOM     83  C   UNL A   1      31.516  29.297  24.840  1.00  0.00     0.016 A 
ATOM     84  Br  UNL A   1      30.469  27.317  23.154  1.00  0.00    -0.051 Br
ATOM     85  C   UNL A   1      31.858  29.913  26.039  1.00  0.00     0.001 A 
ENDBRANCH  78  79
ENDBRANCH  77  78
BRANCH  77  86
ATOM     86  C   UNL A   1      33.535  25.033  26.005  1.00  0.00     0.129 C 
BRANCH  86  87
ATOM     87  C   UNL A   1      34.204  25.229  24.658  1.00  0.00     0.389 C 
ATOM     88  F   UNL A   1      33.562  24.556  23.682  1.00  0.00    -0.171 F 
ATOM     89  F   UNL A   1      34.178  26.543  24.325  1.00  0.00    -0.171 F 
ATOM     90  F   UNL A   1      35.495  24.848  24.662  1.00  0.00    -0.171 F 
ENDBRANCH  86  87
ENDBRANCH  77  86
ENDBRANCH  74  77
ENDBRANCH  72  73
ENDBRANCH  71  72
ENDBRANCH   1  71
TORSDOF 17
ENDMDL
MODEL 3
REMARK VINA RESULT:     -11.3      1.390      1.987
REMARK SMILES O=C(NCCCNC(=O)[C@@H](Cc1ccccc1Br)CC(F)(F)F)c1ccc(-c2c3nc(c(-c4cccc(S(=O)(=O)[O-])c4F)c4ccc([nH]4)c(-c4cccc(S(=O)(=O)[O-])c4F)c4nc(c(-c5cccc(S(=O)(=O)[O-])c5F)c5ccc2[nH]5)C=C4)C=C3)cc1
REMARK SMILES IDX 4 1 3 2 1 3 2 4 24 6 25 7 86 8 26 9 85 10 27 11 28 12 29 13
REMARK SMILES IDX 79 14 30 15 84 16 78 17 80 18 31 19 83 20 77 21 76 22 32 24
REMARK SMILES IDX 64 25 44 26 63 27 45 28 48 29 62 30 81 31 46 32 47 33 61 35
REMARK SMILES IDX 82 36 49 37 33 38 34 39 42 40 35 41 37 42 43 43 36 44 38 45
REMARK SMILES IDX 39 46 40 47 41 48 65 49 66 50 74 51 67 52 69 53 75 54 68 55
REMARK SMILES IDX 70 56 71 57 72 58 73 59 50 60 51 61 59 62 52 63 54 64 60 65
REMARK SMILES IDX 53 66 55 67 56 68 57 69 58 70 5 71 6 72 7 73 8 74 9 76 10 77
REMARK SMILES IDX 11 78 12 79 13 80 17 81 14 82 16 83 18 84 15 85 19 86 20 87
REMARK SMILES IDX 21 88 22 89 23 90
REMARK H PARENT 3 5 80 23 48 34 7 75
REMARK Flexibility Score: inf
ROOT
ATOM      1  C   UNL A   1      32.568  30.061  25.861  1.00  0.00     0.118 C 
ENDROOT
BRANCH   1   2
ATOM      2  N   UNL A   1      32.507  31.458  26.261  1.00  0.00    -0.352 N 
ATOM      3  O   UNL A   1      32.753  33.234  27.592  1.00  0.00    -0.269 OA
ATOM      4  C   UNL A   1      33.218  32.162  27.206  1.00  0.00     0.251 C 
ATOM      5  H   UNL A   1      31.842  31.992  25.771  1.00  0.00     0.163 HD
BRANCH   4   6
ATOM      6  C   UNL A   1      34.504  31.671  27.773  1.00  0.00     0.039 A 
ATOM      7  C   UNL A   1      35.581  32.520  28.018  1.00  0.00     0.014 A 
ATOM      8  C   UNL A   1      34.597  30.334  28.187  1.00  0.00     0.014 A 
ATOM      9  C   UNL A   1      36.778  32.023  28.528  1.00  0.00     0.010 A 
ATOM     10  C   UNL A   1      35.755  29.862  28.821  1.00  0.00     0.010 A 
ATOM     11  C   UNL A   1      36.867  30.699  28.984  1.00  0.00    -0.014 A 
BRANCH  11  12
ATOM     12  C   UNL A   1      38.081  30.277  29.738  1.00  0.00     0.031 A 
ATOM     13  C   UNL A   1      38.339  30.737  31.146  1.00  0.00     0.074 A 
ATOM     14  C   UNL A   1      38.961  29.453  29.130  1.00  0.00     0.049 A 
ATOM     15  N   UNL A   1      39.328  30.420  31.943  1.00  0.00    -0.248 NA
ATOM     16  C   UNL A   1      37.375  31.679  31.736  1.00  0.00     0.031 C 
ATOM     17  C   UNL A   1      38.855  28.982  27.745  1.00  0.00     0.029 A 
ATOM     18  N   UNL A   1      40.111  28.859  29.588  1.00  0.00    -0.354 N 
ATOM     19  C   UNL A   1      39.132  31.150  33.109  1.00  0.00     0.074 A 
ATOM     20  C   UNL A   1      37.931  31.934  32.915  1.00  0.00     0.031 C 
ATOM     21  C   UNL A   1      39.866  28.142  27.482  1.00  0.00     0.029 A 
ATOM     22  C   UNL A   1      40.732  28.063  28.651  1.00  0.00     0.049 A 
ATOM     23  H   UNL A   1      40.458  28.987  30.500  1.00  0.00     0.167 HD
ATOM     24  C   UNL A   1      39.876  31.157  34.242  1.00  0.00     0.034 A 
ATOM     25  C   UNL A   1      41.878  27.360  28.711  1.00  0.00     0.034 A 
ATOM     26  C   UNL A   1      41.052  30.350  34.442  1.00  0.00     0.049 A 
ATOM     27  C   UNL A   1      42.664  27.365  29.989  1.00  0.00     0.074 A 
ATOM     28  C   UNL A   1      41.834  30.240  35.579  1.00  0.00     0.029 A 
ATOM     29  N   UNL A   1      41.623  29.524  33.485  1.00  0.00    -0.354 N 
ATOM     30  N   UNL A   1      42.385  27.960  31.124  1.00  0.00    -0.248 NA
ATOM     31  C   UNL A   1      43.909  26.585  30.007  1.00  0.00     0.031 C 
ATOM     32  C   UNL A   1      42.892  29.367  35.302  1.00  0.00     0.029 A 
ATOM     33  C   UNL A   1      42.752  28.910  34.001  1.00  0.00     0.049 A 
ATOM     34  H   UNL A   1      41.277  29.394  32.573  1.00  0.00     0.167 HD
ATOM     35  C   UNL A   1      43.405  27.605  31.998  1.00  0.00     0.074 A 
ATOM     36  C   UNL A   1      44.291  26.721  31.270  1.00  0.00     0.031 C 
ATOM     37  C   UNL A   1      43.599  27.992  33.282  1.00  0.00     0.034 A 
BRANCH  24  38
ATOM     38  C   UNL A   1      39.426  32.038  35.379  1.00  0.00     0.023 A 
ATOM     39  C   UNL A   1      38.600  31.504  36.389  1.00  0.00     0.012 A 
ATOM     40  C   UNL A   1      39.884  33.366  35.491  1.00  0.00     0.148 A 
ATOM     41  C   UNL A   1      38.216  32.286  37.479  1.00  0.00     0.002 A 
ATOM     42  C   UNL A   1      39.531  34.125  36.602  1.00  0.00     0.091 A 
ATOM     43  F   UNL A   1      40.655  33.862  34.512  1.00  0.00    -0.205 F 
ATOM     44  C   UNL A   1      38.689  33.590  37.590  1.00  0.00     0.022 A 
BRANCH  42  45
ATOM     45  S   UNL A   1      40.151  35.789  36.877  1.00  0.00     0.127 S 
ATOM     46  O   UNL A   1      39.618  36.497  35.713  1.00  0.00    -0.237 OA
ATOM     47  O   UNL A   1      39.522  36.146  38.148  1.00  0.00    -0.237 OA
ATOM     48  O   UNL A   1      41.601  35.675  36.928  1.00  0.00    -0.744 OA
ENDBRANCH  42  45
ENDBRANCH  24  38
BRANCH  25  49
ATOM     49  C   UNL A   1      42.328  26.568  27.531  1.00  0.00     0.023 A 
ATOM     50  C   UNL A   1      43.118  27.182  26.540  1.00  0.00     0.012 A 
ATOM     51  C   UNL A   1      42.012  25.201  27.406  1.00  0.00     0.148 A 
ATOM     52  C   UNL A   1      43.561  26.455  25.433  1.00  0.00     0.002 A 
ATOM     53  C   UNL A   1      42.508  24.469  26.335  1.00  0.00     0.091 A 
ATOM     54  F   UNL A   1      41.243  24.638  28.350  1.00  0.00    -0.205 F 
ATOM     55  C   UNL A   1      43.268  25.098  25.338  1.00  0.00     0.022 A 
BRANCH  53  56
ATOM     56  S   UNL A   1      42.300  22.689  26.218  1.00  0.00     0.127 S 
ATOM     57  O   UNL A   1      43.034  22.224  27.392  1.00  0.00    -0.237 OA
ATOM     58  O   UNL A   1      40.845  22.547  26.303  1.00  0.00    -0.237 OA
ATOM     59  O   UNL A   1      42.860  22.316  24.926  1.00  0.00    -0.744 OA
ENDBRANCH  53  56
ENDBRANCH  25  49
BRANCH  37  60
ATOM     60  C   UNL A   1      44.800  27.438  33.999  1.00  0.00     0.023 A 
ATOM     61  C   UNL A   1      46.021  28.142  33.970  1.00  0.00     0.012 A 
ATOM     62  C   UNL A   1      44.701  26.252  34.752  1.00  0.00     0.148 A 
ATOM     63  C   UNL A   1      47.134  27.655  34.653  1.00  0.00     0.002 A 
ATOM     64  C   UNL A   1      45.802  25.801  35.472  1.00  0.00     0.091 A 
ATOM     65  F   UNL A   1      43.537  25.588  34.750  1.00  0.00    -0.205 F 
ATOM     66  C   UNL A   1      47.022  26.493  35.412  1.00  0.00     0.022 A 
BRANCH  64  67
ATOM     67  S   UNL A   1      45.718  24.367  36.551  1.00  0.00     0.127 S 
ATOM     68  O   UNL A   1      47.090  24.295  37.055  1.00  0.00    -0.237 OA
ATOM     69  O   UNL A   1      44.727  24.784  37.545  1.00  0.00    -0.237 OA
ATOM     70  O   UNL A   1      45.300  23.256  35.712  1.00  0.00    -0.744 OA
ENDBRANCH  64  67
ENDBRANCH  37  60
ENDBRANCH  11  12
ENDBRANCH   4   6
ENDBRANCH   1   2
BRANCH   1  71
ATOM     71  C   UNL A   1      31.508  29.241  26.573  1.00  0.00     0.042 C 
BRANCH  71  72
ATOM     72  C   UNL A   1      32.077  28.072  27.362  1.00  0.00     0.117 C 
BRANCH  72  73
ATOM     73  N   UNL A   1      31.203  26.921  27.242  1.00  0.00    -0.356 N 
ATOM     74  C   UNL A   1      31.167  25.912  26.340  1.00  0.00     0.223 C 
ATOM     75  H   UNL A   1      30.514  26.862  27.942  1.00  0.00     0.163 HD
ATOM     76  O   UNL A   1      30.166  25.189  26.348  1.00  0.00    -0.275 OA
BRANCH  74  77
ATOM     77  C   UNL A   1      32.315  25.593  25.387  1.00  0.00     0.092 C 
BRANCH  77  78
ATOM     78  C   UNL A   1      32.909  24.161  25.481  1.00  0.00     0.050 C 
BRANCH  78  79
ATOM     79  C   UNL A   1      34.255  23.777  24.899  1.00  0.00    -0.033 A 
ATOM     80  C   UNL A   1      35.409  24.108  25.646  1.00  0.00     0.005 A 
ATOM     81  C   UNL A   1      34.463  23.206  23.631  1.00  0.00     0.021 A 
ATOM     82  C   UNL A   1      36.695  23.788  25.196  1.00  0.00     0.000 A 
ATOM     83  C   UNL A   1      35.750  22.838  23.207  1.00  0.00     0.016 A 
ATOM     84  Br  UNL A   1      33.093  23.006  22.333  1.00  0.00    -0.051 Br
ATOM     85  C   UNL A   1      36.864  23.118  23.991  1.00  0.00     0.001 A 
ENDBRANCH  78  79
ENDBRANCH  77  78
BRANCH  77  86
ATOM     86  C   UNL A   1      32.153  26.187  23.986  1.00  0.00     0.129 C 
BRANCH  86  87
ATOM     87  C   UNL A   1      33.326  27.035  23.533  1.00  0.00     0.389 C 
ATOM     88  F   UNL A   1      34.194  27.259  24.541  1.00  0.00    -0.171 F 
ATOM     89  F   UNL A   1      34.004  26.386  22.555  1.00  0.00    -0.171 F 
ATOM     90  F   UNL A   1      32.942  28.221  23.028  1.00  0.00    -0.171 F 
ENDBRANCH  86  87
ENDBRANCH  77  86
ENDBRANCH  74  77
ENDBRANCH  72  73
ENDBRANCH  71  72
ENDBRANCH   1  71
TORSDOF 17
ENDMDL
