MODEL 1
REMARK VINA RESULT:     -13.4      0.000      0.000
REMARK SMILES Cc1c(Cc2ccccc2)c(=O)oc2c(C)c(O[C@H](C)C(=O)NCCCNC(=O)c3ccc(-c4c5nc(c(-c6cccc(S(=O)(=O)[O-])c6F)c6ccc([nH]6)c(-c6cccc(S(=O)(=O)[O-])c6F)c6nc(c(-c7cccc(S(=O)(=O)[O-])c7F)c7ccc4[nH]7)C=C6)C=C5)cc3)ccc12
REMARK SMILES IDX 24 1 23 2 21 3 22 4 19 6 20 7 18 8 17 9 1 10 2 11 3 12 95 13
REMARK SMILES IDX 11 14 14 15 94 16 12 17 13 18 15 19 93 20 16 21 4 22 5 23
REMARK SMILES IDX 6 24 10 25 7 26 9 27 8 28 25 29 26 30 27 31 28 32 29 34
REMARK SMILES IDX 30 35 31 36 92 37 32 38 91 39 33 40 34 41 35 42 85 43 36 44
REMARK SMILES IDX 90 45 84 46 86 47 37 48 89 49 83 50 82 51 38 53 70 54 50 55
REMARK SMILES IDX 69 56 51 57 54 58 68 59 87 60 52 61 53 62 67 64 88 65 55 66
REMARK SMILES IDX 39 67 40 68 48 69 41 70 43 71 49 72 42 73 44 74 45 75 46 76
REMARK SMILES IDX 47 77 71 78 72 79 80 80 73 81 75 82 81 83 74 84 76 85 77 86
REMARK SMILES IDX 78 87 79 88 56 89 57 90 65 91 58 92 60 93 66 94 59 95 61 96
REMARK SMILES IDX 62 97 63 98 64 99
REMARK H PARENT 23 5 27 33 86 52 54 63
REMARK Flexibility Score: inf
ROOT
ATOM      1  C   UNL A   1      31.676  30.820  25.782  1.00  0.00     0.118 C 
ENDROOT
BRANCH   1   2
ATOM      2  N   UNL A   1      30.639  30.723  24.776  1.00  0.00    -0.353 N 
ATOM      3  C   UNL A   1      30.305  29.765  23.879  1.00  0.00     0.260 C 
ATOM      4  O   UNL A   1      29.405  30.088  23.086  1.00  0.00    -0.271 OA
ATOM      5  H   UNL A   1      30.059  31.517  24.735  1.00  0.00     0.163 HD
BRANCH   3   6
ATOM      6  C   UNL A   1      30.906  28.320  23.787  1.00  0.00     0.258 C 
ATOM      7  C   UNL A   1      29.810  27.292  23.472  1.00  0.00     0.064 C 
BRANCH   6   8
ATOM      8  O   UNL A   1      32.185  27.857  23.435  1.00  0.00    -0.480 OA
BRANCH   8   9
ATOM      9  C   UNL A   1      32.864  26.756  23.825  1.00  0.00     0.127 A 
ATOM     10  C   UNL A   1      35.985  22.676  23.217  1.00  0.00     0.046 C 
ATOM     11  C   UNL A   1      34.917  23.003  24.221  1.00  0.00    -0.029 A 
ATOM     12  C   UNL A   1      34.577  22.239  25.281  1.00  0.00     0.046 A 
ATOM     13  C   UNL A   1      34.210  24.276  24.033  1.00  0.00     0.021 A 
ATOM     14  C   UNL A   1      33.692  22.817  26.335  1.00  0.00     0.340 A 
ATOM     15  C   UNL A   1      33.678  24.921  25.147  1.00  0.00     0.145 A 
ATOM     16  C   UNL A   1      34.050  24.877  22.790  1.00  0.00     0.016 A 
ATOM     17  O   UNL A   1      33.170  22.130  27.204  1.00  0.00    -0.246 OA
ATOM     18  O   UNL A   1      33.622  24.209  26.365  1.00  0.00    -0.422 OA
ATOM     19  C   UNL A   1      33.097  26.213  25.092  1.00  0.00     0.035 A 
ATOM     20  C   UNL A   1      33.357  26.080  22.693  1.00  0.00     0.047 A 
ATOM     21  C   UNL A   1      32.871  26.951  26.378  1.00  0.00     0.052 C 
BRANCH  12  22
ATOM     22  C   UNL A   1      35.090  20.843  25.566  1.00  0.00     0.079 C 
BRANCH  22  23
ATOM     23  C   UNL A   1      34.378  19.747  24.789  1.00  0.00    -0.043 A 
ATOM     24  C   UNL A   1      33.089  19.953  24.278  1.00  0.00     0.004 A 
ATOM     25  C   UNL A   1      34.982  18.498  24.574  1.00  0.00     0.004 A 
ATOM     26  C   UNL A   1      32.431  18.939  23.574  1.00  0.00     0.000 A 
ATOM     27  C   UNL A   1      34.337  17.495  23.848  1.00  0.00     0.000 A 
ATOM     28  C   UNL A   1      33.057  17.713  23.351  1.00  0.00     0.000 A 
ENDBRANCH  22  23
ENDBRANCH  12  22
ENDBRANCH   8   9
ENDBRANCH   6   8
ENDBRANCH   3   6
ENDBRANCH   1   2
BRANCH   1  29
ATOM     29  C   UNL A   1      31.436  32.011  26.709  1.00  0.00     0.042 C 
BRANCH  29  30
ATOM     30  C   UNL A   1      32.713  32.574  27.315  1.00  0.00     0.118 C 
BRANCH  30  31
ATOM     31  N   UNL A   1      32.573  33.986  27.637  1.00  0.00    -0.352 N 
ATOM     32  C   UNL A   1      33.168  34.717  28.639  1.00  0.00     0.251 C 
ATOM     33  H   UNL A   1      31.964  34.492  27.052  1.00  0.00     0.163 HD
ATOM     34  O   UNL A   1      32.743  35.840  28.896  1.00  0.00    -0.269 OA
BRANCH  32  35
ATOM     35  C   UNL A   1      34.322  34.171  29.389  1.00  0.00     0.039 A 
ATOM     36  C   UNL A   1      35.618  34.424  28.931  1.00  0.00     0.014 A 
ATOM     37  C   UNL A   1      34.124  33.353  30.506  1.00  0.00     0.014 A 
ATOM     38  C   UNL A   1      36.714  33.878  29.607  1.00  0.00     0.010 A 
ATOM     39  C   UNL A   1      35.217  32.878  31.226  1.00  0.00     0.010 A 
ATOM     40  C   UNL A   1      36.522  33.108  30.766  1.00  0.00    -0.014 A 
BRANCH  40  41
ATOM     41  C   UNL A   1      37.660  32.479  31.480  1.00  0.00     0.031 A 
ATOM     42  C   UNL A   1      38.379  31.314  30.853  1.00  0.00     0.074 A 
ATOM     43  C   UNL A   1      38.008  32.903  32.709  1.00  0.00     0.049 A 
ATOM     44  N   UNL A   1      39.353  30.588  31.338  1.00  0.00    -0.248 NA
ATOM     45  C   UNL A   1      37.929  30.892  29.514  1.00  0.00     0.031 C 
ATOM     46  C   UNL A   1      37.357  33.987  33.446  1.00  0.00     0.029 A 
ATOM     47  N   UNL A   1      38.987  32.459  33.564  1.00  0.00    -0.354 N 
ATOM     48  C   UNL A   1      39.612  29.615  30.381  1.00  0.00     0.074 A 
ATOM     49  C   UNL A   1      38.668  29.814  29.304  1.00  0.00     0.031 C 
ATOM     50  C   UNL A   1      37.959  34.131  34.636  1.00  0.00     0.029 A 
ATOM     51  C   UNL A   1      39.025  33.138  34.757  1.00  0.00     0.049 A 
ATOM     52  H   UNL A   1      39.602  31.723  33.342  1.00  0.00     0.167 HD
ATOM     53  C   UNL A   1      40.575  28.664  30.377  1.00  0.00     0.034 A 
ATOM     54  C   UNL A   1      39.830  32.985  35.827  1.00  0.00     0.034 A 
ATOM     55  C   UNL A   1      41.548  28.501  31.419  1.00  0.00     0.049 A 
ATOM     56  C   UNL A   1      40.909  31.937  35.795  1.00  0.00     0.074 A 
ATOM     57  C   UNL A   1      42.606  27.612  31.472  1.00  0.00     0.029 A 
ATOM     58  N   UNL A   1      41.585  29.244  32.588  1.00  0.00    -0.354 N 
ATOM     59  N   UNL A   1      41.206  31.096  34.834  1.00  0.00    -0.248 NA
ATOM     60  C   UNL A   1      41.777  31.833  36.977  1.00  0.00     0.031 C 
ATOM     61  C   UNL A   1      43.280  27.813  32.680  1.00  0.00     0.029 A 
ATOM     62  C   UNL A   1      42.647  28.834  33.372  1.00  0.00     0.049 A 
ATOM     63  H   UNL A   1      40.950  29.957  32.825  1.00  0.00     0.167 HD
ATOM     64  C   UNL A   1      42.311  30.379  35.283  1.00  0.00     0.074 A 
ATOM     65  C   UNL A   1      42.634  30.890  36.599  1.00  0.00     0.031 C 
ATOM     66  C   UNL A   1      42.985  29.383  34.661  1.00  0.00     0.034 A 
BRANCH  53  67
ATOM     67  C   UNL A   1      40.673  27.777  29.167  1.00  0.00     0.023 A 
ATOM     68  C   UNL A   1      39.812  26.666  29.061  1.00  0.00     0.012 A 
ATOM     69  C   UNL A   1      41.563  28.070  28.116  1.00  0.00     0.148 A 
ATOM     70  C   UNL A   1      39.850  25.843  27.937  1.00  0.00     0.002 A 
ATOM     71  C   UNL A   1      41.572  27.264  26.983  1.00  0.00     0.091 A 
ATOM     72  F   UNL A   1      42.383  29.121  28.247  1.00  0.00    -0.205 F 
ATOM     73  C   UNL A   1      40.722  26.148  26.896  1.00  0.00     0.022 A 
BRANCH  71  74
ATOM     74  S   UNL A   1      42.620  27.593  25.562  1.00  0.00     0.127 S 
ATOM     75  O   UNL A   1      43.946  27.630  26.176  1.00  0.00    -0.237 OA
ATOM     76  O   UNL A   1      42.371  26.423  24.720  1.00  0.00    -0.237 OA
ATOM     77  O   UNL A   1      42.159  28.857  25.004  1.00  0.00    -0.744 OA
ENDBRANCH  71  74
ENDBRANCH  53  67
BRANCH  54  78
ATOM     78  C   UNL A   1      39.693  33.923  36.974  1.00  0.00     0.023 A 
ATOM     79  C   UNL A   1      40.046  35.274  36.794  1.00  0.00     0.012 A 
ATOM     80  C   UNL A   1      39.130  33.511  38.197  1.00  0.00     0.148 A 
ATOM     81  C   UNL A   1      39.842  36.202  37.813  1.00  0.00     0.002 A 
ATOM     82  C   UNL A   1      38.897  34.448  39.197  1.00  0.00     0.091 A 
ATOM     83  F   UNL A   1      38.799  32.220  38.340  1.00  0.00    -0.205 F 
ATOM     84  C   UNL A   1      39.259  35.793  39.011  1.00  0.00     0.022 A 
BRANCH  82  85
ATOM     85  S   UNL A   1      38.066  34.045  40.738  1.00  0.00     0.127 S 
ATOM     86  O   UNL A   1      36.813  33.462  40.261  1.00  0.00    -0.237 OA
ATOM     87  O   UNL A   1      39.000  33.092  41.338  1.00  0.00    -0.237 OA
ATOM     88  O   UNL A   1      37.928  35.304  41.459  1.00  0.00    -0.744 OA
ENDBRANCH  82  85
ENDBRANCH  54  78
BRANCH  66  89
ATOM     89  C   UNL A   1      44.155  28.762  35.372  1.00  0.00     0.023 A 
ATOM     90  C   UNL A   1      45.435  29.327  35.218  1.00  0.00     0.012 A 
ATOM     91  C   UNL A   1      43.959  27.723  36.304  1.00  0.00     0.148 A 
ATOM     92  C   UNL A   1      46.506  28.867  35.981  1.00  0.00     0.002 A 
ATOM     93  C   UNL A   1      45.024  27.292  37.085  1.00  0.00     0.091 A 
ATOM     94  F   UNL A   1      42.731  27.200  36.427  1.00  0.00    -0.205 F 
ATOM     95  C   UNL A   1      46.299  27.860  36.923  1.00  0.00     0.022 A 
BRANCH  93  96
ATOM     96  S   UNL A   1      44.843  26.058  38.378  1.00  0.00     0.127 S 
ATOM     97  O   UNL A   1      43.849  26.686  39.250  1.00  0.00    -0.237 OA
ATOM     98  O   UNL A   1      44.355  24.899  37.633  1.00  0.00    -0.237 OA
ATOM     99  O   UNL A   1      46.164  25.892  38.969  1.00  0.00    -0.744 OA
ENDBRANCH  93  96
ENDBRANCH  66  89
ENDBRANCH  40  41
ENDBRANCH  32  35
ENDBRANCH  30  31
ENDBRANCH  29  30
ENDBRANCH   1  29
TORSDOF 17
ENDMDL
MODEL 2
REMARK VINA RESULT:     -13.1      1.409      7.490
REMARK SMILES Cc1c(Cc2ccccc2)c(=O)oc2c(C)c(O[C@H](C)C(=O)NCCCNC(=O)c3ccc(-c4c5nc(c(-c6cccc(S(=O)(=O)[O-])c6F)c6ccc([nH]6)c(-c6cccc(S(=O)(=O)[O-])c6F)c6nc(c(-c7cccc(S(=O)(=O)[O-])c7F)c7ccc4[nH]7)C=C6)C=C5)cc3)ccc12
REMARK SMILES IDX 24 1 23 2 21 3 22 4 19 6 20 7 18 8 17 9 1 10 2 11 3 12 95 13
REMARK SMILES IDX 11 14 14 15 94 16 12 17 13 18 15 19 93 20 16 21 4 22 5 23
REMARK SMILES IDX 6 24 10 25 7 26 9 27 8 28 25 29 26 30 27 31 28 32 29 34
REMARK SMILES IDX 30 35 31 36 92 37 32 38 91 39 33 40 34 41 35 42 85 43 36 44
REMARK SMILES IDX 90 45 84 46 86 47 37 48 89 49 83 50 82 51 38 53 70 54 50 55
REMARK SMILES IDX 69 56 51 57 54 58 68 59 87 60 52 61 53 62 67 64 88 65 55 66
REMARK SMILES IDX 39 67 40 68 48 69 41 70 43 71 49 72 42 73 44 74 45 75 46 76
REMARK SMILES IDX 47 77 71 78 72 79 80 80 73 81 75 82 81 83 74 84 76 85 77 86
REMARK SMILES IDX 78 87 79 88 56 89 57 90 65 91 58 92 60 93 66 94 59 95 61 96
REMARK SMILES IDX 62 97 63 98 64 99
REMARK H PARENT 23 5 27 33 86 52 54 63
REMARK Flexibility Score: inf
ROOT
ATOM      1  C   UNL A   1      31.398  30.692  25.751  1.00  0.00     0.118 C 
ENDROOT
BRANCH   1   2
ATOM      2  N   UNL A   1      30.487  30.699  24.625  1.00  0.00    -0.353 N 
ATOM      3  C   UNL A   1      30.222  29.806  23.643  1.00  0.00     0.260 C 
ATOM      4  O   UNL A   1      29.441  30.213  22.768  1.00  0.00    -0.271 OA
ATOM      5  H   UNL A   1      29.951  31.522  24.560  1.00  0.00     0.163 HD
BRANCH   3   6
ATOM      6  C   UNL A   1      30.766  28.339  23.541  1.00  0.00     0.258 C 
ATOM      7  C   UNL A   1      29.634  27.359  23.197  1.00  0.00     0.064 C 
BRANCH   6   8
ATOM      8  O   UNL A   1      32.030  27.829  23.202  1.00  0.00    -0.480 OA
BRANCH   8   9
ATOM      9  C   UNL A   1      32.693  26.740  23.650  1.00  0.00     0.127 A 
ATOM     10  C   UNL A   1      35.878  22.679  23.302  1.00  0.00     0.046 C 
ATOM     11  C   UNL A   1      34.748  23.013  24.235  1.00  0.00    -0.029 A 
ATOM     12  C   UNL A   1      34.350  22.264  25.285  1.00  0.00     0.046 A 
ATOM     13  C   UNL A   1      34.043  24.276  23.983  1.00  0.00     0.021 A 
ATOM     14  C   UNL A   1      33.399  22.851  26.274  1.00  0.00     0.340 A 
ATOM     15  C   UNL A   1      33.440  24.935  25.051  1.00  0.00     0.145 A 
ATOM     16  C   UNL A   1      33.954  24.855  22.722  1.00  0.00     0.016 A 
ATOM     17  O   UNL A   1      32.830  22.174  27.122  1.00  0.00    -0.246 OA
ATOM     18  O   UNL A   1      33.316  24.243  26.275  1.00  0.00    -0.422 OA
ATOM     19  C   UNL A   1      32.853  26.221  24.939  1.00  0.00     0.035 A 
ATOM     20  C   UNL A   1      33.260  26.050  22.563  1.00  0.00     0.047 A 
ATOM     21  C   UNL A   1      32.543  26.978  26.196  1.00  0.00     0.052 C 
BRANCH  12  22
ATOM     22  C   UNL A   1      34.856  20.878  25.624  1.00  0.00     0.079 C 
BRANCH  22  23
ATOM     23  C   UNL A   1      34.217  19.764  24.811  1.00  0.00    -0.043 A 
ATOM     24  C   UNL A   1      34.879  18.542  24.627  1.00  0.00     0.004 A 
ATOM     25  C   UNL A   1      32.958  19.929  24.213  1.00  0.00     0.004 A 
ATOM     26  C   UNL A   1      34.295  17.522  23.868  1.00  0.00     0.000 A 
ATOM     27  C   UNL A   1      32.362  18.902  23.478  1.00  0.00     0.000 A 
ATOM     28  C   UNL A   1      33.034  17.697  23.301  1.00  0.00     0.000 A 
ENDBRANCH  22  23
ENDBRANCH  12  22
ENDBRANCH   8   9
ENDBRANCH   6   8
ENDBRANCH   3   6
ENDBRANCH   1   2
BRANCH   1  29
ATOM     29  C   UNL A   1      31.322  32.005  26.529  1.00  0.00     0.042 C 
BRANCH  29  30
ATOM     30  C   UNL A   1      32.673  32.485  27.041  1.00  0.00     0.118 C 
BRANCH  30  31
ATOM     31  N   UNL A   1      32.602  33.853  27.532  1.00  0.00    -0.352 N 
ATOM     32  C   UNL A   1      33.266  34.439  28.584  1.00  0.00     0.251 C 
ATOM     33  H   UNL A   1      31.990  34.444  27.038  1.00  0.00     0.163 HD
ATOM     34  O   UNL A   1      32.897  35.538  28.990  1.00  0.00    -0.269 OA
BRANCH  32  35
ATOM     35  C   UNL A   1      34.427  33.769  29.212  1.00  0.00     0.039 A 
ATOM     36  C   UNL A   1      35.720  34.155  28.848  1.00  0.00     0.014 A 
ATOM     37  C   UNL A   1      34.241  32.713  30.111  1.00  0.00     0.014 A 
ATOM     38  C   UNL A   1      36.825  33.500  29.403  1.00  0.00     0.010 A 
ATOM     39  C   UNL A   1      35.340  32.118  30.724  1.00  0.00     0.010 A 
ATOM     40  C   UNL A   1      36.642  32.482  30.353  1.00  0.00    -0.014 A 
BRANCH  40  41
ATOM     41  C   UNL A   1      37.790  31.738  30.927  1.00  0.00     0.031 A 
ATOM     42  C   UNL A   1      38.243  32.037  32.332  1.00  0.00     0.074 A 
ATOM     43  C   UNL A   1      38.465  30.847  30.177  1.00  0.00     0.049 A 
ATOM     44  N   UNL A   1      39.257  31.544  32.994  1.00  0.00    -0.248 NA
ATOM     45  C   UNL A   1      37.467  33.038  33.086  1.00  0.00     0.031 C 
ATOM     46  C   UNL A   1      38.158  30.508  28.787  1.00  0.00     0.029 A 
ATOM     47  N   UNL A   1      39.562  30.078  30.475  1.00  0.00    -0.354 N 
ATOM     48  C   UNL A   1      39.257  32.191  34.223  1.00  0.00     0.074 A 
ATOM     49  C   UNL A   1      38.168  33.141  34.205  1.00  0.00     0.031 C 
ATOM     50  C   UNL A   1      39.039  29.591  28.355  1.00  0.00     0.029 A 
ATOM     51  C   UNL A   1      39.985  29.293  29.429  1.00  0.00     0.049 A 
ATOM     52  H   UNL A   1      40.005  30.087  31.354  1.00  0.00     0.167 HD
ATOM     53  C   UNL A   1      40.065  31.987  35.289  1.00  0.00     0.034 A 
ATOM     54  C   UNL A   1      41.013  28.426  29.345  1.00  0.00     0.034 A 
ATOM     55  C   UNL A   1      41.112  31.006  35.329  1.00  0.00     0.049 A 
ATOM     56  C   UNL A   1      41.886  28.196  30.548  1.00  0.00     0.074 A 
ATOM     57  C   UNL A   1      41.938  30.676  36.388  1.00  0.00     0.029 A 
ATOM     58  N   UNL A   1      41.473  30.194  34.266  1.00  0.00    -0.354 N 
ATOM     59  N   UNL A   1      41.803  28.740  31.737  1.00  0.00    -0.248 NA
ATOM     60  C   UNL A   1      42.975  27.217  30.408  1.00  0.00     0.031 C 
ATOM     61  C   UNL A   1      42.806  29.667  35.962  1.00  0.00     0.029 A 
ATOM     62  C   UNL A   1      42.512  29.363  34.642  1.00  0.00     0.049 A 
ATOM     63  H   UNL A   1      41.053  30.206  33.377  1.00  0.00     0.167 HD
ATOM     64  C   UNL A   1      42.810  28.155  32.496  1.00  0.00     0.074 A 
ATOM     65  C   UNL A   1      43.486  27.208  31.634  1.00  0.00     0.031 C 
ATOM     66  C   UNL A   1      43.146  28.392  33.787  1.00  0.00     0.034 A 
BRANCH  53  67
ATOM     67  C   UNL A   1      39.795  32.789  36.532  1.00  0.00     0.023 A 
ATOM     68  C   UNL A   1      40.456  34.020  36.710  1.00  0.00     0.012 A 
ATOM     69  C   UNL A   1      38.851  32.363  37.486  1.00  0.00     0.148 A 
ATOM     70  C   UNL A   1      40.203  34.807  37.831  1.00  0.00     0.002 A 
ATOM     71  C   UNL A   1      38.579  33.169  38.586  1.00  0.00     0.091 A 
ATOM     72  F   UNL A   1      38.247  31.180  37.304  1.00  0.00    -0.205 F 
ATOM     73  C   UNL A   1      39.258  34.386  38.763  1.00  0.00     0.022 A 
BRANCH  71  74
ATOM     74  S   UNL A   1      37.345  32.746  39.822  1.00  0.00     0.127 S 
ATOM     75  O   UNL A   1      37.432  33.890  40.728  1.00  0.00    -0.237 OA
ATOM     76  O   UNL A   1      36.120  32.692  39.024  1.00  0.00    -0.237 OA
ATOM     77  O   UNL A   1      37.763  31.472  40.390  1.00  0.00    -0.744 OA
ENDBRANCH  71  74
ENDBRANCH  53  67
BRANCH  54  78
ATOM     78  C   UNL A   1      41.197  27.644  28.091  1.00  0.00     0.023 A 
ATOM     79  C   UNL A   1      41.772  28.278  26.973  1.00  0.00     0.012 A 
ATOM     80  C   UNL A   1      40.901  26.270  28.032  1.00  0.00     0.148 A 
ATOM     81  C   UNL A   1      42.049  27.556  25.814  1.00  0.00     0.002 A 
ATOM     82  C   UNL A   1      41.212  25.547  26.885  1.00  0.00     0.091 A 
ATOM     83  F   UNL A   1      40.359  25.691  29.112  1.00  0.00    -0.205 F 
ATOM     84  C   UNL A   1      41.778  26.190  25.772  1.00  0.00     0.022 A 
BRANCH  82  85
ATOM     85  S   UNL A   1      40.992  23.768  26.762  1.00  0.00     0.127 S 
ATOM     86  O   UNL A   1      39.566  23.661  26.460  1.00  0.00    -0.237 OA
ATOM     87  O   UNL A   1      41.884  23.435  25.652  1.00  0.00    -0.237 OA
ATOM     88  O   UNL A   1      41.394  23.227  28.055  1.00  0.00    -0.744 OA
ENDBRANCH  82  85
ENDBRANCH  54  78
BRANCH  66  89
ATOM     89  C   UNL A   1      44.293  27.619  34.378  1.00  0.00     0.023 A 
ATOM     90  C   UNL A   1      45.578  28.192  34.386  1.00  0.00     0.012 A 
ATOM     91  C   UNL A   1      44.065  26.405  35.057  1.00  0.00     0.148 A 
ATOM     92  C   UNL A   1      46.625  27.566  35.060  1.00  0.00     0.002 A 
ATOM     93  C   UNL A   1      45.106  25.804  35.754  1.00  0.00     0.091 A 
ATOM     94  F   UNL A   1      42.833  25.880  35.029  1.00  0.00    -0.205 F 
ATOM     95  C   UNL A   1      46.387  26.382  35.755  1.00  0.00     0.022 A 
BRANCH  93  96
ATOM     96  S   UNL A   1      44.883  24.322  36.744  1.00  0.00     0.127 S 
ATOM     97  O   UNL A   1      44.145  24.841  37.895  1.00  0.00    -0.237 OA
ATOM     98  O   UNL A   1      44.098  23.470  35.851  1.00  0.00    -0.237 OA
ATOM     99  O   UNL A   1      46.220  23.827  37.041  1.00  0.00    -0.744 OA
ENDBRANCH  93  96
ENDBRANCH  66  89
ENDBRANCH  40  41
ENDBRANCH  32  35
ENDBRANCH  30  31
ENDBRANCH  29  30
ENDBRANCH   1  29
TORSDOF 17
ENDMDL
MODEL 3
REMARK VINA RESULT:     -13.0      3.577      8.343
REMARK SMILES Cc1c(Cc2ccccc2)c(=O)oc2c(C)c(O[C@H](C)C(=O)NCCCNC(=O)c3ccc(-c4c5nc(c(-c6cccc(S(=O)(=O)[O-])c6F)c6ccc([nH]6)c(-c6cccc(S(=O)(=O)[O-])c6F)c6nc(c(-c7cccc(S(=O)(=O)[O-])c7F)c7ccc4[nH]7)C=C6)C=C5)cc3)ccc12
REMARK SMILES IDX 24 1 23 2 21 3 22 4 19 6 20 7 18 8 17 9 1 10 2 11 3 12 95 13
REMARK SMILES IDX 11 14 14 15 94 16 12 17 13 18 15 19 93 20 16 21 4 22 5 23
REMARK SMILES IDX 6 24 10 25 7 26 9 27 8 28 25 29 26 30 27 31 28 32 29 34
REMARK SMILES IDX 30 35 31 36 92 37 32 38 91 39 33 40 34 41 35 42 85 43 36 44
REMARK SMILES IDX 90 45 84 46 86 47 37 48 89 49 83 50 82 51 38 53 70 54 50 55
REMARK SMILES IDX 69 56 51 57 54 58 68 59 87 60 52 61 53 62 67 64 88 65 55 66
REMARK SMILES IDX 39 67 40 68 48 69 41 70 43 71 49 72 42 73 44 74 45 75 46 76
REMARK SMILES IDX 47 77 71 78 72 79 80 80 73 81 75 82 81 83 74 84 76 85 77 86
REMARK SMILES IDX 78 87 79 88 56 89 57 90 65 91 58 92 60 93 66 94 59 95 61 96
REMARK SMILES IDX 62 97 63 98 64 99
REMARK H PARENT 23 5 27 33 86 52 54 63
REMARK Flexibility Score: inf
ROOT
ATOM      1  C   UNL A   1      32.471  29.212  24.919  1.00  0.00     0.118 C 
ENDROOT
BRANCH   1   2
ATOM      2  N   UNL A   1      31.312  30.058  24.728  1.00  0.00    -0.353 N 
ATOM      3  C   UNL A   1      30.194  29.941  23.972  1.00  0.00     0.260 C 
ATOM      4  O   UNL A   1      29.456  30.940  23.978  1.00  0.00    -0.271 OA
ATOM      5  H   UNL A   1      31.343  30.889  25.253  1.00  0.00     0.163 HD
BRANCH   3   6
ATOM      6  C   UNL A   1      29.747  28.681  23.153  1.00  0.00     0.258 C 
ATOM      7  C   UNL A   1      28.351  28.891  22.547  1.00  0.00     0.064 C 
BRANCH   6   8
ATOM      8  O   UNL A   1      30.481  27.700  22.466  1.00  0.00    -0.480 OA
BRANCH   8   9
ATOM      9  C   UNL A   1      30.897  26.474  22.854  1.00  0.00     0.127 A 
ATOM     10  C   UNL A   1      30.889  22.185  25.745  1.00  0.00     0.046 C 
ATOM     11  C   UNL A   1      31.936  22.834  24.885  1.00  0.00    -0.029 A 
ATOM     12  C   UNL A   1      33.170  22.342  24.647  1.00  0.00     0.046 A 
ATOM     13  C   UNL A   1      31.559  24.096  24.236  1.00  0.00     0.021 A 
ATOM     14  C   UNL A   1      33.997  22.954  23.565  1.00  0.00     0.340 A 
ATOM     15  C   UNL A   1      32.168  24.442  23.033  1.00  0.00     0.145 A 
ATOM     16  C   UNL A   1      30.613  24.966  24.765  1.00  0.00     0.016 A 
ATOM     17  O   UNL A   1      35.190  22.713  23.433  1.00  0.00    -0.246 OA
ATOM     18  O   UNL A   1      33.293  23.697  22.617  1.00  0.00    -0.422 OA
ATOM     19  C   UNL A   1      31.781  25.568  22.261  1.00  0.00     0.035 A 
ATOM     20  C   UNL A   1      30.317  26.149  24.094  1.00  0.00     0.047 A 
ATOM     21  C   UNL A   1      32.253  25.658  20.841  1.00  0.00     0.052 C 
BRANCH  12  22
ATOM     22  C   UNL A   1      33.788  21.137  25.324  1.00  0.00     0.079 C 
BRANCH  22  23
ATOM     23  C   UNL A   1      33.617  19.835  24.557  1.00  0.00    -0.043 A 
ATOM     24  C   UNL A   1      34.557  18.802  24.684  1.00  0.00     0.004 A 
ATOM     25  C   UNL A   1      32.528  19.635  23.695  1.00  0.00     0.004 A 
ATOM     26  C   UNL A   1      34.405  17.610  23.969  1.00  0.00     0.000 A 
ATOM     27  C   UNL A   1      32.362  18.435  23.002  1.00  0.00     0.000 A 
ATOM     28  C   UNL A   1      33.304  17.421  23.135  1.00  0.00     0.000 A 
ENDBRANCH  22  23
ENDBRANCH  12  22
ENDBRANCH   8   9
ENDBRANCH   6   8
ENDBRANCH   3   6
ENDBRANCH   1   2
BRANCH   1  29
ATOM     29  C   UNL A   1      32.369  28.426  26.225  1.00  0.00     0.042 C 
BRANCH  29  30
ATOM     30  C   UNL A   1      33.427  28.811  27.249  1.00  0.00     0.118 C 
BRANCH  30  31
ATOM     31  N   UNL A   1      33.556  30.256  27.365  1.00  0.00    -0.352 N 
ATOM     32  C   UNL A   1      34.523  30.999  28.001  1.00  0.00     0.251 C 
ATOM     33  H   UNL A   1      32.847  30.777  26.924  1.00  0.00     0.163 HD
ATOM     34  O   UNL A   1      34.332  32.197  28.192  1.00  0.00    -0.269 OA
BRANCH  32  35
ATOM     35  C   UNL A   1      35.793  30.372  28.435  1.00  0.00     0.039 A 
ATOM     36  C   UNL A   1      35.847  29.723  29.672  1.00  0.00     0.014 A 
ATOM     37  C   UNL A   1      36.947  30.483  27.654  1.00  0.00     0.014 A 
ATOM     38  C   UNL A   1      37.052  29.163  30.111  1.00  0.00     0.010 A 
ATOM     39  C   UNL A   1      38.124  29.856  28.054  1.00  0.00     0.010 A 
ATOM     40  C   UNL A   1      38.197  29.218  29.300  1.00  0.00    -0.014 A 
BRANCH  40  41
ATOM     41  C   UNL A   1      39.500  28.674  29.756  1.00  0.00     0.031 A 
ATOM     42  C   UNL A   1      40.186  29.287  30.949  1.00  0.00     0.074 A 
ATOM     43  C   UNL A   1      40.098  27.682  29.072  1.00  0.00     0.049 A 
ATOM     44  N   UNL A   1      41.352  29.000  31.467  1.00  0.00    -0.248 NA
ATOM     45  C   UNL A   1      39.480  30.383  31.636  1.00  0.00     0.031 C 
ATOM     46  C   UNL A   1      39.562  27.040  27.871  1.00  0.00     0.029 A 
ATOM     47  N   UNL A   1      41.301  27.052  29.278  1.00  0.00    -0.354 N 
ATOM     48  C   UNL A   1      41.529  29.892  32.517  1.00  0.00     0.074 A 
ATOM     49  C   UNL A   1      40.372  30.758  32.540  1.00  0.00     0.031 C 
ATOM     50  C   UNL A   1      40.425  26.100  27.453  1.00  0.00     0.029 A 
ATOM     51  C   UNL A   1      41.585  26.087  28.342  1.00  0.00     0.049 A 
ATOM     52  H   UNL A   1      41.902  27.271  30.026  1.00  0.00     0.167 HD
ATOM     53  C   UNL A   1      42.544  29.961  33.409  1.00  0.00     0.034 A 
ATOM     54  C   UNL A   1      42.655  25.277  28.217  1.00  0.00     0.034 A 
ATOM     55  C   UNL A   1      43.667  29.067  33.421  1.00  0.00     0.049 A 
ATOM     56  C   UNL A   1      43.762  25.353  29.231  1.00  0.00     0.074 A 
ATOM     57  C   UNL A   1      44.710  29.013  34.328  1.00  0.00     0.029 A 
ATOM     58  N   UNL A   1      43.890  28.069  32.487  1.00  0.00    -0.354 N 
ATOM     59  N   UNL A   1      43.860  26.132  30.281  1.00  0.00    -0.248 NA
ATOM     60  C   UNL A   1      44.891  24.426  29.062  1.00  0.00     0.031 C 
ATOM     61  C   UNL A   1      45.571  27.984  33.936  1.00  0.00     0.029 A 
ATOM     62  C   UNL A   1      45.056  27.392  32.793  1.00  0.00     0.049 A 
ATOM     63  H   UNL A   1      43.306  27.871  31.721  1.00  0.00     0.167 HD
ATOM     64  C   UNL A   1      45.046  25.775  30.912  1.00  0.00     0.074 A 
ATOM     65  C   UNL A   1      45.629  24.703  30.131  1.00  0.00     0.031 C 
ATOM     66  C   UNL A   1      45.602  26.297  32.032  1.00  0.00     0.034 A 
BRANCH  53  67
ATOM     67  C   UNL A   1      42.445  30.993  34.498  1.00  0.00     0.023 A 
ATOM     68  C   UNL A   1      41.902  30.623  35.745  1.00  0.00     0.012 A 
ATOM     69  C   UNL A   1      42.937  32.299  34.315  1.00  0.00     0.148 A 
ATOM     70  C   UNL A   1      41.828  31.543  36.789  1.00  0.00     0.002 A 
ATOM     71  C   UNL A   1      42.890  33.203  35.371  1.00  0.00     0.091 A 
ATOM     72  F   UNL A   1      43.433  32.633  33.115  1.00  0.00    -0.205 F 
ATOM     73  C   UNL A   1      42.330  32.828  36.604  1.00  0.00     0.022 A 
BRANCH  71  74
ATOM     74  S   UNL A   1      43.554  34.868  35.258  1.00  0.00     0.127 S 
ATOM     75  O   UNL A   1      42.619  35.495  34.324  1.00  0.00    -0.237 OA
ATOM     76  O   UNL A   1      43.442  35.336  36.638  1.00  0.00    -0.237 OA
ATOM     77  O   UNL A   1      44.918  34.727  34.768  1.00  0.00    -0.744 OA
ENDBRANCH  71  74
ENDBRANCH  53  67
BRANCH  54  78
ATOM     78  C   UNL A   1      42.665  24.259  27.131  1.00  0.00     0.023 A 
ATOM     79  C   UNL A   1      43.381  24.532  25.949  1.00  0.00     0.012 A 
ATOM     80  C   UNL A   1      42.062  22.998  27.299  1.00  0.00     0.148 A 
ATOM     81  C   UNL A   1      43.495  23.566  24.950  1.00  0.00     0.002 A 
ATOM     82  C   UNL A   1      42.209  22.028  26.315  1.00  0.00     0.091 A 
ATOM     83  F   UNL A   1      41.391  22.763  28.436  1.00  0.00    -0.205 F 
ATOM     84  C   UNL A   1      42.917  22.312  25.136  1.00  0.00     0.022 A 
BRANCH  82  85
ATOM     85  S   UNL A   1      41.587  20.352  26.496  1.00  0.00     0.127 S 
ATOM     86  O   UNL A   1      42.133  19.698  25.308  1.00  0.00    -0.237 OA
ATOM     87  O   UNL A   1      42.198  19.943  27.760  1.00  0.00    -0.237 OA
ATOM     88  O   UNL A   1      40.134  20.467  26.527  1.00  0.00    -0.744 OA
ENDBRANCH  82  85
ENDBRANCH  54  78
BRANCH  66  89
ATOM     89  C   UNL A   1      46.910  25.729  32.510  1.00  0.00     0.023 A 
ATOM     90  C   UNL A   1      48.115  26.310  32.072  1.00  0.00     0.012 A 
ATOM     91  C   UNL A   1      46.937  24.730  33.504  1.00  0.00     0.148 A 
ATOM     92  C   UNL A   1      49.332  25.902  32.615  1.00  0.00     0.002 A 
ATOM     93  C   UNL A   1      48.151  24.353  34.064  1.00  0.00     0.091 A 
ATOM     94  F   UNL A   1      45.775  24.192  33.899  1.00  0.00    -0.205 F 
ATOM     95  C   UNL A   1      49.350  24.936  33.619  1.00  0.00     0.022 A 
BRANCH  93  96
ATOM     96  S   UNL A   1      48.273  23.176  35.416  1.00  0.00     0.127 S 
ATOM     97  O   UNL A   1      47.566  23.879  36.486  1.00  0.00    -0.237 OA
ATOM     98  O   UNL A   1      47.566  22.015  34.878  1.00  0.00    -0.237 OA
ATOM     99  O   UNL A   1      49.696  22.971  35.649  1.00  0.00    -0.744 OA
ENDBRANCH  93  96
ENDBRANCH  66  89
ENDBRANCH  40  41
ENDBRANCH  32  35
ENDBRANCH  30  31
ENDBRANCH  29  30
ENDBRANCH   1  29
TORSDOF 17
ENDMDL
