MODEL 1
REMARK VINA RESULT:     -11.7      0.000      0.000
REMARK SMILES Cc1cn(C)c(CC(=O)NCC[NH+]2CCC(C)CC2)c1C(=O)NCCCNC(=O)c1ccc(-c2c3nc(c(-c4cccc(S(=O)(=O)[O-])c4F)c4ccc([nH]4)c(-c4cccc(S(=O)(=O)[O-])c4F)c4nc(c(-c5cccc(S(=O)(=O)[O-])c5F)c5ccc2[nH]5)C=C4)C=C3)cc1
REMARK SMILES IDX 24 1 23 2 21 3 22 4 20 6 1 7 2 8 3 9 4 10 6 11 5 12 7 13
REMARK SMILES IDX 8 14 9 15 10 16 11 18 12 19 13 20 14 21 19 22 15 24 18 25
REMARK SMILES IDX 16 26 17 27 25 28 26 29 27 30 28 31 29 33 30 34 31 35 92 36
REMARK SMILES IDX 32 37 91 38 33 39 34 40 35 41 85 42 36 43 90 44 84 45 86 46
REMARK SMILES IDX 37 47 89 48 83 49 82 50 38 52 70 53 50 54 69 55 51 56 54 57
REMARK SMILES IDX 68 58 87 59 52 60 53 61 67 63 88 64 55 65 39 66 40 67 48 68
REMARK SMILES IDX 41 69 43 70 49 71 42 72 44 73 45 74 46 75 47 76 71 77 72 78
REMARK SMILES IDX 80 79 73 80 75 81 81 82 74 83 76 84 77 85 78 86 79 87 56 88
REMARK SMILES IDX 57 89 65 90 58 91 60 92 66 93 59 94 61 95 62 96 63 97 64 98
REMARK H PARENT 23 5 10 17 13 23 27 32 86 51 54 62
REMARK Flexibility Score: inf
ROOT
ATOM      1  C   UNL A   1      37.091  20.064  25.053  1.00  0.00     0.118 C 
ENDROOT
BRANCH   1   2
ATOM      2  N   UNL A   1      36.305  20.927  25.891  1.00  0.00    -0.352 N 
ATOM      3  C   UNL A   1      34.965  21.158  26.008  1.00  0.00     0.253 C 
ATOM      4  O   UNL A   1      34.670  21.631  27.110  1.00  0.00    -0.269 OA
ATOM      5  H   UNL A   1      36.848  21.466  26.511  1.00  0.00     0.163 HD
BRANCH   3   6
ATOM      6  C   UNL A   1      33.926  20.922  24.967  1.00  0.00     0.064 A 
ATOM      7  C   UNL A   1      33.819  18.324  24.227  1.00  0.00     0.047 C 
ATOM      8  C   UNL A   1      33.429  19.756  24.252  1.00  0.00    -0.020 A 
ATOM      9  C   UNL A   1      32.407  20.180  23.427  1.00  0.00     0.089 A 
ATOM     10  N   UNL A   1      32.292  21.527  23.508  1.00  0.00    -0.353 N 
ATOM     11  C   UNL A   1      33.238  22.017  24.377  1.00  0.00     0.040 A 
ATOM     12  C   UNL A   1      31.346  22.285  22.716  1.00  0.00     0.149 C 
BRANCH  11  13
ATOM     13  C   UNL A   1      33.416  23.519  24.546  1.00  0.00     0.154 C 
BRANCH  13  14
ATOM     14  C   UNL A   1      34.246  24.133  23.419  1.00  0.00     0.226 C 
ATOM     15  O   UNL A   1      35.319  23.626  23.077  1.00  0.00    -0.275 OA
ATOM     16  N   UNL A   1      33.811  25.255  22.778  1.00  0.00    -0.350 N 
ATOM     17  H   UNL A   1      34.390  25.589  22.056  1.00  0.00     0.163 HD
BRANCH  16  18
ATOM     18  C   UNL A   1      32.602  26.019  23.024  1.00  0.00     0.177 C 
BRANCH  18  19
ATOM     19  C   UNL A   1      32.749  26.975  24.227  1.00  0.00     0.283 C 
BRANCH  19  20
ATOM     20  N   UNL A   1      31.485  27.383  24.886  1.00  0.00    -0.333 N 
ATOM     21  C   UNL A   1      31.171  28.799  24.610  1.00  0.00     0.262 C 
ATOM     22  C   UNL A   1      31.492  27.180  26.347  1.00  0.00     0.262 C 
ATOM     23  H   UNL A   1      30.769  26.775  24.489  1.00  0.00     0.348 HD
ATOM     24  C   UNL A   1      32.111  29.804  25.293  1.00  0.00     0.065 C 
ATOM     25  C   UNL A   1      32.538  28.035  27.061  1.00  0.00     0.065 C 
ATOM     26  C   UNL A   1      32.290  29.525  26.794  1.00  0.00    -0.003 C 
ATOM     27  C   UNL A   1      33.424  30.367  27.376  1.00  0.00     0.008 C 
ENDBRANCH  19  20
ENDBRANCH  18  19
ENDBRANCH  16  18
ENDBRANCH  13  14
ENDBRANCH  11  13
ENDBRANCH   3   6
ENDBRANCH   1   2
BRANCH   1  28
ATOM     28  C   UNL A   1      38.547  20.514  24.936  1.00  0.00     0.042 C 
BRANCH  28  29
ATOM     29  C   UNL A   1      39.365  20.156  26.162  1.00  0.00     0.118 C 
BRANCH  29  30
ATOM     30  N   UNL A   1      40.554  19.377  25.808  1.00  0.00    -0.352 N 
ATOM     31  C   UNL A   1      41.862  19.794  25.733  1.00  0.00     0.251 C 
ATOM     32  H   UNL A   1      40.396  18.429  25.596  1.00  0.00     0.163 HD
ATOM     33  O   UNL A   1      42.688  19.127  25.102  1.00  0.00    -0.269 OA
BRANCH  31  34
ATOM     34  C   UNL A   1      42.258  21.044  26.398  1.00  0.00     0.039 A 
ATOM     35  C   UNL A   1      42.408  22.222  25.668  1.00  0.00     0.014 A 
ATOM     36  C   UNL A   1      42.432  21.035  27.782  1.00  0.00     0.014 A 
ATOM     37  C   UNL A   1      42.641  23.406  26.359  1.00  0.00     0.010 A 
ATOM     38  C   UNL A   1      42.491  22.219  28.472  1.00  0.00     0.010 A 
ATOM     39  C   UNL A   1      42.639  23.405  27.768  1.00  0.00    -0.014 A 
BRANCH  39  40
ATOM     40  C   UNL A   1      42.583  24.668  28.500  1.00  0.00     0.031 A 
ATOM     41  C   UNL A   1      41.327  25.415  28.230  1.00  0.00     0.074 A 
ATOM     42  C   UNL A   1      43.472  25.051  29.445  1.00  0.00     0.049 A 
ATOM     43  N   UNL A   1      41.196  26.429  27.441  1.00  0.00    -0.248 NA
ATOM     44  C   UNL A   1      40.045  24.841  28.673  1.00  0.00     0.031 C 
ATOM     45  C   UNL A   1      44.579  24.271  30.006  1.00  0.00     0.029 A 
ATOM     46  N   UNL A   1      43.503  26.188  30.199  1.00  0.00    -0.354 N 
ATOM     47  C   UNL A   1      39.864  26.810  27.562  1.00  0.00     0.074 A 
ATOM     48  C   UNL A   1      39.174  25.660  28.077  1.00  0.00     0.031 C 
ATOM     49  C   UNL A   1      44.998  24.839  31.159  1.00  0.00     0.029 A 
ATOM     50  C   UNL A   1      44.313  26.105  31.334  1.00  0.00     0.049 A 
ATOM     51  H   UNL A   1      42.998  26.998  29.963  1.00  0.00     0.167 HD
ATOM     52  C   UNL A   1      39.540  28.133  27.572  1.00  0.00     0.034 A 
ATOM     53  C   UNL A   1      44.390  26.996  32.358  1.00  0.00     0.034 A 
ATOM     54  C   UNL A   1      40.641  28.930  27.069  1.00  0.00     0.049 A 
ATOM     55  C   UNL A   1      43.879  28.284  31.844  1.00  0.00     0.074 A 
ATOM     56  C   UNL A   1      41.417  28.925  25.925  1.00  0.00     0.029 A 
ATOM     57  N   UNL A   1      41.356  29.636  28.006  1.00  0.00    -0.354 N 
ATOM     58  N   UNL A   1      44.499  28.990  30.942  1.00  0.00    -0.248 NA
ATOM     59  C   UNL A   1      42.465  28.570  32.012  1.00  0.00     0.031 C 
ATOM     60  C   UNL A   1      42.739  29.221  26.374  1.00  0.00     0.029 A 
ATOM     61  C   UNL A   1      42.687  29.490  27.742  1.00  0.00     0.049 A 
ATOM     62  H   UNL A   1      40.971  30.162  28.745  1.00  0.00     0.167 HD
ATOM     63  C   UNL A   1      43.480  29.410  30.100  1.00  0.00     0.074 A 
ATOM     64  C   UNL A   1      42.250  29.230  30.871  1.00  0.00     0.031 C 
ATOM     65  C   UNL A   1      43.707  29.565  28.763  1.00  0.00     0.034 A 
BRANCH  52  66
ATOM     66  C   UNL A   1      38.478  28.758  28.466  1.00  0.00     0.023 A 
ATOM     67  C   UNL A   1      37.592  29.671  27.847  1.00  0.00     0.012 A 
ATOM     68  C   UNL A   1      38.492  28.753  29.881  1.00  0.00     0.148 A 
ATOM     69  C   UNL A   1      36.854  30.600  28.587  1.00  0.00     0.002 A 
ATOM     70  C   UNL A   1      37.700  29.628  30.616  1.00  0.00     0.091 A 
ATOM     71  F   UNL A   1      39.351  27.988  30.551  1.00  0.00    -0.205 F 
ATOM     72  C   UNL A   1      36.911  30.582  29.974  1.00  0.00     0.022 A 
BRANCH  70  73
ATOM     73  S   UNL A   1      37.701  29.618  32.416  1.00  0.00     0.127 S 
ATOM     74  O   UNL A   1      39.055  30.082  32.707  1.00  0.00    -0.237 OA
ATOM     75  O   UNL A   1      36.636  30.574  32.713  1.00  0.00    -0.237 OA
ATOM     76  O   UNL A   1      37.403  28.246  32.810  1.00  0.00    -0.744 OA
ENDBRANCH  70  73
ENDBRANCH  52  66
BRANCH  53  77
ATOM     77  C   UNL A   1      44.659  26.816  33.807  1.00  0.00     0.023 A 
ATOM     78  C   UNL A   1      45.861  27.314  34.358  1.00  0.00     0.012 A 
ATOM     79  C   UNL A   1      43.624  26.461  34.697  1.00  0.00     0.148 A 
ATOM     80  C   UNL A   1      46.006  27.507  35.738  1.00  0.00     0.002 A 
ATOM     81  C   UNL A   1      43.770  26.656  36.069  1.00  0.00     0.091 A 
ATOM     82  F   UNL A   1      42.461  26.027  34.192  1.00  0.00    -0.205 F 
ATOM     83  C   UNL A   1      44.955  27.191  36.592  1.00  0.00     0.022 A 
BRANCH  81  84
ATOM     84  S   UNL A   1      42.440  26.316  37.231  1.00  0.00     0.127 S 
ATOM     85  O   UNL A   1      43.106  26.510  38.518  1.00  0.00    -0.237 OA
ATOM     86  O   UNL A   1      41.466  27.347  36.882  1.00  0.00    -0.237 OA
ATOM     87  O   UNL A   1      42.026  24.943  36.968  1.00  0.00    -0.744 OA
ENDBRANCH  81  84
ENDBRANCH  53  77
BRANCH  65  88
ATOM     88  C   UNL A   1      45.131  29.622  28.279  1.00  0.00     0.023 A 
ATOM     89  C   UNL A   1      45.891  28.481  27.945  1.00  0.00     0.012 A 
ATOM     90  C   UNL A   1      45.663  30.894  28.013  1.00  0.00     0.148 A 
ATOM     91  C   UNL A   1      47.161  28.613  27.377  1.00  0.00     0.002 A 
ATOM     92  C   UNL A   1      46.902  31.021  27.401  1.00  0.00     0.091 A 
ATOM     93  F   UNL A   1      44.931  31.968  28.346  1.00  0.00    -0.205 F 
ATOM     94  C   UNL A   1      47.661  29.883  27.090  1.00  0.00     0.022 A 
BRANCH  92  95
ATOM     95  S   UNL A   1      47.526  32.626  26.903  1.00  0.00     0.127 S 
ATOM     96  O   UNL A   1      48.812  32.279  26.301  1.00  0.00    -0.237 OA
ATOM     97  O   UNL A   1      46.507  33.080  25.956  1.00  0.00    -0.237 OA
ATOM     98  O   UNL A   1      47.598  33.424  28.122  1.00  0.00    -0.744 OA
ENDBRANCH  92  95
ENDBRANCH  65  88
ENDBRANCH  39  40
ENDBRANCH  31  34
ENDBRANCH  29  30
ENDBRANCH  28  29
ENDBRANCH   1  28
TORSDOF 18
ENDMDL
MODEL 2
REMARK VINA RESULT:     -11.7      2.674      8.046
REMARK SMILES Cc1cn(C)c(CC(=O)NCC[NH+]2CCC(C)CC2)c1C(=O)NCCCNC(=O)c1ccc(-c2c3nc(c(-c4cccc(S(=O)(=O)[O-])c4F)c4ccc([nH]4)c(-c4cccc(S(=O)(=O)[O-])c4F)c4nc(c(-c5cccc(S(=O)(=O)[O-])c5F)c5ccc2[nH]5)C=C4)C=C3)cc1
REMARK SMILES IDX 24 1 23 2 21 3 22 4 20 6 1 7 2 8 3 9 4 10 6 11 5 12 7 13
REMARK SMILES IDX 8 14 9 15 10 16 11 18 12 19 13 20 14 21 19 22 15 24 18 25
REMARK SMILES IDX 16 26 17 27 25 28 26 29 27 30 28 31 29 33 30 34 31 35 92 36
REMARK SMILES IDX 32 37 91 38 33 39 34 40 35 41 85 42 36 43 90 44 84 45 86 46
REMARK SMILES IDX 37 47 89 48 83 49 82 50 38 52 70 53 50 54 69 55 51 56 54 57
REMARK SMILES IDX 68 58 87 59 52 60 53 61 67 63 88 64 55 65 39 66 40 67 48 68
REMARK SMILES IDX 41 69 43 70 49 71 42 72 44 73 45 74 46 75 47 76 71 77 72 78
REMARK SMILES IDX 80 79 73 80 75 81 81 82 74 83 76 84 77 85 78 86 79 87 56 88
REMARK SMILES IDX 57 89 65 90 58 91 60 92 66 93 59 94 61 95 62 96 63 97 64 98
REMARK H PARENT 23 5 10 17 13 23 27 32 86 51 54 62
REMARK Flexibility Score: inf
ROOT
ATOM      1  C   UNL A   1      32.871  30.082  25.893  1.00  0.00     0.118 C 
ENDROOT
BRANCH   1   2
ATOM      2  N   UNL A   1      33.633  29.559  24.792  1.00  0.00    -0.352 N 
ATOM      3  C   UNL A   1      33.304  28.832  23.684  1.00  0.00     0.253 C 
ATOM      4  O   UNL A   1      34.142  28.955  22.784  1.00  0.00    -0.269 OA
ATOM      5  H   UNL A   1      34.593  29.768  24.849  1.00  0.00     0.163 HD
BRANCH   3   6
ATOM      6  C   UNL A   1      32.115  27.952  23.516  1.00  0.00     0.064 A 
ATOM      7  C   UNL A   1      29.811  29.365  23.527  1.00  0.00     0.047 C 
ATOM      8  C   UNL A   1      30.679  28.166  23.420  1.00  0.00    -0.020 A 
ATOM      9  C   UNL A   1      30.088  26.934  23.224  1.00  0.00     0.089 A 
ATOM     10  N   UNL A   1      31.034  25.967  23.280  1.00  0.00    -0.353 N 
ATOM     11  C   UNL A   1      32.261  26.537  23.522  1.00  0.00     0.040 A 
ATOM     12  C   UNL A   1      30.725  24.556  23.168  1.00  0.00     0.149 C 
BRANCH  11  13
ATOM     13  C   UNL A   1      33.479  25.658  23.768  1.00  0.00     0.154 C 
BRANCH  13  14
ATOM     14  C   UNL A   1      33.618  25.261  25.237  1.00  0.00     0.226 C 
ATOM     15  O   UNL A   1      32.982  25.854  26.114  1.00  0.00    -0.275 OA
ATOM     16  N   UNL A   1      34.451  24.244  25.598  1.00  0.00    -0.350 N 
ATOM     17  H   UNL A   1      34.483  24.035  26.559  1.00  0.00     0.163 HD
BRANCH  16  18
ATOM     18  C   UNL A   1      35.297  23.430  24.745  1.00  0.00     0.177 C 
BRANCH  18  19
ATOM     19  C   UNL A   1      34.599  22.126  24.301  1.00  0.00     0.283 C 
BRANCH  19  20
ATOM     20  N   UNL A   1      33.464  21.682  25.145  1.00  0.00    -0.333 N 
ATOM     21  C   UNL A   1      33.741  20.371  25.765  1.00  0.00     0.262 C 
ATOM     22  C   UNL A   1      32.186  21.594  24.413  1.00  0.00     0.262 C 
ATOM     23  H   UNL A   1      33.366  22.401  25.861  1.00  0.00     0.348 HD
ATOM     24  C   UNL A   1      33.760  19.192  24.780  1.00  0.00     0.065 C 
ATOM     25  C   UNL A   1      32.211  20.549  23.298  1.00  0.00     0.065 C 
ATOM     26  C   UNL A   1      32.523  19.160  23.868  1.00  0.00    -0.003 C 
ATOM     27  C   UNL A   1      32.702  18.147  22.737  1.00  0.00     0.008 C 
ENDBRANCH  19  20
ENDBRANCH  18  19
ENDBRANCH  16  18
ENDBRANCH  13  14
ENDBRANCH  11  13
ENDBRANCH   3   6
ENDBRANCH   1   2
BRANCH   1  28
ATOM     28  C   UNL A   1      33.493  29.758  27.251  1.00  0.00     0.042 C 
BRANCH  28  29
ATOM     29  C   UNL A   1      34.703  30.620  27.556  1.00  0.00     0.118 C 
BRANCH  29  30
ATOM     30  N   UNL A   1      34.391  31.654  28.547  1.00  0.00    -0.352 N 
ATOM     31  C   UNL A   1      34.957  31.856  29.783  1.00  0.00     0.251 C 
ATOM     32  H   UNL A   1      33.682  32.289  28.293  1.00  0.00     0.163 HD
ATOM     33  O   UNL A   1      34.370  32.538  30.628  1.00  0.00    -0.269 OA
BRANCH  31  34
ATOM     34  C   UNL A   1      36.257  31.242  30.089  1.00  0.00     0.039 A 
ATOM     35  C   UNL A   1      36.335  29.919  30.522  1.00  0.00     0.014 A 
ATOM     36  C   UNL A   1      37.414  31.996  29.886  1.00  0.00     0.014 A 
ATOM     37  C   UNL A   1      37.591  29.338  30.658  1.00  0.00     0.010 A 
ATOM     38  C   UNL A   1      38.637  31.376  29.855  1.00  0.00     0.010 A 
ATOM     39  C   UNL A   1      38.740  30.061  30.281  1.00  0.00    -0.014 A 
BRANCH  39  40
ATOM     40  C   UNL A   1      40.021  29.373  30.135  1.00  0.00     0.031 A 
ATOM     41  C   UNL A   1      40.693  29.162  31.443  1.00  0.00     0.074 A 
ATOM     42  C   UNL A   1      40.479  28.833  28.983  1.00  0.00     0.049 A 
ATOM     43  N   UNL A   1      41.673  29.854  31.920  1.00  0.00    -0.248 NA
ATOM     44  C   UNL A   1      40.067  28.267  32.432  1.00  0.00     0.031 C 
ATOM     45  C   UNL A   1      39.775  28.717  27.702  1.00  0.00     0.029 A 
ATOM     46  N   UNL A   1      41.639  28.156  28.741  1.00  0.00    -0.354 N 
ATOM     47  C   UNL A   1      41.989  29.249  33.131  1.00  0.00     0.074 A 
ATOM     48  C   UNL A   1      40.821  28.502  33.509  1.00  0.00     0.031 C 
ATOM     49  C   UNL A   1      40.400  27.810  26.919  1.00  0.00     0.029 A 
ATOM     50  C   UNL A   1      41.634  27.404  27.564  1.00  0.00     0.049 A 
ATOM     51  H   UNL A   1      42.414  28.194  29.346  1.00  0.00     0.167 HD
ATOM     52  C   UNL A   1      43.293  29.132  33.506  1.00  0.00     0.034 A 
ATOM     53  C   UNL A   1      42.559  26.492  27.165  1.00  0.00     0.034 A 
ATOM     54  C   UNL A   1      44.129  30.017  32.721  1.00  0.00     0.049 A 
ATOM     55  C   UNL A   1      43.803  26.790  27.906  1.00  0.00     0.074 A 
ATOM     56  C   UNL A   1      44.129  31.368  32.429  1.00  0.00     0.029 A 
ATOM     57  N   UNL A   1      44.901  29.422  31.753  1.00  0.00    -0.354 N 
ATOM     58  N   UNL A   1      44.511  27.866  27.710  1.00  0.00    -0.248 NA
ATOM     59  C   UNL A   1      44.020  26.110  29.171  1.00  0.00     0.031 C 
ATOM     60  C   UNL A   1      44.507  31.447  31.054  1.00  0.00     0.029 A 
ATOM     61  C   UNL A   1      44.816  30.162  30.609  1.00  0.00     0.049 A 
ATOM     62  H   UNL A   1      45.429  28.598  31.866  1.00  0.00     0.167 HD
ATOM     63  C   UNL A   1      44.851  28.270  28.992  1.00  0.00     0.074 A 
ATOM     64  C   UNL A   1      44.632  27.094  29.834  1.00  0.00     0.031 C 
ATOM     65  C   UNL A   1      44.975  29.596  29.289  1.00  0.00     0.034 A 
BRANCH  52  66
ATOM     66  C   UNL A   1      43.890  27.911  34.194  1.00  0.00     0.023 A 
ATOM     67  C   UNL A   1      44.775  28.165  35.268  1.00  0.00     0.012 A 
ATOM     68  C   UNL A   1      43.889  26.596  33.674  1.00  0.00     0.148 A 
ATOM     69  C   UNL A   1      45.685  27.203  35.718  1.00  0.00     0.002 A 
ATOM     70  C   UNL A   1      44.743  25.619  34.175  1.00  0.00     0.091 A 
ATOM     71  F   UNL A   1      43.151  26.284  32.612  1.00  0.00    -0.205 F 
ATOM     72  C   UNL A   1      45.672  25.929  35.167  1.00  0.00     0.022 A 
BRANCH  70  73
ATOM     73  S   UNL A   1      44.738  23.939  33.529  1.00  0.00     0.127 S 
ATOM     74  O   UNL A   1      44.956  24.176  32.105  1.00  0.00    -0.237 OA
ATOM     75  O   UNL A   1      45.869  23.349  34.244  1.00  0.00    -0.237 OA
ATOM     76  O   UNL A   1      43.442  23.375  33.886  1.00  0.00    -0.744 OA
ENDBRANCH  70  73
ENDBRANCH  52  66
BRANCH  53  77
ATOM     77  C   UNL A   1      42.439  25.246  26.365  1.00  0.00     0.023 A 
ATOM     78  C   UNL A   1      43.429  24.938  25.405  1.00  0.00     0.012 A 
ATOM     79  C   UNL A   1      41.558  24.217  26.757  1.00  0.00     0.148 A 
ATOM     80  C   UNL A   1      43.574  23.640  24.899  1.00  0.00     0.002 A 
ATOM     81  C   UNL A   1      41.706  22.926  26.253  1.00  0.00     0.091 A 
ATOM     82  F   UNL A   1      40.640  24.479  27.698  1.00  0.00    -0.205 F 
ATOM     83  C   UNL A   1      42.722  22.631  25.334  1.00  0.00     0.022 A 
BRANCH  81  84
ATOM     84  S   UNL A   1      40.674  21.560  26.803  1.00  0.00     0.127 S 
ATOM     85  O   UNL A   1      39.351  21.975  26.336  1.00  0.00    -0.237 OA
ATOM     86  O   UNL A   1      41.255  20.433  26.078  1.00  0.00    -0.237 OA
ATOM     87  O   UNL A   1      40.814  21.517  28.253  1.00  0.00    -0.744 OA
ENDBRANCH  81  84
ENDBRANCH  53  77
BRANCH  65  88
ATOM     88  C   UNL A   1      45.091  30.578  28.153  1.00  0.00     0.023 A 
ATOM     89  C   UNL A   1      43.984  31.082  27.439  1.00  0.00     0.012 A 
ATOM     90  C   UNL A   1      46.363  31.118  27.906  1.00  0.00     0.148 A 
ATOM     91  C   UNL A   1      44.152  32.090  26.485  1.00  0.00     0.002 A 
ATOM     92  C   UNL A   1      46.519  32.154  26.996  1.00  0.00     0.091 A 
ATOM     93  F   UNL A   1      47.405  30.620  28.587  1.00  0.00    -0.205 F 
ATOM     94  C   UNL A   1      45.417  32.638  26.275  1.00  0.00     0.022 A 
BRANCH  92  95
ATOM     95  S   UNL A   1      48.102  32.969  26.786  1.00  0.00     0.127 S 
ATOM     96  O   UNL A   1      47.806  33.940  25.733  1.00  0.00    -0.237 OA
ATOM     97  O   UNL A   1      48.335  33.551  28.108  1.00  0.00    -0.237 OA
ATOM     98  O   UNL A   1      49.048  31.920  26.425  1.00  0.00    -0.744 OA
ENDBRANCH  92  95
ENDBRANCH  65  88
ENDBRANCH  39  40
ENDBRANCH  31  34
ENDBRANCH  29  30
ENDBRANCH  28  29
ENDBRANCH   1  28
TORSDOF 18
ENDMDL
MODEL 3
REMARK VINA RESULT:     -11.6      1.470      1.780
REMARK SMILES Cc1cn(C)c(CC(=O)NCC[NH+]2CCC(C)CC2)c1C(=O)NCCCNC(=O)c1ccc(-c2c3nc(c(-c4cccc(S(=O)(=O)[O-])c4F)c4ccc([nH]4)c(-c4cccc(S(=O)(=O)[O-])c4F)c4nc(c(-c5cccc(S(=O)(=O)[O-])c5F)c5ccc2[nH]5)C=C4)C=C3)cc1
REMARK SMILES IDX 24 1 23 2 21 3 22 4 20 6 1 7 2 8 3 9 4 10 6 11 5 12 7 13
REMARK SMILES IDX 8 14 9 15 10 16 11 18 12 19 13 20 14 21 19 22 15 24 18 25
REMARK SMILES IDX 16 26 17 27 25 28 26 29 27 30 28 31 29 33 30 34 31 35 92 36
REMARK SMILES IDX 32 37 91 38 33 39 34 40 35 41 85 42 36 43 90 44 84 45 86 46
REMARK SMILES IDX 37 47 89 48 83 49 82 50 38 52 70 53 50 54 69 55 51 56 54 57
REMARK SMILES IDX 68 58 87 59 52 60 53 61 67 63 88 64 55 65 39 66 40 67 48 68
REMARK SMILES IDX 41 69 43 70 49 71 42 72 44 73 45 74 46 75 47 76 71 77 72 78
REMARK SMILES IDX 80 79 73 80 75 81 81 82 74 83 76 84 77 85 78 86 79 87 56 88
REMARK SMILES IDX 57 89 65 90 58 91 60 92 66 93 59 94 61 95 62 96 63 97 64 98
REMARK H PARENT 23 5 10 17 13 23 27 32 86 51 54 62
REMARK Flexibility Score: inf
ROOT
ATOM      1  C   UNL A   1      37.370  20.695  24.907  1.00  0.00     0.118 C 
ENDROOT
BRANCH   1   2
ATOM      2  N   UNL A   1      36.374  21.330  25.726  1.00  0.00    -0.352 N 
ATOM      3  C   UNL A   1      35.025  21.171  25.856  1.00  0.00     0.253 C 
ATOM      4  O   UNL A   1      34.612  21.585  26.945  1.00  0.00    -0.269 OA
ATOM      5  H   UNL A   1      36.742  22.027  26.315  1.00  0.00     0.163 HD
BRANCH   3   6
ATOM      6  C   UNL A   1      34.092  20.605  24.843  1.00  0.00     0.064 A 
ATOM      7  C   UNL A   1      34.296  17.914  24.685  1.00  0.00     0.047 C 
ATOM      8  C   UNL A   1      33.765  19.265  24.377  1.00  0.00    -0.020 A 
ATOM      9  C   UNL A   1      32.768  19.387  23.430  1.00  0.00     0.089 A 
ATOM     10  N   UNL A   1      32.515  20.698  23.209  1.00  0.00    -0.353 N 
ATOM     11  C   UNL A   1      33.343  21.465  23.994  1.00  0.00     0.040 A 
ATOM     12  C   UNL A   1      31.558  21.160  22.225  1.00  0.00     0.149 C 
BRANCH  11  13
ATOM     13  C   UNL A   1      33.359  22.979  23.839  1.00  0.00     0.154 C 
BRANCH  13  14
ATOM     14  C   UNL A   1      34.779  23.536  23.757  1.00  0.00     0.226 C 
ATOM     15  O   UNL A   1      35.578  23.107  22.918  1.00  0.00    -0.275 OA
ATOM     16  N   UNL A   1      35.184  24.516  24.615  1.00  0.00    -0.350 N 
ATOM     17  H   UNL A   1      36.108  24.835  24.498  1.00  0.00     0.163 HD
BRANCH  16  18
ATOM     18  C   UNL A   1      34.426  25.150  25.678  1.00  0.00     0.177 C 
BRANCH  18  19
ATOM     19  C   UNL A   1      33.894  26.540  25.269  1.00  0.00     0.283 C 
BRANCH  19  20
ATOM     20  N   UNL A   1      32.427  26.640  25.076  1.00  0.00    -0.333 N 
ATOM     21  C   UNL A   1      32.083  27.746  24.161  1.00  0.00     0.262 C 
ATOM     22  C   UNL A   1      31.680  26.822  26.335  1.00  0.00     0.262 C 
ATOM     23  H   UNL A   1      32.150  25.745  24.674  1.00  0.00     0.348 HD
ATOM     24  C   UNL A   1      32.327  29.149  24.739  1.00  0.00     0.065 C 
ATOM     25  C   UNL A   1      32.019  28.133  27.043  1.00  0.00     0.065 C 
ATOM     26  C   UNL A   1      31.713  29.331  26.136  1.00  0.00    -0.003 C 
ATOM     27  C   UNL A   1      32.198  30.628  26.783  1.00  0.00     0.008 C 
ENDBRANCH  19  20
ENDBRANCH  18  19
ENDBRANCH  16  18
ENDBRANCH  13  14
ENDBRANCH  11  13
ENDBRANCH   3   6
ENDBRANCH   1   2
BRANCH   1  28
ATOM     28  C   UNL A   1      38.797  21.060  25.318  1.00  0.00     0.042 C 
BRANCH  28  29
ATOM     29  C   UNL A   1      39.344  20.142  26.393  1.00  0.00     0.118 C 
BRANCH  29  30
ATOM     30  N   UNL A   1      40.525  19.411  25.928  1.00  0.00    -0.352 N 
ATOM     31  C   UNL A   1      41.811  19.870  25.768  1.00  0.00     0.251 C 
ATOM     32  H   UNL A   1      40.379  18.464  25.699  1.00  0.00     0.163 HD
ATOM     33  O   UNL A   1      42.606  19.248  25.057  1.00  0.00    -0.269 OA
BRANCH  31  34
ATOM     34  C   UNL A   1      42.220  21.112  26.439  1.00  0.00     0.039 A 
ATOM     35  C   UNL A   1      42.403  22.288  25.712  1.00  0.00     0.014 A 
ATOM     36  C   UNL A   1      42.371  21.100  27.826  1.00  0.00     0.014 A 
ATOM     37  C   UNL A   1      42.647  23.466  26.407  1.00  0.00     0.010 A 
ATOM     38  C   UNL A   1      42.441  22.284  28.517  1.00  0.00     0.010 A 
ATOM     39  C   UNL A   1      42.622  23.466  27.816  1.00  0.00    -0.014 A 
BRANCH  39  40
ATOM     40  C   UNL A   1      42.578  24.730  28.547  1.00  0.00     0.031 A 
ATOM     41  C   UNL A   1      41.328  25.486  28.281  1.00  0.00     0.074 A 
ATOM     42  C   UNL A   1      43.473  25.107  29.489  1.00  0.00     0.049 A 
ATOM     43  N   UNL A   1      41.201  26.500  27.491  1.00  0.00    -0.248 NA
ATOM     44  C   UNL A   1      40.042  24.922  28.728  1.00  0.00     0.031 C 
ATOM     45  C   UNL A   1      44.576  24.319  30.048  1.00  0.00     0.029 A 
ATOM     46  N   UNL A   1      43.515  26.244  30.242  1.00  0.00    -0.354 N 
ATOM     47  C   UNL A   1      39.872  26.892  27.616  1.00  0.00     0.074 A 
ATOM     48  C   UNL A   1      39.176  25.747  28.134  1.00  0.00     0.031 C 
ATOM     49  C   UNL A   1      45.003  24.885  31.198  1.00  0.00     0.029 A 
ATOM     50  C   UNL A   1      44.328  26.156  31.375  1.00  0.00     0.049 A 
ATOM     51  H   UNL A   1      43.015  27.058  30.007  1.00  0.00     0.167 HD
ATOM     52  C   UNL A   1      39.559  28.217  27.626  1.00  0.00     0.034 A 
ATOM     53  C   UNL A   1      44.414  27.047  32.398  1.00  0.00     0.034 A 
ATOM     54  C   UNL A   1      40.664  29.005  27.119  1.00  0.00     0.049 A 
ATOM     55  C   UNL A   1      43.912  28.339  31.885  1.00  0.00     0.074 A 
ATOM     56  C   UNL A   1      41.436  28.994  25.973  1.00  0.00     0.029 A 
ATOM     57  N   UNL A   1      41.387  29.707  28.053  1.00  0.00    -0.354 N 
ATOM     58  N   UNL A   1      44.534  29.039  30.980  1.00  0.00    -0.248 NA
ATOM     59  C   UNL A   1      42.501  28.635  32.057  1.00  0.00     0.031 C 
ATOM     60  C   UNL A   1      42.762  29.280  26.418  1.00  0.00     0.029 A 
ATOM     61  C   UNL A   1      42.716  29.551  27.786  1.00  0.00     0.049 A 
ATOM     62  H   UNL A   1      41.008  30.236  28.793  1.00  0.00     0.167 HD
ATOM     63  C   UNL A   1      43.516  29.466  30.141  1.00  0.00     0.074 A 
ATOM     64  C   UNL A   1      42.287  29.296  30.916  1.00  0.00     0.031 C 
ATOM     65  C   UNL A   1      43.740  29.618  28.803  1.00  0.00     0.034 A 
BRANCH  52  66
ATOM     66  C   UNL A   1      38.505  28.851  28.523  1.00  0.00     0.023 A 
ATOM     67  C   UNL A   1      37.634  29.783  27.910  1.00  0.00     0.012 A 
ATOM     68  C   UNL A   1      38.514  28.833  29.938  1.00  0.00     0.148 A 
ATOM     69  C   UNL A   1      36.909  30.717  28.657  1.00  0.00     0.002 A 
ATOM     70  C   UNL A   1      37.734  29.713  30.679  1.00  0.00     0.091 A 
ATOM     71  F   UNL A   1      39.359  28.048  30.603  1.00  0.00    -0.205 F 
ATOM     72  C   UNL A   1      36.962  30.685  30.043  1.00  0.00     0.022 A 
BRANCH  70  73
ATOM     73  S   UNL A   1      37.730  29.687  32.478  1.00  0.00     0.127 S 
ATOM     74  O   UNL A   1      36.670  30.644  32.779  1.00  0.00    -0.237 OA
ATOM     75  O   UNL A   1      37.403  28.287  32.749  1.00  0.00    -0.237 OA
ATOM     76  O   UNL A   1      39.073  30.079  32.889  1.00  0.00    -0.744 OA
ENDBRANCH  70  73
ENDBRANCH  52  66
BRANCH  53  77
ATOM     77  C   UNL A   1      44.687  26.866  33.846  1.00  0.00     0.023 A 
ATOM     78  C   UNL A   1      45.883  27.379  34.398  1.00  0.00     0.012 A 
ATOM     79  C   UNL A   1      43.657  26.494  34.736  1.00  0.00     0.148 A 
ATOM     80  C   UNL A   1      46.025  27.569  35.779  1.00  0.00     0.002 A 
ATOM     81  C   UNL A   1      43.802  26.686  36.108  1.00  0.00     0.091 A 
ATOM     82  F   UNL A   1      42.501  26.045  34.229  1.00  0.00    -0.205 F 
ATOM     83  C   UNL A   1      44.978  27.236  36.632  1.00  0.00     0.022 A 
BRANCH  81  84
ATOM     84  S   UNL A   1      42.477  26.324  37.269  1.00  0.00     0.127 S 
ATOM     85  O   UNL A   1      42.145  24.941  36.927  1.00  0.00    -0.237 OA
ATOM     86  O   UNL A   1      43.148  26.494  38.555  1.00  0.00    -0.237 OA
ATOM     87  O   UNL A   1      41.421  27.286  36.977  1.00  0.00    -0.744 OA
ENDBRANCH  81  84
ENDBRANCH  53  77
BRANCH  65  88
ATOM     88  C   UNL A   1      45.163  29.664  28.315  1.00  0.00     0.023 A 
ATOM     89  C   UNL A   1      45.959  30.830  28.331  1.00  0.00     0.012 A 
ATOM     90  C   UNL A   1      45.757  28.441  27.967  1.00  0.00     0.148 A 
ATOM     91  C   UNL A   1      47.313  30.771  27.987  1.00  0.00     0.002 A 
ATOM     92  C   UNL A   1      47.112  28.377  27.677  1.00  0.00     0.091 A 
ATOM     93  F   UNL A   1      44.983  27.345  27.948  1.00  0.00    -0.205 F 
ATOM     94  C   UNL A   1      47.894  29.542  27.675  1.00  0.00     0.022 A 
BRANCH  92  95
ATOM     95  S   UNL A   1      47.924  26.804  27.392  1.00  0.00     0.127 S 
ATOM     96  O   UNL A   1      49.336  27.182  27.417  1.00  0.00    -0.237 OA
ATOM     97  O   UNL A   1      47.482  26.010  28.538  1.00  0.00    -0.237 OA
ATOM     98  O   UNL A   1      47.425  26.322  26.109  1.00  0.00    -0.744 OA
ENDBRANCH  92  95
ENDBRANCH  65  88
ENDBRANCH  39  40
ENDBRANCH  31  34
ENDBRANCH  29  30
ENDBRANCH  28  29
ENDBRANCH   1  28
TORSDOF 18
ENDMDL
