MODEL 1
REMARK VINA RESULT:     -13.3      0.000      0.000
REMARK SMILES O=C(NCCCNC(=O)c1cc(-c2cccc(C(F)(F)F)c2)nc2c(F)cccc12)c1ccc(-c2c3nc(c(-c4cccc(S(=O)(=O)[O-])c4F)c4ccc([nH]4)c(-c4cccc(S(=O)(=O)[O-])c4F)c4nc(c(-c5cccc(S(=O)(=O)[O-])c5F)c5ccc2[nH]5)C=C4)C=C3)cc1
REMARK SMILES IDX 4 1 3 2 1 3 2 4 31 6 32 7 93 8 33 9 92 10 34 11 35 12 36 13
REMARK SMILES IDX 86 14 37 15 91 16 85 17 87 18 38 19 90 20 84 21 83 22 39 24
REMARK SMILES IDX 71 25 51 26 70 27 52 28 55 29 69 30 88 31 53 32 54 33 68 35
REMARK SMILES IDX 89 36 56 37 40 38 41 39 49 40 42 41 44 42 50 43 43 44 45 45
REMARK SMILES IDX 46 46 47 47 48 48 72 49 73 50 81 51 74 52 76 53 82 54 75 55
REMARK SMILES IDX 77 56 78 57 79 58 80 59 57 60 58 61 66 62 59 63 61 64 67 65
REMARK SMILES IDX 60 66 62 67 63 68 64 69 65 70 5 71 6 72 7 73 8 74 9 76 10 77
REMARK SMILES IDX 11 78 30 79 12 80 24 81 29 82 23 83 25 84 28 85 26 86 27 87
REMARK SMILES IDX 13 88 14 89 22 90 15 91 17 92 16 93 18 94 19 95 20 96 21 97
REMARK H PARENT 3 5 87 23 55 34 7 75
REMARK Flexibility Score: inf
ROOT
ATOM      1  C   UNL A   1      33.139  29.231  25.286  1.00  0.00     0.118 C 
ENDROOT
BRANCH   1   2
ATOM      2  N   UNL A   1      32.695  30.491  25.866  1.00  0.00    -0.352 N 
ATOM      3  O   UNL A   1      32.542  32.177  27.340  1.00  0.00    -0.269 OA
ATOM      4  C   UNL A   1      33.203  31.237  26.904  1.00  0.00     0.251 C 
ATOM      5  H   UNL A   1      31.894  30.876  25.443  1.00  0.00     0.163 HD
BRANCH   4   6
ATOM      6  C   UNL A   1      34.509  30.899  27.516  1.00  0.00     0.039 A 
ATOM      7  C   UNL A   1      34.816  29.590  27.882  1.00  0.00     0.014 A 
ATOM      8  C   UNL A   1      35.456  31.909  27.711  1.00  0.00     0.014 A 
ATOM      9  C   UNL A   1      35.962  29.326  28.621  1.00  0.00     0.010 A 
ATOM     10  C   UNL A   1      36.665  31.620  28.351  1.00  0.00     0.010 A 
ATOM     11  C   UNL A   1      36.906  30.336  28.863  1.00  0.00    -0.014 A 
BRANCH  11  12
ATOM     12  C   UNL A   1      38.142  30.005  29.621  1.00  0.00     0.031 A 
ATOM     13  C   UNL A   1      38.332  30.458  31.045  1.00  0.00     0.074 A 
ATOM     14  C   UNL A   1      39.089  29.253  29.025  1.00  0.00     0.049 A 
ATOM     15  N   UNL A   1      39.314  30.188  31.867  1.00  0.00    -0.248 NA
ATOM     16  C   UNL A   1      37.298  31.335  31.620  1.00  0.00     0.031 C 
ATOM     17  C   UNL A   1      39.043  28.791  27.635  1.00  0.00     0.029 A 
ATOM     18  N   UNL A   1      40.259  28.726  29.508  1.00  0.00    -0.354 N 
ATOM     19  C   UNL A   1      39.048  30.899  33.031  1.00  0.00     0.074 A 
ATOM     20  C   UNL A   1      37.811  31.617  32.811  1.00  0.00     0.031 C 
ATOM     21  C   UNL A   1      40.102  28.006  27.395  1.00  0.00     0.029 A 
ATOM     22  C   UNL A   1      40.929  27.947  28.594  1.00  0.00     0.049 A 
ATOM     23  H   UNL A   1      40.588  28.890  30.422  1.00  0.00     0.167 HD
ATOM     24  C   UNL A   1      39.756  30.937  34.184  1.00  0.00     0.034 A 
ATOM     25  C   UNL A   1      42.079  27.254  28.706  1.00  0.00     0.034 A 
ATOM     26  C   UNL A   1      40.949  30.171  34.427  1.00  0.00     0.049 A 
ATOM     27  C   UNL A   1      42.807  27.261  30.019  1.00  0.00     0.074 A 
ATOM     28  C   UNL A   1      41.696  30.083  35.590  1.00  0.00     0.029 A 
ATOM     29  N   UNL A   1      41.569  29.356  33.492  1.00  0.00    -0.354 N 
ATOM     30  N   UNL A   1      42.466  27.836  31.147  1.00  0.00    -0.248 NA
ATOM     31  C   UNL A   1      44.065  26.504  30.084  1.00  0.00     0.031 C 
ATOM     32  C   UNL A   1      42.771  29.218  35.356  1.00  0.00     0.029 A 
ATOM     33  C   UNL A   1      42.690  28.762  34.049  1.00  0.00     0.049 A 
ATOM     34  H   UNL A   1      41.259  29.218  32.568  1.00  0.00     0.167 HD
ATOM     35  C   UNL A   1      43.452  27.491  32.062  1.00  0.00     0.074 A 
ATOM     36  C   UNL A   1      44.390  26.636  31.363  1.00  0.00     0.031 C 
ATOM     37  C   UNL A   1      43.580  27.867  33.358  1.00  0.00     0.034 A 
BRANCH  24  38
ATOM     38  C   UNL A   1      39.232  31.802  35.301  1.00  0.00     0.023 A 
ATOM     39  C   UNL A   1      38.256  31.288  36.179  1.00  0.00     0.012 A 
ATOM     40  C   UNL A   1      39.745  33.096  35.519  1.00  0.00     0.148 A 
ATOM     41  C   UNL A   1      37.779  32.058  37.240  1.00  0.00     0.002 A 
ATOM     42  C   UNL A   1      39.290  33.844  36.600  1.00  0.00     0.091 A 
ATOM     43  F   UNL A   1      40.653  33.581  34.660  1.00  0.00    -0.205 F 
ATOM     44  C   UNL A   1      38.303  33.330  37.457  1.00  0.00     0.022 A 
BRANCH  42  45
ATOM     45  S   UNL A   1      39.966  35.463  36.989  1.00  0.00     0.127 S 
ATOM     46  O   UNL A   1      39.277  35.780  38.238  1.00  0.00    -0.237 OA
ATOM     47  O   UNL A   1      41.394  35.183  37.137  1.00  0.00    -0.237 OA
ATOM     48  O   UNL A   1      39.636  36.308  35.849  1.00  0.00    -0.744 OA
ENDBRANCH  42  45
ENDBRANCH  24  38
BRANCH  25  49
ATOM     49  C   UNL A   1      42.555  26.429  27.562  1.00  0.00     0.023 A 
ATOM     50  C   UNL A   1      43.230  27.056  26.497  1.00  0.00     0.012 A 
ATOM     51  C   UNL A   1      42.408  25.029  27.554  1.00  0.00     0.148 A 
ATOM     52  C   UNL A   1      43.738  26.304  25.437  1.00  0.00     0.002 A 
ATOM     53  C   UNL A   1      42.968  24.280  26.524  1.00  0.00     0.091 A 
ATOM     54  F   UNL A   1      41.745  24.452  28.566  1.00  0.00    -0.205 F 
ATOM     55  C   UNL A   1      43.620  24.917  25.457  1.00  0.00     0.022 A 
BRANCH  53  56
ATOM     56  S   UNL A   1      42.989  22.484  26.556  1.00  0.00     0.127 S 
ATOM     57  O   UNL A   1      41.990  22.154  25.544  1.00  0.00    -0.237 OA
ATOM     58  O   UNL A   1      44.371  22.187  26.179  1.00  0.00    -0.237 OA
ATOM     59  O   UNL A   1      42.655  22.121  27.928  1.00  0.00    -0.744 OA
ENDBRANCH  53  56
ENDBRANCH  25  49
BRANCH  37  60
ATOM     60  C   UNL A   1      44.768  27.339  34.116  1.00  0.00     0.023 A 
ATOM     61  C   UNL A   1      45.963  28.084  34.139  1.00  0.00     0.012 A 
ATOM     62  C   UNL A   1      44.681  26.145  34.857  1.00  0.00     0.148 A 
ATOM     63  C   UNL A   1      47.064  27.634  34.866  1.00  0.00     0.002 A 
ATOM     64  C   UNL A   1      45.770  25.723  35.612  1.00  0.00     0.091 A 
ATOM     65  F   UNL A   1      43.544  25.435  34.802  1.00  0.00    -0.205 F 
ATOM     66  C   UNL A   1      46.964  26.461  35.611  1.00  0.00     0.022 A 
BRANCH  64  67
ATOM     67  S   UNL A   1      45.682  24.269  36.662  1.00  0.00     0.127 S 
ATOM     68  O   UNL A   1      44.575  24.609  37.554  1.00  0.00    -0.237 OA
ATOM     69  O   UNL A   1      45.387  23.200  35.705  1.00  0.00    -0.237 OA
ATOM     70  O   UNL A   1      46.993  24.162  37.288  1.00  0.00    -0.744 OA
ENDBRANCH  64  67
ENDBRANCH  37  60
ENDBRANCH  11  12
ENDBRANCH   4   6
ENDBRANCH   1   2
BRANCH   1  71
ATOM     71  C   UNL A   1      32.912  29.156  23.784  1.00  0.00     0.042 C 
BRANCH  71  72
ATOM     72  C   UNL A   1      34.058  28.519  23.020  1.00  0.00     0.118 C 
BRANCH  72  73
ATOM     73  N   UNL A   1      33.613  27.734  21.874  1.00  0.00    -0.352 N 
ATOM     74  C   UNL A   1      33.238  26.416  21.813  1.00  0.00     0.252 C 
ATOM     75  H   UNL A   1      33.578  28.221  21.019  1.00  0.00     0.163 HD
ATOM     76  O   UNL A   1      32.952  25.892  20.741  1.00  0.00    -0.269 OA
BRANCH  74  77
ATOM     77  C   UNL A   1      33.222  25.607  23.045  1.00  0.00     0.051 A 
ATOM     78  C   UNL A   1      34.399  24.927  23.340  1.00  0.00     0.043 A 
ATOM     79  C   UNL A   1      32.099  25.551  23.898  1.00  0.00     0.016 A 
ATOM     80  C   UNL A   1      34.458  24.222  24.525  1.00  0.00     0.072 A 
ATOM     81  C   UNL A   1      32.280  24.870  25.114  1.00  0.00     0.107 A 
ATOM     82  C   UNL A   1      30.846  26.156  23.610  1.00  0.00     0.011 A 
ATOM     83  N   UNL A   1      33.424  24.206  25.400  1.00  0.00    -0.245 NA
ATOM     84  C   UNL A   1      31.230  24.918  26.035  1.00  0.00     0.149 A 
ATOM     85  C   UNL A   1      29.822  26.183  24.551  1.00  0.00     0.004 A 
ATOM     86  F   UNL A   1      31.370  24.328  27.233  1.00  0.00    -0.205 F 
ATOM     87  C   UNL A   1      30.026  25.576  25.779  1.00  0.00     0.041 A 
BRANCH  80  88
ATOM     88  C   UNL A   1      35.632  23.422  24.900  1.00  0.00     0.001 A 
ATOM     89  C   UNL A   1      35.727  22.055  24.590  1.00  0.00     0.010 A 
ATOM     90  C   UNL A   1      36.691  24.012  25.614  1.00  0.00     0.023 A 
ATOM     91  C   UNL A   1      36.834  21.302  24.988  1.00  0.00     0.001 A 
ATOM     92  C   UNL A   1      37.804  23.265  26.034  1.00  0.00     0.056 A 
ATOM     93  C   UNL A   1      37.863  21.901  25.712  1.00  0.00     0.013 A 
BRANCH  92  94
ATOM     94  C   UNL A   1      38.908  23.899  26.839  1.00  0.00     0.416 C 
ATOM     95  F   UNL A   1      38.429  24.666  27.860  1.00  0.00    -0.166 F 
ATOM     96  F   UNL A   1      39.731  22.983  27.422  1.00  0.00    -0.166 F 
ATOM     97  F   UNL A   1      39.719  24.720  26.115  1.00  0.00    -0.166 F 
ENDBRANCH  92  94
ENDBRANCH  80  88
ENDBRANCH  74  77
ENDBRANCH  72  73
ENDBRANCH  71  72
ENDBRANCH   1  71
TORSDOF 15
ENDMDL
MODEL 2
REMARK VINA RESULT:     -13.3      4.671      9.871
REMARK SMILES O=C(NCCCNC(=O)c1cc(-c2cccc(C(F)(F)F)c2)nc2c(F)cccc12)c1ccc(-c2c3nc(c(-c4cccc(S(=O)(=O)[O-])c4F)c4ccc([nH]4)c(-c4cccc(S(=O)(=O)[O-])c4F)c4nc(c(-c5cccc(S(=O)(=O)[O-])c5F)c5ccc2[nH]5)C=C4)C=C3)cc1
REMARK SMILES IDX 4 1 3 2 1 3 2 4 31 6 32 7 93 8 33 9 92 10 34 11 35 12 36 13
REMARK SMILES IDX 86 14 37 15 91 16 85 17 87 18 38 19 90 20 84 21 83 22 39 24
REMARK SMILES IDX 71 25 51 26 70 27 52 28 55 29 69 30 88 31 53 32 54 33 68 35
REMARK SMILES IDX 89 36 56 37 40 38 41 39 49 40 42 41 44 42 50 43 43 44 45 45
REMARK SMILES IDX 46 46 47 47 48 48 72 49 73 50 81 51 74 52 76 53 82 54 75 55
REMARK SMILES IDX 77 56 78 57 79 58 80 59 57 60 58 61 66 62 59 63 61 64 67 65
REMARK SMILES IDX 60 66 62 67 63 68 64 69 65 70 5 71 6 72 7 73 8 74 9 76 10 77
REMARK SMILES IDX 11 78 30 79 12 80 24 81 29 82 23 83 25 84 28 85 26 86 27 87
REMARK SMILES IDX 13 88 14 89 22 90 15 91 17 92 16 93 18 94 19 95 20 96 21 97
REMARK H PARENT 3 5 87 23 55 34 7 75
REMARK Flexibility Score: inf
ROOT
ATOM      1  C   UNL A   1      35.877  22.338  26.092  1.00  0.00     0.118 C 
ENDROOT
BRANCH   1   2
ATOM      2  N   UNL A   1      36.915  21.350  25.828  1.00  0.00    -0.352 N 
ATOM      3  O   UNL A   1      38.961  20.524  25.418  1.00  0.00    -0.269 OA
ATOM      4  C   UNL A   1      38.287  21.447  25.868  1.00  0.00     0.251 C 
ATOM      5  H   UNL A   1      36.577  20.460  25.579  1.00  0.00     0.163 HD
BRANCH   4   6
ATOM      6  C   UNL A   1      38.948  22.656  26.412  1.00  0.00     0.039 A 
ATOM      7  C   UNL A   1      38.471  23.932  26.117  1.00  0.00     0.014 A 
ATOM      8  C   UNL A   1      40.058  22.511  27.250  1.00  0.00     0.014 A 
ATOM      9  C   UNL A   1      39.212  25.050  26.479  1.00  0.00     0.010 A 
ATOM     10  C   UNL A   1      40.736  23.643  27.713  1.00  0.00     0.010 A 
ATOM     11  C   UNL A   1      40.353  24.924  27.286  1.00  0.00    -0.014 A 
BRANCH  11  12
ATOM     12  C   UNL A   1      41.095  26.148  27.689  1.00  0.00     0.031 A 
ATOM     13  C   UNL A   1      42.494  26.412  27.199  1.00  0.00     0.074 A 
ATOM     14  C   UNL A   1      40.479  27.050  28.480  1.00  0.00     0.049 A 
ATOM     15  N   UNL A   1      43.246  27.466  27.395  1.00  0.00    -0.248 NA
ATOM     16  C   UNL A   1      43.140  25.360  26.397  1.00  0.00     0.031 C 
ATOM     17  C   UNL A   1      39.142  26.887  29.058  1.00  0.00     0.029 A 
ATOM     18  N   UNL A   1      40.880  28.286  28.918  1.00  0.00    -0.354 N 
ATOM     19  C   UNL A   1      44.466  27.184  26.791  1.00  0.00     0.074 A 
ATOM     20  C   UNL A   1      44.357  25.859  26.222  1.00  0.00     0.031 C 
ATOM     21  C   UNL A   1      38.812  28.002  29.724  1.00  0.00     0.029 A 
ATOM     22  C   UNL A   1      39.927  28.939  29.666  1.00  0.00     0.049 A 
ATOM     23  H   UNL A   1      41.763  28.670  28.716  1.00  0.00     0.167 HD
ATOM     24  C   UNL A   1      45.569  27.965  26.701  1.00  0.00     0.034 A 
ATOM     25  C   UNL A   1      39.943  30.158  30.238  1.00  0.00     0.034 A 
ATOM     26  C   UNL A   1      45.653  29.308  27.208  1.00  0.00     0.049 A 
ATOM     27  C   UNL A   1      41.155  31.027  30.064  1.00  0.00     0.074 A 
ATOM     28  C   UNL A   1      46.701  30.206  27.099  1.00  0.00     0.029 A 
ATOM     29  N   UNL A   1      44.650  29.950  27.917  1.00  0.00    -0.354 N 
ATOM     30  N   UNL A   1      42.246  30.790  29.377  1.00  0.00    -0.248 NA
ATOM     31  C   UNL A   1      41.129  32.341  30.722  1.00  0.00     0.031 C 
ATOM     32  C   UNL A   1      46.333  31.390  27.747  1.00  0.00     0.029 A 
ATOM     33  C   UNL A   1      45.053  31.232  28.254  1.00  0.00     0.049 A 
ATOM     34  H   UNL A   1      43.779  29.554  28.147  1.00  0.00     0.167 HD
ATOM     35  C   UNL A   1      43.026  31.933  29.498  1.00  0.00     0.074 A 
ATOM     36  C   UNL A   1      42.271  32.871  30.304  1.00  0.00     0.031 C 
ATOM     37  C   UNL A   1      44.266  32.175  29.005  1.00  0.00     0.034 A 
BRANCH  24  38
ATOM     38  C   UNL A   1      46.767  27.404  25.981  1.00  0.00     0.023 A 
ATOM     39  C   UNL A   1      46.871  27.553  24.583  1.00  0.00     0.012 A 
ATOM     40  C   UNL A   1      47.816  26.785  26.689  1.00  0.00     0.148 A 
ATOM     41  C   UNL A   1      47.987  27.071  23.898  1.00  0.00     0.002 A 
ATOM     42  C   UNL A   1      48.941  26.339  26.003  1.00  0.00     0.091 A 
ATOM     43  F   UNL A   1      47.690  26.626  28.015  1.00  0.00    -0.205 F 
ATOM     44  C   UNL A   1      49.025  26.474  24.608  1.00  0.00     0.022 A 
BRANCH  42  45
ATOM     45  S   UNL A   1      50.352  25.623  26.855  1.00  0.00     0.127 S 
ATOM     46  O   UNL A   1      50.730  26.703  27.764  1.00  0.00    -0.237 OA
ATOM     47  O   UNL A   1      49.767  24.453  27.511  1.00  0.00    -0.237 OA
ATOM     48  O   UNL A   1      51.317  25.303  25.812  1.00  0.00    -0.744 OA
ENDBRANCH  42  45
ENDBRANCH  24  38
BRANCH  25  49
ATOM     49  C   UNL A   1      38.732  30.651  30.950  1.00  0.00     0.023 A 
ATOM     50  C   UNL A   1      38.513  30.260  32.285  1.00  0.00     0.012 A 
ATOM     51  C   UNL A   1      37.840  31.556  30.344  1.00  0.00     0.148 A 
ATOM     52  C   UNL A   1      37.420  30.750  32.999  1.00  0.00     0.002 A 
ATOM     53  C   UNL A   1      36.785  32.086  31.080  1.00  0.00     0.091 A 
ATOM     54  F   UNL A   1      38.053  31.901  29.067  1.00  0.00    -0.205 F 
ATOM     55  C   UNL A   1      36.564  31.673  32.402  1.00  0.00     0.022 A 
BRANCH  53  56
ATOM     56  S   UNL A   1      35.733  33.389  30.431  1.00  0.00     0.127 S 
ATOM     57  O   UNL A   1      34.497  32.666  30.153  1.00  0.00    -0.237 OA
ATOM     58  O   UNL A   1      35.664  34.318  31.560  1.00  0.00    -0.237 OA
ATOM     59  O   UNL A   1      36.443  33.915  29.271  1.00  0.00    -0.744 OA
ENDBRANCH  53  56
ENDBRANCH  25  49
BRANCH  37  60
ATOM     60  C   UNL A   1      44.878  33.516  29.304  1.00  0.00     0.023 A 
ATOM     61  C   UNL A   1      45.637  33.685  30.479  1.00  0.00     0.012 A 
ATOM     62  C   UNL A   1      44.760  34.584  28.395  1.00  0.00     0.148 A 
ATOM     63  C   UNL A   1      46.247  34.907  30.758  1.00  0.00     0.002 A 
ATOM     64  C   UNL A   1      45.404  35.788  28.660  1.00  0.00     0.091 A 
ATOM     65  F   UNL A   1      44.012  34.413  27.295  1.00  0.00    -0.205 F 
ATOM     66  C   UNL A   1      46.140  35.954  29.844  1.00  0.00     0.022 A 
BRANCH  64  67
ATOM     67  S   UNL A   1      45.380  37.148  27.488  1.00  0.00     0.127 S 
ATOM     68  O   UNL A   1      46.153  38.167  28.195  1.00  0.00    -0.237 OA
ATOM     69  O   UNL A   1      46.052  36.575  26.320  1.00  0.00    -0.237 OA
ATOM     70  O   UNL A   1      43.971  37.453  27.275  1.00  0.00    -0.744 OA
ENDBRANCH  64  67
ENDBRANCH  37  60
ENDBRANCH  11  12
ENDBRANCH   4   6
ENDBRANCH   1   2
BRANCH   1  71
ATOM     71  C   UNL A   1      34.585  21.720  26.603  1.00  0.00     0.042 C 
BRANCH  71  72
ATOM     72  C   UNL A   1      33.887  22.546  27.668  1.00  0.00     0.118 C 
BRANCH  72  73
ATOM     73  N   UNL A   1      32.434  22.417  27.628  1.00  0.00    -0.352 N 
ATOM     74  C   UNL A   1      31.516  23.124  26.896  1.00  0.00     0.252 C 
ATOM     75  H   UNL A   1      32.058  21.720  28.214  1.00  0.00     0.163 HD
ATOM     76  O   UNL A   1      30.313  22.928  27.036  1.00  0.00    -0.269 OA
BRANCH  74  77
ATOM     77  C   UNL A   1      31.978  24.166  25.962  1.00  0.00     0.051 A 
ATOM     78  C   UNL A   1      32.131  25.441  26.500  1.00  0.00     0.043 A 
ATOM     79  C   UNL A   1      32.286  23.890  24.613  1.00  0.00     0.016 A 
ATOM     80  C   UNL A   1      32.639  26.430  25.683  1.00  0.00     0.072 A 
ATOM     81  C   UNL A   1      32.865  24.941  23.882  1.00  0.00     0.107 A 
ATOM     82  C   UNL A   1      32.073  22.632  23.986  1.00  0.00     0.011 A 
ATOM     83  N   UNL A   1      33.011  26.181  24.405  1.00  0.00    -0.245 NA
ATOM     84  C   UNL A   1      33.305  24.653  22.587  1.00  0.00     0.149 A 
ATOM     85  C   UNL A   1      32.524  22.382  22.694  1.00  0.00     0.004 A 
ATOM     86  F   UNL A   1      33.913  25.609  21.865  1.00  0.00    -0.205 F 
ATOM     87  C   UNL A   1      33.162  23.396  22.000  1.00  0.00     0.041 A 
BRANCH  80  88
ATOM     88  C   UNL A   1      32.783  27.820  26.138  1.00  0.00     0.001 A 
ATOM     89  C   UNL A   1      31.768  28.772  25.942  1.00  0.00     0.010 A 
ATOM     90  C   UNL A   1      33.970  28.241  26.765  1.00  0.00     0.023 A 
ATOM     91  C   UNL A   1      31.937  30.098  26.346  1.00  0.00     0.001 A 
ATOM     92  C   UNL A   1      34.161  29.574  27.163  1.00  0.00     0.056 A 
ATOM     93  C   UNL A   1      33.129  30.498  26.947  1.00  0.00     0.013 A 
BRANCH  92  94
ATOM     94  C   UNL A   1      35.456  30.020  27.791  1.00  0.00     0.416 C 
ATOM     95  F   UNL A   1      36.536  29.385  27.253  1.00  0.00    -0.166 F 
ATOM     96  F   UNL A   1      35.691  31.352  27.625  1.00  0.00    -0.166 F 
ATOM     97  F   UNL A   1      35.528  29.793  29.132  1.00  0.00    -0.166 F 
ENDBRANCH  92  94
ENDBRANCH  80  88
ENDBRANCH  74  77
ENDBRANCH  72  73
ENDBRANCH  71  72
ENDBRANCH   1  71
TORSDOF 15
ENDMDL
MODEL 3
REMARK VINA RESULT:     -13.3      5.105     10.010
REMARK SMILES O=C(NCCCNC(=O)c1cc(-c2cccc(C(F)(F)F)c2)nc2c(F)cccc12)c1ccc(-c2c3nc(c(-c4cccc(S(=O)(=O)[O-])c4F)c4ccc([nH]4)c(-c4cccc(S(=O)(=O)[O-])c4F)c4nc(c(-c5cccc(S(=O)(=O)[O-])c5F)c5ccc2[nH]5)C=C4)C=C3)cc1
REMARK SMILES IDX 4 1 3 2 1 3 2 4 31 6 32 7 93 8 33 9 92 10 34 11 35 12 36 13
REMARK SMILES IDX 86 14 37 15 91 16 85 17 87 18 38 19 90 20 84 21 83 22 39 24
REMARK SMILES IDX 71 25 51 26 70 27 52 28 55 29 69 30 88 31 53 32 54 33 68 35
REMARK SMILES IDX 89 36 56 37 40 38 41 39 49 40 42 41 44 42 50 43 43 44 45 45
REMARK SMILES IDX 46 46 47 47 48 48 72 49 73 50 81 51 74 52 76 53 82 54 75 55
REMARK SMILES IDX 77 56 78 57 79 58 80 59 57 60 58 61 66 62 59 63 61 64 67 65
REMARK SMILES IDX 60 66 62 67 63 68 64 69 65 70 5 71 6 72 7 73 8 74 9 76 10 77
REMARK SMILES IDX 11 78 30 79 12 80 24 81 29 82 23 83 25 84 28 85 26 86 27 87
REMARK SMILES IDX 13 88 14 89 22 90 15 91 17 92 16 93 18 94 19 95 20 96 21 97
REMARK H PARENT 3 5 87 23 55 34 7 75
REMARK Flexibility Score: inf
ROOT
ATOM      1  C   UNL A   1      35.876  22.183  25.932  1.00  0.00     0.118 C 
ENDROOT
BRANCH   1   2
ATOM      2  N   UNL A   1      36.910  21.179  25.715  1.00  0.00    -0.352 N 
ATOM      3  O   UNL A   1      38.955  20.323  25.373  1.00  0.00    -0.269 OA
ATOM      4  C   UNL A   1      38.281  21.262  25.788  1.00  0.00     0.251 C 
ATOM      5  H   UNL A   1      36.568  20.288  25.474  1.00  0.00     0.163 HD
BRANCH   4   6
ATOM      6  C   UNL A   1      38.941  22.475  26.325  1.00  0.00     0.039 A 
ATOM      7  C   UNL A   1      38.475  23.749  26.007  1.00  0.00     0.014 A 
ATOM      8  C   UNL A   1      40.039  22.335  27.180  1.00  0.00     0.014 A 
ATOM      9  C   UNL A   1      39.217  24.868  26.365  1.00  0.00     0.010 A 
ATOM     10  C   UNL A   1      40.717  23.469  27.637  1.00  0.00     0.010 A 
ATOM     11  C   UNL A   1      40.347  24.745  27.189  1.00  0.00    -0.014 A 
BRANCH  11  12
ATOM     12  C   UNL A   1      41.090  25.971  27.586  1.00  0.00     0.031 A 
ATOM     13  C   UNL A   1      42.485  26.237  27.085  1.00  0.00     0.074 A 
ATOM     14  C   UNL A   1      40.479  26.872  28.380  1.00  0.00     0.049 A 
ATOM     15  N   UNL A   1      43.237  27.291  27.274  1.00  0.00    -0.248 NA
ATOM     16  C   UNL A   1      43.127  25.185  26.278  1.00  0.00     0.031 C 
ATOM     17  C   UNL A   1      39.147  26.708  28.968  1.00  0.00     0.029 A 
ATOM     18  N   UNL A   1      40.881  28.109  28.815  1.00  0.00    -0.354 N 
ATOM     19  C   UNL A   1      44.453  27.012  26.662  1.00  0.00     0.074 A 
ATOM     20  C   UNL A   1      44.341  25.686  26.093  1.00  0.00     0.031 C 
ATOM     21  C   UNL A   1      38.820  27.822  29.637  1.00  0.00     0.029 A 
ATOM     22  C   UNL A   1      39.934  28.761  29.570  1.00  0.00     0.049 A 
ATOM     23  H   UNL A   1      41.763  28.494  28.607  1.00  0.00     0.167 HD
ATOM     24  C   UNL A   1      45.554  27.794  26.563  1.00  0.00     0.034 A 
ATOM     25  C   UNL A   1      39.952  29.980  30.141  1.00  0.00     0.034 A 
ATOM     26  C   UNL A   1      45.640  29.137  27.069  1.00  0.00     0.049 A 
ATOM     27  C   UNL A   1      41.161  30.851  29.958  1.00  0.00     0.074 A 
ATOM     28  C   UNL A   1      46.687  30.036  26.952  1.00  0.00     0.029 A 
ATOM     29  N   UNL A   1      44.642  29.778  27.785  1.00  0.00    -0.354 N 
ATOM     30  N   UNL A   1      42.248  30.615  29.263  1.00  0.00    -0.248 NA
ATOM     31  C   UNL A   1      41.139  32.165  30.616  1.00  0.00     0.031 C 
ATOM     32  C   UNL A   1      46.321  31.221  27.602  1.00  0.00     0.029 A 
ATOM     33  C   UNL A   1      45.045  31.060  28.119  1.00  0.00     0.049 A 
ATOM     34  H   UNL A   1      43.773  29.381  28.022  1.00  0.00     0.167 HD
ATOM     35  C   UNL A   1      43.027  31.759  29.378  1.00  0.00     0.074 A 
ATOM     36  C   UNL A   1      42.277  32.696  30.189  1.00  0.00     0.031 C 
ATOM     37  C   UNL A   1      44.263  32.002  28.876  1.00  0.00     0.034 A 
BRANCH  24  38
ATOM     38  C   UNL A   1      46.748  27.234  25.834  1.00  0.00     0.023 A 
ATOM     39  C   UNL A   1      47.545  26.253  26.457  1.00  0.00     0.012 A 
ATOM     40  C   UNL A   1      47.046  27.632  24.516  1.00  0.00     0.148 A 
ATOM     41  C   UNL A   1      48.637  25.696  25.790  1.00  0.00     0.002 A 
ATOM     42  C   UNL A   1      48.115  27.046  23.845  1.00  0.00     0.091 A 
ATOM     43  F   UNL A   1      46.295  28.586  23.947  1.00  0.00    -0.205 F 
ATOM     44  C   UNL A   1      48.915  26.084  24.482  1.00  0.00     0.022 A 
BRANCH  42  45
ATOM     45  S   UNL A   1      48.495  27.441  22.134  1.00  0.00     0.127 S 
ATOM     46  O   UNL A   1      47.325  28.225  21.743  1.00  0.00    -0.237 OA
ATOM     47  O   UNL A   1      49.732  28.213  22.253  1.00  0.00    -0.237 OA
ATOM     48  O   UNL A   1      48.652  26.158  21.462  1.00  0.00    -0.744 OA
ENDBRANCH  42  45
ENDBRANCH  24  38
BRANCH  25  49
ATOM     49  C   UNL A   1      38.746  30.472  30.863  1.00  0.00     0.023 A 
ATOM     50  C   UNL A   1      38.495  30.017  32.171  1.00  0.00     0.012 A 
ATOM     51  C   UNL A   1      37.891  31.436  30.295  1.00  0.00     0.148 A 
ATOM     52  C   UNL A   1      37.406  30.501  32.896  1.00  0.00     0.002 A 
ATOM     53  C   UNL A   1      36.842  31.958  31.043  1.00  0.00     0.091 A 
ATOM     54  F   UNL A   1      38.135  31.842  29.041  1.00  0.00    -0.205 F 
ATOM     55  C   UNL A   1      36.588  31.482  32.338  1.00  0.00     0.022 A 
BRANCH  53  56
ATOM     56  S   UNL A   1      35.841  33.326  30.451  1.00  0.00     0.127 S 
ATOM     57  O   UNL A   1      34.559  32.675  30.202  1.00  0.00    -0.237 OA
ATOM     58  O   UNL A   1      35.857  34.237  31.598  1.00  0.00    -0.237 OA
ATOM     59  O   UNL A   1      36.540  33.836  29.278  1.00  0.00    -0.744 OA
ENDBRANCH  53  56
ENDBRANCH  25  49
BRANCH  37  60
ATOM     60  C   UNL A   1      44.876  33.345  29.169  1.00  0.00     0.023 A 
ATOM     61  C   UNL A   1      45.613  33.525  30.356  1.00  0.00     0.012 A 
ATOM     62  C   UNL A   1      44.779  34.402  28.245  1.00  0.00     0.148 A 
ATOM     63  C   UNL A   1      46.223  34.748  30.631  1.00  0.00     0.002 A 
ATOM     64  C   UNL A   1      45.423  35.606  28.508  1.00  0.00     0.091 A 
ATOM     65  F   UNL A   1      44.051  34.220  27.134  1.00  0.00    -0.205 F 
ATOM     66  C   UNL A   1      46.138  35.784  29.703  1.00  0.00     0.022 A 
BRANCH  64  67
ATOM     67  S   UNL A   1      45.428  36.951  27.319  1.00  0.00     0.127 S 
ATOM     68  O   UNL A   1      46.052  38.028  28.085  1.00  0.00    -0.237 OA
ATOM     69  O   UNL A   1      46.254  36.418  26.234  1.00  0.00    -0.237 OA
ATOM     70  O   UNL A   1      44.031  37.156  26.958  1.00  0.00    -0.744 OA
ENDBRANCH  64  67
ENDBRANCH  37  60
ENDBRANCH  11  12
ENDBRANCH   4   6
ENDBRANCH   1   2
BRANCH   1  71
ATOM     71  C   UNL A   1      34.592  21.600  26.502  1.00  0.00     0.042 C 
BRANCH  71  72
ATOM     72  C   UNL A   1      33.966  22.444  27.597  1.00  0.00     0.118 C 
BRANCH  72  73
ATOM     73  N   UNL A   1      32.511  22.349  27.629  1.00  0.00    -0.352 N 
ATOM     74  C   UNL A   1      31.574  23.081  26.946  1.00  0.00     0.252 C 
ATOM     75  H   UNL A   1      32.149  21.657  28.230  1.00  0.00     0.163 HD
ATOM     76  O   UNL A   1      30.375  22.911  27.146  1.00  0.00    -0.269 OA
BRANCH  74  77
ATOM     77  C   UNL A   1      32.013  24.117  25.995  1.00  0.00     0.051 A 
ATOM     78  C   UNL A   1      32.164  25.398  26.518  1.00  0.00     0.043 A 
ATOM     79  C   UNL A   1      32.302  23.829  24.644  1.00  0.00     0.016 A 
ATOM     80  C   UNL A   1      32.651  26.383  25.684  1.00  0.00     0.072 A 
ATOM     81  C   UNL A   1      32.861  24.878  23.895  1.00  0.00     0.107 A 
ATOM     82  C   UNL A   1      32.090  22.564  24.034  1.00  0.00     0.011 A 
ATOM     83  N   UNL A   1      33.006  26.124  24.403  1.00  0.00    -0.245 NA
ATOM     84  C   UNL A   1      33.284  24.581  22.596  1.00  0.00     0.149 A 
ATOM     85  C   UNL A   1      32.523  22.304  22.738  1.00  0.00     0.004 A 
ATOM     86  F   UNL A   1      33.872  25.533  21.855  1.00  0.00    -0.205 F 
ATOM     87  C   UNL A   1      33.142  23.316  22.023  1.00  0.00     0.041 A 
BRANCH  80  88
ATOM     88  C   UNL A   1      32.790  27.778  26.123  1.00  0.00     0.001 A 
ATOM     89  C   UNL A   1      31.769  28.722  25.924  1.00  0.00     0.010 A 
ATOM     90  C   UNL A   1      33.980  28.212  26.735  1.00  0.00     0.023 A 
ATOM     91  C   UNL A   1      31.933  30.054  26.313  1.00  0.00     0.001 A 
ATOM     92  C   UNL A   1      34.166  29.551  27.118  1.00  0.00     0.056 A 
ATOM     93  C   UNL A   1      33.127  30.467  26.900  1.00  0.00     0.013 A 
BRANCH  92  94
ATOM     94  C   UNL A   1      35.464  30.012  27.730  1.00  0.00     0.416 C 
ATOM     95  F   UNL A   1      35.527  29.746  29.066  1.00  0.00    -0.166 F 
ATOM     96  F   UNL A   1      36.552  29.403  27.181  1.00  0.00    -0.166 F 
ATOM     97  F   UNL A   1      35.687  31.350  27.613  1.00  0.00    -0.166 F 
ENDBRANCH  92  94
ENDBRANCH  80  88
ENDBRANCH  74  77
ENDBRANCH  72  73
ENDBRANCH  71  72
ENDBRANCH   1  71
TORSDOF 15
ENDMDL
