MODEL 1
REMARK VINA RESULT:     -13.6      0.000      0.000
REMARK SMILES C/C(=N\NC(N)=O)c1nnn(-c2ccc(C(=O)NCCCNC(=O)c3ccc(-c4c5nc(c(-c6cccc(S(=O)(=O)[O-])c6F)c6ccc([nH]6)c(-c6cccc(S(=O)(=O)[O-])c6F)c6nc(c(-c7cccc(S(=O)(=O)[O-])c7F)c7ccc4[nH]7)C=C6)C=C5)cc3)cc2)c1C
REMARK SMILES IDX 20 1 19 2 18 3 16 4 17 5 15 7 12 8 13 9 89 10 14 11 88 12
REMARK SMILES IDX 11 13 8 14 9 15 90 16 10 17 91 18 2 19 1 20 3 21 4 22 5 23
REMARK SMILES IDX 6 25 7 26 21 29 22 30 23 31 24 33 25 34 26 35 87 36 27 37
REMARK SMILES IDX 86 38 28 39 29 40 30 41 80 42 31 43 85 44 79 45 81 46 32 47
REMARK SMILES IDX 84 48 78 49 77 50 33 52 65 53 45 54 64 55 46 56 49 57 63 58
REMARK SMILES IDX 82 59 47 60 48 61 62 63 83 64 50 65 34 66 35 67 43 68 36 69
REMARK SMILES IDX 38 70 44 71 37 72 39 73 40 74 41 75 42 76 66 77 67 78 75 79
REMARK SMILES IDX 68 80 70 81 76 82 69 83 71 84 72 85 73 86 74 87 51 88 52 89
REMARK SMILES IDX 60 90 53 91 55 92 61 93 54 94 56 95 57 96 58 97 59 98
REMARK H PARENT 18 6 4 24 6 27 6 28 22 32 81 51 49 62
REMARK Flexibility Score: inf
ROOT
ATOM      1  C   UNL A   1      38.106  19.468  25.021  1.00  0.00     0.042 C 
ENDROOT
BRANCH   1   2
ATOM      2  C   UNL A   1      36.923  20.443  24.946  1.00  0.00     0.118 C 
BRANCH   2   3
ATOM      3  N   UNL A   1      35.637  19.768  25.037  1.00  0.00    -0.352 N 
ATOM      4  C   UNL A   1      34.347  20.243  25.072  1.00  0.00     0.251 C 
ATOM      5  O   UNL A   1      33.429  19.433  24.955  1.00  0.00    -0.269 OA
ATOM      6  H   UNL A   1      35.703  18.786  25.082  1.00  0.00     0.163 HD
BRANCH   4   7
ATOM      7  C   UNL A   1      34.012  21.691  25.165  1.00  0.00     0.039 A 
ATOM      8  C   UNL A   1      33.152  24.315  25.549  1.00  0.00     0.067 A 
ATOM      9  C   UNL A   1      33.828  23.669  26.584  1.00  0.00     0.029 A 
ATOM     10  C   UNL A   1      33.016  23.722  24.298  1.00  0.00     0.029 A 
ATOM     11  C   UNL A   1      34.232  22.342  26.392  1.00  0.00     0.016 A 
ATOM     12  C   UNL A   1      33.492  22.432  24.103  1.00  0.00     0.016 A 
BRANCH   8  13
ATOM     13  N   UNL A   1      32.489  25.527  25.790  1.00  0.00    -0.217 N 
ATOM     14  C   UNL A   1      31.769  27.573  25.696  1.00  0.00     0.132 A 
ATOM     15  N   UNL A   1      30.987  26.871  26.575  1.00  0.00    -0.128 NA
ATOM     16  C   UNL A   1      32.736  26.738  25.168  1.00  0.00     0.071 A 
ATOM     17  N   UNL A   1      31.386  25.607  26.562  1.00  0.00    -0.061 NA
ATOM     18  C   UNL A   1      33.698  26.937  24.056  1.00  0.00     0.069 C 
BRANCH  14  19
ATOM     19  C   UNL A   1      31.413  28.902  25.237  1.00  0.00     0.087 C 
ATOM     20  C   UNL A   1      31.895  30.027  26.111  1.00  0.00     0.071 C 
ATOM     21  N   UNL A   1      30.758  28.951  24.115  1.00  0.00    -0.174 NA
BRANCH  21  22
ATOM     22  N   UNL A   1      30.340  30.111  23.529  1.00  0.00    -0.229 N 
ATOM     23  C   UNL A   1      29.718  30.291  22.320  1.00  0.00     0.332 C 
ATOM     24  H   UNL A   1      30.507  30.932  24.047  1.00  0.00     0.195 HD
ATOM     25  N   UNL A   1      29.401  31.594  22.083  1.00  0.00    -0.350 N 
ATOM     26  O   UNL A   1      29.428  29.436  21.482  1.00  0.00    -0.247 OA
ATOM     27  H   UNL A   1      29.629  32.283  22.747  1.00  0.00     0.161 HD
ATOM     28  H   UNL A   1      28.944  31.844  21.248  1.00  0.00     0.161 HD
ENDBRANCH  21  22
ENDBRANCH  14  19
ENDBRANCH   8  13
ENDBRANCH   4   7
ENDBRANCH   2   3
ENDBRANCH   1   2
BRANCH   1  29
ATOM     29  C   UNL A   1      39.277  20.034  25.799  1.00  0.00     0.118 C 
BRANCH  29  30
ATOM     30  N   UNL A   1      40.411  19.103  25.844  1.00  0.00    -0.352 N 
ATOM     31  C   UNL A   1      41.752  19.395  25.992  1.00  0.00     0.251 C 
ATOM     32  H   UNL A   1      40.186  18.149  25.758  1.00  0.00     0.163 HD
ATOM     33  O   UNL A   1      42.607  18.578  25.667  1.00  0.00    -0.269 OA
BRANCH  31  34
ATOM     34  C   UNL A   1      42.134  20.702  26.550  1.00  0.00     0.039 A 
ATOM     35  C   UNL A   1      42.604  21.741  25.738  1.00  0.00     0.014 A 
ATOM     36  C   UNL A   1      41.972  20.884  27.918  1.00  0.00     0.014 A 
ATOM     37  C   UNL A   1      42.828  22.991  26.312  1.00  0.00     0.010 A 
ATOM     38  C   UNL A   1      42.005  22.147  28.436  1.00  0.00     0.010 A 
ATOM     39  C   UNL A   1      42.507  23.186  27.662  1.00  0.00    -0.014 A 
BRANCH  39  40
ATOM     40  C   UNL A   1      42.552  24.502  28.286  1.00  0.00     0.031 A 
ATOM     41  C   UNL A   1      41.331  25.316  28.044  1.00  0.00     0.074 A 
ATOM     42  C   UNL A   1      43.475  24.792  29.232  1.00  0.00     0.049 A 
ATOM     43  N   UNL A   1      41.219  26.387  27.328  1.00  0.00    -0.248 NA
ATOM     44  C   UNL A   1      40.037  24.767  28.490  1.00  0.00     0.031 C 
ATOM     45  C   UNL A   1      44.511  23.891  29.766  1.00  0.00     0.029 A 
ATOM     46  N   UNL A   1      43.582  25.878  30.046  1.00  0.00    -0.354 N 
ATOM     47  C   UNL A   1      39.893  26.794  27.488  1.00  0.00     0.074 A 
ATOM     48  C   UNL A   1      39.182  25.635  27.945  1.00  0.00     0.031 C 
ATOM     49  C   UNL A   1      44.939  24.350  30.961  1.00  0.00     0.029 A 
ATOM     50  C   UNL A   1      44.353  25.654  31.188  1.00  0.00     0.049 A 
ATOM     51  H   UNL A   1      43.155  26.742  29.846  1.00  0.00     0.167 HD
ATOM     52  C   UNL A   1      39.578  28.119  27.575  1.00  0.00     0.034 A 
ATOM     53  C   UNL A   1      44.471  26.470  32.263  1.00  0.00     0.034 A 
ATOM     54  C   UNL A   1      40.713  28.925  27.190  1.00  0.00     0.049 A 
ATOM     55  C   UNL A   1      44.034  27.812  31.830  1.00  0.00     0.074 A 
ATOM     56  C   UNL A   1      41.457  29.132  26.051  1.00  0.00     0.029 A 
ATOM     57  N   UNL A   1      41.461  29.375  28.249  1.00  0.00    -0.354 N 
ATOM     58  N   UNL A   1      44.683  28.528  30.956  1.00  0.00    -0.248 NA
ATOM     59  C   UNL A   1      42.660  28.218  32.081  1.00  0.00     0.031 C 
ATOM     60  C   UNL A   1      42.779  29.416  26.507  1.00  0.00     0.029 A 
ATOM     61  C   UNL A   1      42.779  29.431  27.903  1.00  0.00     0.049 A 
ATOM     62  H   UNL A   1      41.098  29.620  29.131  1.00  0.00     0.167 HD
ATOM     63  C   UNL A   1      43.682  29.137  30.218  1.00  0.00     0.074 A 
ATOM     64  C   UNL A   1      42.494  29.064  31.060  1.00  0.00     0.031 C 
ATOM     65  C   UNL A   1      43.846  29.343  28.878  1.00  0.00     0.034 A 
BRANCH  52  66
ATOM     66  C   UNL A   1      38.492  28.729  28.462  1.00  0.00     0.023 A 
ATOM     67  C   UNL A   1      37.598  29.627  27.825  1.00  0.00     0.012 A 
ATOM     68  C   UNL A   1      38.480  28.735  29.876  1.00  0.00     0.148 A 
ATOM     69  C   UNL A   1      36.827  30.549  28.545  1.00  0.00     0.002 A 
ATOM     70  C   UNL A   1      37.670  29.614  30.591  1.00  0.00     0.091 A 
ATOM     71  F   UNL A   1      39.323  27.971  30.566  1.00  0.00    -0.205 F 
ATOM     72  C   UNL A   1      36.870  30.549  29.931  1.00  0.00     0.022 A 
BRANCH  70  73
ATOM     73  S   UNL A   1      37.662  29.643  32.391  1.00  0.00     0.127 S 
ATOM     74  O   UNL A   1      38.988  30.179  32.678  1.00  0.00    -0.237 OA
ATOM     75  O   UNL A   1      36.550  30.554  32.668  1.00  0.00    -0.237 OA
ATOM     76  O   UNL A   1      37.426  28.267  32.810  1.00  0.00    -0.744 OA
ENDBRANCH  70  73
ENDBRANCH  52  66
BRANCH  53  77
ATOM     77  C   UNL A   1      44.764  26.183  33.685  1.00  0.00     0.023 A 
ATOM     78  C   UNL A   1      46.092  26.263  34.151  1.00  0.00     0.012 A 
ATOM     79  C   UNL A   1      43.722  26.132  34.635  1.00  0.00     0.148 A 
ATOM     80  C   UNL A   1      46.373  26.345  35.520  1.00  0.00     0.002 A 
ATOM     81  C   UNL A   1      44.007  26.217  35.997  1.00  0.00     0.091 A 
ATOM     82  F   UNL A   1      42.457  26.094  34.198  1.00  0.00    -0.205 F 
ATOM     83  C   UNL A   1      45.330  26.337  36.441  1.00  0.00     0.022 A 
BRANCH  81  84
ATOM     84  S   UNL A   1      42.719  26.263  37.250  1.00  0.00     0.127 S 
ATOM     85  O   UNL A   1      41.952  27.444  36.850  1.00  0.00    -0.237 OA
ATOM     86  O   UNL A   1      42.042  24.988  37.030  1.00  0.00    -0.237 OA
ATOM     87  O   UNL A   1      43.415  26.399  38.524  1.00  0.00    -0.744 OA
ENDBRANCH  81  84
ENDBRANCH  53  77
BRANCH  65  88
ATOM     88  C   UNL A   1      45.248  29.273  28.334  1.00  0.00     0.023 A 
ATOM     89  C   UNL A   1      46.187  30.313  28.488  1.00  0.00     0.012 A 
ATOM     90  C   UNL A   1      45.662  28.057  27.769  1.00  0.00     0.148 A 
ATOM     91  C   UNL A   1      47.509  30.147  28.065  1.00  0.00     0.002 A 
ATOM     92  C   UNL A   1      46.986  27.878  27.396  1.00  0.00     0.091 A 
ATOM     93  F   UNL A   1      44.750  27.083  27.628  1.00  0.00    -0.205 F 
ATOM     94  C   UNL A   1      47.912  28.923  27.532  1.00  0.00     0.022 A 
BRANCH  92  95
ATOM     95  S   UNL A   1      47.582  26.286  26.828  1.00  0.00     0.127 S 
ATOM     96  O   UNL A   1      49.009  26.542  26.645  1.00  0.00    -0.237 OA
ATOM     97  O   UNL A   1      47.255  25.408  27.953  1.00  0.00    -0.237 OA
ATOM     98  O   UNL A   1      46.835  25.991  25.611  1.00  0.00    -0.744 OA
ENDBRANCH  92  95
ENDBRANCH  65  88
ENDBRANCH  39  40
ENDBRANCH  31  34
ENDBRANCH  29  30
ENDBRANCH   1  29
TORSDOF 16
ENDMDL
MODEL 2
REMARK VINA RESULT:     -13.4      3.782      9.892
REMARK SMILES C/C(=N\NC(N)=O)c1nnn(-c2ccc(C(=O)NCCCNC(=O)c3ccc(-c4c5nc(c(-c6cccc(S(=O)(=O)[O-])c6F)c6ccc([nH]6)c(-c6cccc(S(=O)(=O)[O-])c6F)c6nc(c(-c7cccc(S(=O)(=O)[O-])c7F)c7ccc4[nH]7)C=C6)C=C5)cc3)cc2)c1C
REMARK SMILES IDX 20 1 19 2 18 3 16 4 17 5 15 7 12 8 13 9 89 10 14 11 88 12
REMARK SMILES IDX 11 13 8 14 9 15 90 16 10 17 91 18 2 19 1 20 3 21 4 22 5 23
REMARK SMILES IDX 6 25 7 26 21 29 22 30 23 31 24 33 25 34 26 35 87 36 27 37
REMARK SMILES IDX 86 38 28 39 29 40 30 41 80 42 31 43 85 44 79 45 81 46 32 47
REMARK SMILES IDX 84 48 78 49 77 50 33 52 65 53 45 54 64 55 46 56 49 57 63 58
REMARK SMILES IDX 82 59 47 60 48 61 62 63 83 64 50 65 34 66 35 67 43 68 36 69
REMARK SMILES IDX 38 70 44 71 37 72 39 73 40 74 41 75 42 76 66 77 67 78 75 79
REMARK SMILES IDX 68 80 70 81 76 82 69 83 71 84 72 85 73 86 74 87 51 88 52 89
REMARK SMILES IDX 60 90 53 91 55 92 61 93 54 94 56 95 57 96 58 97 59 98
REMARK H PARENT 18 6 4 24 6 27 6 28 22 32 81 51 49 62
REMARK Flexibility Score: inf
ROOT
ATOM      1  C   UNL A   1      31.354  31.929  26.643  1.00  0.00     0.042 C 
ENDROOT
BRANCH   1   2
ATOM      2  C   UNL A   1      31.616  30.598  25.923  1.00  0.00     0.118 C 
BRANCH   2   3
ATOM      3  N   UNL A   1      30.911  30.503  24.654  1.00  0.00    -0.352 N 
ATOM      4  C   UNL A   1      30.620  29.434  23.838  1.00  0.00     0.251 C 
ATOM      5  O   UNL A   1      29.836  29.613  22.909  1.00  0.00    -0.269 OA
ATOM      6  H   UNL A   1      30.580  31.366  24.314  1.00  0.00     0.163 HD
BRANCH   4   7
ATOM      7  C   UNL A   1      31.146  28.060  24.074  1.00  0.00     0.039 A 
ATOM      8  C   UNL A   1      32.180  25.474  24.195  1.00  0.00     0.067 A 
ATOM      9  C   UNL A   1      33.045  26.535  23.925  1.00  0.00     0.029 A 
ATOM     10  C   UNL A   1      30.848  25.699  24.529  1.00  0.00     0.029 A 
ATOM     11  C   UNL A   1      32.512  27.826  23.839  1.00  0.00     0.016 A 
ATOM     12  C   UNL A   1      30.355  26.998  24.514  1.00  0.00     0.016 A 
BRANCH   8  13
ATOM     13  N   UNL A   1      32.610  24.152  24.014  1.00  0.00    -0.217 N 
ATOM     14  C   UNL A   1      33.350  22.133  24.312  1.00  0.00     0.132 A 
ATOM     15  N   UNL A   1      32.845  22.233  23.043  1.00  0.00    -0.128 NA
ATOM     16  C   UNL A   1      33.206  23.343  24.965  1.00  0.00     0.071 A 
ATOM     17  N   UNL A   1      32.324  23.445  22.902  1.00  0.00    -0.061 NA
ATOM     18  C   UNL A   1      33.410  23.718  26.386  1.00  0.00     0.069 C 
BRANCH  14  19
ATOM     19  C   UNL A   1      33.713  20.858  24.900  1.00  0.00     0.087 C 
ATOM     20  C   UNL A   1      35.190  20.577  24.949  1.00  0.00     0.071 C 
ATOM     21  N   UNL A   1      32.723  20.142  25.342  1.00  0.00    -0.174 NA
BRANCH  21  22
ATOM     22  N   UNL A   1      32.870  18.917  25.925  1.00  0.00    -0.229 N 
ATOM     23  C   UNL A   1      32.873  17.677  25.339  1.00  0.00     0.332 C 
ATOM     24  H   UNL A   1      32.993  18.924  26.903  1.00  0.00     0.195 HD
ATOM     25  N   UNL A   1      33.097  16.675  26.234  1.00  0.00    -0.350 N 
ATOM     26  O   UNL A   1      32.711  17.400  24.150  1.00  0.00    -0.247 OA
ATOM     27  H   UNL A   1      33.227  16.887  27.186  1.00  0.00     0.161 HD
ATOM     28  H   UNL A   1      33.128  15.740  25.928  1.00  0.00     0.161 HD
ENDBRANCH  21  22
ENDBRANCH  14  19
ENDBRANCH   8  13
ENDBRANCH   4   7
ENDBRANCH   2   3
ENDBRANCH   1   2
BRANCH   1  29
ATOM     29  C   UNL A   1      32.621  32.543  27.204  1.00  0.00     0.118 C 
BRANCH  29  30
ATOM     30  N   UNL A   1      32.412  33.925  27.652  1.00  0.00    -0.352 N 
ATOM     31  C   UNL A   1      33.072  34.609  28.653  1.00  0.00     0.251 C 
ATOM     32  H   UNL A   1      31.712  34.428  27.177  1.00  0.00     0.163 HD
ATOM     33  O   UNL A   1      32.576  35.613  29.153  1.00  0.00    -0.269 OA
BRANCH  31  34
ATOM     34  C   UNL A   1      34.382  34.112  29.104  1.00  0.00     0.039 A 
ATOM     35  C   UNL A   1      34.529  33.408  30.304  1.00  0.00     0.014 A 
ATOM     36  C   UNL A   1      35.470  34.334  28.270  1.00  0.00     0.014 A 
ATOM     37  C   UNL A   1      35.772  32.857  30.610  1.00  0.00     0.010 A 
ATOM     38  C   UNL A   1      36.626  33.636  28.473  1.00  0.00     0.010 A 
ATOM     39  C   UNL A   1      36.810  32.964  29.676  1.00  0.00    -0.014 A 
BRANCH  39  40
ATOM     40  C   UNL A   1      38.081  32.271  29.848  1.00  0.00     0.031 A 
ATOM     41  C   UNL A   1      38.064  30.868  29.352  1.00  0.00     0.074 A 
ATOM     42  C   UNL A   1      39.213  32.954  30.136  1.00  0.00     0.049 A 
ATOM     43  N   UNL A   1      38.130  29.780  30.045  1.00  0.00    -0.248 NA
ATOM     44  C   UNL A   1      37.738  30.643  27.932  1.00  0.00     0.031 C 
ATOM     45  C   UNL A   1      39.350  34.412  30.301  1.00  0.00     0.029 A 
ATOM     46  N   UNL A   1      40.506  32.531  30.168  1.00  0.00    -0.354 N 
ATOM     47  C   UNL A   1      38.148  28.749  29.104  1.00  0.00     0.074 A 
ATOM     48  C   UNL A   1      37.619  29.315  27.897  1.00  0.00     0.031 C 
ATOM     49  C   UNL A   1      40.643  34.766  30.140  1.00  0.00     0.029 A 
ATOM     50  C   UNL A   1      41.441  33.561  30.047  1.00  0.00     0.049 A 
ATOM     51  H   UNL A   1      40.758  31.585  30.267  1.00  0.00     0.167 HD
ATOM     52  C   UNL A   1      38.922  27.642  29.299  1.00  0.00     0.034 A 
ATOM     53  C   UNL A   1      42.774  33.431  29.847  1.00  0.00     0.034 A 
ATOM     54  C   UNL A   1      39.407  27.610  30.660  1.00  0.00     0.049 A 
ATOM     55  C   UNL A   1      43.131  32.053  30.240  1.00  0.00     0.074 A 
ATOM     56  C   UNL A   1      38.859  27.502  31.919  1.00  0.00     0.029 A 
ATOM     57  N   UNL A   1      40.674  28.114  30.812  1.00  0.00    -0.354 N 
ATOM     58  N   UNL A   1      43.064  31.619  31.466  1.00  0.00    -0.248 NA
ATOM     59  C   UNL A   1      43.206  31.027  29.212  1.00  0.00     0.031 C 
ATOM     60  C   UNL A   1      39.719  28.255  32.773  1.00  0.00     0.029 A 
ATOM     61  C   UNL A   1      40.788  28.742  32.018  1.00  0.00     0.049 A 
ATOM     62  H   UNL A   1      41.396  28.035  30.147  1.00  0.00     0.167 HD
ATOM     63  C   UNL A   1      42.606  30.319  31.333  1.00  0.00     0.074 A 
ATOM     64  C   UNL A   1      42.892  29.958  29.949  1.00  0.00     0.031 C 
ATOM     65  C   UNL A   1      41.754  29.793  32.261  1.00  0.00     0.034 A 
BRANCH  52  66
ATOM     66  C   UNL A   1      39.677  26.869  28.217  1.00  0.00     0.023 A 
ATOM     67  C   UNL A   1      39.546  25.458  28.253  1.00  0.00     0.012 A 
ATOM     68  C   UNL A   1      40.713  27.379  27.400  1.00  0.00     0.148 A 
ATOM     69  C   UNL A   1      40.456  24.608  27.611  1.00  0.00     0.002 A 
ATOM     70  C   UNL A   1      41.582  26.532  26.717  1.00  0.00     0.091 A 
ATOM     71  F   UNL A   1      40.954  28.687  27.346  1.00  0.00    -0.205 F 
ATOM     72  C   UNL A   1      41.482  25.146  26.849  1.00  0.00     0.022 A 
BRANCH  70  73
ATOM     73  S   UNL A   1      42.916  27.171  25.691  1.00  0.00     0.127 S 
ATOM     74  O   UNL A   1      43.487  25.938  25.158  1.00  0.00    -0.237 OA
ATOM     75  O   UNL A   1      42.181  27.986  24.723  1.00  0.00    -0.237 OA
ATOM     76  O   UNL A   1      43.775  27.936  26.586  1.00  0.00    -0.744 OA
ENDBRANCH  70  73
ENDBRANCH  52  66
BRANCH  53  77
ATOM     77  C   UNL A   1      43.759  34.319  29.190  1.00  0.00     0.023 A 
ATOM     78  C   UNL A   1      44.456  35.273  29.958  1.00  0.00     0.012 A 
ATOM     79  C   UNL A   1      44.231  34.030  27.892  1.00  0.00     0.148 A 
ATOM     80  C   UNL A   1      45.619  35.882  29.472  1.00  0.00     0.002 A 
ATOM     81  C   UNL A   1      45.391  34.635  27.414  1.00  0.00     0.091 A 
ATOM     82  F   UNL A   1      43.595  33.097  27.172  1.00  0.00    -0.205 F 
ATOM     83  C   UNL A   1      46.094  35.552  28.207  1.00  0.00     0.022 A 
BRANCH  81  84
ATOM     84  S   UNL A   1      46.101  34.231  25.812  1.00  0.00     0.127 S 
ATOM     85  O   UNL A   1      47.188  35.206  25.711  1.00  0.00    -0.237 OA
ATOM     86  O   UNL A   1      46.531  32.851  26.016  1.00  0.00    -0.237 OA
ATOM     87  O   UNL A   1      45.027  34.424  24.846  1.00  0.00    -0.744 OA
ENDBRANCH  81  84
ENDBRANCH  53  77
BRANCH  65  88
ATOM     88  C   UNL A   1      41.664  30.491  33.592  1.00  0.00     0.023 A 
ATOM     89  C   UNL A   1      42.637  30.350  34.603  1.00  0.00     0.012 A 
ATOM     90  C   UNL A   1      40.630  31.423  33.764  1.00  0.00     0.148 A 
ATOM     91  C   UNL A   1      42.562  31.112  35.773  1.00  0.00     0.002 A 
ATOM     92  C   UNL A   1      40.589  32.213  34.903  1.00  0.00     0.091 A 
ATOM     93  F   UNL A   1      39.714  31.538  32.790  1.00  0.00    -0.205 F 
ATOM     94  C   UNL A   1      41.546  32.054  35.917  1.00  0.00     0.022 A 
BRANCH  92  95
ATOM     95  S   UNL A   1      39.381  33.527  35.077  1.00  0.00     0.127 S 
ATOM     96  O   UNL A   1      39.782  34.145  36.339  1.00  0.00    -0.237 OA
ATOM     97  O   UNL A   1      39.630  34.343  33.888  1.00  0.00    -0.237 OA
ATOM     98  O   UNL A   1      38.078  32.872  35.084  1.00  0.00    -0.744 OA
ENDBRANCH  92  95
ENDBRANCH  65  88
ENDBRANCH  39  40
ENDBRANCH  31  34
ENDBRANCH  29  30
ENDBRANCH   1  29
TORSDOF 16
ENDMDL
MODEL 3
REMARK VINA RESULT:     -13.0      1.843      2.162
REMARK SMILES C/C(=N\NC(N)=O)c1nnn(-c2ccc(C(=O)NCCCNC(=O)c3ccc(-c4c5nc(c(-c6cccc(S(=O)(=O)[O-])c6F)c6ccc([nH]6)c(-c6cccc(S(=O)(=O)[O-])c6F)c6nc(c(-c7cccc(S(=O)(=O)[O-])c7F)c7ccc4[nH]7)C=C6)C=C5)cc3)cc2)c1C
REMARK SMILES IDX 20 1 19 2 18 3 16 4 17 5 15 7 12 8 13 9 89 10 14 11 88 12
REMARK SMILES IDX 11 13 8 14 9 15 90 16 10 17 91 18 2 19 1 20 3 21 4 22 5 23
REMARK SMILES IDX 6 25 7 26 21 29 22 30 23 31 24 33 25 34 26 35 87 36 27 37
REMARK SMILES IDX 86 38 28 39 29 40 30 41 80 42 31 43 85 44 79 45 81 46 32 47
REMARK SMILES IDX 84 48 78 49 77 50 33 52 65 53 45 54 64 55 46 56 49 57 63 58
REMARK SMILES IDX 82 59 47 60 48 61 62 63 83 64 50 65 34 66 35 67 43 68 36 69
REMARK SMILES IDX 38 70 44 71 37 72 39 73 40 74 41 75 42 76 66 77 67 78 75 79
REMARK SMILES IDX 68 80 70 81 76 82 69 83 71 84 72 85 73 86 74 87 51 88 52 89
REMARK SMILES IDX 60 90 53 91 55 92 61 93 54 94 56 95 57 96 58 97 59 98
REMARK H PARENT 18 6 4 24 6 27 6 28 22 32 81 51 49 62
REMARK Flexibility Score: inf
ROOT
ATOM      1  C   UNL A   1      37.771  19.804  24.838  1.00  0.00     0.042 C 
ENDROOT
BRANCH   1   2
ATOM      2  C   UNL A   1      36.538  20.706  24.985  1.00  0.00     0.118 C 
BRANCH   2   3
ATOM      3  N   UNL A   1      35.319  19.949  25.227  1.00  0.00    -0.352 N 
ATOM      4  C   UNL A   1      33.990  20.300  25.175  1.00  0.00     0.251 C 
ATOM      5  O   UNL A   1      33.152  19.402  25.239  1.00  0.00    -0.269 OA
ATOM      6  H   UNL A   1      35.475  19.009  25.475  1.00  0.00     0.163 HD
BRANCH   4   7
ATOM      7  C   UNL A   1      33.522  21.699  24.968  1.00  0.00     0.039 A 
ATOM      8  C   UNL A   1      32.420  24.254  24.805  1.00  0.00     0.067 A 
ATOM      9  C   UNL A   1      33.144  23.903  25.944  1.00  0.00     0.029 A 
ATOM     10  C   UNL A   1      32.351  23.403  23.706  1.00  0.00     0.029 A 
ATOM     11  C   UNL A   1      33.670  22.609  26.030  1.00  0.00     0.016 A 
ATOM     12  C   UNL A   1      32.946  22.150  23.780  1.00  0.00     0.016 A 
BRANCH   8  13
ATOM     13  N   UNL A   1      31.646  25.423  24.795  1.00  0.00    -0.217 N 
ATOM     14  C   UNL A   1      30.938  27.462  24.560  1.00  0.00     0.132 A 
ATOM     15  N   UNL A   1      29.866  26.652  24.824  1.00  0.00    -0.128 NA
ATOM     16  C   UNL A   1      32.094  26.705  24.524  1.00  0.00     0.071 A 
ATOM     17  N   UNL A   1      30.301  25.401  24.885  1.00  0.00    -0.061 NA
ATOM     18  C   UNL A   1      33.475  27.046  24.103  1.00  0.00     0.069 C 
BRANCH  14  19
ATOM     19  C   UNL A   1      30.779  28.838  24.128  1.00  0.00     0.087 C 
ATOM     20  C   UNL A   1      31.259  29.872  25.108  1.00  0.00     0.071 C 
ATOM     21  N   UNL A   1      30.279  28.998  22.938  1.00  0.00    -0.174 NA
BRANCH  21  22
ATOM     22  N   UNL A   1      30.057  30.216  22.364  1.00  0.00    -0.229 N 
ATOM     23  C   UNL A   1      29.035  30.606  21.537  1.00  0.00     0.332 C 
ATOM     24  H   UNL A   1      30.722  30.912  22.574  1.00  0.00     0.195 HD
ATOM     25  N   UNL A   1      29.112  31.922  21.195  1.00  0.00    -0.350 N 
ATOM     26  O   UNL A   1      28.104  29.924  21.108  1.00  0.00    -0.247 OA
ATOM     27  H   UNL A   1      29.851  32.476  21.533  1.00  0.00     0.161 HD
ATOM     28  H   UNL A   1      28.426  32.319  20.609  1.00  0.00     0.161 HD
ENDBRANCH  21  22
ENDBRANCH  14  19
ENDBRANCH   8  13
ENDBRANCH   4   7
ENDBRANCH   2   3
ENDBRANCH   1   2
BRANCH   1  29
ATOM     29  C   UNL A   1      38.950  20.296  25.654  1.00  0.00     0.118 C 
BRANCH  29  30
ATOM     30  N   UNL A   1      39.979  19.262  25.816  1.00  0.00    -0.352 N 
ATOM     31  C   UNL A   1      41.330  19.428  26.050  1.00  0.00     0.251 C 
ATOM     32  H   UNL A   1      39.665  18.332  25.748  1.00  0.00     0.163 HD
ATOM     33  O   UNL A   1      42.118  18.518  25.818  1.00  0.00    -0.269 OA
BRANCH  31  34
ATOM     34  C   UNL A   1      41.801  20.714  26.586  1.00  0.00     0.039 A 
ATOM     35  C   UNL A   1      42.300  21.722  25.752  1.00  0.00     0.014 A 
ATOM     36  C   UNL A   1      41.695  20.912  27.957  1.00  0.00     0.014 A 
ATOM     37  C   UNL A   1      42.612  22.960  26.309  1.00  0.00     0.010 A 
ATOM     38  C   UNL A   1      41.816  22.174  28.465  1.00  0.00     0.010 A 
ATOM     39  C   UNL A   1      42.348  23.179  27.667  1.00  0.00    -0.014 A 
BRANCH  39  40
ATOM     40  C   UNL A   1      42.487  24.494  28.281  1.00  0.00     0.031 A 
ATOM     41  C   UNL A   1      41.342  25.403  28.003  1.00  0.00     0.074 A 
ATOM     42  C   UNL A   1      43.409  24.718  29.246  1.00  0.00     0.049 A 
ATOM     43  N   UNL A   1      41.335  26.471  27.274  1.00  0.00    -0.248 NA
ATOM     44  C   UNL A   1      39.998  24.967  28.422  1.00  0.00     0.031 C 
ATOM     45  C   UNL A   1      44.354  23.741  29.812  1.00  0.00     0.029 A 
ATOM     46  N   UNL A   1      43.586  25.800  30.052  1.00  0.00    -0.354 N 
ATOM     47  C   UNL A   1      40.044  26.987  27.399  1.00  0.00     0.074 A 
ATOM     48  C   UNL A   1      39.230  25.895  27.849  1.00  0.00     0.031 C 
ATOM     49  C   UNL A   1      44.790  24.176  31.013  1.00  0.00     0.029 A 
ATOM     50  C   UNL A   1      44.308  25.526  31.215  1.00  0.00     0.049 A 
ATOM     51  H   UNL A   1      43.235  26.694  29.835  1.00  0.00     0.167 HD
ATOM     52  C   UNL A   1      39.837  28.334  27.467  1.00  0.00     0.034 A 
ATOM     53  C   UNL A   1      44.468  26.341  32.285  1.00  0.00     0.034 A 
ATOM     54  C   UNL A   1      41.043  29.041  27.102  1.00  0.00     0.049 A 
ATOM     55  C   UNL A   1      44.153  27.710  31.829  1.00  0.00     0.074 A 
ATOM     56  C   UNL A   1      41.828  29.174  25.979  1.00  0.00     0.029 A 
ATOM     57  N   UNL A   1      41.801  29.439  28.175  1.00  0.00    -0.354 N 
ATOM     58  N   UNL A   1      44.879  28.361  30.965  1.00  0.00    -0.248 NA
ATOM     59  C   UNL A   1      42.812  28.230  32.043  1.00  0.00     0.031 C 
ATOM     60  C   UNL A   1      43.158  29.353  26.464  1.00  0.00     0.029 A 
ATOM     61  C   UNL A   1      43.127  29.384  27.859  1.00  0.00     0.049 A 
ATOM     62  H   UNL A   1      41.439  29.723  29.045  1.00  0.00     0.167 HD
ATOM     63  C   UNL A   1      43.949  29.041  30.197  1.00  0.00     0.074 A 
ATOM     64  C   UNL A   1      42.739  29.076  31.012  1.00  0.00     0.031 C 
ATOM     65  C   UNL A   1      44.160  29.219  28.860  1.00  0.00     0.034 A 
BRANCH  52  66
ATOM     66  C   UNL A   1      38.785  29.042  28.322  1.00  0.00     0.023 A 
ATOM     67  C   UNL A   1      38.714  28.643  29.680  1.00  0.00     0.012 A 
ATOM     68  C   UNL A   1      37.697  29.806  27.839  1.00  0.00     0.148 A 
ATOM     69  C   UNL A   1      37.585  28.888  30.472  1.00  0.00     0.002 A 
ATOM     70  C   UNL A   1      36.600  30.097  28.646  1.00  0.00     0.091 A 
ATOM     71  F   UNL A   1      37.643  30.178  26.562  1.00  0.00    -0.205 F 
ATOM     72  C   UNL A   1      36.522  29.609  29.951  1.00  0.00     0.022 A 
BRANCH  70  73
ATOM     73  S   UNL A   1      35.201  31.052  28.034  1.00  0.00     0.127 S 
ATOM     74  O   UNL A   1      34.450  31.283  29.263  1.00  0.00    -0.237 OA
ATOM     75  O   UNL A   1      35.868  32.231  27.481  1.00  0.00    -0.237 OA
ATOM     76  O   UNL A   1      34.550  30.210  27.038  1.00  0.00    -0.744 OA
ENDBRANCH  70  73
ENDBRANCH  52  66
BRANCH  53  77
ATOM     77  C   UNL A   1      44.703  26.047  33.716  1.00  0.00     0.023 A 
ATOM     78  C   UNL A   1      46.021  26.042  34.217  1.00  0.00     0.012 A 
ATOM     79  C   UNL A   1      43.636  26.073  34.638  1.00  0.00     0.148 A 
ATOM     80  C   UNL A   1      46.270  26.115  35.593  1.00  0.00     0.002 A 
ATOM     81  C   UNL A   1      43.889  26.150  36.006  1.00  0.00     0.091 A 
ATOM     82  F   UNL A   1      42.383  26.116  34.168  1.00  0.00    -0.205 F 
ATOM     83  C   UNL A   1      45.206  26.184  36.485  1.00  0.00     0.022 A 
BRANCH  81  84
ATOM     84  S   UNL A   1      42.575  26.291  37.225  1.00  0.00     0.127 S 
ATOM     85  O   UNL A   1      41.838  25.044  37.018  1.00  0.00    -0.237 OA
ATOM     86  O   UNL A   1      43.331  26.358  38.472  1.00  0.00    -0.237 OA
ATOM     87  O   UNL A   1      41.835  27.495  36.867  1.00  0.00    -0.744 OA
ENDBRANCH  81  84
ENDBRANCH  53  77
BRANCH  65  88
ATOM     88  C   UNL A   1      45.563  29.028  28.351  1.00  0.00     0.023 A 
ATOM     89  C   UNL A   1      46.069  27.779  27.935  1.00  0.00     0.012 A 
ATOM     90  C   UNL A   1      46.345  30.178  28.163  1.00  0.00     0.148 A 
ATOM     91  C   UNL A   1      47.341  27.681  27.363  1.00  0.00     0.002 A 
ATOM     92  C   UNL A   1      47.585  30.084  27.549  1.00  0.00     0.091 A 
ATOM     93  F   UNL A   1      45.845  31.355  28.570  1.00  0.00    -0.205 F 
ATOM     94  C   UNL A   1      48.093  28.836  27.156  1.00  0.00     0.022 A 
BRANCH  92  95
ATOM     95  S   UNL A   1      48.532  31.550  27.143  1.00  0.00     0.127 S 
ATOM     96  O   UNL A   1      47.600  32.292  26.298  1.00  0.00    -0.237 OA
ATOM     97  O   UNL A   1      48.772  32.143  28.460  1.00  0.00    -0.237 OA
ATOM     98  O   UNL A   1      49.740  31.074  26.479  1.00  0.00    -0.744 OA
ENDBRANCH  92  95
ENDBRANCH  65  88
ENDBRANCH  39  40
ENDBRANCH  31  34
ENDBRANCH  29  30
ENDBRANCH   1  29
TORSDOF 16
ENDMDL
