MODEL 1
REMARK VINA RESULT:     -12.3      0.000      0.000
REMARK SMILES O=C(NCCCNC(=O)[C@@H]1O[C@H](OC(=O)c2cccnc2)[C@@H](O)[C@H](O)[C@H]1O)c1ccc(-c2c3nc(c(-c4cccc(S(=O)(=O)[O-])c4F)c4ccc([nH]4)c(-c4cccc(S(=O)(=O)[O-])c4F)c4nc(c(-c5cccc(S(=O)(=O)[O-])c5F)c5ccc2[nH]5)C=C4)C=C3)cc1
REMARK SMILES IDX 5 1 4 2 3 3 1 4 2 5 28 7 29 8 90 9 30 10 89 11 31 12 32 13
REMARK SMILES IDX 33 14 83 15 34 16 88 17 82 18 84 19 35 20 87 21 81 22 80 23
REMARK SMILES IDX 36 25 68 26 48 27 67 28 49 29 52 30 66 31 85 32 50 33 51 34
REMARK SMILES IDX 65 36 86 37 53 38 37 39 38 40 46 41 39 42 41 43 47 44 40 45
REMARK SMILES IDX 42 46 43 47 44 48 45 49 69 50 70 51 78 52 71 53 73 54 79 55
REMARK SMILES IDX 72 56 74 57 75 58 76 59 77 60 54 61 55 62 63 63 56 64 58 65
REMARK SMILES IDX 64 66 57 67 59 68 60 69 61 70 62 71 6 72 7 73 8 74 9 76
REMARK SMILES IDX 10 77 11 78 26 79 12 80 24 81 22 82 27 83 13 85 14 86 15 87
REMARK SMILES IDX 16 88 17 89 21 90 18 91 20 92 19 93 25 94 23 96
REMARK H PARENT 3 6 84 24 52 35 7 75 27 84 25 95 23 97
REMARK Flexibility Score: inf
ROOT
ATOM      1  C   UNL A   1      31.625  31.605  26.497  1.00  0.00     0.042 C 
ENDROOT
BRANCH   1   2
ATOM      2  C   UNL A   1      32.737  32.185  27.361  1.00  0.00     0.118 C 
BRANCH   2   3
ATOM      3  N   UNL A   1      32.556  33.609  27.603  1.00  0.00    -0.352 N 
ATOM      4  O   UNL A   1      32.700  35.538  28.743  1.00  0.00    -0.269 OA
ATOM      5  C   UNL A   1      33.162  34.420  28.531  1.00  0.00     0.251 C 
ATOM      6  H   UNL A   1      31.904  34.056  27.017  1.00  0.00     0.163 HD
BRANCH   5   7
ATOM      7  C   UNL A   1      34.353  33.944  29.264  1.00  0.00     0.039 A 
ATOM      8  C   UNL A   1      34.217  33.062  30.340  1.00  0.00     0.014 A 
ATOM      9  C   UNL A   1      35.623  34.343  28.840  1.00  0.00     0.014 A 
ATOM     10  C   UNL A   1      35.337  32.671  31.064  1.00  0.00     0.010 A 
ATOM     11  C   UNL A   1      36.756  33.877  29.514  1.00  0.00     0.010 A 
ATOM     12  C   UNL A   1      36.620  33.043  30.636  1.00  0.00    -0.014 A 
BRANCH  12  13
ATOM     13  C   UNL A   1      37.805  32.429  31.282  1.00  0.00     0.031 A 
ATOM     14  C   UNL A   1      38.542  31.285  30.651  1.00  0.00     0.074 A 
ATOM     15  C   UNL A   1      38.181  32.905  32.488  1.00  0.00     0.049 A 
ATOM     16  N   UNL A   1      39.571  30.624  31.112  1.00  0.00    -0.248 NA
ATOM     17  C   UNL A   1      38.064  30.813  29.341  1.00  0.00     0.031 C 
ATOM     18  C   UNL A   1      37.504  33.982  33.216  1.00  0.00     0.029 A 
ATOM     19  N   UNL A   1      39.203  32.535  33.324  1.00  0.00    -0.354 N 
ATOM     20  C   UNL A   1      39.838  29.631  30.179  1.00  0.00     0.074 A 
ATOM     21  C   UNL A   1      38.868  29.782  29.115  1.00  0.00     0.031 C 
ATOM     22  C   UNL A   1      38.123  34.183  34.386  1.00  0.00     0.029 A 
ATOM     23  C   UNL A   1      39.200  33.211  34.522  1.00  0.00     0.049 A 
ATOM     24  H   UNL A   1      39.874  31.852  33.090  1.00  0.00     0.167 HD
ATOM     25  C   UNL A   1      40.809  28.687  30.212  1.00  0.00     0.034 A 
ATOM     26  C   UNL A   1      39.946  33.039  35.628  1.00  0.00     0.034 A 
ATOM     27  C   UNL A   1      41.791  28.574  31.258  1.00  0.00     0.049 A 
ATOM     28  C   UNL A   1      41.013  31.984  35.624  1.00  0.00     0.074 A 
ATOM     29  C   UNL A   1      42.880  27.722  31.323  1.00  0.00     0.029 A 
ATOM     30  N   UNL A   1      41.789  29.308  32.433  1.00  0.00    -0.354 N 
ATOM     31  N   UNL A   1      41.364  31.173  34.657  1.00  0.00    -0.248 NA
ATOM     32  C   UNL A   1      41.801  31.831  36.855  1.00  0.00     0.031 C 
ATOM     33  C   UNL A   1      43.508  27.907  32.557  1.00  0.00     0.029 A 
ATOM     34  C   UNL A   1      42.833  28.900  33.247  1.00  0.00     0.049 A 
ATOM     35  H   UNL A   1      41.143  30.015  32.657  1.00  0.00     0.167 HD
ATOM     36  C   UNL A   1      42.423  30.425  35.155  1.00  0.00     0.074 A 
ATOM     37  C   UNL A   1      42.681  30.907  36.496  1.00  0.00     0.031 C 
ATOM     38  C   UNL A   1      43.105  29.414  34.564  1.00  0.00     0.034 A 
BRANCH  25  39
ATOM     39  C   UNL A   1      40.888  27.695  29.081  1.00  0.00     0.023 A 
ATOM     40  C   UNL A   1      39.989  26.612  29.033  1.00  0.00     0.012 A 
ATOM     41  C   UNL A   1      41.766  27.917  28.000  1.00  0.00     0.148 A 
ATOM     42  C   UNL A   1      39.969  25.757  27.930  1.00  0.00     0.002 A 
ATOM     43  C   UNL A   1      41.713  27.085  26.889  1.00  0.00     0.091 A 
ATOM     44  F   UNL A   1      42.623  28.945  28.075  1.00  0.00    -0.205 F 
ATOM     45  C   UNL A   1      40.820  26.001  26.855  1.00  0.00     0.022 A 
BRANCH  43  46
ATOM     46  S   UNL A   1      42.710  27.360  25.419  1.00  0.00     0.127 S 
ATOM     47  O   UNL A   1      44.042  27.534  25.996  1.00  0.00    -0.237 OA
ATOM     48  O   UNL A   1      42.523  26.108  24.685  1.00  0.00    -0.237 OA
ATOM     49  O   UNL A   1      42.156  28.539  24.770  1.00  0.00    -0.744 OA
ENDBRANCH  43  46
ENDBRANCH  25  39
BRANCH  26  50
ATOM     50  C   UNL A   1      39.697  33.878  36.834  1.00  0.00     0.023 A 
ATOM     51  C   UNL A   1      40.084  35.231  36.838  1.00  0.00     0.012 A 
ATOM     52  C   UNL A   1      39.066  33.340  37.973  1.00  0.00     0.148 A 
ATOM     53  C   UNL A   1      39.883  36.022  37.969  1.00  0.00     0.002 A 
ATOM     54  C   UNL A   1      38.811  34.150  39.072  1.00  0.00     0.091 A 
ATOM     55  F   UNL A   1      38.718  32.045  37.957  1.00  0.00    -0.205 F 
ATOM     56  C   UNL A   1      39.238  35.486  39.081  1.00  0.00     0.022 A 
BRANCH  54  57
ATOM     57  S   UNL A   1      37.860  33.573  40.481  1.00  0.00     0.127 S 
ATOM     58  O   UNL A   1      38.763  32.587  41.069  1.00  0.00    -0.237 OA
ATOM     59  O   UNL A   1      37.696  34.801  41.262  1.00  0.00    -0.237 OA
ATOM     60  O   UNL A   1      36.619  33.051  39.926  1.00  0.00    -0.744 OA
ENDBRANCH  54  57
ENDBRANCH  26  50
BRANCH  38  61
ATOM     61  C   UNL A   1      44.206  28.763  35.357  1.00  0.00     0.023 A 
ATOM     62  C   UNL A   1      45.525  29.243  35.239  1.00  0.00     0.012 A 
ATOM     63  C   UNL A   1      43.921  27.731  36.272  1.00  0.00     0.148 A 
ATOM     64  C   UNL A   1      46.551  28.684  35.999  1.00  0.00     0.002 A 
ATOM     65  C   UNL A   1      44.940  27.214  37.063  1.00  0.00     0.091 A 
ATOM     66  F   UNL A   1      42.661  27.282  36.357  1.00  0.00    -0.205 F 
ATOM     67  C   UNL A   1      46.257  27.680  36.919  1.00  0.00     0.022 A 
BRANCH  65  68
ATOM     68  S   UNL A   1      44.644  25.987  38.340  1.00  0.00     0.127 S 
ATOM     69  O   UNL A   1      44.076  24.883  37.566  1.00  0.00    -0.237 OA
ATOM     70  O   UNL A   1      45.993  25.742  38.850  1.00  0.00    -0.237 OA
ATOM     71  O   UNL A   1      43.735  26.605  39.295  1.00  0.00    -0.744 OA
ENDBRANCH  65  68
ENDBRANCH  38  61
ENDBRANCH  12  13
ENDBRANCH   5   7
ENDBRANCH   2   3
ENDBRANCH   1   2
BRANCH   1  72
ATOM     72  C   UNL A   1      32.002  30.283  25.837  1.00  0.00     0.117 C 
BRANCH  72  73
ATOM     73  N   UNL A   1      31.769  29.152  26.717  1.00  0.00    -0.354 N 
ATOM     74  C   UNL A   1      31.668  27.825  26.385  1.00  0.00     0.252 C 
ATOM     75  H   UNL A   1      31.672  29.365  27.674  1.00  0.00     0.163 HD
ATOM     76  O   UNL A   1      31.319  27.034  27.261  1.00  0.00    -0.272 OA
BRANCH  74  77
ATOM     77  C   UNL A   1      32.032  27.414  24.950  1.00  0.00     0.242 C 
ATOM     78  O   UNL A   1      31.025  27.963  24.099  1.00  0.00    -0.324 OA
ATOM     79  C   UNL A   1      32.136  25.891  24.799  1.00  0.00     0.184 C 
ATOM     80  C   UNL A   1      31.189  27.685  22.717  1.00  0.00     0.343 C 
ATOM     81  C   UNL A   1      32.346  25.546  23.314  1.00  0.00     0.181 C 
ATOM     82  C   UNL A   1      31.280  26.178  22.412  1.00  0.00     0.214 C 
BRANCH  79  83
ATOM     83  O   UNL A   1      33.238  25.375  25.561  1.00  0.00    -0.387 OA
ATOM     84  H   UNL A   1      32.909  24.743  26.219  1.00  0.00     0.211 HD
ENDBRANCH  79  83
BRANCH  80  85
ATOM     85  O   UNL A   1      30.160  28.320  21.935  1.00  0.00    -0.429 OA
BRANCH  85  86
ATOM     86  C   UNL A   1      29.019  28.631  22.587  1.00  0.00     0.342 C 
ATOM     87  O   UNL A   1      28.295  27.869  23.214  1.00  0.00    -0.246 OA
BRANCH  86  88
ATOM     88  C   UNL A   1      28.771  30.074  22.487  1.00  0.00     0.078 A 
ATOM     89  C   UNL A   1      29.001  30.957  23.544  1.00  0.00     0.019 A 
ATOM     90  C   UNL A   1      28.325  30.589  21.280  1.00  0.00     0.126 A 
ATOM     91  C   UNL A   1      28.767  32.318  23.352  1.00  0.00     0.021 A 
ATOM     92  N   UNL A   1      28.080  31.905  21.074  1.00  0.00    -0.264 NA
ATOM     93  C   UNL A   1      28.306  32.739  22.113  1.00  0.00     0.111 A 
ENDBRANCH  86  88
ENDBRANCH  85  86
ENDBRANCH  80  85
BRANCH  81  94
ATOM     94  O   UNL A   1      32.392  24.128  23.112  1.00  0.00    -0.387 OA
ATOM     95  H   UNL A   1      32.082  23.677  23.912  1.00  0.00     0.211 HD
ENDBRANCH  81  94
BRANCH  82  96
ATOM     96  O   UNL A   1      31.600  25.988  21.021  1.00  0.00    -0.384 OA
ATOM     97  H   UNL A   1      31.007  26.529  20.477  1.00  0.00     0.211 HD
ENDBRANCH  82  96
ENDBRANCH  74  77
ENDBRANCH  72  73
ENDBRANCH   1  72
TORSDOF 19
ENDMDL
MODEL 2
REMARK VINA RESULT:     -12.2      2.106      2.670
REMARK SMILES O=C(NCCCNC(=O)[C@@H]1O[C@H](OC(=O)c2cccnc2)[C@@H](O)[C@H](O)[C@H]1O)c1ccc(-c2c3nc(c(-c4cccc(S(=O)(=O)[O-])c4F)c4ccc([nH]4)c(-c4cccc(S(=O)(=O)[O-])c4F)c4nc(c(-c5cccc(S(=O)(=O)[O-])c5F)c5ccc2[nH]5)C=C4)C=C3)cc1
REMARK SMILES IDX 5 1 4 2 3 3 1 4 2 5 28 7 29 8 90 9 30 10 89 11 31 12 32 13
REMARK SMILES IDX 33 14 83 15 34 16 88 17 82 18 84 19 35 20 87 21 81 22 80 23
REMARK SMILES IDX 36 25 68 26 48 27 67 28 49 29 52 30 66 31 85 32 50 33 51 34
REMARK SMILES IDX 65 36 86 37 53 38 37 39 38 40 46 41 39 42 41 43 47 44 40 45
REMARK SMILES IDX 42 46 43 47 44 48 45 49 69 50 70 51 78 52 71 53 73 54 79 55
REMARK SMILES IDX 72 56 74 57 75 58 76 59 77 60 54 61 55 62 63 63 56 64 58 65
REMARK SMILES IDX 64 66 57 67 59 68 60 69 61 70 62 71 6 72 7 73 8 74 9 76
REMARK SMILES IDX 10 77 11 78 26 79 12 80 24 81 22 82 27 83 13 85 14 86 15 87
REMARK SMILES IDX 16 88 17 89 21 90 18 91 20 92 19 93 25 94 23 96
REMARK H PARENT 3 6 84 24 52 35 7 75 27 84 25 95 23 97
REMARK Flexibility Score: inf
ROOT
ATOM      1  C   UNL A   1      32.725  29.702  25.685  1.00  0.00     0.042 C 
ENDROOT
BRANCH   1   2
ATOM      2  C   UNL A   1      32.430  30.316  27.047  1.00  0.00     0.118 C 
BRANCH   2   3
ATOM      3  N   UNL A   1      32.507  31.770  27.020  1.00  0.00    -0.352 N 
ATOM      4  O   UNL A   1      33.199  33.807  27.663  1.00  0.00    -0.269 OA
ATOM      5  C   UNL A   1      33.438  32.605  27.587  1.00  0.00     0.251 C 
ATOM      6  H   UNL A   1      31.786  32.221  26.525  1.00  0.00     0.163 HD
BRANCH   5   7
ATOM      7  C   UNL A   1      34.710  32.055  28.100  1.00  0.00     0.039 A 
ATOM      8  C   UNL A   1      35.874  32.829  28.085  1.00  0.00     0.014 A 
ATOM      9  C   UNL A   1      34.729  30.770  28.648  1.00  0.00     0.014 A 
ATOM     10  C   UNL A   1      37.078  32.280  28.509  1.00  0.00     0.010 A 
ATOM     11  C   UNL A   1      35.923  30.252  29.158  1.00  0.00     0.010 A 
ATOM     12  C   UNL A   1      37.108  31.001  29.085  1.00  0.00    -0.014 A 
BRANCH  12  13
ATOM     13  C   UNL A   1      38.354  30.530  29.738  1.00  0.00     0.031 A 
ATOM     14  C   UNL A   1      39.245  29.512  29.091  1.00  0.00     0.074 A 
ATOM     15  C   UNL A   1      38.645  31.016  30.962  1.00  0.00     0.049 A 
ATOM     16  N   UNL A   1      40.345  28.979  29.554  1.00  0.00    -0.248 NA
ATOM     17  C   UNL A   1      38.854  29.020  27.759  1.00  0.00     0.031 C 
ATOM     18  C   UNL A   1      37.820  31.974  31.706  1.00  0.00     0.029 A 
ATOM     19  N   UNL A   1      39.693  30.760  31.808  1.00  0.00    -0.354 N 
ATOM     20  C   UNL A   1      40.756  28.057  28.600  1.00  0.00     0.074 A 
ATOM     21  C   UNL A   1      39.791  28.110  27.522  1.00  0.00     0.031 C 
ATOM     22  C   UNL A   1      38.388  32.220  32.893  1.00  0.00     0.029 A 
ATOM     23  C   UNL A   1      39.582  31.394  33.024  1.00  0.00     0.049 A 
ATOM     24  H   UNL A   1      40.452  30.178  31.569  1.00  0.00     0.167 HD
ATOM     25  C   UNL A   1      41.842  27.249  28.626  1.00  0.00     0.034 A 
ATOM     26  C   UNL A   1      40.327  31.290  34.139  1.00  0.00     0.034 A 
ATOM     27  C   UNL A   1      42.814  27.235  29.688  1.00  0.00     0.049 A 
ATOM     28  C   UNL A   1      41.524  30.385  34.128  1.00  0.00     0.074 A 
ATOM     29  C   UNL A   1      44.004  26.532  29.751  1.00  0.00     0.029 A 
ATOM     30  N   UNL A   1      42.696  27.928  30.882  1.00  0.00    -0.354 N 
ATOM     31  N   UNL A   1      41.994  29.656  33.146  1.00  0.00    -0.248 NA
ATOM     32  C   UNL A   1      42.305  30.301  35.369  1.00  0.00     0.031 C 
ATOM     33  C   UNL A   1      44.583  26.762  31.001  1.00  0.00     0.029 A 
ATOM     34  C   UNL A   1      43.772  27.638  31.704  1.00  0.00     0.049 A 
ATOM     35  H   UNL A   1      41.959  28.537  31.112  1.00  0.00     0.167 HD
ATOM     36  C   UNL A   1      43.135  29.039  33.644  1.00  0.00     0.074 A 
ATOM     37  C   UNL A   1      43.305  29.512  35.003  1.00  0.00     0.031 C 
ATOM     38  C   UNL A   1      43.953  28.144  33.040  1.00  0.00     0.034 A 
BRANCH  25  39
ATOM     39  C   UNL A   1      42.069  26.309  27.471  1.00  0.00     0.023 A 
ATOM     40  C   UNL A   1      42.835  26.728  26.365  1.00  0.00     0.012 A 
ATOM     41  C   UNL A   1      41.636  24.970  27.548  1.00  0.00     0.148 A 
ATOM     42  C   UNL A   1      43.158  25.830  25.348  1.00  0.00     0.002 A 
ATOM     43  C   UNL A   1      41.995  24.072  26.550  1.00  0.00     0.091 A 
ATOM     44  F   UNL A   1      40.897  24.598  28.602  1.00  0.00    -0.205 F 
ATOM     45  C   UNL A   1      42.751  24.501  25.447  1.00  0.00     0.022 A 
BRANCH  43  46
ATOM     46  S   UNL A   1      41.588  22.323  26.622  1.00  0.00     0.127 S 
ATOM     47  O   UNL A   1      42.193  21.829  25.386  1.00  0.00    -0.237 OA
ATOM     48  O   UNL A   1      42.272  21.900  27.845  1.00  0.00    -0.237 OA
ATOM     49  O   UNL A   1      40.136  22.247  26.676  1.00  0.00    -0.744 OA
ENDBRANCH  43  46
ENDBRANCH  25  39
BRANCH  26  50
ATOM     50  C   UNL A   1      39.950  32.054  35.362  1.00  0.00     0.023 A 
ATOM     51  C   UNL A   1      40.527  33.314  35.606  1.00  0.00     0.012 A 
ATOM     52  C   UNL A   1      39.011  31.538  36.277  1.00  0.00     0.148 A 
ATOM     53  C   UNL A   1      40.206  34.028  36.761  1.00  0.00     0.002 A 
ATOM     54  C   UNL A   1      38.648  32.282  37.392  1.00  0.00     0.091 A 
ATOM     55  F   UNL A   1      38.484  30.329  36.036  1.00  0.00    -0.205 F 
ATOM     56  C   UNL A   1      39.260  33.519  37.647  1.00  0.00     0.022 A 
BRANCH  54  57
ATOM     57  S   UNL A   1      37.336  31.761  38.501  1.00  0.00     0.127 S 
ATOM     58  O   UNL A   1      37.957  31.947  39.809  1.00  0.00    -0.237 OA
ATOM     59  O   UNL A   1      36.271  32.715  38.183  1.00  0.00    -0.237 OA
ATOM     60  O   UNL A   1      37.033  30.386  38.127  1.00  0.00    -0.744 OA
ENDBRANCH  54  57
ENDBRANCH  26  50
BRANCH  38  61
ATOM     61  C   UNL A   1      45.117  27.621  33.837  1.00  0.00     0.023 A 
ATOM     62  C   UNL A   1      46.350  28.303  33.797  1.00  0.00     0.012 A 
ATOM     63  C   UNL A   1      44.969  26.503  34.679  1.00  0.00     0.148 A 
ATOM     64  C   UNL A   1      47.427  27.861  34.563  1.00  0.00     0.002 A 
ATOM     65  C   UNL A   1      46.032  26.099  35.478  1.00  0.00     0.091 A 
ATOM     66  F   UNL A   1      43.792  25.862  34.690  1.00  0.00    -0.205 F 
ATOM     67  C   UNL A   1      47.265  26.768  35.413  1.00  0.00     0.022 A 
BRANCH  65  68
ATOM     68  S   UNL A   1      45.892  24.764  36.671  1.00  0.00     0.127 S 
ATOM     69  O   UNL A   1      45.785  23.595  35.798  1.00  0.00    -0.237 OA
ATOM     70  O   UNL A   1      47.157  24.867  37.398  1.00  0.00    -0.237 OA
ATOM     71  O   UNL A   1      44.707  25.053  37.467  1.00  0.00    -0.744 OA
ENDBRANCH  65  68
ENDBRANCH  38  61
ENDBRANCH  12  13
ENDBRANCH   5   7
ENDBRANCH   2   3
ENDBRANCH   1   2
BRANCH   1  72
ATOM     72  C   UNL A   1      33.951  28.796  25.685  1.00  0.00     0.117 C 
BRANCH  72  73
ATOM     73  N   UNL A   1      33.659  27.489  26.249  1.00  0.00    -0.354 N 
ATOM     74  C   UNL A   1      33.212  26.366  25.601  1.00  0.00     0.252 C 
ATOM     75  H   UNL A   1      33.800  27.399  27.219  1.00  0.00     0.163 HD
ATOM     76  O   UNL A   1      32.881  25.398  26.282  1.00  0.00    -0.272 OA
BRANCH  74  77
ATOM     77  C   UNL A   1      33.189  26.385  24.064  1.00  0.00     0.242 C 
ATOM     78  O   UNL A   1      31.952  26.987  23.681  1.00  0.00    -0.324 OA
ATOM     79  C   UNL A   1      33.346  24.979  23.471  1.00  0.00     0.184 C 
ATOM     80  C   UNL A   1      31.744  27.093  22.281  1.00  0.00     0.343 C 
ATOM     81  C   UNL A   1      33.156  25.053  21.946  1.00  0.00     0.181 C 
ATOM     82  C   UNL A   1      31.844  25.739  21.553  1.00  0.00     0.214 C 
BRANCH  79  83
ATOM     83  O   UNL A   1      34.647  24.444  23.758  1.00  0.00    -0.387 OA
ATOM     84  H   UNL A   1      35.214  24.536  22.977  1.00  0.00     0.211 HD
ENDBRANCH  79  83
BRANCH  80  85
ATOM     85  O   UNL A   1      30.499  27.756  21.990  1.00  0.00    -0.429 OA
BRANCH  85  86
ATOM     86  C   UNL A   1      29.562  27.722  22.962  1.00  0.00     0.342 C 
ATOM     87  O   UNL A   1      29.205  26.747  23.610  1.00  0.00    -0.246 OA
BRANCH  86  88
ATOM     88  C   UNL A   1      29.038  29.074  23.190  1.00  0.00     0.078 A 
ATOM     89  C   UNL A   1      29.818  30.113  23.703  1.00  0.00     0.019 A 
ATOM     90  C   UNL A   1      27.721  29.342  22.847  1.00  0.00     0.126 A 
ATOM     91  C   UNL A   1      29.246  31.375  23.858  1.00  0.00     0.021 A 
ATOM     92  N   UNL A   1      27.143  30.556  23.000  1.00  0.00    -0.264 NA
ATOM     93  C   UNL A   1      27.916  31.545  23.501  1.00  0.00     0.111 A 
ENDBRANCH  86  88
ENDBRANCH  85  86
ENDBRANCH  80  85
BRANCH  81  94
ATOM     94  O   UNL A   1      33.237  23.752  21.349  1.00  0.00    -0.387 OA
ATOM     95  H   UNL A   1      33.251  23.078  22.046  1.00  0.00     0.211 HD
ENDBRANCH  81  94
BRANCH  82  96
ATOM     96  O   UNL A   1      31.776  25.952  20.131  1.00  0.00    -0.384 OA
ATOM     97  H   UNL A   1      32.356  25.318  19.681  1.00  0.00     0.211 HD
ENDBRANCH  82  96
ENDBRANCH  74  77
ENDBRANCH  72  73
ENDBRANCH   1  72
TORSDOF 19
ENDMDL
MODEL 3
REMARK VINA RESULT:     -12.2      6.345     11.298
REMARK SMILES O=C(NCCCNC(=O)[C@@H]1O[C@H](OC(=O)c2cccnc2)[C@@H](O)[C@H](O)[C@H]1O)c1ccc(-c2c3nc(c(-c4cccc(S(=O)(=O)[O-])c4F)c4ccc([nH]4)c(-c4cccc(S(=O)(=O)[O-])c4F)c4nc(c(-c5cccc(S(=O)(=O)[O-])c5F)c5ccc2[nH]5)C=C4)C=C3)cc1
REMARK SMILES IDX 5 1 4 2 3 3 1 4 2 5 28 7 29 8 90 9 30 10 89 11 31 12 32 13
REMARK SMILES IDX 33 14 83 15 34 16 88 17 82 18 84 19 35 20 87 21 81 22 80 23
REMARK SMILES IDX 36 25 68 26 48 27 67 28 49 29 52 30 66 31 85 32 50 33 51 34
REMARK SMILES IDX 65 36 86 37 53 38 37 39 38 40 46 41 39 42 41 43 47 44 40 45
REMARK SMILES IDX 42 46 43 47 44 48 45 49 69 50 70 51 78 52 71 53 73 54 79 55
REMARK SMILES IDX 72 56 74 57 75 58 76 59 77 60 54 61 55 62 63 63 56 64 58 65
REMARK SMILES IDX 64 66 57 67 59 68 60 69 61 70 62 71 6 72 7 73 8 74 9 76
REMARK SMILES IDX 10 77 11 78 26 79 12 80 24 81 22 82 27 83 13 85 14 86 15 87
REMARK SMILES IDX 16 88 17 89 21 90 18 91 20 92 19 93 25 94 23 96
REMARK H PARENT 3 6 84 24 52 35 7 75 27 84 25 95 23 97
REMARK Flexibility Score: inf
ROOT
ATOM      1  C   UNL A   1      36.374  21.628  25.632  1.00  0.00     0.042 C 
ENDROOT
BRANCH   1   2
ATOM      2  C   UNL A   1      37.718  21.502  24.929  1.00  0.00     0.118 C 
BRANCH   2   3
ATOM      3  N   UNL A   1      38.553  20.468  25.523  1.00  0.00    -0.352 N 
ATOM      4  O   UNL A   1      40.414  19.587  26.419  1.00  0.00    -0.269 OA
ATOM      5  C   UNL A   1      39.736  20.589  26.210  1.00  0.00     0.251 C 
ATOM      6  H   UNL A   1      38.223  19.547  25.416  1.00  0.00     0.163 HD
BRANCH   5   7
ATOM      7  C   UNL A   1      40.182  21.915  26.685  1.00  0.00     0.039 A 
ATOM      8  C   UNL A   1      41.032  22.022  27.790  1.00  0.00     0.014 A 
ATOM      9  C   UNL A   1      39.788  23.061  25.989  1.00  0.00     0.014 A 
ATOM     10  C   UNL A   1      41.394  23.275  28.269  1.00  0.00     0.010 A 
ATOM     11  C   UNL A   1      40.226  24.316  26.419  1.00  0.00     0.010 A 
ATOM     12  C   UNL A   1      41.027  24.433  27.567  1.00  0.00    -0.014 A 
BRANCH  12  13
ATOM     13  C   UNL A   1      41.614  25.736  27.962  1.00  0.00     0.031 A 
ATOM     14  C   UNL A   1      40.807  26.777  28.681  1.00  0.00     0.074 A 
ATOM     15  C   UNL A   1      42.895  25.981  27.618  1.00  0.00     0.049 A 
ATOM     16  N   UNL A   1      41.172  27.974  29.060  1.00  0.00    -0.248 NA
ATOM     17  C   UNL A   1      39.412  26.442  29.012  1.00  0.00     0.031 C 
ATOM     18  C   UNL A   1      43.757  25.057  26.873  1.00  0.00     0.029 A 
ATOM     19  N   UNL A   1      43.690  27.079  27.822  1.00  0.00    -0.354 N 
ATOM     20  C   UNL A   1      40.046  28.555  29.630  1.00  0.00     0.074 A 
ATOM     21  C   UNL A   1      38.985  27.574  29.559  1.00  0.00     0.031 C 
ATOM     22  C   UNL A   1      44.954  25.625  26.680  1.00  0.00     0.029 A 
ATOM     23  C   UNL A   1      44.927  26.975  27.230  1.00  0.00     0.049 A 
ATOM     24  H   UNL A   1      43.404  27.865  28.342  1.00  0.00     0.167 HD
ATOM     25  C   UNL A   1      39.920  29.792  30.166  1.00  0.00     0.034 A 
ATOM     26  C   UNL A   1      45.917  27.878  27.099  1.00  0.00     0.034 A 
ATOM     27  C   UNL A   1      40.996  30.744  30.264  1.00  0.00     0.049 A 
ATOM     28  C   UNL A   1      45.739  29.238  27.708  1.00  0.00     0.074 A 
ATOM     29  C   UNL A   1      40.994  31.978  30.890  1.00  0.00     0.029 A 
ATOM     30  N   UNL A   1      42.252  30.586  29.699  1.00  0.00    -0.354 N 
ATOM     31  N   UNL A   1      44.729  29.703  28.401  1.00  0.00    -0.248 NA
ATOM     32  C   UNL A   1      46.843  30.191  27.537  1.00  0.00     0.031 C 
ATOM     33  C   UNL A   1      42.231  32.587  30.663  1.00  0.00     0.029 A 
ATOM     34  C   UNL A   1      43.018  31.717  29.927  1.00  0.00     0.049 A 
ATOM     35  H   UNL A   1      42.554  29.788  29.209  1.00  0.00     0.167 HD
ATOM     36  C   UNL A   1      45.082  30.997  28.763  1.00  0.00     0.074 A 
ATOM     37  C   UNL A   1      46.415  31.227  28.245  1.00  0.00     0.031 C 
ATOM     38  C   UNL A   1      44.358  31.920  29.441  1.00  0.00     0.034 A 
BRANCH  25  39
ATOM     39  C   UNL A   1      38.580  30.209  30.712  1.00  0.00     0.023 A 
ATOM     40  C   UNL A   1      38.284  30.010  32.075  1.00  0.00     0.012 A 
ATOM     41  C   UNL A   1      37.671  30.918  29.901  1.00  0.00     0.148 A 
ATOM     42  C   UNL A   1      37.098  30.502  32.621  1.00  0.00     0.002 A 
ATOM     43  C   UNL A   1      36.510  31.438  30.460  1.00  0.00     0.091 A 
ATOM     44  F   UNL A   1      37.966  31.081  28.604  1.00  0.00    -0.205 F 
ATOM     45  C   UNL A   1      36.220  31.226  31.818  1.00  0.00     0.022 A 
BRANCH  43  46
ATOM     46  S   UNL A   1      35.353  32.453  29.533  1.00  0.00     0.127 S 
ATOM     47  O   UNL A   1      34.331  32.729  30.541  1.00  0.00    -0.237 OA
ATOM     48  O   UNL A   1      36.179  33.605  29.171  1.00  0.00    -0.237 OA
ATOM     49  O   UNL A   1      34.912  31.639  28.409  1.00  0.00    -0.744 OA
ENDBRANCH  43  46
ENDBRANCH  25  39
BRANCH  26  50
ATOM     50  C   UNL A   1      47.153  27.526  26.346  1.00  0.00     0.023 A 
ATOM     51  C   UNL A   1      48.219  26.891  27.008  1.00  0.00     0.012 A 
ATOM     52  C   UNL A   1      47.269  27.810  24.970  1.00  0.00     0.148 A 
ATOM     53  C   UNL A   1      49.394  26.581  26.324  1.00  0.00     0.002 A 
ATOM     54  C   UNL A   1      48.417  27.442  24.280  1.00  0.00     0.091 A 
ATOM     55  F   UNL A   1      46.249  28.431  24.359  1.00  0.00    -0.205 F 
ATOM     56  C   UNL A   1      49.490  26.845  24.959  1.00  0.00     0.022 A 
BRANCH  54  57
ATOM     57  S   UNL A   1      48.556  27.619  22.499  1.00  0.00     0.127 S 
ATOM     58  O   UNL A   1      48.634  26.227  22.065  1.00  0.00    -0.237 OA
ATOM     59  O   UNL A   1      47.304  28.301  22.162  1.00  0.00    -0.237 OA
ATOM     60  O   UNL A   1      49.749  28.424  22.280  1.00  0.00    -0.744 OA
ENDBRANCH  54  57
ENDBRANCH  26  50
BRANCH  38  61
ATOM     61  C   UNL A   1      44.993  33.264  29.675  1.00  0.00     0.023 A 
ATOM     62  C   UNL A   1      45.781  33.470  30.824  1.00  0.00     0.012 A 
ATOM     63  C   UNL A   1      44.870  34.294  28.723  1.00  0.00     0.148 A 
ATOM     64  C   UNL A   1      46.415  34.693  31.037  1.00  0.00     0.002 A 
ATOM     65  C   UNL A   1      45.547  35.492  28.917  1.00  0.00     0.091 A 
ATOM     66  F   UNL A   1      44.104  34.080  27.644  1.00  0.00    -0.205 F 
ATOM     67  C   UNL A   1      46.309  35.698  30.079  1.00  0.00     0.022 A 
BRANCH  65  68
ATOM     68  S   UNL A   1      45.548  36.810  27.697  1.00  0.00     0.127 S 
ATOM     69  O   UNL A   1      46.359  37.830  28.361  1.00  0.00    -0.237 OA
ATOM     70  O   UNL A   1      46.192  36.168  26.552  1.00  0.00    -0.237 OA
ATOM     71  O   UNL A   1      44.152  37.170  27.487  1.00  0.00    -0.744 OA
ENDBRANCH  65  68
ENDBRANCH  38  61
ENDBRANCH  12  13
ENDBRANCH   5   7
ENDBRANCH   2   3
ENDBRANCH   1   2
BRANCH   1  72
ATOM     72  C   UNL A   1      36.183  22.968  26.333  1.00  0.00     0.117 C 
BRANCH  72  73
ATOM     73  N   UNL A   1      35.817  24.020  25.401  1.00  0.00    -0.354 N 
ATOM     74  C   UNL A   1      34.560  24.421  25.024  1.00  0.00     0.252 C 
ATOM     75  H   UNL A   1      36.566  24.506  24.986  1.00  0.00     0.163 HD
ATOM     76  O   UNL A   1      34.463  25.233  24.106  1.00  0.00    -0.272 OA
BRANCH  74  77
ATOM     77  C   UNL A   1      33.362  23.853  25.801  1.00  0.00     0.242 C 
ATOM     78  O   UNL A   1      33.053  22.590  25.210  1.00  0.00    -0.324 OA
ATOM     79  C   UNL A   1      32.159  24.804  25.775  1.00  0.00     0.184 C 
ATOM     80  C   UNL A   1      31.958  21.904  25.798  1.00  0.00     0.343 C 
ATOM     81  C   UNL A   1      30.954  24.108  26.432  1.00  0.00     0.181 C 
ATOM     82  C   UNL A   1      30.663  22.737  25.813  1.00  0.00     0.214 C 
BRANCH  79  83
ATOM     83  O   UNL A   1      32.448  26.016  26.489  1.00  0.00    -0.387 OA
ATOM     84  H   UNL A   1      32.892  25.802  27.324  1.00  0.00     0.211 HD
ENDBRANCH  79  83
BRANCH  80  85
ATOM     85  O   UNL A   1      31.753  20.623  25.173  1.00  0.00    -0.429 OA
BRANCH  85  86
ATOM     86  C   UNL A   1      32.236  20.485  23.919  1.00  0.00     0.342 C 
ATOM     87  O   UNL A   1      32.121  21.276  22.992  1.00  0.00    -0.246 OA
BRANCH  86  88
ATOM     88  C   UNL A   1      32.994  19.232  23.817  1.00  0.00     0.078 A 
ATOM     89  C   UNL A   1      34.136  18.974  24.577  1.00  0.00     0.019 A 
ATOM     90  C   UNL A   1      32.535  18.248  22.955  1.00  0.00     0.126 A 
ATOM     91  C   UNL A   1      34.776  17.743  24.438  1.00  0.00     0.021 A 
ATOM     92  N   UNL A   1      33.148  17.051  22.795  1.00  0.00    -0.264 NA
ATOM     93  C   UNL A   1      34.253  16.825  23.540  1.00  0.00     0.111 A 
ENDBRANCH  86  88
ENDBRANCH  85  86
ENDBRANCH  80  85
BRANCH  81  94
ATOM     94  O   UNL A   1      29.786  24.936  26.381  1.00  0.00    -0.387 OA
ATOM     95  H   UNL A   1      29.257  24.800  27.183  1.00  0.00     0.211 HD
ENDBRANCH  81  94
BRANCH  82  96
ATOM     96  O   UNL A   1      29.650  22.036  26.559  1.00  0.00    -0.384 OA
ATOM     97  H   UNL A   1      29.414  21.219  26.094  1.00  0.00     0.211 HD
ENDBRANCH  82  96
ENDBRANCH  74  77
ENDBRANCH  72  73
ENDBRANCH   1  72
TORSDOF 19
ENDMDL
