MODEL 1
REMARK VINA RESULT:     -12.7      0.000      0.000
REMARK SMILES CC(C)CSc1cc2c(cc1Cl)C=C(C(=O)NCCCNC(=O)c1ccc(-c3c4nc(c(-c5cccc(S(=O)(=O)[O-])c5F)c5ccc([nH]5)c(-c5cccc(S(=O)(=O)[O-])c5F)c5nc(c(-c6cccc(S(=O)(=O)[O-])c6F)c6ccc3[nH]6)C=C5)C=C4)cc1)[C@@H](C(F)(F)F)O2
REMARK SMILES IDX 19 1 18 2 17 3 15 4 16 5 14 7 6 8 7 9 11 10 8 11 10 12 12 13
REMARK SMILES IDX 9 14 92 15 13 16 87 17 5 18 4 19 2 20 1 21 3 22 88 23 89 24
REMARK SMILES IDX 90 25 91 26 20 27 21 28 22 29 23 31 24 32 25 33 86 34 26 35
REMARK SMILES IDX 85 36 27 37 28 38 29 39 79 40 30 41 84 42 78 43 80 44 31 45
REMARK SMILES IDX 83 46 77 47 76 48 32 50 64 51 44 52 63 53 45 54 48 55 62 56
REMARK SMILES IDX 81 57 46 58 47 59 61 61 82 62 49 63 33 64 34 65 42 66 35 67
REMARK SMILES IDX 37 68 43 69 36 70 38 71 39 72 40 73 41 74 65 75 66 76 74 77
REMARK SMILES IDX 67 78 69 79 75 80 68 81 70 82 71 83 72 84 73 85 50 86 51 87
REMARK SMILES IDX 59 88 52 89 54 90 60 91 53 92 55 93 56 94 57 95 58 96
REMARK H PARENT 17 6 21 30 80 49 48 60
REMARK Flexibility Score: inf
ROOT
ATOM      1  C   UNL A   1      35.983  21.391  24.410  1.00  0.00     0.042 C 
ENDROOT
BRANCH   1   2
ATOM      2  C   UNL A   1      34.970  20.446  25.040  1.00  0.00     0.118 C 
BRANCH   2   3
ATOM      3  N   UNL A   1      34.526  20.900  26.352  1.00  0.00    -0.352 N 
ATOM      4  C   UNL A   1      33.831  21.949  26.853  1.00  0.00     0.251 C 
ATOM      5  O   UNL A   1      33.624  21.915  28.070  1.00  0.00    -0.270 OA
ATOM      6  H   UNL A   1      34.807  20.279  27.063  1.00  0.00     0.163 HD
BRANCH   4   7
ATOM      7  C   UNL A   1      33.323  23.099  26.055  1.00  0.00     0.067 C 
ATOM      8  C   UNL A   1      32.481  27.533  23.866  1.00  0.00     0.030 A 
ATOM      9  C   UNL A   1      32.233  26.208  23.500  1.00  0.00     0.063 A 
ATOM     10  C   UNL A   1      33.334  27.782  24.959  1.00  0.00     0.055 A 
ATOM     11  C   UNL A   1      32.695  25.168  24.297  1.00  0.00     0.129 A 
ATOM     12  C   UNL A   1      33.876  26.721  25.702  1.00  0.00     0.033 A 
ATOM     13  Cl  UNL A   1      33.739  29.387  25.464  1.00  0.00    -0.083 Cl
ATOM     14  C   UNL A   1      33.529  25.406  25.390  1.00  0.00     0.019 A 
ATOM     15  O   UNL A   1      32.249  23.911  23.991  1.00  0.00    -0.475 OA
ATOM     16  C   UNL A   1      34.001  24.261  26.166  1.00  0.00     0.025 C 
ATOM     17  C   UNL A   1      32.121  23.040  25.154  1.00  0.00     0.314 C 
BRANCH   8  18
ATOM     18  S   UNL A   1      31.656  28.814  22.926  1.00  0.00    -0.124 SA
BRANCH  18  19
ATOM     19  C   UNL A   1      29.954  28.713  23.630  1.00  0.00     0.078 C 
BRANCH  19  20
ATOM     20  C   UNL A   1      28.916  29.580  22.885  1.00  0.00    -0.007 C 
ATOM     21  C   UNL A   1      27.523  28.942  22.890  1.00  0.00     0.008 C 
ATOM     22  C   UNL A   1      28.805  30.967  23.528  1.00  0.00     0.008 C 
ENDBRANCH  19  20
ENDBRANCH  18  19
ENDBRANCH   8  18
BRANCH  17  23
ATOM     23  C   UNL A   1      30.808  23.332  25.920  1.00  0.00     0.429 C 
ATOM     24  F   UNL A   1      30.060  22.208  26.034  1.00  0.00    -0.167 F 
ATOM     25  F   UNL A   1      31.035  23.780  27.179  1.00  0.00    -0.167 F 
ATOM     26  F   UNL A   1      30.039  24.269  25.319  1.00  0.00    -0.167 F 
ENDBRANCH  17  23
ENDBRANCH   4   7
ENDBRANCH   2   3
ENDBRANCH   1   2
BRANCH   1  27
ATOM     27  C   UNL A   1      37.047  21.858  25.395  1.00  0.00     0.118 C 
BRANCH  27  28
ATOM     28  N   UNL A   1      38.048  20.828  25.659  1.00  0.00    -0.352 N 
ATOM     29  C   UNL A   1      39.336  20.935  26.127  1.00  0.00     0.251 C 
ATOM     30  H   UNL A   1      37.753  19.907  25.470  1.00  0.00     0.163 HD
ATOM     31  O   UNL A   1      40.080  19.958  26.070  1.00  0.00    -0.269 OA
BRANCH  29  32
ATOM     32  C   UNL A   1      39.828  22.218  26.670  1.00  0.00     0.039 A 
ATOM     33  C   UNL A   1      39.312  23.426  26.200  1.00  0.00     0.014 A 
ATOM     34  C   UNL A   1      40.817  22.218  27.657  1.00  0.00     0.014 A 
ATOM     35  C   UNL A   1      39.920  24.620  26.561  1.00  0.00     0.010 A 
ATOM     36  C   UNL A   1      41.357  23.431  28.099  1.00  0.00     0.010 A 
ATOM     37  C   UNL A   1      40.953  24.640  27.513  1.00  0.00    -0.014 A 
BRANCH  37  38
ATOM     38  C   UNL A   1      41.584  25.938  27.865  1.00  0.00     0.031 A 
ATOM     39  C   UNL A   1      42.953  26.299  27.349  1.00  0.00     0.074 A 
ATOM     40  C   UNL A   1      40.884  26.827  28.597  1.00  0.00     0.049 A 
ATOM     41  N   UNL A   1      43.626  27.407  27.522  1.00  0.00    -0.248 NA
ATOM     42  C   UNL A   1      43.661  25.293  26.538  1.00  0.00     0.031 C 
ATOM     43  C   UNL A   1      39.556  26.588  29.166  1.00  0.00     0.029 A 
ATOM     44  N   UNL A   1      41.173  28.116  28.966  1.00  0.00    -0.354 N 
ATOM     45  C   UNL A   1      44.847  27.217  26.885  1.00  0.00     0.074 A 
ATOM     46  C   UNL A   1      44.827  25.886  26.320  1.00  0.00     0.031 C 
ATOM     47  C   UNL A   1      39.120  27.710  29.756  1.00  0.00     0.029 A 
ATOM     48  C   UNL A   1      40.159  28.729  29.662  1.00  0.00     0.049 A 
ATOM     49  H   UNL A   1      42.026  28.560  28.753  1.00  0.00     0.167 HD
ATOM     50  C   UNL A   1      45.880  28.082  26.760  1.00  0.00     0.034 A 
ATOM     51  C   UNL A   1      40.069  29.972  30.173  1.00  0.00     0.034 A 
ATOM     52  C   UNL A   1      45.874  29.427  27.265  1.00  0.00     0.049 A 
ATOM     53  C   UNL A   1      41.221  30.917  30.003  1.00  0.00     0.074 A 
ATOM     54  C   UNL A   1      46.864  30.389  27.154  1.00  0.00     0.029 A 
ATOM     55  N   UNL A   1      44.827  30.008  27.963  1.00  0.00    -0.354 N 
ATOM     56  N   UNL A   1      42.340  30.734  29.346  1.00  0.00    -0.248 NA
ATOM     57  C   UNL A   1      41.099  32.238  30.634  1.00  0.00     0.031 C 
ATOM     58  C   UNL A   1      46.414  31.552  27.784  1.00  0.00     0.029 A 
ATOM     59  C   UNL A   1      45.143  31.315  28.285  1.00  0.00     0.049 A 
ATOM     60  H   UNL A   1      43.983  29.556  28.193  1.00  0.00     0.167 HD
ATOM     61  C   UNL A   1      43.056  31.915  29.481  1.00  0.00     0.074 A 
ATOM     62  C   UNL A   1      42.233  32.819  30.259  1.00  0.00     0.031 C 
ATOM     63  C   UNL A   1      44.294  32.214  29.021  1.00  0.00     0.034 A 
BRANCH  50  64
ATOM     64  C   UNL A   1      47.094  27.630  25.997  1.00  0.00     0.023 A 
ATOM     65  C   UNL A   1      48.056  26.833  26.649  1.00  0.00     0.012 A 
ATOM     66  C   UNL A   1      47.233  27.905  24.622  1.00  0.00     0.148 A 
ATOM     67  C   UNL A   1      49.145  26.321  25.945  1.00  0.00     0.002 A 
ATOM     68  C   UNL A   1      48.307  27.369  23.921  1.00  0.00     0.091 A 
ATOM     69  F   UNL A   1      46.311  28.676  24.030  1.00  0.00    -0.205 F 
ATOM     70  C   UNL A   1      49.265  26.580  24.582  1.00  0.00     0.022 A 
BRANCH  68  71
ATOM     71  S   UNL A   1      48.529  27.596  22.153  1.00  0.00     0.127 S 
ATOM     72  O   UNL A   1      49.643  28.543  22.117  1.00  0.00    -0.237 OA
ATOM     73  O   UNL A   1      48.862  26.242  21.709  1.00  0.00    -0.237 OA
ATOM     74  O   UNL A   1      47.263  28.111  21.650  1.00  0.00    -0.744 OA
ENDBRANCH  68  71
ENDBRANCH  50  64
BRANCH  51  75
ATOM     75  C   UNL A   1      38.813  30.392  30.851  1.00  0.00     0.023 A 
ATOM     76  C   UNL A   1      38.700  30.246  32.245  1.00  0.00     0.012 A 
ATOM     77  C   UNL A   1      37.772  31.014  30.134  1.00  0.00     0.148 A 
ATOM     78  C   UNL A   1      37.570  30.712  32.917  1.00  0.00     0.002 A 
ATOM     79  C   UNL A   1      36.671  31.518  30.814  1.00  0.00     0.091 A 
ATOM     80  F   UNL A   1      37.901  31.130  28.805  1.00  0.00    -0.205 F 
ATOM     81  C   UNL A   1      36.563  31.360  32.205  1.00  0.00     0.022 A 
BRANCH  79  82
ATOM     82  S   UNL A   1      35.390  32.477  29.999  1.00  0.00     0.127 S 
ATOM     83  O   UNL A   1      36.141  33.641  29.534  1.00  0.00    -0.237 OA
ATOM     84  O   UNL A   1      34.955  31.562  28.944  1.00  0.00    -0.237 OA
ATOM     85  O   UNL A   1      34.385  32.741  31.019  1.00  0.00    -0.744 OA
ENDBRANCH  79  82
ENDBRANCH  51  75
BRANCH  63  86
ATOM     86  C   UNL A   1      44.852  33.571  29.338  1.00  0.00     0.023 A 
ATOM     87  C   UNL A   1      45.595  33.745  30.522  1.00  0.00     0.012 A 
ATOM     88  C   UNL A   1      44.749  34.628  28.414  1.00  0.00     0.148 A 
ATOM     89  C   UNL A   1      46.226  34.959  30.785  1.00  0.00     0.002 A 
ATOM     90  C   UNL A   1      45.408  35.825  28.669  1.00  0.00     0.091 A 
ATOM     91  F   UNL A   1      44.028  34.435  27.301  1.00  0.00    -0.205 F 
ATOM     92  C   UNL A   1      46.143  35.993  29.855  1.00  0.00     0.022 A 
BRANCH  90  93
ATOM     93  S   UNL A   1      45.422  37.190  27.502  1.00  0.00     0.127 S 
ATOM     94  O   UNL A   1      46.190  38.197  28.232  1.00  0.00    -0.237 OA
ATOM     95  O   UNL A   1      46.113  36.606  26.353  1.00  0.00    -0.237 OA
ATOM     96  O   UNL A   1      44.025  37.532  27.262  1.00  0.00    -0.744 OA
ENDBRANCH  90  93
ENDBRANCH  63  86
ENDBRANCH  37  38
ENDBRANCH  29  32
ENDBRANCH  27  28
ENDBRANCH   1  27
TORSDOF 17
ENDMDL
MODEL 2
REMARK VINA RESULT:     -12.6      1.749      2.441
REMARK SMILES CC(C)CSc1cc2c(cc1Cl)C=C(C(=O)NCCCNC(=O)c1ccc(-c3c4nc(c(-c5cccc(S(=O)(=O)[O-])c5F)c5ccc([nH]5)c(-c5cccc(S(=O)(=O)[O-])c5F)c5nc(c(-c6cccc(S(=O)(=O)[O-])c6F)c6ccc3[nH]6)C=C5)C=C4)cc1)[C@@H](C(F)(F)F)O2
REMARK SMILES IDX 19 1 18 2 17 3 15 4 16 5 14 7 6 8 7 9 11 10 8 11 10 12 12 13
REMARK SMILES IDX 9 14 92 15 13 16 87 17 5 18 4 19 2 20 1 21 3 22 88 23 89 24
REMARK SMILES IDX 90 25 91 26 20 27 21 28 22 29 23 31 24 32 25 33 86 34 26 35
REMARK SMILES IDX 85 36 27 37 28 38 29 39 79 40 30 41 84 42 78 43 80 44 31 45
REMARK SMILES IDX 83 46 77 47 76 48 32 50 64 51 44 52 63 53 45 54 48 55 62 56
REMARK SMILES IDX 81 57 46 58 47 59 61 61 82 62 49 63 33 64 34 65 42 66 35 67
REMARK SMILES IDX 37 68 43 69 36 70 38 71 39 72 40 73 41 74 65 75 66 76 74 77
REMARK SMILES IDX 67 78 69 79 75 80 68 81 70 82 71 83 72 84 73 85 50 86 51 87
REMARK SMILES IDX 59 88 52 89 54 90 60 91 53 92 55 93 56 94 57 95 58 96
REMARK H PARENT 17 6 21 30 80 49 48 60
REMARK Flexibility Score: inf
ROOT
ATOM      1  C   UNL A   1      37.672  20.077  24.862  1.00  0.00     0.042 C 
ENDROOT
BRANCH   1   2
ATOM      2  C   UNL A   1      36.370  20.815  25.138  1.00  0.00     0.118 C 
BRANCH   2   3
ATOM      3  N   UNL A   1      35.205  19.947  25.028  1.00  0.00    -0.352 N 
ATOM      4  C   UNL A   1      33.869  20.100  24.862  1.00  0.00     0.251 C 
ATOM      5  O   UNL A   1      33.224  19.052  24.763  1.00  0.00    -0.270 OA
ATOM      6  H   UNL A   1      35.454  18.996  25.093  1.00  0.00     0.163 HD
BRANCH   4   7
ATOM      7  C   UNL A   1      33.158  21.407  24.798  1.00  0.00     0.067 C 
ATOM      8  C   UNL A   1      31.378  25.946  23.619  1.00  0.00     0.030 A 
ATOM      9  C   UNL A   1      30.861  24.854  24.320  1.00  0.00     0.063 A 
ATOM     10  C   UNL A   1      32.548  25.766  22.857  1.00  0.00     0.055 A 
ATOM     11  C   UNL A   1      31.580  23.666  24.385  1.00  0.00     0.129 A 
ATOM     12  C   UNL A   1      33.216  24.530  22.851  1.00  0.00     0.033 A 
ATOM     13  Cl  UNL A   1      33.243  27.043  21.918  1.00  0.00    -0.083 Cl
ATOM     14  C   UNL A   1      32.748  23.483  23.644  1.00  0.00     0.019 A 
ATOM     15  O   UNL A   1      31.116  22.710  25.247  1.00  0.00    -0.475 OA
ATOM     16  C   UNL A   1      33.435  22.196  23.739  1.00  0.00     0.025 C 
ATOM     17  C   UNL A   1      32.172  21.887  25.826  1.00  0.00     0.314 C 
BRANCH   8  18
ATOM     18  S   UNL A   1      30.516  27.506  23.778  1.00  0.00    -0.124 SA
BRANCH  18  19
ATOM     19  C   UNL A   1      31.647  28.407  24.924  1.00  0.00     0.078 C 
BRANCH  19  20
ATOM     20  C   UNL A   1      32.140  27.556  26.115  1.00  0.00    -0.007 C 
ATOM     21  C   UNL A   1      33.663  27.388  26.111  1.00  0.00     0.008 C 
ATOM     22  C   UNL A   1      31.737  28.199  27.446  1.00  0.00     0.008 C 
ENDBRANCH  19  20
ENDBRANCH  18  19
ENDBRANCH   8  18
BRANCH  17  23
ATOM     23  C   UNL A   1      32.867  22.623  26.996  1.00  0.00     0.429 C 
ATOM     24  F   UNL A   1      32.939  21.825  28.089  1.00  0.00    -0.167 F 
ATOM     25  F   UNL A   1      34.137  22.987  26.694  1.00  0.00    -0.167 F 
ATOM     26  F   UNL A   1      32.227  23.756  27.366  1.00  0.00    -0.167 F 
ENDBRANCH  17  23
ENDBRANCH   4   7
ENDBRANCH   2   3
ENDBRANCH   1   2
BRANCH   1  27
ATOM     27  C   UNL A   1      38.820  20.559  25.740  1.00  0.00     0.118 C 
BRANCH  27  28
ATOM     28  N   UNL A   1      39.847  19.536  25.919  1.00  0.00    -0.352 N 
ATOM     29  C   UNL A   1      41.200  19.657  26.130  1.00  0.00     0.251 C 
ATOM     30  H   UNL A   1      39.517  18.608  25.881  1.00  0.00     0.163 HD
ATOM     31  O   UNL A   1      41.915  18.662  26.037  1.00  0.00    -0.269 OA
BRANCH  29  32
ATOM     32  C   UNL A   1      41.791  20.975  26.441  1.00  0.00     0.039 A 
ATOM     33  C   UNL A   1      42.208  21.272  27.739  1.00  0.00     0.014 A 
ATOM     34  C   UNL A   1      41.928  21.929  25.429  1.00  0.00     0.014 A 
ATOM     35  C   UNL A   1      42.565  22.572  28.066  1.00  0.00     0.010 A 
ATOM     36  C   UNL A   1      42.391  23.211  25.741  1.00  0.00     0.010 A 
ATOM     37  C   UNL A   1      42.658  23.561  27.073  1.00  0.00    -0.014 A 
BRANCH  37  38
ATOM     38  C   UNL A   1      43.036  24.944  27.467  1.00  0.00     0.031 A 
ATOM     39  C   UNL A   1      44.412  25.483  27.175  1.00  0.00     0.074 A 
ATOM     40  C   UNL A   1      42.105  25.740  28.030  1.00  0.00     0.049 A 
ATOM     41  N   UNL A   1      44.888  26.679  27.408  1.00  0.00    -0.248 NA
ATOM     42  C   UNL A   1      45.380  24.571  26.542  1.00  0.00     0.031 C 
ATOM     43  C   UNL A   1      40.743  25.327  28.376  1.00  0.00     0.029 A 
ATOM     44  N   UNL A   1      42.148  27.065  28.382  1.00  0.00    -0.354 N 
ATOM     45  C   UNL A   1      46.215  26.650  26.996  1.00  0.00     0.074 A 
ATOM     46  C   UNL A   1      46.475  25.318  26.497  1.00  0.00     0.031 C 
ATOM     47  C   UNL A   1      40.063  26.388  28.832  1.00  0.00     0.029 A 
ATOM     48  C   UNL A   1      40.954  27.542  28.867  1.00  0.00     0.049 A 
ATOM     49  H   UNL A   1      42.957  27.620  28.297  1.00  0.00     0.167 HD
ATOM     50  C   UNL A   1      47.126  27.650  27.008  1.00  0.00     0.034 A 
ATOM     51  C   UNL A   1      40.609  28.771  29.299  1.00  0.00     0.034 A 
ATOM     52  C   UNL A   1      46.850  28.992  27.443  1.00  0.00     0.049 A 
ATOM     53  C   UNL A   1      41.634  29.866  29.282  1.00  0.00     0.074 A 
ATOM     54  C   UNL A   1      47.704  30.081  27.456  1.00  0.00     0.029 A 
ATOM     55  N   UNL A   1      45.629  29.433  27.925  1.00  0.00    -0.354 N 
ATOM     56  N   UNL A   1      42.864  29.829  28.833  1.00  0.00    -0.248 NA
ATOM     57  C   UNL A   1      41.225  31.169  29.823  1.00  0.00     0.031 C 
ATOM     58  C   UNL A   1      46.998  31.182  27.947  1.00  0.00     0.029 A 
ATOM     59  C   UNL A   1      45.703  30.778  28.236  1.00  0.00     0.049 A 
ATOM     60  H   UNL A   1      44.827  28.871  28.031  1.00  0.00     0.167 HD
ATOM     61  C   UNL A   1      43.379  31.103  29.033  1.00  0.00     0.074 A 
ATOM     62  C   UNL A   1      42.317  31.897  29.619  1.00  0.00     0.031 C 
ATOM     63  C   UNL A   1      44.625  31.564  28.775  1.00  0.00     0.034 A 
BRANCH  50  64
ATOM     64  C   UNL A   1      48.505  27.359  26.482  1.00  0.00     0.023 A 
ATOM     65  C   UNL A   1      49.449  26.753  27.335  1.00  0.00     0.012 A 
ATOM     66  C   UNL A   1      48.832  27.587  25.131  1.00  0.00     0.148 A 
ATOM     67  C   UNL A   1      50.704  26.385  26.852  1.00  0.00     0.002 A 
ATOM     68  C   UNL A   1      50.076  27.193  24.651  1.00  0.00     0.091 A 
ATOM     69  F   UNL A   1      47.920  28.176  24.346  1.00  0.00    -0.205 F 
ATOM     70  C   UNL A   1      51.014  26.596  25.511  1.00  0.00     0.022 A 
BRANCH  68  71
ATOM     71  S   UNL A   1      50.556  27.369  22.929  1.00  0.00     0.127 S 
ATOM     72  O   UNL A   1      49.457  26.685  22.247  1.00  0.00    -0.237 OA
ATOM     73  O   UNL A   1      50.568  28.823  22.761  1.00  0.00    -0.237 OA
ATOM     74  O   UNL A   1      51.857  26.728  22.804  1.00  0.00    -0.744 OA
ENDBRANCH  68  71
ENDBRANCH  50  64
BRANCH  51  75
ATOM     75  C   UNL A   1      39.209  29.023  29.734  1.00  0.00     0.023 A 
ATOM     76  C   UNL A   1      38.833  28.717  31.055  1.00  0.00     0.012 A 
ATOM     77  C   UNL A   1      38.280  29.644  28.876  1.00  0.00     0.148 A 
ATOM     78  C   UNL A   1      37.552  29.025  31.516  1.00  0.00     0.002 A 
ATOM     79  C   UNL A   1      37.023  29.991  29.355  1.00  0.00     0.091 A 
ATOM     80  F   UNL A   1      38.662  29.914  27.620  1.00  0.00    -0.205 F 
ATOM     81  C   UNL A   1      36.653  29.673  30.671  1.00  0.00     0.022 A 
BRANCH  79  82
ATOM     82  S   UNL A   1      35.849  30.939  28.381  1.00  0.00     0.127 S 
ATOM     83  O   UNL A   1      34.791  31.192  29.356  1.00  0.00    -0.237 OA
ATOM     84  O   UNL A   1      36.642  32.112  28.013  1.00  0.00    -0.237 OA
ATOM     85  O   UNL A   1      35.484  30.084  27.261  1.00  0.00    -0.744 OA
ENDBRANCH  79  82
ENDBRANCH  51  75
BRANCH  63  86
ATOM     86  C   UNL A   1      44.930  32.993  29.120  1.00  0.00     0.023 A 
ATOM     87  C   UNL A   1      45.488  33.289  30.379  1.00  0.00     0.012 A 
ATOM     88  C   UNL A   1      44.783  34.014  28.162  1.00  0.00     0.148 A 
ATOM     89  C   UNL A   1      45.893  34.587  30.682  1.00  0.00     0.002 A 
ATOM     90  C   UNL A   1      45.219  35.299  28.461  1.00  0.00     0.091 A 
ATOM     91  F   UNL A   1      44.241  33.703  26.977  1.00  0.00    -0.205 F 
ATOM     92  C   UNL A   1      45.770  35.587  29.721  1.00  0.00     0.022 A 
BRANCH  90  93
ATOM     93  S   UNL A   1      45.169  36.640  27.267  1.00  0.00     0.127 S 
ATOM     94  O   UNL A   1      43.736  36.744  26.997  1.00  0.00    -0.237 OA
ATOM     95  O   UNL A   1      45.730  37.754  28.032  1.00  0.00    -0.237 OA
ATOM     96  O   UNL A   1      45.982  36.206  26.138  1.00  0.00    -0.744 OA
ENDBRANCH  90  93
ENDBRANCH  63  86
ENDBRANCH  37  38
ENDBRANCH  29  32
ENDBRANCH  27  28
ENDBRANCH   1  27
TORSDOF 17
ENDMDL
MODEL 3
REMARK VINA RESULT:     -12.5      5.459     10.562
REMARK SMILES CC(C)CSc1cc2c(cc1Cl)C=C(C(=O)NCCCNC(=O)c1ccc(-c3c4nc(c(-c5cccc(S(=O)(=O)[O-])c5F)c5ccc([nH]5)c(-c5cccc(S(=O)(=O)[O-])c5F)c5nc(c(-c6cccc(S(=O)(=O)[O-])c6F)c6ccc3[nH]6)C=C5)C=C4)cc1)[C@@H](C(F)(F)F)O2
REMARK SMILES IDX 19 1 18 2 17 3 15 4 16 5 14 7 6 8 7 9 11 10 8 11 10 12 12 13
REMARK SMILES IDX 9 14 92 15 13 16 87 17 5 18 4 19 2 20 1 21 3 22 88 23 89 24
REMARK SMILES IDX 90 25 91 26 20 27 21 28 22 29 23 31 24 32 25 33 86 34 26 35
REMARK SMILES IDX 85 36 27 37 28 38 29 39 79 40 30 41 84 42 78 43 80 44 31 45
REMARK SMILES IDX 83 46 77 47 76 48 32 50 64 51 44 52 63 53 45 54 48 55 62 56
REMARK SMILES IDX 81 57 46 58 47 59 61 61 82 62 49 63 33 64 34 65 42 66 35 67
REMARK SMILES IDX 37 68 43 69 36 70 38 71 39 72 40 73 41 74 65 75 66 76 74 77
REMARK SMILES IDX 67 78 69 79 75 80 68 81 70 82 71 83 72 84 73 85 50 86 51 87
REMARK SMILES IDX 59 88 52 89 54 90 60 91 53 92 55 93 56 94 57 95 58 96
REMARK H PARENT 17 6 21 30 80 49 48 60
REMARK Flexibility Score: inf
ROOT
ATOM      1  C   UNL A   1      31.409  30.992  25.961  1.00  0.00     0.042 C 
ENDROOT
BRANCH   1   2
ATOM      2  C   UNL A   1      31.500  29.603  25.345  1.00  0.00     0.118 C 
BRANCH   2   3
ATOM      3  N   UNL A   1      32.535  29.514  24.323  1.00  0.00    -0.352 N 
ATOM      4  C   UNL A   1      33.228  28.532  23.700  1.00  0.00     0.251 C 
ATOM      5  O   UNL A   1      34.008  28.909  22.819  1.00  0.00    -0.270 OA
ATOM      6  H   UNL A   1      32.803  30.406  24.001  1.00  0.00     0.163 HD
BRANCH   4   7
ATOM      7  C   UNL A   1      33.114  27.077  24.003  1.00  0.00     0.067 C 
ATOM      8  C   UNL A   1      33.719  22.354  25.577  1.00  0.00     0.030 A 
ATOM      9  C   UNL A   1      32.605  23.138  25.269  1.00  0.00     0.063 A 
ATOM     10  C   UNL A   1      34.970  22.985  25.717  1.00  0.00     0.055 A 
ATOM     11  C   UNL A   1      32.766  24.482  24.955  1.00  0.00     0.129 A 
ATOM     12  C   UNL A   1      35.106  24.365  25.492  1.00  0.00     0.033 A 
ATOM     13  Cl  UNL A   1      36.402  22.110  26.140  1.00  0.00    -0.083 Cl
ATOM     14  C   UNL A   1      34.005  25.113  25.077  1.00  0.00     0.019 A 
ATOM     15  O   UNL A   1      31.667  25.139  24.471  1.00  0.00    -0.475 OA
ATOM     16  C   UNL A   1      34.093  26.537  24.758  1.00  0.00     0.025 C 
ATOM     17  C   UNL A   1      31.994  26.198  23.523  1.00  0.00     0.314 C 
BRANCH   8  18
ATOM     18  S   UNL A   1      33.463  20.590  25.736  1.00  0.00    -0.124 SA
BRANCH  18  19
ATOM     19  C   UNL A   1      32.934  20.164  24.021  1.00  0.00     0.078 C 
BRANCH  19  20
ATOM     20  C   UNL A   1      32.227  18.797  23.904  1.00  0.00    -0.007 C 
ATOM     21  C   UNL A   1      32.546  18.095  22.580  1.00  0.00     0.008 C 
ATOM     22  C   UNL A   1      32.648  17.868  25.048  1.00  0.00     0.008 C 
ENDBRANCH  19  20
ENDBRANCH  18  19
ENDBRANCH   8  18
BRANCH  17  23
ATOM     23  C   UNL A   1      32.277  25.613  22.119  1.00  0.00     0.429 C 
ATOM     24  F   UNL A   1      33.534  25.919  21.717  1.00  0.00    -0.167 F 
ATOM     25  F   UNL A   1      32.177  24.262  22.093  1.00  0.00    -0.167 F 
ATOM     26  F   UNL A   1      31.428  26.072  21.171  1.00  0.00    -0.167 F 
ENDBRANCH  17  23
ENDBRANCH   4   7
ENDBRANCH   2   3
ENDBRANCH   1   2
BRANCH   1  27
ATOM     27  C   UNL A   1      32.563  31.293  26.910  1.00  0.00     0.118 C 
BRANCH  27  28
ATOM     28  N   UNL A   1      32.664  32.716  27.223  1.00  0.00    -0.352 N 
ATOM     29  C   UNL A   1      33.597  33.402  27.965  1.00  0.00     0.251 C 
ATOM     30  H   UNL A   1      31.948  33.275  26.843  1.00  0.00     0.163 HD
ATOM     31  O   UNL A   1      33.373  34.568  28.284  1.00  0.00    -0.269 OA
BRANCH  29  32
ATOM     32  C   UNL A   1      34.844  32.736  28.394  1.00  0.00     0.039 A 
ATOM     33  C   UNL A   1      34.805  31.458  28.952  1.00  0.00     0.014 A 
ATOM     34  C   UNL A   1      36.068  33.394  28.242  1.00  0.00     0.014 A 
ATOM     35  C   UNL A   1      35.945  30.929  29.538  1.00  0.00     0.010 A 
ATOM     36  C   UNL A   1      37.237  32.809  28.740  1.00  0.00     0.010 A 
ATOM     37  C   UNL A   1      37.176  31.597  29.445  1.00  0.00    -0.014 A 
BRANCH  37  38
ATOM     38  C   UNL A   1      38.372  31.000  30.095  1.00  0.00     0.031 A 
ATOM     39  C   UNL A   1      38.732  31.343  31.517  1.00  0.00     0.074 A 
ATOM     40  C   UNL A   1      39.097  30.088  29.417  1.00  0.00     0.049 A 
ATOM     41  N   UNL A   1      39.712  30.877  32.248  1.00  0.00    -0.248 NA
ATOM     42  C   UNL A   1      37.891  32.333  32.212  1.00  0.00     0.031 C 
ATOM     43  C   UNL A   1      38.857  29.685  28.030  1.00  0.00     0.029 A 
ATOM     44  N   UNL A   1      40.160  29.314  29.806  1.00  0.00    -0.354 N 
ATOM     45  C   UNL A   1      39.634  31.545  33.464  1.00  0.00     0.074 A 
ATOM     46  C   UNL A   1      38.512  32.452  33.378  1.00  0.00     0.031 C 
ATOM     47  C   UNL A   1      39.703  28.698  27.704  1.00  0.00     0.029 A 
ATOM     48  C   UNL A   1      40.586  28.438  28.836  1.00  0.00     0.049 A 
ATOM     49  H   UNL A   1      40.580  29.380  30.695  1.00  0.00     0.167 HD
ATOM     50  C   UNL A   1      40.411  31.397  34.562  1.00  0.00     0.034 A 
ATOM     51  C   UNL A   1      41.578  27.527  28.848  1.00  0.00     0.034 A 
ATOM     52  C   UNL A   1      41.486  30.449  34.671  1.00  0.00     0.049 A 
ATOM     53  C   UNL A   1      42.411  27.371  30.086  1.00  0.00     0.074 A 
ATOM     54  C   UNL A   1      42.306  30.205  35.759  1.00  0.00     0.029 A 
ATOM     55  N   UNL A   1      41.882  29.582  33.666  1.00  0.00    -0.354 N 
ATOM     56  N   UNL A   1      42.280  27.972  31.242  1.00  0.00    -0.248 NA
ATOM     57  C   UNL A   1      43.520  26.409  30.025  1.00  0.00     0.031 C 
ATOM     58  C   UNL A   1      43.198  29.187  35.412  1.00  0.00     0.029 A 
ATOM     59  C   UNL A   1      42.931  28.797  34.109  1.00  0.00     0.049 A 
ATOM     60  H   UNL A   1      41.476  29.532  32.771  1.00  0.00     0.167 HD
ATOM     61  C   UNL A   1      43.287  27.462  32.050  1.00  0.00     0.074 A 
ATOM     62  C   UNL A   1      44.003  26.480  31.260  1.00  0.00     0.031 C 
ATOM     63  C   UNL A   1      43.602  27.794  33.324  1.00  0.00     0.034 A 
BRANCH  50  64
ATOM     64  C   UNL A   1      40.100  32.239  35.769  1.00  0.00     0.023 A 
ATOM     65  C   UNL A   1      40.787  33.456  35.951  1.00  0.00     0.012 A 
ATOM     66  C   UNL A   1      39.069  31.881  36.658  1.00  0.00     0.148 A 
ATOM     67  C   UNL A   1      40.457  34.303  37.008  1.00  0.00     0.002 A 
ATOM     68  C   UNL A   1      38.728  32.744  37.694  1.00  0.00     0.091 A 
ATOM     69  F   UNL A   1      38.441  30.713  36.470  1.00  0.00    -0.205 F 
ATOM     70  C   UNL A   1      39.423  33.952  37.872  1.00  0.00     0.022 A 
BRANCH  68  71
ATOM     71  S   UNL A   1      37.377  32.414  38.832  1.00  0.00     0.127 S 
ATOM     72  O   UNL A   1      37.701  33.313  39.940  1.00  0.00    -0.237 OA
ATOM     73  O   UNL A   1      36.209  32.812  38.046  1.00  0.00    -0.237 OA
ATOM     74  O   UNL A   1      37.450  30.994  39.146  1.00  0.00    -0.744 OA
ENDBRANCH  68  71
ENDBRANCH  50  64
BRANCH  51  75
ATOM     75  C   UNL A   1      41.790  26.667  27.653  1.00  0.00     0.023 A 
ATOM     76  C   UNL A   1      42.501  27.179  26.553  1.00  0.00     0.012 A 
ATOM     77  C   UNL A   1      41.371  25.322  27.641  1.00  0.00     0.148 A 
ATOM     78  C   UNL A   1      42.792  26.366  25.457  1.00  0.00     0.002 A 
ATOM     79  C   UNL A   1      41.704  24.505  26.568  1.00  0.00     0.091 A 
ATOM     80  F   UNL A   1      40.687  24.863  28.698  1.00  0.00    -0.205 F 
ATOM     81  C   UNL A   1      42.406  25.027  25.470  1.00  0.00     0.022 A 
BRANCH  79  82
ATOM     82  S   UNL A   1      41.362  22.742  26.556  1.00  0.00     0.127 S 
ATOM     83  O   UNL A   1      42.010  22.322  25.315  1.00  0.00    -0.237 OA
ATOM     84  O   UNL A   1      42.027  22.298  27.781  1.00  0.00    -0.237 OA
ATOM     85  O   UNL A   1      39.911  22.622  26.581  1.00  0.00    -0.744 OA
ENDBRANCH  79  82
ENDBRANCH  51  75
BRANCH  63  86
ATOM     86  C   UNL A   1      44.773  27.102  33.961  1.00  0.00     0.023 A 
ATOM     87  C   UNL A   1      46.050  27.687  33.862  1.00  0.00     0.012 A 
ATOM     88  C   UNL A   1      44.589  25.954  34.754  1.00  0.00     0.148 A 
ATOM     89  C   UNL A   1      47.133  27.134  34.542  1.00  0.00     0.002 A 
ATOM     90  C   UNL A   1      45.667  25.428  35.455  1.00  0.00     0.091 A 
ATOM     91  F   UNL A   1      43.363  25.416  34.822  1.00  0.00    -0.205 F 
ATOM     92  C   UNL A   1      46.939  26.014  35.347  1.00  0.00     0.022 A 
BRANCH  90  93
ATOM     93  S   UNL A   1      45.506  24.031  36.573  1.00  0.00     0.127 S 
ATOM     94  O   UNL A   1      44.591  24.563  37.582  1.00  0.00    -0.237 OA
ATOM     95  O   UNL A   1      44.929  23.006  35.703  1.00  0.00    -0.237 OA
ATOM     96  O   UNL A   1      46.851  23.737  37.050  1.00  0.00    -0.744 OA
ENDBRANCH  90  93
ENDBRANCH  63  86
ENDBRANCH  37  38
ENDBRANCH  29  32
ENDBRANCH  27  28
ENDBRANCH   1  27
TORSDOF 17
ENDMDL
