MODEL 1
REMARK VINA RESULT:     -12.0      0.000      0.000
REMARK SMILES COc1cc([N+](=O)[O-])cc2c1=N[C@H](C(=O)NCCCNC(=O)c1ccc(-c3c4nc(c(-c5cccc(S(=O)(=O)[O-])c5F)c5ccc([nH]5)c(-c5cccc(S(=O)(=O)[O-])c5F)c5nc(c(-c6cccc(S(=O)(=O)[O-])c6F)c6ccc3[nH]6)C=C5)C=C4)cc1)C=2CC[NH3+]
REMARK SMILES IDX 18 1 17 2 16 3 14 4 15 5 13 7 3 8 4 9 11 10 5 11 10 12 12 13
REMARK SMILES IDX 9 14 86 15 2 16 1 17 6 18 7 19 8 20 87 21 88 22 89 23 19 27
REMARK SMILES IDX 20 28 21 29 22 31 23 32 24 33 85 34 25 35 84 36 26 37 27 38
REMARK SMILES IDX 28 39 78 40 29 41 83 42 77 43 79 44 30 45 82 46 76 47 75 48
REMARK SMILES IDX 31 50 63 51 43 52 62 53 44 54 47 55 61 56 80 57 45 58 46 59
REMARK SMILES IDX 60 61 81 62 48 63 32 64 33 65 41 66 34 67 36 68 42 69 35 70
REMARK SMILES IDX 37 71 38 72 39 73 40 74 64 75 65 76 73 77 66 78 68 79 74 80
REMARK SMILES IDX 67 81 69 82 70 83 71 84 72 85 49 86 50 87 58 88 51 89 53 90
REMARK SMILES IDX 59 91 52 92 54 93 55 94 56 95 57 96
REMARK H PARENT 16 6 89 24 89 25 89 26 20 30 79 49 47 60
REMARK Flexibility Score: inf
ROOT
ATOM      1  C   UNL A   1      31.128  30.235  25.412  1.00  0.00     0.042 C 
ENDROOT
BRANCH   1   2
ATOM      2  C   UNL A   1      31.677  29.326  24.329  1.00  0.00     0.117 C 
BRANCH   2   3
ATOM      3  N   UNL A   1      30.699  28.371  23.834  1.00  0.00    -0.354 N 
ATOM      4  C   UNL A   1      30.658  27.010  23.961  1.00  0.00     0.249 C 
ATOM      5  O   UNL A   1      29.640  26.453  23.536  1.00  0.00    -0.272 OA
ATOM      6  H   UNL A   1      29.950  28.763  23.330  1.00  0.00     0.163 HD
BRANCH   4   7
ATOM      7  C   UNL A   1      31.868  26.220  24.546  1.00  0.00     0.222 C 
ATOM      8  C   UNL A   1      30.916  23.070  26.165  1.00  0.00     0.151 A 
ATOM      9  C   UNL A   1      31.186  21.828  25.715  1.00  0.00     0.134 A 
ATOM     10  C   UNL A   1      31.413  24.216  25.352  1.00  0.00     0.109 A 
ATOM     11  C   UNL A   1      31.930  21.582  24.480  1.00  0.00     0.273 A 
ATOM     12  C   UNL A   1      32.093  23.928  24.082  1.00  0.00     0.012 A 
ATOM     13  N   UNL A   1      31.349  25.455  25.710  1.00  0.00    -0.263 NA
ATOM     14  C   UNL A   1      32.372  22.580  23.688  1.00  0.00     0.096 A 
ATOM     15  C   UNL A   1      32.432  25.145  23.635  1.00  0.00    -0.021 C 
BRANCH   8  16
ATOM     16  O   UNL A   1      30.223  23.416  27.301  1.00  0.00    -0.494 OA
ATOM     17  C   UNL A   1      29.056  22.685  27.637  1.00  0.00     0.278 C 
ENDBRANCH   8  16
BRANCH  11  18
ATOM     18  N   UNL A   1      32.221  20.204  24.060  1.00  0.00     0.062 N 
ATOM     19  O   UNL A   1      32.384  19.342  24.935  1.00  0.00    -0.258 OA
ATOM     20  O   UNL A   1      32.285  19.985  22.842  1.00  0.00    -0.258 OA
ENDBRANCH  11  18
BRANCH  15  21
ATOM     21  C   UNL A   1      33.417  25.448  22.535  1.00  0.00     0.096 C 
BRANCH  21  22
ATOM     22  C   UNL A   1      33.002  25.181  21.081  1.00  0.00     0.263 C 
BRANCH  22  23
ATOM     23  N   UNL A   1      31.822  25.951  20.690  1.00  0.00    -0.357 N 
ATOM     24  H   UNL A   1      31.048  25.731  21.317  1.00  0.00     0.344 HD
ATOM     25  H   UNL A   1      31.563  25.714  19.733  1.00  0.00     0.344 HD
ATOM     26  H   UNL A   1      32.033  26.948  20.748  1.00  0.00     0.344 HD
ENDBRANCH  22  23
ENDBRANCH  21  22
ENDBRANCH  15  21
ENDBRANCH   4   7
ENDBRANCH   2   3
ENDBRANCH   1   2
BRANCH   1  27
ATOM     27  C   UNL A   1      32.124  30.647  26.480  1.00  0.00     0.118 C 
BRANCH  27  28
ATOM     28  N   UNL A   1      32.009  32.036  26.903  1.00  0.00    -0.352 N 
ATOM     29  C   UNL A   1      32.928  32.846  27.542  1.00  0.00     0.251 C 
ATOM     30  H   UNL A   1      31.145  32.463  26.702  1.00  0.00     0.163 HD
ATOM     31  O   UNL A   1      32.610  33.974  27.884  1.00  0.00    -0.269 OA
BRANCH  29  32
ATOM     32  C   UNL A   1      34.274  32.313  27.863  1.00  0.00     0.039 A 
ATOM     33  C   UNL A   1      34.456  30.964  28.158  1.00  0.00     0.014 A 
ATOM     34  C   UNL A   1      35.355  33.196  27.941  1.00  0.00     0.014 A 
ATOM     35  C   UNL A   1      35.634  30.552  28.768  1.00  0.00     0.010 A 
ATOM     36  C   UNL A   1      36.583  32.747  28.440  1.00  0.00     0.010 A 
ATOM     37  C   UNL A   1      36.710  31.441  28.935  1.00  0.00    -0.014 A 
BRANCH  37  38
ATOM     38  C   UNL A   1      37.927  30.973  29.655  1.00  0.00     0.031 A 
ATOM     39  C   UNL A   1      38.179  31.349  31.094  1.00  0.00     0.074 A 
ATOM     40  C   UNL A   1      38.771  30.126  29.031  1.00  0.00     0.049 A 
ATOM     41  N   UNL A   1      39.132  30.937  31.892  1.00  0.00    -0.248 NA
ATOM     42  C   UNL A   1      37.256  32.309  31.724  1.00  0.00     0.031 C 
ATOM     43  C   UNL A   1      38.658  29.707  27.631  1.00  0.00     0.029 A 
ATOM     44  N   UNL A   1      39.862  29.435  29.495  1.00  0.00    -0.354 N 
ATOM     45  C   UNL A   1      38.955  31.620  33.090  1.00  0.00     0.074 A 
ATOM     46  C   UNL A   1      37.804  32.478  32.920  1.00  0.00     0.031 C 
ATOM     47  C   UNL A   1      39.587  28.777  27.374  1.00  0.00     0.029 A 
ATOM     48  C   UNL A   1      40.398  28.571  28.569  1.00  0.00     0.049 A 
ATOM     49  H   UNL A   1      40.226  29.548  30.403  1.00  0.00     0.167 HD
ATOM     50  C   UNL A   1      39.665  31.521  34.237  1.00  0.00     0.034 A 
ATOM     51  C   UNL A   1      41.422  27.701  28.666  1.00  0.00     0.034 A 
ATOM     52  C   UNL A   1      40.754  30.607  34.441  1.00  0.00     0.049 A 
ATOM     53  C   UNL A   1      42.169  27.583  29.961  1.00  0.00     0.074 A 
ATOM     54  C   UNL A   1      41.480  30.386  35.599  1.00  0.00     0.029 A 
ATOM     55  N   UNL A   1      41.269  29.759  33.475  1.00  0.00    -0.354 N 
ATOM     56  N   UNL A   1      41.920  28.168  31.106  1.00  0.00    -0.248 NA
ATOM     57  C   UNL A   1      43.333  26.684  29.983  1.00  0.00     0.031 C 
ATOM     58  C   UNL A   1      42.435  29.402  35.332  1.00  0.00     0.029 A 
ATOM     59  C   UNL A   1      42.307  29.016  34.007  1.00  0.00     0.049 A 
ATOM     60  H   UNL A   1      40.944  29.695  32.548  1.00  0.00     0.167 HD
ATOM     61  C   UNL A   1      42.895  27.713  31.985  1.00  0.00     0.074 A 
ATOM     62  C   UNL A   1      43.723  26.780  31.249  1.00  0.00     0.031 C 
ATOM     63  C   UNL A   1      43.096  28.060  33.278  1.00  0.00     0.034 A 
BRANCH  50  64
ATOM     64  C   UNL A   1      39.252  32.374  35.405  1.00  0.00     0.023 A 
ATOM     65  C   UNL A   1      38.407  31.826  36.389  1.00  0.00     0.012 A 
ATOM     66  C   UNL A   1      39.786  33.665  35.586  1.00  0.00     0.148 A 
ATOM     67  C   UNL A   1      38.090  32.554  37.534  1.00  0.00     0.002 A 
ATOM     68  C   UNL A   1      39.485  34.375  36.742  1.00  0.00     0.091 A 
ATOM     69  F   UNL A   1      40.579  34.167  34.629  1.00  0.00    -0.205 F 
ATOM     70  C   UNL A   1      38.635  33.823  37.716  1.00  0.00     0.022 A 
BRANCH  68  71
ATOM     71  S   UNL A   1      40.174  35.996  37.099  1.00  0.00     0.127 S 
ATOM     72  O   UNL A   1      39.781  36.751  35.910  1.00  0.00    -0.237 OA
ATOM     73  O   UNL A   1      39.463  36.369  38.322  1.00  0.00    -0.237 OA
ATOM     74  O   UNL A   1      41.607  35.797  37.262  1.00  0.00    -0.744 OA
ENDBRANCH  68  71
ENDBRANCH  50  64
BRANCH  51  75
ATOM     75  C   UNL A   1      41.746  26.832  27.502  1.00  0.00     0.023 A 
ATOM     76  C   UNL A   1      42.485  27.367  26.431  1.00  0.00     0.012 A 
ATOM     77  C   UNL A   1      41.410  25.464  27.498  1.00  0.00     0.148 A 
ATOM     78  C   UNL A   1      42.887  26.553  25.372  1.00  0.00     0.002 A 
ATOM     79  C   UNL A   1      41.852  24.650  26.463  1.00  0.00     0.091 A 
ATOM     80  F   UNL A   1      40.698  24.984  28.526  1.00  0.00    -0.205 F 
ATOM     81  C   UNL A   1      42.583  25.194  25.394  1.00  0.00     0.022 A 
BRANCH  79  82
ATOM     82  S   UNL A   1      41.617  22.869  26.467  1.00  0.00     0.127 S 
ATOM     83  O   UNL A   1      42.323  22.472  25.252  1.00  0.00    -0.237 OA
ATOM     84  O   UNL A   1      42.274  22.484  27.717  1.00  0.00    -0.237 OA
ATOM     85  O   UNL A   1      40.176  22.661  26.454  1.00  0.00    -0.744 OA
ENDBRANCH  79  82
ENDBRANCH  51  75
BRANCH  63  86
ATOM     86  C   UNL A   1      44.267  27.459  34.001  1.00  0.00     0.023 A 
ATOM     87  C   UNL A   1      45.492  28.152  34.002  1.00  0.00     0.012 A 
ATOM     88  C   UNL A   1      44.113  26.309  34.798  1.00  0.00     0.148 A 
ATOM     89  C   UNL A   1      46.551  27.711  34.793  1.00  0.00     0.002 A 
ATOM     90  C   UNL A   1      45.163  25.891  35.606  1.00  0.00     0.091 A 
ATOM     91  F   UNL A   1      42.934  25.671  34.777  1.00  0.00    -0.205 F 
ATOM     92  C   UNL A   1      46.384  26.589  35.602  1.00  0.00     0.022 A 
BRANCH  90  93
ATOM     93  S   UNL A   1      45.029  24.504  36.739  1.00  0.00     0.127 S 
ATOM     94  O   UNL A   1      43.847  24.868  37.520  1.00  0.00    -0.237 OA
ATOM     95  O   UNL A   1      44.836  23.380  35.825  1.00  0.00    -0.237 OA
ATOM     96  O   UNL A   1      46.275  24.475  37.493  1.00  0.00    -0.744 OA
ENDBRANCH  90  93
ENDBRANCH  63  86
ENDBRANCH  37  38
ENDBRANCH  29  32
ENDBRANCH  27  28
ENDBRANCH   1  27
TORSDOF 18
ENDMDL
MODEL 2
REMARK VINA RESULT:     -11.9      5.202     10.328
REMARK SMILES COc1cc([N+](=O)[O-])cc2c1=N[C@H](C(=O)NCCCNC(=O)c1ccc(-c3c4nc(c(-c5cccc(S(=O)(=O)[O-])c5F)c5ccc([nH]5)c(-c5cccc(S(=O)(=O)[O-])c5F)c5nc(c(-c6cccc(S(=O)(=O)[O-])c6F)c6ccc3[nH]6)C=C5)C=C4)cc1)C=2CC[NH3+]
REMARK SMILES IDX 18 1 17 2 16 3 14 4 15 5 13 7 3 8 4 9 11 10 5 11 10 12 12 13
REMARK SMILES IDX 9 14 86 15 2 16 1 17 6 18 7 19 8 20 87 21 88 22 89 23 19 27
REMARK SMILES IDX 20 28 21 29 22 31 23 32 24 33 85 34 25 35 84 36 26 37 27 38
REMARK SMILES IDX 28 39 78 40 29 41 83 42 77 43 79 44 30 45 82 46 76 47 75 48
REMARK SMILES IDX 31 50 63 51 43 52 62 53 44 54 47 55 61 56 80 57 45 58 46 59
REMARK SMILES IDX 60 61 81 62 48 63 32 64 33 65 41 66 34 67 36 68 42 69 35 70
REMARK SMILES IDX 37 71 38 72 39 73 40 74 64 75 65 76 73 77 66 78 68 79 74 80
REMARK SMILES IDX 67 81 69 82 70 83 71 84 72 85 49 86 50 87 58 88 51 89 53 90
REMARK SMILES IDX 59 91 52 92 54 93 55 94 56 95 57 96
REMARK H PARENT 16 6 89 24 89 25 89 26 20 30 79 49 47 60
REMARK Flexibility Score: inf
ROOT
ATOM      1  C   UNL A   1      36.104  22.269  24.240  1.00  0.00     0.042 C 
ENDROOT
BRANCH   1   2
ATOM      2  C   UNL A   1      34.842  23.104  24.327  1.00  0.00     0.117 C 
BRANCH   2   3
ATOM      3  N   UNL A   1      34.690  24.028  23.213  1.00  0.00    -0.354 N 
ATOM      4  C   UNL A   1      33.867  25.112  23.076  1.00  0.00     0.249 C 
ATOM      5  O   UNL A   1      34.028  25.793  22.059  1.00  0.00    -0.272 OA
ATOM      6  H   UNL A   1      35.268  23.845  22.438  1.00  0.00     0.163 HD
BRANCH   4   7
ATOM      7  C   UNL A   1      32.750  25.409  24.122  1.00  0.00     0.222 C 
ATOM      8  C   UNL A   1      31.827  28.954  24.309  1.00  0.00     0.151 A 
ATOM      9  C   UNL A   1      30.660  29.497  23.907  1.00  0.00     0.134 A 
ATOM     10  C   UNL A   1      31.986  27.480  24.154  1.00  0.00     0.109 A 
ATOM     11  C   UNL A   1      29.577  28.700  23.331  1.00  0.00     0.273 A 
ATOM     12  C   UNL A   1      30.904  26.726  23.506  1.00  0.00     0.012 A 
ATOM     13  N   UNL A   1      32.983  26.795  24.605  1.00  0.00    -0.263 NA
ATOM     14  C   UNL A   1      29.680  27.370  23.135  1.00  0.00     0.096 A 
ATOM     15  C   UNL A   1      31.342  25.460  23.557  1.00  0.00    -0.021 C 
BRANCH   8  16
ATOM     16  O   UNL A   1      32.909  29.604  24.853  1.00  0.00    -0.494 OA
ATOM     17  C   UNL A   1      32.835  30.044  26.198  1.00  0.00     0.278 C 
ENDBRANCH   8  16
BRANCH  11  18
ATOM     18  N   UNL A   1      28.316  29.347  22.942  1.00  0.00     0.062 N 
ATOM     19  O   UNL A   1      27.297  28.647  22.849  1.00  0.00    -0.258 OA
ATOM     20  O   UNL A   1      28.348  30.567  22.730  1.00  0.00    -0.258 OA
ENDBRANCH  11  18
BRANCH  15  21
ATOM     21  C   UNL A   1      30.516  24.221  23.322  1.00  0.00     0.096 C 
BRANCH  21  22
ATOM     22  C   UNL A   1      31.154  22.851  23.584  1.00  0.00     0.263 C 
BRANCH  22  23
ATOM     23  N   UNL A   1      31.750  22.276  22.378  1.00  0.00    -0.357 N 
ATOM     24  H   UNL A   1      32.054  23.026  21.758  1.00  0.00     0.344 HD
ATOM     25  H   UNL A   1      31.059  21.699  21.899  1.00  0.00     0.344 HD
ATOM     26  H   UNL A   1      32.552  21.702  22.637  1.00  0.00     0.344 HD
ENDBRANCH  22  23
ENDBRANCH  21  22
ENDBRANCH  15  21
ENDBRANCH   4   7
ENDBRANCH   2   3
ENDBRANCH   1   2
BRANCH   1  27
ATOM     27  C   UNL A   1      36.679  21.823  25.571  1.00  0.00     0.118 C 
BRANCH  27  28
ATOM     28  N   UNL A   1      37.801  20.900  25.460  1.00  0.00    -0.352 N 
ATOM     29  C   UNL A   1      39.114  21.050  25.862  1.00  0.00     0.251 C 
ATOM     30  H   UNL A   1      37.591  20.038  25.033  1.00  0.00     0.163 HD
ATOM     31  O   UNL A   1      39.932  20.179  25.608  1.00  0.00    -0.269 OA
BRANCH  29  32
ATOM     32  C   UNL A   1      39.532  22.297  26.546  1.00  0.00     0.039 A 
ATOM     33  C   UNL A   1      39.035  23.534  26.141  1.00  0.00     0.014 A 
ATOM     34  C   UNL A   1      40.493  22.230  27.558  1.00  0.00     0.014 A 
ATOM     35  C   UNL A   1      39.672  24.695  26.558  1.00  0.00     0.010 A 
ATOM     36  C   UNL A   1      41.048  23.409  28.068  1.00  0.00     0.010 A 
ATOM     37  C   UNL A   1      40.700  24.651  27.515  1.00  0.00    -0.014 A 
BRANCH  37  38
ATOM     38  C   UNL A   1      41.399  25.914  27.881  1.00  0.00     0.031 A 
ATOM     39  C   UNL A   1      42.778  26.228  27.353  1.00  0.00     0.074 A 
ATOM     40  C   UNL A   1      40.749  26.829  28.629  1.00  0.00     0.049 A 
ATOM     41  N   UNL A   1      43.475  27.328  27.492  1.00  0.00    -0.248 NA
ATOM     42  C   UNL A   1      43.469  25.184  26.577  1.00  0.00     0.031 C 
ATOM     43  C   UNL A   1      39.425  26.637  29.227  1.00  0.00     0.029 A 
ATOM     44  N   UNL A   1      41.087  28.111  28.980  1.00  0.00    -0.354 N 
ATOM     45  C   UNL A   1      44.696  27.091  26.869  1.00  0.00     0.074 A 
ATOM     46  C   UNL A   1      44.651  25.742  26.352  1.00  0.00     0.031 C 
ATOM     47  C   UNL A   1      39.032  27.782  29.801  1.00  0.00     0.029 A 
ATOM     48  C   UNL A   1      40.094  28.773  29.663  1.00  0.00     0.049 A 
ATOM     49  H   UNL A   1      41.958  28.518  28.765  1.00  0.00     0.167 HD
ATOM     50  C   UNL A   1      45.747  27.929  26.715  1.00  0.00     0.034 A 
ATOM     51  C   UNL A   1      40.033  30.038  30.122  1.00  0.00     0.034 A 
ATOM     52  C   UNL A   1      45.764  29.298  27.148  1.00  0.00     0.049 A 
ATOM     53  C   UNL A   1      41.196  30.959  29.905  1.00  0.00     0.074 A 
ATOM     54  C   UNL A   1      46.759  30.242  26.963  1.00  0.00     0.029 A 
ATOM     55  N   UNL A   1      44.741  29.922  27.842  1.00  0.00    -0.354 N 
ATOM     56  N   UNL A   1      42.297  30.740  29.229  1.00  0.00    -0.248 NA
ATOM     57  C   UNL A   1      41.111  32.298  30.505  1.00  0.00     0.031 C 
ATOM     58  C   UNL A   1      46.337  31.439  27.546  1.00  0.00     0.029 A 
ATOM     59  C   UNL A   1      45.083  31.237  28.099  1.00  0.00     0.049 A 
ATOM     60  H   UNL A   1      43.897  29.493  28.113  1.00  0.00     0.167 HD
ATOM     61  C   UNL A   1      43.038  31.912  29.324  1.00  0.00     0.074 A 
ATOM     62  C   UNL A   1      42.250  32.848  30.098  1.00  0.00     0.031 C 
ATOM     63  C   UNL A   1      44.272  32.173  28.833  1.00  0.00     0.034 A 
BRANCH  50  64
ATOM     64  C   UNL A   1      46.959  27.422  25.982  1.00  0.00     0.023 A 
ATOM     65  C   UNL A   1      47.818  26.512  26.626  1.00  0.00     0.012 A 
ATOM     66  C   UNL A   1      47.182  27.755  24.631  1.00  0.00     0.148 A 
ATOM     67  C   UNL A   1      48.890  25.944  25.940  1.00  0.00     0.002 A 
ATOM     68  C   UNL A   1      48.238  27.166  23.946  1.00  0.00     0.091 A 
ATOM     69  F   UNL A   1      46.355  28.632  24.045  1.00  0.00    -0.205 F 
ATOM     70  C   UNL A   1      49.095  26.263  24.600  1.00  0.00     0.022 A 
BRANCH  68  71
ATOM     71  S   UNL A   1      48.561  27.467  22.204  1.00  0.00     0.127 S 
ATOM     72  O   UNL A   1      48.655  26.103  21.684  1.00  0.00    -0.237 OA
ATOM     73  O   UNL A   1      47.362  28.195  21.791  1.00  0.00    -0.237 OA
ATOM     74  O   UNL A   1      49.794  28.238  22.150  1.00  0.00    -0.744 OA
ENDBRANCH  68  71
ENDBRANCH  50  64
BRANCH  51  75
ATOM     75  C   UNL A   1      38.784  30.510  30.780  1.00  0.00     0.023 A 
ATOM     76  C   UNL A   1      38.684  30.453  32.183  1.00  0.00     0.012 A 
ATOM     77  C   UNL A   1      37.744  31.097  30.035  1.00  0.00     0.148 A 
ATOM     78  C   UNL A   1      37.566  30.977  32.834  1.00  0.00     0.002 A 
ATOM     79  C   UNL A   1      36.655  31.657  30.692  1.00  0.00     0.091 A 
ATOM     80  F   UNL A   1      37.862  31.128  28.700  1.00  0.00    -0.205 F 
ATOM     81  C   UNL A   1      36.561  31.589  32.091  1.00  0.00     0.022 A 
BRANCH  79  82
ATOM     82  S   UNL A   1      35.374  32.575  29.831  1.00  0.00     0.127 S 
ATOM     83  O   UNL A   1      34.347  32.691  30.862  1.00  0.00    -0.237 OA
ATOM     84  O   UNL A   1      36.067  33.822  29.506  1.00  0.00    -0.237 OA
ATOM     85  O   UNL A   1      35.017  31.764  28.675  1.00  0.00    -0.744 OA
ENDBRANCH  79  82
ENDBRANCH  51  75
BRANCH  63  86
ATOM     86  C   UNL A   1      44.883  33.514  29.123  1.00  0.00     0.023 A 
ATOM     87  C   UNL A   1      45.676  33.663  30.276  1.00  0.00     0.012 A 
ATOM     88  C   UNL A   1      44.805  34.562  28.186  1.00  0.00     0.148 A 
ATOM     89  C   UNL A   1      46.390  34.840  30.494  1.00  0.00     0.002 A 
ATOM     90  C   UNL A   1      45.542  35.721  28.395  1.00  0.00     0.091 A 
ATOM     91  F   UNL A   1      44.044  34.389  27.097  1.00  0.00    -0.205 F 
ATOM     92  C   UNL A   1      46.332  35.863  29.550  1.00  0.00     0.022 A 
BRANCH  90  93
ATOM     93  S   UNL A   1      45.596  37.069  27.208  1.00  0.00     0.127 S 
ATOM     94  O   UNL A   1      46.372  38.075  27.933  1.00  0.00    -0.237 OA
ATOM     95  O   UNL A   1      46.294  36.454  26.080  1.00  0.00    -0.237 OA
ATOM     96  O   UNL A   1      44.211  37.435  26.948  1.00  0.00    -0.744 OA
ENDBRANCH  90  93
ENDBRANCH  63  86
ENDBRANCH  37  38
ENDBRANCH  29  32
ENDBRANCH  27  28
ENDBRANCH   1  27
TORSDOF 18
ENDMDL
MODEL 3
REMARK VINA RESULT:     -11.9      1.380      1.998
REMARK SMILES COc1cc([N+](=O)[O-])cc2c1=N[C@H](C(=O)NCCCNC(=O)c1ccc(-c3c4nc(c(-c5cccc(S(=O)(=O)[O-])c5F)c5ccc([nH]5)c(-c5cccc(S(=O)(=O)[O-])c5F)c5nc(c(-c6cccc(S(=O)(=O)[O-])c6F)c6ccc3[nH]6)C=C5)C=C4)cc1)C=2CC[NH3+]
REMARK SMILES IDX 18 1 17 2 16 3 14 4 15 5 13 7 3 8 4 9 11 10 5 11 10 12 12 13
REMARK SMILES IDX 9 14 86 15 2 16 1 17 6 18 7 19 8 20 87 21 88 22 89 23 19 27
REMARK SMILES IDX 20 28 21 29 22 31 23 32 24 33 85 34 25 35 84 36 26 37 27 38
REMARK SMILES IDX 28 39 78 40 29 41 83 42 77 43 79 44 30 45 82 46 76 47 75 48
REMARK SMILES IDX 31 50 63 51 43 52 62 53 44 54 47 55 61 56 80 57 45 58 46 59
REMARK SMILES IDX 60 61 81 62 48 63 32 64 33 65 41 66 34 67 36 68 42 69 35 70
REMARK SMILES IDX 37 71 38 72 39 73 40 74 64 75 65 76 73 77 66 78 68 79 74 80
REMARK SMILES IDX 67 81 69 82 70 83 71 84 72 85 49 86 50 87 58 88 51 89 53 90
REMARK SMILES IDX 59 91 52 92 54 93 55 94 56 95 57 96
REMARK H PARENT 16 6 89 24 89 25 89 26 20 30 79 49 47 60
REMARK Flexibility Score: inf
ROOT
ATOM      1  C   UNL A   1      32.880  29.170  24.948  1.00  0.00     0.042 C 
ENDROOT
BRANCH   1   2
ATOM      2  C   UNL A   1      33.298  27.745  24.645  1.00  0.00     0.117 C 
BRANCH   2   3
ATOM      3  N   UNL A   1      32.933  26.806  25.693  1.00  0.00    -0.354 N 
ATOM      4  C   UNL A   1      32.967  25.438  25.700  1.00  0.00     0.249 C 
ATOM      5  O   UNL A   1      32.706  24.892  26.776  1.00  0.00    -0.272 OA
ATOM      6  H   UNL A   1      32.612  27.217  26.528  1.00  0.00     0.163 HD
BRANCH   4   7
ATOM      7  C   UNL A   1      33.250  24.636  24.393  1.00  0.00     0.222 C 
ATOM      8  C   UNL A   1      34.897  21.412  24.984  1.00  0.00     0.151 A 
ATOM      9  C   UNL A   1      34.347  20.193  24.816  1.00  0.00     0.134 A 
ATOM     10  C   UNL A   1      34.047  22.596  24.669  1.00  0.00     0.109 A 
ATOM     11  C   UNL A   1      32.973  20.006  24.348  1.00  0.00     0.273 A 
ATOM     12  C   UNL A   1      32.651  22.367  24.272  1.00  0.00     0.012 A 
ATOM     13  N   UNL A   1      34.463  23.818  24.656  1.00  0.00    -0.263 NA
ATOM     14  C   UNL A   1      32.150  21.039  24.083  1.00  0.00     0.096 A 
ATOM     15  C   UNL A   1      32.195  23.605  24.034  1.00  0.00    -0.021 C 
BRANCH   8  16
ATOM     16  O   UNL A   1      36.166  21.704  25.422  1.00  0.00    -0.494 OA
ATOM     17  C   UNL A   1      37.208  21.819  24.468  1.00  0.00     0.278 C 
ENDBRANCH   8  16
BRANCH  11  18
ATOM     18  N   UNL A   1      32.443  18.649  24.152  1.00  0.00     0.062 N 
ATOM     19  O   UNL A   1      32.433  18.179  23.006  1.00  0.00    -0.258 OA
ATOM     20  O   UNL A   1      32.036  18.050  25.157  1.00  0.00    -0.258 OA
ENDBRANCH  11  18
BRANCH  15  21
ATOM     21  C   UNL A   1      30.927  23.962  23.303  1.00  0.00     0.096 C 
BRANCH  21  22
ATOM     22  C   UNL A   1      30.404  25.402  23.396  1.00  0.00     0.263 C 
BRANCH  22  23
ATOM     23  N   UNL A   1      29.439  25.574  24.481  1.00  0.00    -0.357 N 
ATOM     24  H   UNL A   1      28.819  26.354  24.265  1.00  0.00     0.344 HD
ATOM     25  H   UNL A   1      29.935  25.766  25.351  1.00  0.00     0.344 HD
ATOM     26  H   UNL A   1      28.889  24.721  24.584  1.00  0.00     0.344 HD
ENDBRANCH  22  23
ENDBRANCH  21  22
ENDBRANCH  15  21
ENDBRANCH   4   7
ENDBRANCH   2   3
ENDBRANCH   1   2
BRANCH   1  27
ATOM     27  C   UNL A   1      32.434  29.426  26.375  1.00  0.00     0.118 C 
BRANCH  27  28
ATOM     28  N   UNL A   1      32.228  30.832  26.697  1.00  0.00    -0.352 N 
ATOM     29  C   UNL A   1      33.090  31.743  27.274  1.00  0.00     0.251 C 
ATOM     30  H   UNL A   1      31.337  31.185  26.467  1.00  0.00     0.163 HD
ATOM     31  O   UNL A   1      32.698  32.870  27.534  1.00  0.00    -0.269 OA
BRANCH  29  32
ATOM     32  C   UNL A   1      34.467  31.325  27.630  1.00  0.00     0.039 A 
ATOM     33  C   UNL A   1      34.754  29.995  27.928  1.00  0.00     0.014 A 
ATOM     34  C   UNL A   1      35.467  32.294  27.737  1.00  0.00     0.014 A 
ATOM     35  C   UNL A   1      35.946  29.681  28.569  1.00  0.00     0.010 A 
ATOM     36  C   UNL A   1      36.715  31.949  28.268  1.00  0.00     0.010 A 
ATOM     37  C   UNL A   1      36.938  30.656  28.765  1.00  0.00    -0.014 A 
BRANCH  37  38
ATOM     38  C   UNL A   1      38.171  30.289  29.515  1.00  0.00     0.031 A 
ATOM     39  C   UNL A   1      38.365  30.704  30.953  1.00  0.00     0.074 A 
ATOM     40  C   UNL A   1      39.088  29.497  28.922  1.00  0.00     0.049 A 
ATOM     41  N   UNL A   1      39.330  30.375  31.776  1.00  0.00    -0.248 NA
ATOM     42  C   UNL A   1      37.362  31.603  31.549  1.00  0.00     0.031 C 
ATOM     43  C   UNL A   1      39.035  29.051  27.528  1.00  0.00     0.029 A 
ATOM     44  N   UNL A   1      40.216  28.896  29.419  1.00  0.00    -0.354 N 
ATOM     45  C   UNL A   1      39.078  31.061  32.959  1.00  0.00     0.074 A 
ATOM     46  C   UNL A   1      37.872  31.830  32.753  1.00  0.00     0.031 C 
ATOM     47  C   UNL A   1      40.035  28.187  27.304  1.00  0.00     0.029 A 
ATOM     48  C   UNL A   1      40.834  28.059  28.518  1.00  0.00     0.049 A 
ATOM     49  H   UNL A   1      40.552  29.049  30.332  1.00  0.00     0.167 HD
ATOM     50  C   UNL A   1      39.770  31.032  34.122  1.00  0.00     0.034 A 
ATOM     51  C   UNL A   1      41.916  27.268  28.650  1.00  0.00     0.034 A 
ATOM     52  C   UNL A   1      40.918  30.203  34.362  1.00  0.00     0.049 A 
ATOM     53  C   UNL A   1      42.643  27.224  29.960  1.00  0.00     0.074 A 
ATOM     54  C   UNL A   1      41.634  30.053  35.537  1.00  0.00     0.029 A 
ATOM     55  N   UNL A   1      41.513  29.381  33.420  1.00  0.00    -0.354 N 
ATOM     56  N   UNL A   1      42.328  27.807  31.090  1.00  0.00    -0.248 NA
ATOM     57  C   UNL A   1      43.868  26.414  30.020  1.00  0.00     0.031 C 
ATOM     58  C   UNL A   1      42.664  29.138  35.305  1.00  0.00     0.029 A 
ATOM     59  C   UNL A   1      42.591  28.724  33.984  1.00  0.00     0.049 A 
ATOM     60  H   UNL A   1      41.213  29.279  32.487  1.00  0.00     0.167 HD
ATOM     61  C   UNL A   1      43.315  27.438  31.995  1.00  0.00     0.074 A 
ATOM     62  C   UNL A   1      44.224  26.557  31.291  1.00  0.00     0.031 C 
ATOM     63  C   UNL A   1      43.464  27.818  33.286  1.00  0.00     0.034 A 
BRANCH  50  64
ATOM     64  C   UNL A   1      39.271  31.869  35.267  1.00  0.00     0.023 A 
ATOM     65  C   UNL A   1      38.373  31.301  36.192  1.00  0.00     0.012 A 
ATOM     66  C   UNL A   1      39.774  33.167  35.491  1.00  0.00     0.148 A 
ATOM     67  C   UNL A   1      37.974  32.015  37.320  1.00  0.00     0.002 A 
ATOM     68  C   UNL A   1      39.390  33.863  36.630  1.00  0.00     0.091 A 
ATOM     69  F   UNL A   1      40.618  33.687  34.589  1.00  0.00    -0.205 F 
ATOM     70  C   UNL A   1      38.488  33.290  37.544  1.00  0.00     0.022 A 
BRANCH  68  71
ATOM     71  S   UNL A   1      40.032  35.490  37.042  1.00  0.00     0.127 S 
ATOM     72  O   UNL A   1      39.485  36.305  35.957  1.00  0.00    -0.237 OA
ATOM     73  O   UNL A   1      39.429  35.735  38.352  1.00  0.00    -0.237 OA
ATOM     74  O   UNL A   1      41.482  35.361  37.050  1.00  0.00    -0.744 OA
ENDBRANCH  68  71
ENDBRANCH  50  64
BRANCH  51  75
ATOM     75  C   UNL A   1      42.326  26.408  27.506  1.00  0.00     0.023 A 
ATOM     76  C   UNL A   1      43.222  26.920  26.550  1.00  0.00     0.012 A 
ATOM     77  C   UNL A   1      41.912  25.065  27.419  1.00  0.00     0.148 A 
ATOM     78  C   UNL A   1      43.701  26.107  25.521  1.00  0.00     0.002 A 
ATOM     79  C   UNL A   1      42.427  24.249  26.420  1.00  0.00     0.091 A 
ATOM     80  F   UNL A   1      41.051  24.607  28.338  1.00  0.00    -0.205 F 
ATOM     81  C   UNL A   1      43.314  24.770  25.465  1.00  0.00     0.022 A 
BRANCH  79  82
ATOM     82  S   UNL A   1      42.085  22.487  26.340  1.00  0.00     0.127 S 
ATOM     83  O   UNL A   1      42.766  22.107  25.106  1.00  0.00    -0.237 OA
ATOM     84  O   UNL A   1      42.718  22.004  27.568  1.00  0.00    -0.237 OA
ATOM     85  O   UNL A   1      40.634  22.367  26.321  1.00  0.00    -0.744 OA
ENDBRANCH  79  82
ENDBRANCH  51  75
BRANCH  63  86
ATOM     86  C   UNL A   1      44.660  27.315  34.042  1.00  0.00     0.023 A 
ATOM     87  C   UNL A   1      45.823  28.107  34.075  1.00  0.00     0.012 A 
ATOM     88  C   UNL A   1      44.579  26.156  34.837  1.00  0.00     0.148 A 
ATOM     89  C   UNL A   1      46.893  27.755  34.896  1.00  0.00     0.002 A 
ATOM     90  C   UNL A   1      45.639  25.826  35.674  1.00  0.00     0.091 A 
ATOM     91  F   UNL A   1      43.458  25.423  34.784  1.00  0.00    -0.205 F 
ATOM     92  C   UNL A   1      46.797  26.622  35.702  1.00  0.00     0.022 A 
BRANCH  90  93
ATOM     93  S   UNL A   1      45.589  24.432  36.805  1.00  0.00     0.127 S 
ATOM     94  O   UNL A   1      46.983  24.348  37.239  1.00  0.00    -0.237 OA
ATOM     95  O   UNL A   1      44.656  24.901  37.828  1.00  0.00    -0.237 OA
ATOM     96  O   UNL A   1      45.122  23.293  36.024  1.00  0.00    -0.744 OA
ENDBRANCH  90  93
ENDBRANCH  63  86
ENDBRANCH  37  38
ENDBRANCH  29  32
ENDBRANCH  27  28
ENDBRANCH   1  27
TORSDOF 18
ENDMDL
