MODEL 1
REMARK VINA RESULT:     -13.2      0.000      0.000
REMARK SMILES C/C(=N\Nc1ccccc1C(=O)NCCCNC(=O)c1ccc(-c2c3nc(c(-c4cccc(S(=O)(=O)[O-])c4F)c4ccc([nH]4)c(-c4cccc(S(=O)(=O)[O-])c4F)c4nc(c(-c5cccc(S(=O)(=O)[O-])c5F)c5ccc2[nH]5)C=C4)C=C3)cc1)c1ccc(S(C)(=O)=O)cc1
REMARK SMILES IDX 14 1 13 2 11 3 12 4 10 6 5 7 6 8 7 9 9 10 8 11 4 12 3 14
REMARK SMILES IDX 1 15 2 16 83 17 84 18 92 19 85 20 91 21 86 22 87 23 88 24
REMARK SMILES IDX 89 25 90 26 15 27 16 28 17 29 18 30 19 32 20 33 21 34 82 35
REMARK SMILES IDX 22 36 81 37 23 38 24 39 25 40 75 41 26 42 80 43 74 44 76 45
REMARK SMILES IDX 27 46 79 47 73 48 72 49 28 51 60 52 40 53 59 54 41 55 44 56
REMARK SMILES IDX 58 57 77 58 42 59 43 60 57 62 78 63 45 64 29 65 30 66 38 67
REMARK SMILES IDX 31 68 33 69 39 70 32 71 34 72 35 73 36 74 37 75 61 76 62 77
REMARK SMILES IDX 70 78 63 79 65 80 71 81 64 82 66 83 67 84 68 85 69 86 46 87
REMARK SMILES IDX 47 88 55 89 48 90 50 91 56 92 49 93 51 94 52 95 53 96 54 97
REMARK H PARENT 13 5 4 13 17 31 76 50 44 61
REMARK Flexibility Score: inf
ROOT
ATOM      1  C   UNL A   1      32.326  27.169  26.029  1.00  0.00     0.118 C 
ENDROOT
BRANCH   1   2
ATOM      2  N   UNL A   1      31.592  26.099  26.681  1.00  0.00    -0.352 N 
ATOM      3  C   UNL A   1      31.771  24.744  26.547  1.00  0.00     0.253 C 
ATOM      4  O   UNL A   1      31.112  23.978  27.251  1.00  0.00    -0.269 OA
ATOM      5  H   UNL A   1      30.876  26.379  27.295  1.00  0.00     0.163 HD
BRANCH   3   6
ATOM      6  C   UNL A   1      32.645  24.183  25.489  1.00  0.00     0.064 A 
ATOM      7  C   UNL A   1      32.234  23.830  24.193  1.00  0.00     0.069 A 
ATOM      8  C   UNL A   1      33.175  23.177  23.366  1.00  0.00     0.028 A 
ATOM      9  C   UNL A   1      34.493  22.962  23.770  1.00  0.00     0.002 A 
ATOM     10  C   UNL A   1      33.988  23.999  25.877  1.00  0.00     0.016 A 
ATOM     11  C   UNL A   1      34.910  23.404  25.018  1.00  0.00     0.001 A 
BRANCH   7  12
ATOM     12  N   UNL A   1      31.029  24.197  23.554  1.00  0.00    -0.277 N 
ATOM     13  H   UNL A   1      30.542  23.481  23.083  1.00  0.00     0.190 HD
BRANCH  12  14
ATOM     14  N   UNL A   1      30.478  25.427  23.522  1.00  0.00    -0.180 NA
ATOM     15  C   UNL A   1      32.322  26.298  22.057  1.00  0.00     0.069 C 
ATOM     16  C   UNL A   1      31.017  26.381  22.819  1.00  0.00     0.065 C 
BRANCH  16  17
ATOM     17  C   UNL A   1      30.270  27.671  22.757  1.00  0.00    -0.002 A 
ATOM     18  C   UNL A   1      30.847  28.773  22.114  1.00  0.00     0.011 A 
ATOM     19  C   UNL A   1      29.052  27.811  23.429  1.00  0.00     0.011 A 
ATOM     20  C   UNL A   1      30.219  30.021  22.153  1.00  0.00     0.021 A 
ATOM     21  C   UNL A   1      28.415  29.053  23.465  1.00  0.00     0.021 A 
ATOM     22  C   UNL A   1      29.011  30.154  22.843  1.00  0.00     0.067 A 
BRANCH  22  23
ATOM     23  S   UNL A   1      28.215  31.741  22.920  1.00  0.00     0.175 S 
ATOM     24  C   UNL A   1      28.022  32.201  21.217  1.00  0.00     0.163 C 
ATOM     25  O   UNL A   1      26.904  31.539  23.502  1.00  0.00    -0.224 OA
ATOM     26  O   UNL A   1      29.155  32.671  23.521  1.00  0.00    -0.224 OA
ENDBRANCH  22  23
ENDBRANCH  16  17
ENDBRANCH  12  14
ENDBRANCH   7  12
ENDBRANCH   3   6
ENDBRANCH   1   2
BRANCH   1  27
ATOM     27  C   UNL A   1      31.673  28.531  26.156  1.00  0.00     0.042 C 
BRANCH  27  28
ATOM     28  C   UNL A   1      32.554  29.710  25.768  1.00  0.00     0.118 C 
BRANCH  28  29
ATOM     29  N   UNL A   1      32.320  30.949  26.507  1.00  0.00    -0.352 N 
ATOM     30  C   UNL A   1      33.185  31.700  27.277  1.00  0.00     0.251 C 
ATOM     31  H   UNL A   1      31.403  31.303  26.448  1.00  0.00     0.163 HD
ATOM     32  O   UNL A   1      32.825  32.776  27.746  1.00  0.00    -0.269 OA
BRANCH  30  33
ATOM     33  C   UNL A   1      34.521  31.156  27.604  1.00  0.00     0.039 A 
ATOM     34  C   UNL A   1      35.570  32.051  27.836  1.00  0.00     0.014 A 
ATOM     35  C   UNL A   1      34.704  29.793  27.821  1.00  0.00     0.014 A 
ATOM     36  C   UNL A   1      36.752  31.591  28.421  1.00  0.00     0.010 A 
ATOM     37  C   UNL A   1      35.822  29.363  28.523  1.00  0.00     0.010 A 
ATOM     38  C   UNL A   1      36.858  30.256  28.842  1.00  0.00    -0.014 A 
BRANCH  38  39
ATOM     39  C   UNL A   1      38.015  29.775  29.646  1.00  0.00     0.031 A 
ATOM     40  C   UNL A   1      38.227  30.289  31.045  1.00  0.00     0.074 A 
ATOM     41  C   UNL A   1      38.947  28.982  29.076  1.00  0.00     0.049 A 
ATOM     42  N   UNL A   1      39.229  30.079  31.859  1.00  0.00    -0.248 NA
ATOM     43  C   UNL A   1      37.205  31.205  31.580  1.00  0.00     0.031 C 
ATOM     44  C   UNL A   1      38.930  28.514  27.687  1.00  0.00     0.029 A 
ATOM     45  N   UNL A   1      40.112  28.459  29.583  1.00  0.00    -0.354 N 
ATOM     46  C   UNL A   1      38.986  30.878  32.970  1.00  0.00     0.074 A 
ATOM     47  C   UNL A   1      37.772  31.616  32.703  1.00  0.00     0.031 C 
ATOM     48  C   UNL A   1      40.023  27.769  27.457  1.00  0.00     0.029 A 
ATOM     49  C   UNL A   1      40.835  27.727  28.669  1.00  0.00     0.049 A 
ATOM     50  H   UNL A   1      40.401  28.594  30.514  1.00  0.00     0.167 HD
ATOM     51  C   UNL A   1      39.682  30.961  34.128  1.00  0.00     0.034 A 
ATOM     52  C   UNL A   1      42.021  27.095  28.789  1.00  0.00     0.034 A 
ATOM     53  C   UNL A   1      40.842  30.167  34.422  1.00  0.00     0.049 A 
ATOM     54  C   UNL A   1      42.720  27.110  30.121  1.00  0.00     0.074 A 
ATOM     55  C   UNL A   1      41.547  30.077  35.608  1.00  0.00     0.029 A 
ATOM     56  N   UNL A   1      41.467  29.321  33.519  1.00  0.00    -0.354 N 
ATOM     57  N   UNL A   1      42.373  27.723  31.226  1.00  0.00    -0.248 NA
ATOM     58  C   UNL A   1      43.951  26.313  30.238  1.00  0.00     0.031 C 
ATOM     59  C   UNL A   1      42.607  29.182  35.417  1.00  0.00     0.029 A 
ATOM     60  C   UNL A   1      42.551  28.705  34.117  1.00  0.00     0.049 A 
ATOM     61  H   UNL A   1      41.181  29.180  32.587  1.00  0.00     0.167 HD
ATOM     62  C   UNL A   1      43.323  27.367  32.176  1.00  0.00     0.074 A 
ATOM     63  C   UNL A   1      44.247  26.463  31.522  1.00  0.00     0.031 C 
ATOM     64  C   UNL A   1      43.431  27.767  33.467  1.00  0.00     0.034 A 
BRANCH  51  65
ATOM     65  C   UNL A   1      39.152  31.894  35.186  1.00  0.00     0.023 A 
ATOM     66  C   UNL A   1      39.318  33.286  35.030  1.00  0.00     0.012 A 
ATOM     67  C   UNL A   1      38.484  31.404  36.325  1.00  0.00     0.148 A 
ATOM     68  C   UNL A   1      38.881  34.172  36.013  1.00  0.00     0.002 A 
ATOM     69  C   UNL A   1      38.007  32.297  37.278  1.00  0.00     0.091 A 
ATOM     70  F   UNL A   1      38.355  30.079  36.473  1.00  0.00    -0.205 F 
ATOM     71  C   UNL A   1      38.218  33.678  37.133  1.00  0.00     0.022 A 
BRANCH  69  72
ATOM     72  S   UNL A   1      37.067  31.761  38.712  1.00  0.00     0.127 S 
ATOM     73  O   UNL A   1      38.033  31.962  39.790  1.00  0.00    -0.237 OA
ATOM     74  O   UNL A   1      35.945  32.700  38.718  1.00  0.00    -0.237 OA
ATOM     75  O   UNL A   1      36.694  30.379  38.446  1.00  0.00    -0.744 OA
ENDBRANCH  69  72
ENDBRANCH  51  65
BRANCH  52  76
ATOM     76  C   UNL A   1      42.570  26.329  27.633  1.00  0.00     0.023 A 
ATOM     77  C   UNL A   1      43.534  26.932  26.801  1.00  0.00     0.012 A 
ATOM     78  C   UNL A   1      42.191  24.995  27.388  1.00  0.00     0.148 A 
ATOM     79  C   UNL A   1      44.093  26.230  25.732  1.00  0.00     0.002 A 
ATOM     80  C   UNL A   1      42.791  24.283  26.355  1.00  0.00     0.091 A 
ATOM     81  F   UNL A   1      41.266  24.442  28.185  1.00  0.00    -0.205 F 
ATOM     82  C   UNL A   1      43.730  24.903  25.517  1.00  0.00     0.022 A 
BRANCH  80  83
ATOM     83  S   UNL A   1      42.491  22.532  26.089  1.00  0.00     0.127 S 
ATOM     84  O   UNL A   1      43.126  21.938  27.261  1.00  0.00    -0.237 OA
ATOM     85  O   UNL A   1      41.028  22.473  26.083  1.00  0.00    -0.237 OA
ATOM     86  O   UNL A   1      43.107  22.217  24.807  1.00  0.00    -0.744 OA
ENDBRANCH  80  83
ENDBRANCH  52  76
BRANCH  64  87
ATOM     87  C   UNL A   1      44.575  27.217  34.277  1.00  0.00     0.023 A 
ATOM     88  C   UNL A   1      45.807  27.898  34.295  1.00  0.00     0.012 A 
ATOM     89  C   UNL A   1      44.400  26.079  35.090  1.00  0.00     0.148 A 
ATOM     90  C   UNL A   1      46.857  27.441  35.091  1.00  0.00     0.002 A 
ATOM     91  C   UNL A   1      45.436  25.657  35.915  1.00  0.00     0.091 A 
ATOM     92  F   UNL A   1      43.226  25.432  35.042  1.00  0.00    -0.205 F 
ATOM     93  C   UNL A   1      46.667  26.330  35.908  1.00  0.00     0.022 A 
BRANCH  91  94
ATOM     94  S   UNL A   1      45.245  24.295  37.071  1.00  0.00     0.127 S 
ATOM     95  O   UNL A   1      46.571  24.239  37.686  1.00  0.00    -0.237 OA
ATOM     96  O   UNL A   1      44.183  24.781  37.953  1.00  0.00    -0.237 OA
ATOM     97  O   UNL A   1      44.877  23.137  36.267  1.00  0.00    -0.744 OA
ENDBRANCH  91  94
ENDBRANCH  64  87
ENDBRANCH  38  39
ENDBRANCH  30  33
ENDBRANCH  28  29
ENDBRANCH  27  28
ENDBRANCH   1  27
TORSDOF 17
ENDMDL
MODEL 2
REMARK VINA RESULT:     -12.9      1.541      7.580
REMARK SMILES C/C(=N\Nc1ccccc1C(=O)NCCCNC(=O)c1ccc(-c2c3nc(c(-c4cccc(S(=O)(=O)[O-])c4F)c4ccc([nH]4)c(-c4cccc(S(=O)(=O)[O-])c4F)c4nc(c(-c5cccc(S(=O)(=O)[O-])c5F)c5ccc2[nH]5)C=C4)C=C3)cc1)c1ccc(S(C)(=O)=O)cc1
REMARK SMILES IDX 14 1 13 2 11 3 12 4 10 6 5 7 6 8 7 9 9 10 8 11 4 12 3 14
REMARK SMILES IDX 1 15 2 16 83 17 84 18 92 19 85 20 91 21 86 22 87 23 88 24
REMARK SMILES IDX 89 25 90 26 15 27 16 28 17 29 18 30 19 32 20 33 21 34 82 35
REMARK SMILES IDX 22 36 81 37 23 38 24 39 25 40 75 41 26 42 80 43 74 44 76 45
REMARK SMILES IDX 27 46 79 47 73 48 72 49 28 51 60 52 40 53 59 54 41 55 44 56
REMARK SMILES IDX 58 57 77 58 42 59 43 60 57 62 78 63 45 64 29 65 30 66 38 67
REMARK SMILES IDX 31 68 33 69 39 70 32 71 34 72 35 73 36 74 37 75 61 76 62 77
REMARK SMILES IDX 70 78 63 79 65 80 71 81 64 82 66 83 67 84 68 85 69 86 46 87
REMARK SMILES IDX 47 88 55 89 48 90 50 91 56 92 49 93 51 94 52 95 53 96 54 97
REMARK H PARENT 13 5 4 13 17 31 76 50 44 61
REMARK Flexibility Score: inf
ROOT
ATOM      1  C   UNL A   1      33.179  26.762  25.758  1.00  0.00     0.118 C 
ENDROOT
BRANCH   1   2
ATOM      2  N   UNL A   1      32.552  25.506  26.130  1.00  0.00    -0.352 N 
ATOM      3  C   UNL A   1      33.080  24.241  26.061  1.00  0.00     0.253 C 
ATOM      4  O   UNL A   1      32.432  23.293  26.507  1.00  0.00    -0.269 OA
ATOM      5  H   UNL A   1      31.632  25.570  26.474  1.00  0.00     0.163 HD
BRANCH   3   6
ATOM      6  C   UNL A   1      34.353  23.975  25.349  1.00  0.00     0.064 A 
ATOM      7  C   UNL A   1      34.479  23.700  23.978  1.00  0.00     0.069 A 
ATOM      8  C   UNL A   1      35.756  23.331  23.501  1.00  0.00     0.028 A 
ATOM      9  C   UNL A   1      36.881  23.321  24.328  1.00  0.00     0.002 A 
ATOM     10  C   UNL A   1      35.499  24.002  26.170  1.00  0.00     0.016 A 
ATOM     11  C   UNL A   1      36.757  23.690  25.660  1.00  0.00     0.001 A 
BRANCH   7  12
ATOM     12  N   UNL A   1      33.504  23.906  22.976  1.00  0.00    -0.277 N 
ATOM     13  H   UNL A   1      33.380  23.178  22.323  1.00  0.00     0.190 HD
BRANCH  12  14
ATOM     14  N   UNL A   1      32.726  24.996  22.822  1.00  0.00    -0.180 NA
ATOM     15  C   UNL A   1      30.648  23.678  23.324  1.00  0.00     0.069 C 
ATOM     16  C   UNL A   1      31.440  24.931  23.016  1.00  0.00     0.065 C 
BRANCH  16  17
ATOM     17  C   UNL A   1      30.685  26.214  22.933  1.00  0.00    -0.002 A 
ATOM     18  C   UNL A   1      31.293  27.339  22.364  1.00  0.00     0.011 A 
ATOM     19  C   UNL A   1      29.420  26.324  23.518  1.00  0.00     0.011 A 
ATOM     20  C   UNL A   1      30.649  28.579  22.390  1.00  0.00     0.021 A 
ATOM     21  C   UNL A   1      28.767  27.558  23.540  1.00  0.00     0.021 A 
ATOM     22  C   UNL A   1      29.393  28.682  22.993  1.00  0.00     0.067 A 
BRANCH  22  23
ATOM     23  S   UNL A   1      28.575  30.258  23.054  1.00  0.00     0.175 S 
ATOM     24  C   UNL A   1      28.668  30.848  21.383  1.00  0.00     0.163 C 
ATOM     25  O   UNL A   1      27.187  30.012  23.386  1.00  0.00    -0.224 OA
ATOM     26  O   UNL A   1      29.387  31.138  23.875  1.00  0.00    -0.224 OA
ENDBRANCH  22  23
ENDBRANCH  16  17
ENDBRANCH  12  14
ENDBRANCH   7  12
ENDBRANCH   3   6
ENDBRANCH   1   2
BRANCH   1  27
ATOM     27  C   UNL A   1      32.289  27.975  25.944  1.00  0.00     0.042 C 
BRANCH  27  28
ATOM     28  C   UNL A   1      32.906  29.301  25.521  1.00  0.00     0.118 C 
BRANCH  28  29
ATOM     29  N   UNL A   1      32.481  30.472  26.285  1.00  0.00    -0.352 N 
ATOM     30  C   UNL A   1      33.215  31.318  27.092  1.00  0.00     0.251 C 
ATOM     31  H   UNL A   1      31.524  30.692  26.214  1.00  0.00     0.163 HD
ATOM     32  O   UNL A   1      32.694  32.317  27.580  1.00  0.00    -0.269 OA
BRANCH  30  33
ATOM     33  C   UNL A   1      34.609  30.964  27.436  1.00  0.00     0.039 A 
ATOM     34  C   UNL A   1      35.532  31.994  27.638  1.00  0.00     0.014 A 
ATOM     35  C   UNL A   1      34.967  29.643  27.698  1.00  0.00     0.014 A 
ATOM     36  C   UNL A   1      36.762  31.711  28.236  1.00  0.00     0.010 A 
ATOM     37  C   UNL A   1      36.129  29.385  28.413  1.00  0.00     0.010 A 
ATOM     38  C   UNL A   1      37.038  30.415  28.701  1.00  0.00    -0.014 A 
BRANCH  38  39
ATOM     39  C   UNL A   1      38.245  30.115  29.520  1.00  0.00     0.031 A 
ATOM     40  C   UNL A   1      39.272  29.137  29.017  1.00  0.00     0.074 A 
ATOM     41  C   UNL A   1      38.353  30.616  30.769  1.00  0.00     0.049 A 
ATOM     42  N   UNL A   1      40.327  28.661  29.626  1.00  0.00    -0.248 NA
ATOM     43  C   UNL A   1      39.056  28.576  27.672  1.00  0.00     0.031 C 
ATOM     44  C   UNL A   1      37.365  31.475  31.429  1.00  0.00     0.029 A 
ATOM     45  N   UNL A   1      39.326  30.445  31.723  1.00  0.00    -0.354 N 
ATOM     46  C   UNL A   1      40.862  27.708  28.766  1.00  0.00     0.074 A 
ATOM     47  C   UNL A   1      39.986  27.636  27.618  1.00  0.00     0.031 C 
ATOM     48  C   UNL A   1      37.786  31.761  32.671  1.00  0.00     0.029 A 
ATOM     49  C   UNL A   1      39.058  31.086  32.911  1.00  0.00     0.049 A 
ATOM     50  H   UNL A   1      40.141  29.914  31.571  1.00  0.00     0.167 HD
ATOM     51  C   UNL A   1      42.002  26.990  28.894  1.00  0.00     0.034 A 
ATOM     52  C   UNL A   1      39.753  31.126  34.066  1.00  0.00     0.034 A 
ATOM     53  C   UNL A   1      42.911  27.123  29.997  1.00  0.00     0.049 A 
ATOM     54  C   UNL A   1      41.073  30.408  34.144  1.00  0.00     0.074 A 
ATOM     55  C   UNL A   1      44.153  26.540  30.166  1.00  0.00     0.029 A 
ATOM     56  N   UNL A   1      42.676  27.897  31.123  1.00  0.00    -0.354 N 
ATOM     57  N   UNL A   1      41.657  29.659  33.241  1.00  0.00    -0.248 NA
ATOM     58  C   UNL A   1      41.850  30.573  35.382  1.00  0.00     0.031 C 
ATOM     59  C   UNL A   1      44.665  26.955  31.400  1.00  0.00     0.029 A 
ATOM     60  C   UNL A   1      43.748  27.809  31.993  1.00  0.00     0.049 A 
ATOM     61  H   UNL A   1      41.864  28.432  31.280  1.00  0.00     0.167 HD
ATOM     62  C   UNL A   1      42.880  29.285  33.787  1.00  0.00     0.074 A 
ATOM     63  C   UNL A   1      42.963  29.912  35.091  1.00  0.00     0.031 C 
ATOM     64  C   UNL A   1      43.838  28.481  33.264  1.00  0.00     0.034 A 
BRANCH  51  65
ATOM     65  C   UNL A   1      42.356  26.052  27.768  1.00  0.00     0.023 A 
ATOM     66  C   UNL A   1      43.204  26.500  26.733  1.00  0.00     0.012 A 
ATOM     67  C   UNL A   1      41.866  24.733  27.735  1.00  0.00     0.148 A 
ATOM     68  C   UNL A   1      43.512  25.672  25.655  1.00  0.00     0.002 A 
ATOM     69  C   UNL A   1      42.218  23.896  26.681  1.00  0.00     0.091 A 
ATOM     70  F   UNL A   1      41.042  24.329  28.712  1.00  0.00    -0.205 F 
ATOM     71  C   UNL A   1      43.026  24.367  25.633  1.00  0.00     0.022 A 
BRANCH  69  72
ATOM     72  S   UNL A   1      41.709  22.175  26.610  1.00  0.00     0.127 S 
ATOM     73  O   UNL A   1      42.280  21.646  27.848  1.00  0.00    -0.237 OA
ATOM     74  O   UNL A   1      40.249  22.281  26.610  1.00  0.00    -0.237 OA
ATOM     75  O   UNL A   1      42.273  21.645  25.377  1.00  0.00    -0.744 OA
ENDBRANCH  69  72
ENDBRANCH  51  65
BRANCH  52  76
ATOM     76  C   UNL A   1      39.246  31.943  35.206  1.00  0.00     0.023 A 
ATOM     77  C   UNL A   1      38.321  31.376  36.105  1.00  0.00     0.012 A 
ATOM     78  C   UNL A   1      39.715  33.251  35.439  1.00  0.00     0.148 A 
ATOM     79  C   UNL A   1      37.854  32.103  37.200  1.00  0.00     0.002 A 
ATOM     80  C   UNL A   1      39.287  33.950  36.562  1.00  0.00     0.091 A 
ATOM     81  F   UNL A   1      40.588  33.776  34.568  1.00  0.00    -0.205 F 
ATOM     82  C   UNL A   1      38.346  33.385  37.435  1.00  0.00     0.022 A 
BRANCH  80  83
ATOM     83  S   UNL A   1      39.970  35.547  37.023  1.00  0.00     0.127 S 
ATOM     84  O   UNL A   1      39.285  35.813  38.285  1.00  0.00    -0.237 OA
ATOM     85  O   UNL A   1      41.396  35.242  37.148  1.00  0.00    -0.237 OA
ATOM     86  O   UNL A   1      39.645  36.446  35.924  1.00  0.00    -0.744 OA
ENDBRANCH  80  83
ENDBRANCH  52  76
BRANCH  64  87
ATOM     87  C   UNL A   1      45.077  28.243  34.085  1.00  0.00     0.023 A 
ATOM     88  C   UNL A   1      46.167  29.128  33.973  1.00  0.00     0.012 A 
ATOM     89  C   UNL A   1      45.124  27.201  35.032  1.00  0.00     0.148 A 
ATOM     90  C   UNL A   1      47.297  28.963  34.773  1.00  0.00     0.002 A 
ATOM     91  C   UNL A   1      46.235  27.071  35.858  1.00  0.00     0.091 A 
ATOM     92  F   UNL A   1      44.084  26.357  35.108  1.00  0.00    -0.205 F 
ATOM     93  C   UNL A   1      47.326  27.944  35.723  1.00  0.00     0.022 A 
BRANCH  91  94
ATOM     94  S   UNL A   1      46.313  25.849  37.172  1.00  0.00     0.127 S 
ATOM     95  O   UNL A   1      47.502  26.279  37.907  1.00  0.00    -0.237 OA
ATOM     96  O   UNL A   1      45.049  26.067  37.877  1.00  0.00    -0.237 OA
ATOM     97  O   UNL A   1      46.419  24.556  36.510  1.00  0.00    -0.744 OA
ENDBRANCH  91  94
ENDBRANCH  64  87
ENDBRANCH  38  39
ENDBRANCH  30  33
ENDBRANCH  28  29
ENDBRANCH  27  28
ENDBRANCH   1  27
TORSDOF 17
ENDMDL
MODEL 3
REMARK VINA RESULT:     -12.6      2.194      2.940
REMARK SMILES C/C(=N\Nc1ccccc1C(=O)NCCCNC(=O)c1ccc(-c2c3nc(c(-c4cccc(S(=O)(=O)[O-])c4F)c4ccc([nH]4)c(-c4cccc(S(=O)(=O)[O-])c4F)c4nc(c(-c5cccc(S(=O)(=O)[O-])c5F)c5ccc2[nH]5)C=C4)C=C3)cc1)c1ccc(S(C)(=O)=O)cc1
REMARK SMILES IDX 14 1 13 2 11 3 12 4 10 6 5 7 6 8 7 9 9 10 8 11 4 12 3 14
REMARK SMILES IDX 1 15 2 16 83 17 84 18 92 19 85 20 91 21 86 22 87 23 88 24
REMARK SMILES IDX 89 25 90 26 15 27 16 28 17 29 18 30 19 32 20 33 21 34 82 35
REMARK SMILES IDX 22 36 81 37 23 38 24 39 25 40 75 41 26 42 80 43 74 44 76 45
REMARK SMILES IDX 27 46 79 47 73 48 72 49 28 51 60 52 40 53 59 54 41 55 44 56
REMARK SMILES IDX 58 57 77 58 42 59 43 60 57 62 78 63 45 64 29 65 30 66 38 67
REMARK SMILES IDX 31 68 33 69 39 70 32 71 34 72 35 73 36 74 37 75 61 76 62 77
REMARK SMILES IDX 70 78 63 79 65 80 71 81 64 82 66 83 67 84 68 85 69 86 46 87
REMARK SMILES IDX 47 88 55 89 48 90 50 91 56 92 49 93 51 94 52 95 53 96 54 97
REMARK H PARENT 13 5 4 13 17 31 76 50 44 61
REMARK Flexibility Score: inf
ROOT
ATOM      1  C   UNL A   1      33.611  27.049  25.850  1.00  0.00     0.118 C 
ENDROOT
BRANCH   1   2
ATOM      2  N   UNL A   1      32.869  25.856  26.219  1.00  0.00    -0.352 N 
ATOM      3  C   UNL A   1      33.259  24.544  26.102  1.00  0.00     0.253 C 
ATOM      4  O   UNL A   1      32.531  23.659  26.552  1.00  0.00    -0.269 OA
ATOM      5  H   UNL A   1      31.974  26.006  26.600  1.00  0.00     0.163 HD
BRANCH   3   6
ATOM      6  C   UNL A   1      34.470  24.166  25.336  1.00  0.00     0.064 A 
ATOM      7  C   UNL A   1      34.499  23.816  23.976  1.00  0.00     0.069 A 
ATOM      8  C   UNL A   1      35.723  23.346  23.450  1.00  0.00     0.028 A 
ATOM      9  C   UNL A   1      36.892  23.308  24.212  1.00  0.00     0.002 A 
ATOM     10  C   UNL A   1      35.662  24.164  26.089  1.00  0.00     0.016 A 
ATOM     11  C   UNL A   1      36.868  23.750  25.527  1.00  0.00     0.001 A 
BRANCH   7  12
ATOM     12  N   UNL A   1      33.481  24.030  23.020  1.00  0.00    -0.277 N 
ATOM     13  H   UNL A   1      33.339  23.315  22.358  1.00  0.00     0.190 HD
BRANCH  12  14
ATOM     14  N   UNL A   1      32.685  25.114  22.923  1.00  0.00    -0.180 NA
ATOM     15  C   UNL A   1      30.644  23.758  23.475  1.00  0.00     0.069 C 
ATOM     16  C   UNL A   1      31.409  25.027  23.165  1.00  0.00     0.065 C 
BRANCH  16  17
ATOM     17  C   UNL A   1      30.635  26.302  23.143  1.00  0.00    -0.002 A 
ATOM     18  C   UNL A   1      29.383  26.362  23.766  1.00  0.00     0.011 A 
ATOM     19  C   UNL A   1      31.106  27.398  22.413  1.00  0.00     0.011 A 
ATOM     20  C   UNL A   1      28.590  27.507  23.649  1.00  0.00     0.021 A 
ATOM     21  C   UNL A   1      30.323  28.548  22.300  1.00  0.00     0.021 A 
ATOM     22  C   UNL A   1      29.062  28.589  22.903  1.00  0.00     0.067 A 
BRANCH  22  23
ATOM     23  S   UNL A   1      28.054  30.041  22.727  1.00  0.00     0.175 S 
ATOM     24  C   UNL A   1      28.957  31.292  23.603  1.00  0.00     0.163 C 
ATOM     25  O   UNL A   1      28.026  30.382  21.319  1.00  0.00    -0.224 OA
ATOM     26  O   UNL A   1      26.819  29.804  23.455  1.00  0.00    -0.224 OA
ENDBRANCH  22  23
ENDBRANCH  16  17
ENDBRANCH  12  14
ENDBRANCH   7  12
ENDBRANCH   3   6
ENDBRANCH   1   2
BRANCH   1  27
ATOM     27  C   UNL A   1      33.178  28.298  26.590  1.00  0.00     0.042 C 
BRANCH  27  28
ATOM     28  C   UNL A   1      33.735  29.603  26.039  1.00  0.00     0.118 C 
BRANCH  28  29
ATOM     29  N   UNL A   1      33.769  30.725  26.975  1.00  0.00    -0.352 N 
ATOM     30  C   UNL A   1      34.751  31.107  27.867  1.00  0.00     0.251 C 
ATOM     31  H   UNL A   1      32.968  31.298  26.968  1.00  0.00     0.163 HD
ATOM     32  O   UNL A   1      34.636  32.148  28.508  1.00  0.00    -0.269 OA
BRANCH  30  33
ATOM     33  C   UNL A   1      35.899  30.208  28.109  1.00  0.00     0.039 A 
ATOM     34  C   UNL A   1      37.034  30.338  27.303  1.00  0.00     0.014 A 
ATOM     35  C   UNL A   1      35.915  29.348  29.205  1.00  0.00     0.014 A 
ATOM     36  C   UNL A   1      38.225  29.714  27.682  1.00  0.00     0.010 A 
ATOM     37  C   UNL A   1      37.129  28.842  29.651  1.00  0.00     0.010 A 
ATOM     38  C   UNL A   1      38.302  29.026  28.903  1.00  0.00    -0.014 A 
BRANCH  38  39
ATOM     39  C   UNL A   1      39.596  28.520  29.439  1.00  0.00     0.031 A 
ATOM     40  C   UNL A   1      40.284  29.252  30.561  1.00  0.00     0.074 A 
ATOM     41  C   UNL A   1      40.218  27.486  28.833  1.00  0.00     0.049 A 
ATOM     42  N   UNL A   1      41.462  29.036  31.086  1.00  0.00    -0.248 NA
ATOM     43  C   UNL A   1      39.580  30.413  31.131  1.00  0.00     0.031 C 
ATOM     44  C   UNL A   1      39.722  26.768  27.655  1.00  0.00     0.029 A 
ATOM     45  N   UNL A   1      41.422  26.881  29.101  1.00  0.00    -0.354 N 
ATOM     46  C   UNL A   1      41.661  30.064  32.001  1.00  0.00     0.074 A 
ATOM     47  C   UNL A   1      40.507  30.931  31.920  1.00  0.00     0.031 C 
ATOM     48  C   UNL A   1      40.606  25.820  27.310  1.00  0.00     0.029 A 
ATOM     49  C   UNL A   1      41.746  25.876  28.220  1.00  0.00     0.049 A 
ATOM     50  H   UNL A   1      41.999  27.143  29.855  1.00  0.00     0.167 HD
ATOM     51  C   UNL A   1      42.687  30.250  32.864  1.00  0.00     0.034 A 
ATOM     52  C   UNL A   1      42.838  25.088  28.147  1.00  0.00     0.034 A 
ATOM     53  C   UNL A   1      43.792  29.343  32.999  1.00  0.00     0.049 A 
ATOM     54  C   UNL A   1      43.915  25.241  29.187  1.00  0.00     0.074 A 
ATOM     55  C   UNL A   1      44.818  29.366  33.925  1.00  0.00     0.029 A 
ATOM     56  N   UNL A   1      44.015  28.246  32.181  1.00  0.00    -0.354 N 
ATOM     57  N   UNL A   1      43.994  26.105  30.169  1.00  0.00    -0.248 NA
ATOM     58  C   UNL A   1      45.032  24.285  29.137  1.00  0.00     0.031 C 
ATOM     59  C   UNL A   1      45.668  28.286  33.661  1.00  0.00     0.029 A 
ATOM     60  C   UNL A   1      45.162  27.582  32.579  1.00  0.00     0.049 A 
ATOM     61  H   UNL A   1      43.441  27.978  31.428  1.00  0.00     0.167 HD
ATOM     62  C   UNL A   1      45.150  25.784  30.870  1.00  0.00     0.074 A 
ATOM     63  C   UNL A   1      45.726  24.628  30.214  1.00  0.00     0.031 C 
ATOM     64  C   UNL A   1      45.695  26.401  31.947  1.00  0.00     0.034 A 
BRANCH  51  65
ATOM     65  C   UNL A   1      42.612  31.445  33.778  1.00  0.00     0.023 A 
ATOM     66  C   UNL A   1      43.075  32.698  33.322  1.00  0.00     0.012 A 
ATOM     67  C   UNL A   1      42.078  31.340  35.077  1.00  0.00     0.148 A 
ATOM     68  C   UNL A   1      43.062  33.812  34.160  1.00  0.00     0.002 A 
ATOM     69  C   UNL A   1      42.022  32.467  35.890  1.00  0.00     0.091 A 
ATOM     70  F   UNL A   1      41.663  30.140  35.505  1.00  0.00    -0.205 F 
ATOM     71  C   UNL A   1      42.527  33.698  35.441  1.00  0.00     0.022 A 
BRANCH  69  72
ATOM     72  S   UNL A   1      41.274  32.438  37.523  1.00  0.00     0.127 S 
ATOM     73  O   UNL A   1      39.940  31.919  37.228  1.00  0.00    -0.237 OA
ATOM     74  O   UNL A   1      42.142  31.508  38.246  1.00  0.00    -0.237 OA
ATOM     75  O   UNL A   1      41.327  33.810  38.007  1.00  0.00    -0.744 OA
ENDBRANCH  69  72
ENDBRANCH  51  65
BRANCH  52  76
ATOM     76  C   UNL A   1      42.919  24.032  27.097  1.00  0.00     0.023 A 
ATOM     77  C   UNL A   1      43.704  24.258  25.949  1.00  0.00     0.012 A 
ATOM     78  C   UNL A   1      42.275  22.789  27.253  1.00  0.00     0.148 A 
ATOM     79  C   UNL A   1      43.827  23.276  24.965  1.00  0.00     0.002 A 
ATOM     80  C   UNL A   1      42.446  21.795  26.295  1.00  0.00     0.091 A 
ATOM     81  F   UNL A   1      41.526  22.596  28.347  1.00  0.00    -0.205 F 
ATOM     82  C   UNL A   1      43.208  22.042  25.144  1.00  0.00     0.022 A 
BRANCH  80  83
ATOM     83  S   UNL A   1      41.804  20.131  26.507  1.00  0.00     0.127 S 
ATOM     84  O   UNL A   1      42.317  19.458  25.316  1.00  0.00    -0.237 OA
ATOM     85  O   UNL A   1      42.432  19.721  27.764  1.00  0.00    -0.237 OA
ATOM     86  O   UNL A   1      40.357  20.273  26.580  1.00  0.00    -0.744 OA
ENDBRANCH  80  83
ENDBRANCH  52  76
BRANCH  64  87
ATOM     87  C   UNL A   1      46.970  25.833  32.509  1.00  0.00     0.023 A 
ATOM     88  C   UNL A   1      48.209  26.352  32.088  1.00  0.00     0.012 A 
ATOM     89  C   UNL A   1      46.937  24.850  33.519  1.00  0.00     0.148 A 
ATOM     90  C   UNL A   1      49.399  25.885  32.645  1.00  0.00     0.002 A 
ATOM     91  C   UNL A   1      48.124  24.423  34.102  1.00  0.00     0.091 A 
ATOM     92  F   UNL A   1      45.748  24.354  33.890  1.00  0.00    -0.205 F 
ATOM     93  C   UNL A   1      49.356  24.931  33.659  1.00  0.00     0.022 A 
BRANCH  91  94
ATOM     94  S   UNL A   1      48.154  23.271  35.480  1.00  0.00     0.127 S 
ATOM     95  O   UNL A   1      49.488  22.685  35.349  1.00  0.00    -0.237 OA
ATOM     96  O   UNL A   1      47.988  24.158  36.632  1.00  0.00    -0.237 OA
ATOM     97  O   UNL A   1      47.042  22.355  35.259  1.00  0.00    -0.744 OA
ENDBRANCH  91  94
ENDBRANCH  64  87
ENDBRANCH  38  39
ENDBRANCH  30  33
ENDBRANCH  28  29
ENDBRANCH  27  28
ENDBRANCH   1  27
TORSDOF 17
ENDMDL
