MODEL 1
REMARK VINA RESULT:     -12.5      0.000      0.000
REMARK SMILES O=C(NCCCNC(=O)[C@@H]1CCC[N@@H+](Cc2ccc(F)cc2Cl)C1)c1ccc(-c2c3nc(c(-c4cccc(S(=O)(=O)[O-])c4F)c4ccc([nH]4)c(-c4cccc(S(=O)(=O)[O-])c4F)c4nc(c(-c5cccc(S(=O)(=O)[O-])c5F)c5ccc2[nH]5)C=C4)C=C3)cc1
REMARK SMILES IDX 4 1 3 2 1 3 2 4 25 6 26 7 87 8 27 9 86 10 28 11 29 12 30 13
REMARK SMILES IDX 80 14 31 15 85 16 79 17 81 18 32 19 84 20 78 21 77 22 33 24
REMARK SMILES IDX 65 25 45 26 64 27 46 28 49 29 63 30 82 31 47 32 48 33 62 35
REMARK SMILES IDX 83 36 50 37 34 38 35 39 43 40 36 41 38 42 44 43 37 44 39 45
REMARK SMILES IDX 40 46 41 47 42 48 66 49 67 50 75 51 68 52 70 53 76 54 69 55
REMARK SMILES IDX 71 56 72 57 73 58 74 59 51 60 52 61 60 62 53 63 55 64 61 65
REMARK SMILES IDX 54 66 56 67 57 68 58 69 59 70 5 71 6 72 7 73 8 74 9 76 10 77
REMARK SMILES IDX 11 78 24 79 12 80 14 81 13 82 15 84 16 85 17 86 22 87 18 88
REMARK SMILES IDX 21 89 23 90 19 91 20 92
REMARK H PARENT 3 5 81 23 49 34 7 75 14 83
REMARK Flexibility Score: inf
ROOT
ATOM      1  C   UNL A   1      32.074  30.054  26.313  1.00  0.00     0.118 C 
ENDROOT
BRANCH   1   2
ATOM      2  N   UNL A   1      31.981  31.485  26.572  1.00  0.00    -0.352 N 
ATOM      3  O   UNL A   1      32.465  33.493  27.454  1.00  0.00    -0.269 OA
ATOM      4  C   UNL A   1      32.825  32.335  27.251  1.00  0.00     0.251 C 
ATOM      5  H   UNL A   1      31.179  31.916  26.199  1.00  0.00     0.163 HD
BRANCH   4   6
ATOM      6  C   UNL A   1      34.124  31.859  27.781  1.00  0.00     0.039 A 
ATOM      7  C   UNL A   1      34.345  30.513  28.062  1.00  0.00     0.014 A 
ATOM      8  C   UNL A   1      35.152  32.782  28.002  1.00  0.00     0.014 A 
ATOM      9  C   UNL A   1      35.473  30.130  28.777  1.00  0.00     0.010 A 
ATOM     10  C   UNL A   1      36.351  32.368  28.597  1.00  0.00     0.010 A 
ATOM     11  C   UNL A   1      36.499  31.048  29.049  1.00  0.00    -0.014 A 
BRANCH  11  12
ATOM     12  C   UNL A   1      37.717  30.585  29.770  1.00  0.00     0.031 A 
ATOM     13  C   UNL A   1      37.971  30.963  31.208  1.00  0.00     0.074 A 
ATOM     14  C   UNL A   1      38.591  29.785  29.126  1.00  0.00     0.049 A 
ATOM     15  N   UNL A   1      38.954  30.598  31.991  1.00  0.00    -0.248 NA
ATOM     16  C   UNL A   1      37.011  31.878  31.847  1.00  0.00     0.031 C 
ATOM     17  C   UNL A   1      38.483  29.381  27.720  1.00  0.00     0.029 A 
ATOM     18  N   UNL A   1      39.726  29.152  29.563  1.00  0.00    -0.354 N 
ATOM     19  C   UNL A   1      38.766  31.278  33.189  1.00  0.00     0.074 A 
ATOM     20  C   UNL A   1      37.574  32.082  33.030  1.00  0.00     0.031 C 
ATOM     21  C   UNL A   1      39.472  28.526  27.429  1.00  0.00     0.029 A 
ATOM     22  C   UNL A   1      40.322  28.367  28.603  1.00  0.00     0.049 A 
ATOM     23  H   UNL A   1      40.082  29.250  30.475  1.00  0.00     0.167 HD
ATOM     24  C   UNL A   1      39.507  31.227  34.322  1.00  0.00     0.034 A 
ATOM     25  C   UNL A   1      41.431  27.603  28.654  1.00  0.00     0.034 A 
ATOM     26  C   UNL A   1      40.656  30.378  34.500  1.00  0.00     0.049 A 
ATOM     27  C   UNL A   1      42.198  27.522  29.941  1.00  0.00     0.074 A 
ATOM     28  C   UNL A   1      41.426  30.200  35.636  1.00  0.00     0.029 A 
ATOM     29  N   UNL A   1      41.198  29.562  33.518  1.00  0.00    -0.354 N 
ATOM     30  N   UNL A   1      41.929  28.078  31.097  1.00  0.00    -0.248 NA
ATOM     31  C   UNL A   1      43.407  26.687  29.939  1.00  0.00     0.031 C 
ATOM     32  C   UNL A   1      42.443  29.287  35.337  1.00  0.00     0.029 A 
ATOM     33  C   UNL A   1      42.296  28.883  34.020  1.00  0.00     0.049 A 
ATOM     34  H   UNL A   1      40.854  29.479  32.600  1.00  0.00     0.167 HD
ATOM     35  C   UNL A   1      42.918  27.639  31.968  1.00  0.00     0.074 A 
ATOM     36  C   UNL A   1      43.778  26.751  31.211  1.00  0.00     0.031 C 
ATOM     37  C   UNL A   1      43.108  27.958  33.272  1.00  0.00     0.034 A 
BRANCH  24  38
ATOM     38  C   UNL A   1      39.079  32.088  35.483  1.00  0.00     0.023 A 
ATOM     39  C   UNL A   1      38.179  31.576  36.439  1.00  0.00     0.012 A 
ATOM     40  C   UNL A   1      39.611  33.381  35.661  1.00  0.00     0.148 A 
ATOM     41  C   UNL A   1      37.794  32.345  37.536  1.00  0.00     0.002 A 
ATOM     42  C   UNL A   1      39.252  34.127  36.778  1.00  0.00     0.091 A 
ATOM     43  F   UNL A   1      40.446  33.864  34.730  1.00  0.00    -0.205 F 
ATOM     44  C   UNL A   1      38.337  33.615  37.711  1.00  0.00     0.022 A 
BRANCH  42  45
ATOM     45  S   UNL A   1      39.962  35.742  37.122  1.00  0.00     0.127 S 
ATOM     46  O   UNL A   1      41.376  35.413  37.291  1.00  0.00    -0.237 OA
ATOM     47  O   UNL A   1      39.653  36.488  35.900  1.00  0.00    -0.237 OA
ATOM     48  O   UNL A   1      39.278  36.229  38.312  1.00  0.00    -0.744 OA
ENDBRANCH  42  45
ENDBRANCH  24  38
BRANCH  25  49
ATOM     49  C   UNL A   1      41.829  26.802  27.463  1.00  0.00     0.023 A 
ATOM     50  C   UNL A   1      42.493  27.437  26.396  1.00  0.00     0.012 A 
ATOM     51  C   UNL A   1      41.611  25.411  27.407  1.00  0.00     0.148 A 
ATOM     52  C   UNL A   1      42.917  26.704  25.286  1.00  0.00     0.002 A 
ATOM     53  C   UNL A   1      42.088  24.679  26.326  1.00  0.00     0.091 A 
ATOM     54  F   UNL A   1      40.961  24.829  28.424  1.00  0.00    -0.205 F 
ATOM     55  C   UNL A   1      42.728  25.326  25.258  1.00  0.00     0.022 A 
BRANCH  53  56
ATOM     56  S   UNL A   1      42.017  22.885  26.282  1.00  0.00     0.127 S 
ATOM     57  O   UNL A   1      42.652  22.592  25.000  1.00  0.00    -0.237 OA
ATOM     58  O   UNL A   1      42.806  22.520  27.459  1.00  0.00    -0.237 OA
ATOM     59  O   UNL A   1      40.603  22.549  26.385  1.00  0.00    -0.744 OA
ENDBRANCH  53  56
ENDBRANCH  25  49
BRANCH  37  60
ATOM     60  C   UNL A   1      44.271  27.316  33.979  1.00  0.00     0.023 A 
ATOM     61  C   UNL A   1      45.542  27.921  33.923  1.00  0.00     0.012 A 
ATOM     62  C   UNL A   1      44.092  26.148  34.745  1.00  0.00     0.148 A 
ATOM     63  C   UNL A   1      46.625  27.356  34.595  1.00  0.00     0.002 A 
ATOM     64  C   UNL A   1      45.166  25.616  35.448  1.00  0.00     0.091 A 
ATOM     65  F   UNL A   1      42.882  25.573  34.765  1.00  0.00    -0.205 F 
ATOM     66  C   UNL A   1      46.435  26.211  35.366  1.00  0.00     0.022 A 
BRANCH  64  67
ATOM     67  S   UNL A   1      44.979  24.199  36.537  1.00  0.00     0.127 S 
ATOM     68  O   UNL A   1      46.352  23.988  36.992  1.00  0.00    -0.237 OA
ATOM     69  O   UNL A   1      44.067  24.707  37.563  1.00  0.00    -0.237 OA
ATOM     70  O   UNL A   1      44.417  23.139  35.709  1.00  0.00    -0.744 OA
ENDBRANCH  64  67
ENDBRANCH  37  60
ENDBRANCH  11  12
ENDBRANCH   4   6
ENDBRANCH   1   2
BRANCH   1  71
ATOM     71  C   UNL A   1      31.404  29.622  25.021  1.00  0.00     0.042 C 
BRANCH  71  72
ATOM     72  C   UNL A   1      32.348  29.170  23.920  1.00  0.00     0.117 C 
BRANCH  72  73
ATOM     73  N   UNL A   1      33.166  28.031  24.288  1.00  0.00    -0.356 N 
ATOM     74  C   UNL A   1      33.038  26.699  24.066  1.00  0.00     0.228 C 
ATOM     75  H   UNL A   1      33.971  28.271  24.801  1.00  0.00     0.163 HD
ATOM     76  O   UNL A   1      33.947  25.997  24.522  1.00  0.00    -0.275 OA
BRANCH  74  77
ATOM     77  C   UNL A   1      31.802  26.079  23.403  1.00  0.00     0.133 C 
ATOM     78  C   UNL A   1      30.620  26.057  24.397  1.00  0.00     0.025 C 
ATOM     79  C   UNL A   1      31.961  24.652  22.878  1.00  0.00     0.276 C 
ATOM     80  C   UNL A   1      30.818  24.985  25.479  1.00  0.00     0.062 C 
ATOM     81  N   UNL A   1      32.289  23.718  23.949  1.00  0.00    -0.330 N 
ATOM     82  C   UNL A   1      31.187  23.607  24.904  1.00  0.00     0.262 C 
ATOM     83  H   UNL A   1      33.074  24.114  24.467  1.00  0.00     0.348 HD
BRANCH  81  84
ATOM     84  C   UNL A   1      32.839  22.437  23.481  1.00  0.00     0.300 C 
BRANCH  84  85
ATOM     85  C   UNL A   1      34.252  22.092  23.913  1.00  0.00     0.025 A 
ATOM     86  C   UNL A   1      35.318  22.919  23.498  1.00  0.00     0.014 A 
ATOM     87  C   UNL A   1      34.552  20.988  24.728  1.00  0.00     0.052 A 
ATOM     88  C   UNL A   1      36.638  22.623  23.839  1.00  0.00     0.040 A 
ATOM     89  C   UNL A   1      35.874  20.705  25.087  1.00  0.00     0.060 A 
ATOM     90  Cl  UNL A   1      33.331  19.933  25.346  1.00  0.00    -0.084 Cl
ATOM     91  C   UNL A   1      36.901  21.516  24.629  1.00  0.00     0.124 A 
ATOM     92  F   UNL A   1      38.166  21.229  24.961  1.00  0.00    -0.207 F 
ENDBRANCH  84  85
ENDBRANCH  81  84
ENDBRANCH  74  77
ENDBRANCH  72  73
ENDBRANCH  71  72
ENDBRANCH   1  71
TORSDOF 15
ENDMDL
MODEL 2
REMARK VINA RESULT:     -12.4      2.389      3.770
REMARK SMILES O=C(NCCCNC(=O)[C@@H]1CCC[N@@H+](Cc2ccc(F)cc2Cl)C1)c1ccc(-c2c3nc(c(-c4cccc(S(=O)(=O)[O-])c4F)c4ccc([nH]4)c(-c4cccc(S(=O)(=O)[O-])c4F)c4nc(c(-c5cccc(S(=O)(=O)[O-])c5F)c5ccc2[nH]5)C=C4)C=C3)cc1
REMARK SMILES IDX 4 1 3 2 1 3 2 4 25 6 26 7 87 8 27 9 86 10 28 11 29 12 30 13
REMARK SMILES IDX 80 14 31 15 85 16 79 17 81 18 32 19 84 20 78 21 77 22 33 24
REMARK SMILES IDX 65 25 45 26 64 27 46 28 49 29 63 30 82 31 47 32 48 33 62 35
REMARK SMILES IDX 83 36 50 37 34 38 35 39 43 40 36 41 38 42 44 43 37 44 39 45
REMARK SMILES IDX 40 46 41 47 42 48 66 49 67 50 75 51 68 52 70 53 76 54 69 55
REMARK SMILES IDX 71 56 72 57 73 58 74 59 51 60 52 61 60 62 53 63 55 64 61 65
REMARK SMILES IDX 54 66 56 67 57 68 58 69 59 70 5 71 6 72 7 73 8 74 9 76 10 77
REMARK SMILES IDX 11 78 24 79 12 80 14 81 13 82 15 84 16 85 17 86 22 87 18 88
REMARK SMILES IDX 21 89 23 90 19 91 20 92
REMARK H PARENT 3 5 81 23 49 34 7 75 14 83
REMARK Flexibility Score: inf
ROOT
ATOM      1  C   UNL A   1      31.914  30.294  26.690  1.00  0.00     0.118 C 
ENDROOT
BRANCH   1   2
ATOM      2  N   UNL A   1      31.927  31.746  26.805  1.00  0.00    -0.352 N 
ATOM      3  O   UNL A   1      32.582  33.794  27.456  1.00  0.00    -0.269 OA
ATOM      4  C   UNL A   1      32.856  32.599  27.357  1.00  0.00     0.251 C 
ATOM      5  H   UNL A   1      31.138  32.193  26.423  1.00  0.00     0.163 HD
BRANCH   4   6
ATOM      6  C   UNL A   1      34.146  32.089  27.879  1.00  0.00     0.039 A 
ATOM      7  C   UNL A   1      34.293  30.766  28.285  1.00  0.00     0.014 A 
ATOM      8  C   UNL A   1      35.241  32.957  27.963  1.00  0.00     0.014 A 
ATOM      9  C   UNL A   1      35.428  30.377  28.987  1.00  0.00     0.010 A 
ATOM     10  C   UNL A   1      36.437  32.522  28.546  1.00  0.00     0.010 A 
ATOM     11  C   UNL A   1      36.522  31.246  29.123  1.00  0.00    -0.014 A 
BRANCH  11  12
ATOM     12  C   UNL A   1      37.741  30.772  29.836  1.00  0.00     0.031 A 
ATOM     13  C   UNL A   1      38.021  31.172  31.263  1.00  0.00     0.074 A 
ATOM     14  C   UNL A   1      38.591  29.945  29.195  1.00  0.00     0.049 A 
ATOM     15  N   UNL A   1      39.008  30.803  32.040  1.00  0.00    -0.248 NA
ATOM     16  C   UNL A   1      37.088  32.116  31.898  1.00  0.00     0.031 C 
ATOM     17  C   UNL A   1      38.457  29.518  27.799  1.00  0.00     0.029 A 
ATOM     18  N   UNL A   1      39.720  29.298  29.629  1.00  0.00    -0.354 N 
ATOM     19  C   UNL A   1      38.849  31.508  33.227  1.00  0.00     0.074 A 
ATOM     20  C   UNL A   1      37.670  32.331  33.070  1.00  0.00     0.031 C 
ATOM     21  C   UNL A   1      39.426  28.639  27.510  1.00  0.00     0.029 A 
ATOM     22  C   UNL A   1      40.288  28.485  28.676  1.00  0.00     0.049 A 
ATOM     23  H   UNL A   1      40.090  29.407  30.534  1.00  0.00     0.167 HD
ATOM     24  C   UNL A   1      39.604  31.464  34.351  1.00  0.00     0.034 A 
ATOM     25  C   UNL A   1      41.383  27.702  28.726  1.00  0.00     0.034 A 
ATOM     26  C   UNL A   1      40.740  30.597  34.529  1.00  0.00     0.049 A 
ATOM     27  C   UNL A   1      42.166  27.629  30.004  1.00  0.00     0.074 A 
ATOM     28  C   UNL A   1      41.522  30.425  35.659  1.00  0.00     0.029 A 
ATOM     29  N   UNL A   1      41.253  29.753  33.556  1.00  0.00    -0.354 N 
ATOM     30  N   UNL A   1      41.923  28.211  31.153  1.00  0.00    -0.248 NA
ATOM     31  C   UNL A   1      43.360  26.772  30.001  1.00  0.00     0.031 C 
ATOM     32  C   UNL A   1      42.517  29.487  35.363  1.00  0.00     0.029 A 
ATOM     33  C   UNL A   1      42.345  29.063  34.056  1.00  0.00     0.049 A 
ATOM     34  H   UNL A   1      40.895  29.660  32.644  1.00  0.00     0.167 HD
ATOM     35  C   UNL A   1      42.916  27.770  32.019  1.00  0.00     0.074 A 
ATOM     36  C   UNL A   1      43.749  26.852  31.267  1.00  0.00     0.031 C 
ATOM     37  C   UNL A   1      43.129  28.109  33.314  1.00  0.00     0.034 A 
BRANCH  24  38
ATOM     38  C   UNL A   1      39.208  32.354  35.501  1.00  0.00     0.023 A 
ATOM     39  C   UNL A   1      38.323  31.871  36.487  1.00  0.00     0.012 A 
ATOM     40  C   UNL A   1      39.756  33.645  35.640  1.00  0.00     0.148 A 
ATOM     41  C   UNL A   1      37.968  32.667  37.575  1.00  0.00     0.002 A 
ATOM     42  C   UNL A   1      39.427  34.419  36.748  1.00  0.00     0.091 A 
ATOM     43  F   UNL A   1      40.576  34.100  34.683  1.00  0.00    -0.205 F 
ATOM     44  C   UNL A   1      38.526  33.936  37.711  1.00  0.00     0.022 A 
BRANCH  42  45
ATOM     45  S   UNL A   1      40.159  36.034  37.043  1.00  0.00     0.127 S 
ATOM     46  O   UNL A   1      39.743  36.768  35.849  1.00  0.00    -0.237 OA
ATOM     47  O   UNL A   1      39.497  36.457  38.278  1.00  0.00    -0.237 OA
ATOM     48  O   UNL A   1      41.590  35.800  37.176  1.00  0.00    -0.744 OA
ENDBRANCH  42  45
ENDBRANCH  24  38
BRANCH  25  49
ATOM     49  C   UNL A   1      41.750  26.872  27.545  1.00  0.00     0.023 A 
ATOM     50  C   UNL A   1      42.437  27.468  26.470  1.00  0.00     0.012 A 
ATOM     51  C   UNL A   1      41.480  25.490  27.506  1.00  0.00     0.148 A 
ATOM     52  C   UNL A   1      42.832  26.706  25.369  1.00  0.00     0.002 A 
ATOM     53  C   UNL A   1      41.928  24.727  26.434  1.00  0.00     0.091 A 
ATOM     54  F   UNL A   1      40.809  24.945  28.530  1.00  0.00    -0.205 F 
ATOM     55  C   UNL A   1      42.591  25.336  25.358  1.00  0.00     0.022 A 
BRANCH  53  56
ATOM     56  S   UNL A   1      41.789  22.936  26.411  1.00  0.00     0.127 S 
ATOM     57  O   UNL A   1      40.341  22.749  26.395  1.00  0.00    -0.237 OA
ATOM     58  O   UNL A   1      42.469  22.594  25.161  1.00  0.00    -0.237 OA
ATOM     59  O   UNL A   1      42.479  22.477  27.609  1.00  0.00    -0.744 OA
ENDBRANCH  53  56
ENDBRANCH  25  49
BRANCH  37  60
ATOM     60  C   UNL A   1      44.290  27.458  34.017  1.00  0.00     0.023 A 
ATOM     61  C   UNL A   1      45.549  28.090  34.016  1.00  0.00     0.012 A 
ATOM     62  C   UNL A   1      44.118  26.254  34.726  1.00  0.00     0.148 A 
ATOM     63  C   UNL A   1      46.629  27.516  34.687  1.00  0.00     0.002 A 
ATOM     64  C   UNL A   1      45.188  25.711  35.428  1.00  0.00     0.091 A 
ATOM     65  F   UNL A   1      42.919  25.655  34.693  1.00  0.00    -0.205 F 
ATOM     66  C   UNL A   1      46.446  26.334  35.401  1.00  0.00     0.022 A 
BRANCH  64  67
ATOM     67  S   UNL A   1      45.006  24.243  36.447  1.00  0.00     0.127 S 
ATOM     68  O   UNL A   1      46.389  23.977  36.839  1.00  0.00    -0.237 OA
ATOM     69  O   UNL A   1      44.145  24.716  37.532  1.00  0.00    -0.237 OA
ATOM     70  O   UNL A   1      44.389  23.241  35.588  1.00  0.00    -0.744 OA
ENDBRANCH  64  67
ENDBRANCH  37  60
ENDBRANCH  11  12
ENDBRANCH   4   6
ENDBRANCH   1   2
BRANCH   1  71
ATOM     71  C   UNL A   1      32.245  29.788  25.297  1.00  0.00     0.042 C 
BRANCH  71  72
ATOM     72  C   UNL A   1      33.695  29.390  25.078  1.00  0.00     0.117 C 
BRANCH  72  73
ATOM     73  N   UNL A   1      34.029  29.156  23.687  1.00  0.00    -0.356 N 
ATOM     74  C   UNL A   1      33.912  28.068  22.887  1.00  0.00     0.228 C 
ATOM     75  H   UNL A   1      34.418  29.940  23.236  1.00  0.00     0.163 HD
ATOM     76  O   UNL A   1      34.294  28.225  21.722  1.00  0.00    -0.275 OA
BRANCH  74  77
ATOM     77  C   UNL A   1      33.455  26.698  23.402  1.00  0.00     0.133 C 
ATOM     78  C   UNL A   1      33.631  25.630  22.300  1.00  0.00     0.025 C 
ATOM     79  C   UNL A   1      32.005  26.603  23.878  1.00  0.00     0.276 C 
ATOM     80  C   UNL A   1      32.573  25.783  21.197  1.00  0.00     0.062 C 
ATOM     81  N   UNL A   1      31.066  26.904  22.804  1.00  0.00    -0.330 N 
ATOM     82  C   UNL A   1      31.141  25.898  21.745  1.00  0.00     0.262 C 
ATOM     83  H   UNL A   1      31.361  27.784  22.380  1.00  0.00     0.348 HD
BRANCH  81  84
ATOM     84  C   UNL A   1      29.707  27.220  23.267  1.00  0.00     0.300 C 
BRANCH  84  85
ATOM     85  C   UNL A   1      29.141  28.573  22.877  1.00  0.00     0.025 A 
ATOM     86  C   UNL A   1      29.982  29.513  22.243  1.00  0.00     0.014 A 
ATOM     87  C   UNL A   1      27.801  28.934  23.102  1.00  0.00     0.052 A 
ATOM     88  C   UNL A   1      29.519  30.783  21.899  1.00  0.00     0.040 A 
ATOM     89  C   UNL A   1      27.332  30.198  22.735  1.00  0.00     0.060 A 
ATOM     90  Cl  UNL A   1      26.659  27.852  23.817  1.00  0.00    -0.084 Cl
ATOM     91  C   UNL A   1      28.197  31.111  22.151  1.00  0.00     0.124 A 
ATOM     92  F   UNL A   1      27.746  32.328  21.820  1.00  0.00    -0.207 F 
ENDBRANCH  84  85
ENDBRANCH  81  84
ENDBRANCH  74  77
ENDBRANCH  72  73
ENDBRANCH  71  72
ENDBRANCH   1  71
TORSDOF 15
ENDMDL
MODEL 3
REMARK VINA RESULT:     -12.4      1.301      1.541
REMARK SMILES O=C(NCCCNC(=O)[C@@H]1CCC[N@@H+](Cc2ccc(F)cc2Cl)C1)c1ccc(-c2c3nc(c(-c4cccc(S(=O)(=O)[O-])c4F)c4ccc([nH]4)c(-c4cccc(S(=O)(=O)[O-])c4F)c4nc(c(-c5cccc(S(=O)(=O)[O-])c5F)c5ccc2[nH]5)C=C4)C=C3)cc1
REMARK SMILES IDX 4 1 3 2 1 3 2 4 25 6 26 7 87 8 27 9 86 10 28 11 29 12 30 13
REMARK SMILES IDX 80 14 31 15 85 16 79 17 81 18 32 19 84 20 78 21 77 22 33 24
REMARK SMILES IDX 65 25 45 26 64 27 46 28 49 29 63 30 82 31 47 32 48 33 62 35
REMARK SMILES IDX 83 36 50 37 34 38 35 39 43 40 36 41 38 42 44 43 37 44 39 45
REMARK SMILES IDX 40 46 41 47 42 48 66 49 67 50 75 51 68 52 70 53 76 54 69 55
REMARK SMILES IDX 71 56 72 57 73 58 74 59 51 60 52 61 60 62 53 63 55 64 61 65
REMARK SMILES IDX 54 66 56 67 57 68 58 69 59 70 5 71 6 72 7 73 8 74 9 76 10 77
REMARK SMILES IDX 11 78 24 79 12 80 14 81 13 82 15 84 16 85 17 86 22 87 18 88
REMARK SMILES IDX 21 89 23 90 19 91 20 92
REMARK H PARENT 3 5 81 23 49 34 7 75 14 83
REMARK Flexibility Score: inf
ROOT
ATOM      1  C   UNL A   1      32.321  30.342  26.163  1.00  0.00     0.118 C 
ENDROOT
BRANCH   1   2
ATOM      2  N   UNL A   1      32.194  31.728  26.590  1.00  0.00    -0.352 N 
ATOM      3  O   UNL A   1      32.612  33.620  27.727  1.00  0.00    -0.269 OA
ATOM      4  C   UNL A   1      32.999  32.501  27.397  1.00  0.00     0.251 C 
ATOM      5  H   UNL A   1      31.398  32.191  26.244  1.00  0.00     0.163 HD
BRANCH   4   6
ATOM      6  C   UNL A   1      34.289  31.982  27.911  1.00  0.00     0.039 A 
ATOM      7  C   UNL A   1      34.428  30.658  28.319  1.00  0.00     0.014 A 
ATOM      8  C   UNL A   1      35.391  32.840  27.986  1.00  0.00     0.014 A 
ATOM      9  C   UNL A   1      35.563  30.262  29.015  1.00  0.00     0.010 A 
ATOM     10  C   UNL A   1      36.588  32.396  28.563  1.00  0.00     0.010 A 
ATOM     11  C   UNL A   1      36.666  31.121  29.141  1.00  0.00    -0.014 A 
BRANCH  11  12
ATOM     12  C   UNL A   1      37.885  30.639  29.847  1.00  0.00     0.031 A 
ATOM     13  C   UNL A   1      38.154  31.001  31.287  1.00  0.00     0.074 A 
ATOM     14  C   UNL A   1      38.746  29.838  29.188  1.00  0.00     0.049 A 
ATOM     15  N   UNL A   1      39.140  30.619  32.058  1.00  0.00    -0.248 NA
ATOM     16  C   UNL A   1      37.209  31.919  31.943  1.00  0.00     0.031 C 
ATOM     17  C   UNL A   1      38.624  29.449  27.780  1.00  0.00     0.029 A 
ATOM     18  N   UNL A   1      39.880  29.190  29.610  1.00  0.00    -0.354 N 
ATOM     19  C   UNL A   1      38.968  31.290  33.264  1.00  0.00     0.074 A 
ATOM     20  C   UNL A   1      37.783  32.106  33.124  1.00  0.00     0.031 C 
ATOM     21  C   UNL A   1      39.602  28.588  27.472  1.00  0.00     0.029 A 
ATOM     22  C   UNL A   1      40.460  28.409  28.637  1.00  0.00     0.049 A 
ATOM     23  H   UNL A   1      40.244  29.277  30.520  1.00  0.00     0.167 HD
ATOM     24  C   UNL A   1      39.719  31.221  34.390  1.00  0.00     0.034 A 
ATOM     25  C   UNL A   1      41.562  27.636  28.672  1.00  0.00     0.034 A 
ATOM     26  C   UNL A   1      40.861  30.360  34.551  1.00  0.00     0.049 A 
ATOM     27  C   UNL A   1      42.340  27.534  29.951  1.00  0.00     0.074 A 
ATOM     28  C   UNL A   1      41.639  30.164  35.679  1.00  0.00     0.029 A 
ATOM     29  N   UNL A   1      41.388  29.549  33.556  1.00  0.00    -0.354 N 
ATOM     30  N   UNL A   1      42.085  28.081  31.115  1.00  0.00    -0.248 NA
ATOM     31  C   UNL A   1      43.541  26.689  29.931  1.00  0.00     0.031 C 
ATOM     32  C   UNL A   1      42.645  29.244  35.362  1.00  0.00     0.029 A 
ATOM     33  C   UNL A   1      42.484  28.855  34.043  1.00  0.00     0.049 A 
ATOM     34  H   UNL A   1      41.036  29.478  32.640  1.00  0.00     0.167 HD
ATOM     35  C   UNL A   1      43.077  27.625  31.973  1.00  0.00     0.074 A 
ATOM     36  C   UNL A   1      43.923  26.737  31.200  1.00  0.00     0.031 C 
ATOM     37  C   UNL A   1      43.280  27.930  33.279  1.00  0.00     0.034 A 
BRANCH  24  38
ATOM     38  C   UNL A   1      39.308  32.075  35.563  1.00  0.00     0.023 A 
ATOM     39  C   UNL A   1      39.683  33.433  35.604  1.00  0.00     0.012 A 
ATOM     40  C   UNL A   1      38.500  31.551  36.593  1.00  0.00     0.148 A 
ATOM     41  C   UNL A   1      39.288  34.247  36.665  1.00  0.00     0.002 A 
ATOM     42  C   UNL A   1      38.078  32.380  37.627  1.00  0.00     0.091 A 
ATOM     43  F   UNL A   1      38.171  30.252  36.552  1.00  0.00    -0.205 F 
ATOM     44  C   UNL A   1      38.478  33.725  37.669  1.00  0.00     0.022 A 
BRANCH  42  45
ATOM     45  S   UNL A   1      36.970  31.809  38.922  1.00  0.00     0.127 S 
ATOM     46  O   UNL A   1      37.745  32.107  40.125  1.00  0.00    -0.237 OA
ATOM     47  O   UNL A   1      35.796  32.662  38.729  1.00  0.00    -0.237 OA
ATOM     48  O   UNL A   1      36.739  30.397  38.650  1.00  0.00    -0.744 OA
ENDBRANCH  42  45
ENDBRANCH  24  38
BRANCH  25  49
ATOM     49  C   UNL A   1      41.943  26.842  27.469  1.00  0.00     0.023 A 
ATOM     50  C   UNL A   1      42.610  27.481  26.406  1.00  0.00     0.012 A 
ATOM     51  C   UNL A   1      41.707  25.455  27.400  1.00  0.00     0.148 A 
ATOM     52  C   UNL A   1      43.018  26.754  25.286  1.00  0.00     0.002 A 
ATOM     53  C   UNL A   1      42.168  24.729  26.308  1.00  0.00     0.091 A 
ATOM     54  F   UNL A   1      41.054  24.871  28.414  1.00  0.00    -0.205 F 
ATOM     55  C   UNL A   1      42.810  25.379  25.243  1.00  0.00     0.022 A 
BRANCH  53  56
ATOM     56  S   UNL A   1      42.072  22.937  26.244  1.00  0.00     0.127 S 
ATOM     57  O   UNL A   1      42.847  22.554  27.421  1.00  0.00    -0.237 OA
ATOM     58  O   UNL A   1      40.631  22.705  26.352  1.00  0.00    -0.237 OA
ATOM     59  O   UNL A   1      42.641  22.563  24.956  1.00  0.00    -0.744 OA
ENDBRANCH  53  56
ENDBRANCH  25  49
BRANCH  37  60
ATOM     60  C   UNL A   1      44.444  27.270  33.969  1.00  0.00     0.023 A 
ATOM     61  C   UNL A   1      45.697  27.913  33.993  1.00  0.00     0.012 A 
ATOM     62  C   UNL A   1      44.280  26.045  34.644  1.00  0.00     0.148 A 
ATOM     63  C   UNL A   1      46.778  27.330  34.652  1.00  0.00     0.002 A 
ATOM     64  C   UNL A   1      45.351  25.493  35.337  1.00  0.00     0.091 A 
ATOM     65  F   UNL A   1      43.087  25.437  34.589  1.00  0.00    -0.205 F 
ATOM     66  C   UNL A   1      46.603  26.128  35.333  1.00  0.00     0.022 A 
BRANCH  64  67
ATOM     67  S   UNL A   1      45.178  23.996  36.314  1.00  0.00     0.127 S 
ATOM     68  O   UNL A   1      46.568  23.569  36.459  1.00  0.00    -0.237 OA
ATOM     69  O   UNL A   1      44.560  24.491  37.545  1.00  0.00    -0.237 OA
ATOM     70  O   UNL A   1      44.323  23.112  35.532  1.00  0.00    -0.744 OA
ENDBRANCH  64  67
ENDBRANCH  37  60
ENDBRANCH  11  12
ENDBRANCH   4   6
ENDBRANCH   1   2
BRANCH   1  71
ATOM     71  C   UNL A   1      31.268  29.913  25.156  1.00  0.00     0.042 C 
BRANCH  71  72
ATOM     72  C   UNL A   1      31.797  29.176  23.937  1.00  0.00     0.117 C 
BRANCH  72  73
ATOM     73  N   UNL A   1      32.708  28.096  24.262  1.00  0.00    -0.356 N 
ATOM     74  C   UNL A   1      32.662  26.759  24.036  1.00  0.00     0.228 C 
ATOM     75  H   UNL A   1      33.516  28.390  24.740  1.00  0.00     0.163 HD
ATOM     76  O   UNL A   1      33.637  26.120  24.448  1.00  0.00    -0.275 OA
BRANCH  74  77
ATOM     77  C   UNL A   1      31.444  26.056  23.425  1.00  0.00     0.133 C 
ATOM     78  C   UNL A   1      30.309  25.956  24.468  1.00  0.00     0.025 C 
ATOM     79  C   UNL A   1      31.676  24.643  22.891  1.00  0.00     0.276 C 
ATOM     80  C   UNL A   1      30.624  24.900  25.539  1.00  0.00     0.062 C 
ATOM     81  N   UNL A   1      32.112  23.734  23.945  1.00  0.00    -0.330 N 
ATOM     82  C   UNL A   1      31.060  23.550  24.946  1.00  0.00     0.262 C 
ATOM     83  H   UNL A   1      32.889  24.183  24.431  1.00  0.00     0.348 HD
BRANCH  81  84
ATOM     84  C   UNL A   1      32.726  22.493  23.452  1.00  0.00     0.300 C 
BRANCH  84  85
ATOM     85  C   UNL A   1      34.166  22.230  23.846  1.00  0.00     0.025 A 
ATOM     86  C   UNL A   1      35.192  23.000  23.257  1.00  0.00     0.014 A 
ATOM     87  C   UNL A   1      34.533  21.259  24.794  1.00  0.00     0.052 A 
ATOM     88  C   UNL A   1      36.534  22.771  23.560  1.00  0.00     0.040 A 
ATOM     89  C   UNL A   1      35.877  21.047  25.114  1.00  0.00     0.060 A 
ATOM     90  Cl  UNL A   1      33.368  20.292  25.627  1.00  0.00    -0.084 Cl
ATOM     91  C   UNL A   1      36.862  21.794  24.486  1.00  0.00     0.124 A 
ATOM     92  F   UNL A   1      38.149  21.572  24.782  1.00  0.00    -0.207 F 
ENDBRANCH  84  85
ENDBRANCH  81  84
ENDBRANCH  74  77
ENDBRANCH  72  73
ENDBRANCH  71  72
ENDBRANCH   1  71
TORSDOF 15
ENDMDL
