MODEL 1
REMARK VINA RESULT:     -12.7      0.000      0.000
REMARK SMILES C[C@H](NC(=O)[C@@H]1CCCN(S(=O)(=O)c2ccc(Cl)cc2)C1)C(=O)NCCCNC(=O)c1ccc(-c2c3nc(c(-c4cccc(S(=O)(=O)[O-])c4F)c4ccc([nH]4)c(-c4cccc(S(=O)(=O)[O-])c4F)c4nc(c(-c5cccc(S(=O)(=O)[O-])c5F)c5ccc2[nH]5)C=C4)C=C3)cc1
REMARK SMILES IDX 25 1 24 2 22 3 23 4 2 6 1 7 3 8 4 9 5 11 6 12 7 13 21 14
REMARK SMILES IDX 8 15 10 16 9 17 11 18 12 19 13 20 14 21 15 22 20 23 16 24
REMARK SMILES IDX 19 25 17 26 18 27 26 28 27 29 28 30 29 31 30 33 31 34 32 35
REMARK SMILES IDX 93 36 33 37 92 38 34 39 35 40 36 41 86 42 37 43 91 44 85 45
REMARK SMILES IDX 87 46 38 47 90 48 84 49 83 50 39 52 71 53 51 54 70 55 52 56
REMARK SMILES IDX 55 57 69 58 88 59 53 60 54 61 68 63 89 64 56 65 40 66 41 67
REMARK SMILES IDX 49 68 42 69 44 70 50 71 43 72 45 73 46 74 47 75 48 76 72 77
REMARK SMILES IDX 73 78 81 79 74 80 76 81 82 82 75 83 77 84 78 85 79 86 80 87
REMARK SMILES IDX 57 88 58 89 66 90 59 91 61 92 67 93 60 94 62 95 63 96 64 97
REMARK SMILES IDX 65 98
REMARK H PARENT 24 5 3 10 28 32 87 51 55 62
REMARK Flexibility Score: inf
ROOT
ATOM      1  C   UNL A   1      32.176  30.366  26.225  1.00  0.00     0.117 C 
ENDROOT
BRANCH   1   2
ATOM      2  N   UNL A   1      31.472  30.062  25.012  1.00  0.00    -0.354 N 
ATOM      3  C   UNL A   1      31.873  29.255  23.991  1.00  0.00     0.242 C 
ATOM      4  O   UNL A   1      31.013  28.926  23.167  1.00  0.00    -0.273 OA
ATOM      5  H   UNL A   1      30.592  30.489  24.904  1.00  0.00     0.163 HD
BRANCH   3   6
ATOM      6  C   UNL A   1      33.295  28.627  23.932  1.00  0.00     0.168 C 
ATOM      7  C   UNL A   1      33.815  28.552  22.508  1.00  0.00     0.041 C 
BRANCH   6   8
ATOM      8  N   UNL A   1      33.530  27.463  24.802  1.00  0.00    -0.344 N 
ATOM      9  C   UNL A   1      33.015  26.244  25.082  1.00  0.00     0.225 C 
ATOM     10  H   UNL A   1      34.321  27.625  25.366  1.00  0.00     0.164 HD
ATOM     11  O   UNL A   1      33.559  25.676  26.034  1.00  0.00    -0.275 OA
BRANCH   9  12
ATOM     12  C   UNL A   1      31.858  25.579  24.336  1.00  0.00     0.094 C 
ATOM     13  C   UNL A   1      30.561  25.619  25.158  1.00  0.00     0.016 C 
ATOM     14  C   UNL A   1      32.167  24.174  23.851  1.00  0.00     0.116 C 
ATOM     15  C   UNL A   1      30.525  24.546  26.235  1.00  0.00     0.018 C 
ATOM     16  N   UNL A   1      32.124  23.149  24.925  1.00  0.00    -0.197 NA
ATOM     17  C   UNL A   1      30.831  23.169  25.671  1.00  0.00     0.102 C 
BRANCH  16  18
ATOM     18  S   UNL A   1      32.577  21.608  24.305  1.00  0.00     0.243 S 
ATOM     19  O   UNL A   1      31.927  20.594  25.108  1.00  0.00    -0.207 OA
ATOM     20  O   UNL A   1      32.384  21.635  22.866  1.00  0.00    -0.207 OA
BRANCH  18  21
ATOM     21  C   UNL A   1      34.320  21.524  24.607  1.00  0.00     0.082 A 
ATOM     22  C   UNL A   1      34.917  20.281  24.841  1.00  0.00     0.023 A 
ATOM     23  C   UNL A   1      35.091  22.688  24.559  1.00  0.00     0.023 A 
ATOM     24  C   UNL A   1      36.280  20.215  25.122  1.00  0.00     0.022 A 
ATOM     25  C   UNL A   1      36.463  22.612  24.802  1.00  0.00     0.022 A 
ATOM     26  C   UNL A   1      37.048  21.380  25.101  1.00  0.00     0.041 A 
ATOM     27  Cl  UNL A   1      38.733  21.293  25.430  1.00  0.00    -0.084 Cl
ENDBRANCH  18  21
ENDBRANCH  16  18
ENDBRANCH   9  12
ENDBRANCH   6   8
ENDBRANCH   3   6
ENDBRANCH   1   2
BRANCH   1  28
ATOM     28  C   UNL A   1      31.763  31.681  26.855  1.00  0.00     0.042 C 
BRANCH  28  29
ATOM     29  C   UNL A   1      32.962  32.448  27.386  1.00  0.00     0.118 C 
BRANCH  29  30
ATOM     30  N   UNL A   1      32.642  33.856  27.634  1.00  0.00    -0.352 N 
ATOM     31  C   UNL A   1      33.128  34.715  28.589  1.00  0.00     0.251 C 
ATOM     32  H   UNL A   1      31.977  34.246  27.022  1.00  0.00     0.163 HD
ATOM     33  O   UNL A   1      32.585  35.802  28.763  1.00  0.00    -0.269 OA
BRANCH  31  34
ATOM     34  C   UNL A   1      34.285  34.311  29.409  1.00  0.00     0.039 A 
ATOM     35  C   UNL A   1      34.073  33.633  30.612  1.00  0.00     0.014 A 
ATOM     36  C   UNL A   1      35.581  34.571  28.964  1.00  0.00     0.014 A 
ATOM     37  C   UNL A   1      35.168  33.139  31.322  1.00  0.00     0.010 A 
ATOM     38  C   UNL A   1      36.656  33.977  29.605  1.00  0.00     0.010 A 
ATOM     39  C   UNL A   1      36.464  33.264  30.797  1.00  0.00    -0.014 A 
BRANCH  39  40
ATOM     40  C   UNL A   1      37.649  32.667  31.462  1.00  0.00     0.031 A 
ATOM     41  C   UNL A   1      38.368  31.521  30.805  1.00  0.00     0.074 A 
ATOM     42  C   UNL A   1      37.993  33.067  32.703  1.00  0.00     0.049 A 
ATOM     43  N   UNL A   1      39.323  30.765  31.279  1.00  0.00    -0.248 NA
ATOM     44  C   UNL A   1      37.929  31.147  29.448  1.00  0.00     0.031 C 
ATOM     45  C   UNL A   1      37.323  34.117  33.474  1.00  0.00     0.029 A 
ATOM     46  N   UNL A   1      38.971  32.610  33.550  1.00  0.00    -0.354 N 
ATOM     47  C   UNL A   1      39.561  29.802  30.306  1.00  0.00     0.074 A 
ATOM     48  C   UNL A   1      38.625  30.042  29.232  1.00  0.00     0.031 C 
ATOM     49  C   UNL A   1      37.911  34.225  34.676  1.00  0.00     0.029 A 
ATOM     50  C   UNL A   1      38.965  33.224  34.781  1.00  0.00     0.049 A 
ATOM     51  H   UNL A   1      39.615  31.908  33.300  1.00  0.00     0.167 HD
ATOM     52  C   UNL A   1      40.494  28.822  30.295  1.00  0.00     0.034 A 
ATOM     53  C   UNL A   1      39.711  32.990  35.880  1.00  0.00     0.034 A 
ATOM     54  C   UNL A   1      41.449  28.618  31.349  1.00  0.00     0.049 A 
ATOM     55  C   UNL A   1      40.759  31.911  35.831  1.00  0.00     0.074 A 
ATOM     56  C   UNL A   1      42.495  27.716  31.395  1.00  0.00     0.029 A 
ATOM     57  N   UNL A   1      41.470  29.322  32.543  1.00  0.00    -0.354 N 
ATOM     58  N   UNL A   1      41.066  31.103  34.845  1.00  0.00    -0.248 NA
ATOM     59  C   UNL A   1      41.585  31.730  37.034  1.00  0.00     0.031 C 
ATOM     60  C   UNL A   1      43.126  27.847  32.635  1.00  0.00     0.029 A 
ATOM     61  C   UNL A   1      42.503  28.864  33.339  1.00  0.00     0.049 A 
ATOM     62  H   UNL A   1      40.842  30.040  32.787  1.00  0.00     0.167 HD
ATOM     63  C   UNL A   1      42.148  30.352  35.290  1.00  0.00     0.074 A 
ATOM     64  C   UNL A   1      42.449  30.808  36.632  1.00  0.00     0.031 C 
ATOM     65  C   UNL A   1      42.826  29.370  34.649  1.00  0.00     0.034 A 
BRANCH  52  66
ATOM     66  C   UNL A   1      40.552  27.920  29.091  1.00  0.00     0.023 A 
ATOM     67  C   UNL A   1      39.640  26.851  28.971  1.00  0.00     0.012 A 
ATOM     68  C   UNL A   1      41.471  28.164  28.051  1.00  0.00     0.148 A 
ATOM     69  C   UNL A   1      39.668  26.014  27.856  1.00  0.00     0.002 A 
ATOM     70  C   UNL A   1      41.457  27.358  26.920  1.00  0.00     0.091 A 
ATOM     71  F   UNL A   1      42.343  29.172  28.192  1.00  0.00    -0.205 F 
ATOM     72  C   UNL A   1      40.568  26.275  26.827  1.00  0.00     0.022 A 
BRANCH  70  73
ATOM     73  S   UNL A   1      42.518  27.661  25.502  1.00  0.00     0.127 S 
ATOM     74  O   UNL A   1      43.831  27.773  26.136  1.00  0.00    -0.237 OA
ATOM     75  O   UNL A   1      42.324  26.447  24.711  1.00  0.00    -0.237 OA
ATOM     76  O   UNL A   1      42.021  28.880  24.880  1.00  0.00    -0.744 OA
ENDBRANCH  70  73
ENDBRANCH  52  66
BRANCH  53  77
ATOM     77  C   UNL A   1      39.528  33.825  37.100  1.00  0.00     0.023 A 
ATOM     78  C   UNL A   1      40.023  35.144  37.117  1.00  0.00     0.012 A 
ATOM     79  C   UNL A   1      38.852  33.331  38.232  1.00  0.00     0.148 A 
ATOM     80  C   UNL A   1      39.883  35.943  38.252  1.00  0.00     0.002 A 
ATOM     81  C   UNL A   1      38.665  34.152  39.339  1.00  0.00     0.091 A 
ATOM     82  F   UNL A   1      38.393  32.073  38.198  1.00  0.00    -0.205 F 
ATOM     83  C   UNL A   1      39.197  35.451  39.359  1.00  0.00     0.022 A 
BRANCH  81  84
ATOM     84  S   UNL A   1      37.687  33.651  40.760  1.00  0.00     0.127 S 
ATOM     85  O   UNL A   1      37.479  34.927  41.443  1.00  0.00    -0.237 OA
ATOM     86  O   UNL A   1      36.496  33.092  40.119  1.00  0.00    -0.237 OA
ATOM     87  O   UNL A   1      38.500  32.678  41.475  1.00  0.00    -0.744 OA
ENDBRANCH  81  84
ENDBRANCH  53  77
BRANCH  65  88
ATOM     88  C   UNL A   1      44.009  28.755  35.348  1.00  0.00     0.023 A 
ATOM     89  C   UNL A   1      45.300  29.281  35.152  1.00  0.00     0.012 A 
ATOM     90  C   UNL A   1      43.814  27.721  36.285  1.00  0.00     0.148 A 
ATOM     91  C   UNL A   1      46.384  28.770  35.865  1.00  0.00     0.002 A 
ATOM     92  C   UNL A   1      44.888  27.255  37.030  1.00  0.00     0.091 A 
ATOM     93  F   UNL A   1      42.577  27.227  36.441  1.00  0.00    -0.205 F 
ATOM     94  C   UNL A   1      46.176  27.770  36.813  1.00  0.00     0.022 A 
BRANCH  92  95
ATOM     95  S   UNL A   1      44.700  26.045  38.344  1.00  0.00     0.127 S 
ATOM     96  O   UNL A   1      44.287  24.858  37.599  1.00  0.00    -0.237 OA
ATOM     97  O   UNL A   1      46.052  25.981  38.898  1.00  0.00    -0.237 OA
ATOM     98  O   UNL A   1      43.696  26.586  39.252  1.00  0.00    -0.744 OA
ENDBRANCH  92  95
ENDBRANCH  65  88
ENDBRANCH  39  40
ENDBRANCH  31  34
ENDBRANCH  29  30
ENDBRANCH  28  29
ENDBRANCH   1  28
TORSDOF 17
ENDMDL
MODEL 2
REMARK VINA RESULT:     -12.4      6.263     11.659
REMARK SMILES C[C@H](NC(=O)[C@@H]1CCCN(S(=O)(=O)c2ccc(Cl)cc2)C1)C(=O)NCCCNC(=O)c1ccc(-c2c3nc(c(-c4cccc(S(=O)(=O)[O-])c4F)c4ccc([nH]4)c(-c4cccc(S(=O)(=O)[O-])c4F)c4nc(c(-c5cccc(S(=O)(=O)[O-])c5F)c5ccc2[nH]5)C=C4)C=C3)cc1
REMARK SMILES IDX 25 1 24 2 22 3 23 4 2 6 1 7 3 8 4 9 5 11 6 12 7 13 21 14
REMARK SMILES IDX 8 15 10 16 9 17 11 18 12 19 13 20 14 21 15 22 20 23 16 24
REMARK SMILES IDX 19 25 17 26 18 27 26 28 27 29 28 30 29 31 30 33 31 34 32 35
REMARK SMILES IDX 93 36 33 37 92 38 34 39 35 40 36 41 86 42 37 43 91 44 85 45
REMARK SMILES IDX 87 46 38 47 90 48 84 49 83 50 39 52 71 53 51 54 70 55 52 56
REMARK SMILES IDX 55 57 69 58 88 59 53 60 54 61 68 63 89 64 56 65 40 66 41 67
REMARK SMILES IDX 49 68 42 69 44 70 50 71 43 72 45 73 46 74 47 75 48 76 72 77
REMARK SMILES IDX 73 78 81 79 74 80 76 81 82 82 75 83 77 84 78 85 79 86 80 87
REMARK SMILES IDX 57 88 58 89 66 90 59 91 61 92 67 93 60 94 62 95 63 96 64 97
REMARK SMILES IDX 65 98
REMARK H PARENT 24 5 3 10 28 32 87 51 55 62
REMARK Flexibility Score: inf
ROOT
ATOM      1  C   UNL A   1      36.985  20.664  24.812  1.00  0.00     0.117 C 
ENDROOT
BRANCH   1   2
ATOM      2  N   UNL A   1      35.694  20.073  25.018  1.00  0.00    -0.354 N 
ATOM      3  C   UNL A   1      34.627  20.603  25.679  1.00  0.00     0.242 C 
ATOM      4  O   UNL A   1      33.537  20.044  25.518  1.00  0.00    -0.273 OA
ATOM      5  H   UNL A   1      35.562  19.176  24.636  1.00  0.00     0.163 HD
BRANCH   3   6
ATOM      6  C   UNL A   1      34.715  21.939  26.470  1.00  0.00     0.168 C 
ATOM      7  C   UNL A   1      33.739  21.966  27.632  1.00  0.00     0.041 C 
BRANCH   6   8
ATOM      8  N   UNL A   1      34.845  23.165  25.665  1.00  0.00    -0.344 N 
ATOM      9  C   UNL A   1      34.246  23.814  24.642  1.00  0.00     0.225 C 
ATOM     10  H   UNL A   1      35.625  23.681  25.971  1.00  0.00     0.164 HD
ATOM     11  O   UNL A   1      34.858  24.813  24.253  1.00  0.00    -0.275 OA
BRANCH   9  12
ATOM     12  C   UNL A   1      32.935  23.395  23.973  1.00  0.00     0.094 C 
ATOM     13  C   UNL A   1      33.033  23.479  22.442  1.00  0.00     0.016 C 
ATOM     14  C   UNL A   1      31.716  24.134  24.494  1.00  0.00     0.116 C 
ATOM     15  C   UNL A   1      32.877  24.901  21.929  1.00  0.00     0.018 C 
ATOM     16  N   UNL A   1      31.591  25.520  23.975  1.00  0.00    -0.197 NA
ATOM     17  C   UNL A   1      31.629  25.568  22.484  1.00  0.00     0.102 C 
BRANCH  16  18
ATOM     18  S   UNL A   1      30.238  26.310  24.689  1.00  0.00     0.243 S 
ATOM     19  O   UNL A   1      29.350  26.725  23.625  1.00  0.00    -0.207 OA
ATOM     20  O   UNL A   1      29.747  25.465  25.764  1.00  0.00    -0.207 OA
BRANCH  18  21
ATOM     21  C   UNL A   1      30.935  27.760  25.429  1.00  0.00     0.082 A 
ATOM     22  C   UNL A   1      30.974  28.952  24.698  1.00  0.00     0.023 A 
ATOM     23  C   UNL A   1      31.392  27.717  26.749  1.00  0.00     0.023 A 
ATOM     24  C   UNL A   1      31.561  30.084  25.261  1.00  0.00     0.022 A 
ATOM     25  C   UNL A   1      31.943  28.864  27.321  1.00  0.00     0.022 A 
ATOM     26  C   UNL A   1      32.042  30.036  26.570  1.00  0.00     0.041 A 
ATOM     27  Cl  UNL A   1      32.748  31.440  27.267  1.00  0.00    -0.084 Cl
ENDBRANCH  18  21
ENDBRANCH  16  18
ENDBRANCH   9  12
ENDBRANCH   6   8
ENDBRANCH   3   6
ENDBRANCH   1   2
BRANCH   1  28
ATOM     28  C   UNL A   1      38.121  19.660  24.821  1.00  0.00     0.042 C 
BRANCH  28  29
ATOM     29  C   UNL A   1      38.975  19.793  26.070  1.00  0.00     0.118 C 
BRANCH  29  30
ATOM     30  N   UNL A   1      40.229  19.043  25.956  1.00  0.00    -0.352 N 
ATOM     31  C   UNL A   1      41.529  19.485  26.019  1.00  0.00     0.251 C 
ATOM     32  H   UNL A   1      40.125  18.075  25.811  1.00  0.00     0.163 HD
ATOM     33  O   UNL A   1      42.444  18.733  25.697  1.00  0.00    -0.269 OA
BRANCH  31  34
ATOM     34  C   UNL A   1      41.806  20.865  26.455  1.00  0.00     0.039 A 
ATOM     35  C   UNL A   1      42.240  21.102  27.762  1.00  0.00     0.014 A 
ATOM     36  C   UNL A   1      41.672  21.922  25.554  1.00  0.00     0.014 A 
ATOM     37  C   UNL A   1      42.625  22.390  28.134  1.00  0.00     0.010 A 
ATOM     38  C   UNL A   1      42.167  23.172  25.888  1.00  0.00     0.010 A 
ATOM     39  C   UNL A   1      42.638  23.425  27.184  1.00  0.00    -0.014 A 
BRANCH  39  40
ATOM     40  C   UNL A   1      43.134  24.786  27.504  1.00  0.00     0.031 A 
ATOM     41  C   UNL A   1      42.211  25.773  28.167  1.00  0.00     0.074 A 
ATOM     42  C   UNL A   1      44.356  25.170  27.084  1.00  0.00     0.049 A 
ATOM     43  N   UNL A   1      42.392  27.047  28.395  1.00  0.00    -0.248 NA
ATOM     44  C   UNL A   1      40.893  25.271  28.595  1.00  0.00     0.031 C 
ATOM     45  C   UNL A   1      45.311  24.327  26.362  1.00  0.00     0.029 A 
ATOM     46  N   UNL A   1      44.989  26.385  27.170  1.00  0.00    -0.354 N 
ATOM     47  C   UNL A   1      41.201  27.506  28.943  1.00  0.00     0.074 A 
ATOM     48  C   UNL A   1      40.289  26.386  28.976  1.00  0.00     0.031 C 
ATOM     49  C   UNL A   1      46.408  25.045  26.076  1.00  0.00     0.029 A 
ATOM     50  C   UNL A   1      46.216  26.412  26.549  1.00  0.00     0.049 A 
ATOM     51  H   UNL A   1      44.602  27.163  27.632  1.00  0.00     0.167 HD
ATOM     52  C   UNL A   1      40.901  28.743  29.402  1.00  0.00     0.034 A 
ATOM     53  C   UNL A   1      47.081  27.429  26.360  1.00  0.00     0.034 A 
ATOM     54  C   UNL A   1      41.829  29.839  29.406  1.00  0.00     0.049 A 
ATOM     55  C   UNL A   1      46.733  28.788  26.905  1.00  0.00     0.074 A 
ATOM     56  C   UNL A   1      41.658  31.105  29.932  1.00  0.00     0.029 A 
ATOM     57  N   UNL A   1      43.098  29.801  28.849  1.00  0.00    -0.354 N 
ATOM     58  N   UNL A   1      45.657  29.168  27.550  1.00  0.00    -0.248 NA
ATOM     59  C   UNL A   1      47.731  29.853  26.724  1.00  0.00     0.031 C 
ATOM     60  C   UNL A   1      42.811  31.848  29.660  1.00  0.00     0.029 A 
ATOM     61  C   UNL A   1      43.716  31.027  29.007  1.00  0.00     0.049 A 
ATOM     62  H   UNL A   1      43.498  29.019  28.406  1.00  0.00     0.167 HD
ATOM     63  C   UNL A   1      45.867  30.499  27.892  1.00  0.00     0.074 A 
ATOM     64  C   UNL A   1      47.177  30.857  27.390  1.00  0.00     0.031 C 
ATOM     65  C   UNL A   1      45.046  31.349  28.555  1.00  0.00     0.034 A 
BRANCH  52  66
ATOM     66  C   UNL A   1      39.526  28.965  29.975  1.00  0.00     0.023 A 
ATOM     67  C   UNL A   1      39.246  28.569  31.300  1.00  0.00     0.012 A 
ATOM     68  C   UNL A   1      38.528  29.615  29.224  1.00  0.00     0.148 A 
ATOM     69  C   UNL A   1      37.984  28.780  31.853  1.00  0.00     0.002 A 
ATOM     70  C   UNL A   1      37.290  29.868  29.800  1.00  0.00     0.091 A 
ATOM     71  F   UNL A   1      38.806  29.965  27.960  1.00  0.00    -0.205 F 
ATOM     72  C   UNL A   1      37.011  29.439  31.108  1.00  0.00     0.022 A 
BRANCH  70  73
ATOM     73  S   UNL A   1      35.997  30.786  28.954  1.00  0.00     0.127 S 
ATOM     74  O   UNL A   1      36.774  31.806  28.250  1.00  0.00    -0.237 OA
ATOM     75  O   UNL A   1      35.411  29.762  28.090  1.00  0.00    -0.237 OA
ATOM     76  O   UNL A   1      35.111  31.286  29.995  1.00  0.00    -0.744 OA
ENDBRANCH  70  73
ENDBRANCH  52  66
BRANCH  53  77
ATOM     77  C   UNL A   1      48.378  27.190  25.668  1.00  0.00     0.023 A 
ATOM     78  C   UNL A   1      49.482  26.723  26.408  1.00  0.00     0.012 A 
ATOM     79  C   UNL A   1      48.521  27.403  24.283  1.00  0.00     0.148 A 
ATOM     80  C   UNL A   1      50.715  26.509  25.791  1.00  0.00     0.002 A 
ATOM     81  C   UNL A   1      49.736  27.133  23.664  1.00  0.00     0.091 A 
ATOM     82  F   UNL A   1      47.461  27.852  23.598  1.00  0.00    -0.205 F 
ATOM     83  C   UNL A   1      50.839  26.705  24.418  1.00  0.00     0.022 A 
BRANCH  81  84
ATOM     84  S   UNL A   1      49.957  27.233  21.884  1.00  0.00     0.127 S 
ATOM     85  O   UNL A   1      49.682  28.645  21.628  1.00  0.00    -0.237 OA
ATOM     86  O   UNL A   1      51.358  26.839  21.735  1.00  0.00    -0.237 OA
ATOM     87  O   UNL A   1      49.002  26.292  21.315  1.00  0.00    -0.744 OA
ENDBRANCH  81  84
ENDBRANCH  53  77
BRANCH  65  88
ATOM     88  C   UNL A   1      45.552  32.736  28.847  1.00  0.00     0.023 A 
ATOM     89  C   UNL A   1      46.355  32.975  29.978  1.00  0.00     0.012 A 
ATOM     90  C   UNL A   1      45.314  33.781  27.931  1.00  0.00     0.148 A 
ATOM     91  C   UNL A   1      46.897  34.240  30.204  1.00  0.00     0.002 A 
ATOM     92  C   UNL A   1      45.901  35.022  28.133  1.00  0.00     0.091 A 
ATOM     93  F   UNL A   1      44.532  33.532  26.870  1.00  0.00    -0.205 F 
ATOM     94  C   UNL A   1      46.683  35.257  29.275  1.00  0.00     0.022 A 
BRANCH  92  95
ATOM     95  S   UNL A   1      45.769  36.358  26.941  1.00  0.00     0.127 S 
ATOM     96  O   UNL A   1      46.604  37.388  27.554  1.00  0.00    -0.237 OA
ATOM     97  O   UNL A   1      46.332  35.751  25.735  1.00  0.00    -0.237 OA
ATOM     98  O   UNL A   1      44.350  36.683  26.852  1.00  0.00    -0.744 OA
ENDBRANCH  92  95
ENDBRANCH  65  88
ENDBRANCH  39  40
ENDBRANCH  31  34
ENDBRANCH  29  30
ENDBRANCH  28  29
ENDBRANCH   1  28
TORSDOF 17
ENDMDL
MODEL 3
REMARK VINA RESULT:     -12.4      0.524      7.615
REMARK SMILES C[C@H](NC(=O)[C@@H]1CCCN(S(=O)(=O)c2ccc(Cl)cc2)C1)C(=O)NCCCNC(=O)c1ccc(-c2c3nc(c(-c4cccc(S(=O)(=O)[O-])c4F)c4ccc([nH]4)c(-c4cccc(S(=O)(=O)[O-])c4F)c4nc(c(-c5cccc(S(=O)(=O)[O-])c5F)c5ccc2[nH]5)C=C4)C=C3)cc1
REMARK SMILES IDX 25 1 24 2 22 3 23 4 2 6 1 7 3 8 4 9 5 11 6 12 7 13 21 14
REMARK SMILES IDX 8 15 10 16 9 17 11 18 12 19 13 20 14 21 15 22 20 23 16 24
REMARK SMILES IDX 19 25 17 26 18 27 26 28 27 29 28 30 29 31 30 33 31 34 32 35
REMARK SMILES IDX 93 36 33 37 92 38 34 39 35 40 36 41 86 42 37 43 91 44 85 45
REMARK SMILES IDX 87 46 38 47 90 48 84 49 83 50 39 52 71 53 51 54 70 55 52 56
REMARK SMILES IDX 55 57 69 58 88 59 53 60 54 61 68 63 89 64 56 65 40 66 41 67
REMARK SMILES IDX 49 68 42 69 44 70 50 71 43 72 45 73 46 74 47 75 48 76 72 77
REMARK SMILES IDX 73 78 81 79 74 80 76 81 82 82 75 83 77 84 78 85 79 86 80 87
REMARK SMILES IDX 57 88 58 89 66 90 59 91 61 92 67 93 60 94 62 95 63 96 64 97
REMARK SMILES IDX 65 98
REMARK H PARENT 24 5 3 10 28 32 87 51 55 62
REMARK Flexibility Score: inf
ROOT
ATOM      1  C   UNL A   1      31.814  30.761  26.423  1.00  0.00     0.117 C 
ENDROOT
BRANCH   1   2
ATOM      2  N   UNL A   1      31.142  30.356  25.221  1.00  0.00    -0.354 N 
ATOM      3  C   UNL A   1      31.579  29.481  24.273  1.00  0.00     0.242 C 
ATOM      4  O   UNL A   1      30.742  29.078  23.458  1.00  0.00    -0.273 OA
ATOM      5  H   UNL A   1      30.258  30.758  25.064  1.00  0.00     0.163 HD
BRANCH   3   6
ATOM      6  C   UNL A   1      33.011  28.876  24.292  1.00  0.00     0.168 C 
ATOM      7  C   UNL A   1      33.632  28.865  22.906  1.00  0.00     0.041 C 
BRANCH   6   8
ATOM      8  N   UNL A   1      33.202  27.681  25.130  1.00  0.00    -0.344 N 
ATOM      9  C   UNL A   1      32.692  26.444  25.321  1.00  0.00     0.225 C 
ATOM     10  H   UNL A   1      33.945  27.832  25.758  1.00  0.00     0.164 HD
ATOM     11  O   UNL A   1      33.173  25.845  26.288  1.00  0.00    -0.275 OA
BRANCH   9  12
ATOM     12  C   UNL A   1      31.607  25.790  24.463  1.00  0.00     0.094 C 
ATOM     13  C   UNL A   1      30.356  25.462  25.291  1.00  0.00     0.016 C 
ATOM     14  C   UNL A   1      32.088  24.582  23.679  1.00  0.00     0.116 C 
ATOM     15  C   UNL A   1      30.519  24.191  26.108  1.00  0.00     0.018 C 
ATOM     16  N   UNL A   1      32.238  23.357  24.504  1.00  0.00    -0.197 NA
ATOM     17  C   UNL A   1      30.990  23.026  25.253  1.00  0.00     0.102 C 
BRANCH  16  18
ATOM     18  S   UNL A   1      32.875  22.068  23.556  1.00  0.00     0.243 S 
ATOM     19  O   UNL A   1      32.169  20.857  23.916  1.00  0.00    -0.207 OA
ATOM     20  O   UNL A   1      32.910  22.510  22.173  1.00  0.00    -0.207 OA
BRANCH  18  21
ATOM     21  C   UNL A   1      34.551  21.920  24.111  1.00  0.00     0.082 A 
ATOM     22  C   UNL A   1      35.466  22.933  23.806  1.00  0.00     0.023 A 
ATOM     23  C   UNL A   1      34.933  20.823  24.888  1.00  0.00     0.023 A 
ATOM     24  C   UNL A   1      36.795  22.801  24.204  1.00  0.00     0.022 A 
ATOM     25  C   UNL A   1      36.256  20.715  25.317  1.00  0.00     0.022 A 
ATOM     26  C   UNL A   1      37.185  21.693  24.958  1.00  0.00     0.041 A 
ATOM     27  Cl  UNL A   1      38.821  21.542  25.461  1.00  0.00    -0.084 Cl
ENDBRANCH  18  21
ENDBRANCH  16  18
ENDBRANCH   9  12
ENDBRANCH   6   8
ENDBRANCH   3   6
ENDBRANCH   1   2
BRANCH   1  28
ATOM     28  C   UNL A   1      31.608  32.222  26.772  1.00  0.00     0.042 C 
BRANCH  28  29
ATOM     29  C   UNL A   1      32.805  32.795  27.511  1.00  0.00     0.118 C 
BRANCH  29  30
ATOM     30  N   UNL A   1      32.622  34.214  27.829  1.00  0.00    -0.352 N 
ATOM     31  C   UNL A   1      33.171  34.969  28.836  1.00  0.00     0.251 C 
ATOM     32  H   UNL A   1      32.013  34.700  27.228  1.00  0.00     0.163 HD
ATOM     33  O   UNL A   1      32.736  36.094  29.060  1.00  0.00    -0.269 OA
BRANCH  31  34
ATOM     34  C   UNL A   1      34.264  34.408  29.652  1.00  0.00     0.039 A 
ATOM     35  C   UNL A   1      33.959  33.661  30.792  1.00  0.00     0.014 A 
ATOM     36  C   UNL A   1      35.591  34.593  29.263  1.00  0.00     0.014 A 
ATOM     37  C   UNL A   1      34.987  33.024  31.489  1.00  0.00     0.010 A 
ATOM     38  C   UNL A   1      36.593  33.865  29.883  1.00  0.00     0.010 A 
ATOM     39  C   UNL A   1      36.305  33.081  31.009  1.00  0.00    -0.014 A 
BRANCH  39  40
ATOM     40  C   UNL A   1      37.416  32.339  31.656  1.00  0.00     0.031 A 
ATOM     41  C   UNL A   1      37.962  32.823  32.972  1.00  0.00     0.074 A 
ATOM     42  C   UNL A   1      38.010  31.320  31.004  1.00  0.00     0.049 A 
ATOM     43  N   UNL A   1      39.017  32.416  33.628  1.00  0.00    -0.248 NA
ATOM     44  C   UNL A   1      37.253  33.943  33.618  1.00  0.00     0.031 C 
ATOM     45  C   UNL A   1      37.620  30.809  29.689  1.00  0.00     0.029 A 
ATOM     46  N   UNL A   1      39.098  30.555  31.344  1.00  0.00    -0.354 N 
ATOM     47  C   UNL A   1      39.124  33.256  34.729  1.00  0.00     0.074 A 
ATOM     48  C   UNL A   1      38.054  34.222  34.634  1.00  0.00     0.031 C 
ATOM     49  C   UNL A   1      38.450  29.815  29.336  1.00  0.00     0.029 A 
ATOM     50  C   UNL A   1      39.460  29.649  30.374  1.00  0.00     0.049 A 
ATOM     51  H   UNL A   1      39.574  30.646  32.201  1.00  0.00     0.167 HD
ATOM     52  C   UNL A   1      40.018  33.211  35.744  1.00  0.00     0.034 A 
ATOM     53  C   UNL A   1      40.503  28.797  30.318  1.00  0.00     0.034 A 
ATOM     54  C   UNL A   1      41.052  32.220  35.853  1.00  0.00     0.049 A 
ATOM     55  C   UNL A   1      41.467  28.749  31.473  1.00  0.00     0.074 A 
ATOM     56  C   UNL A   1      41.950  32.027  36.886  1.00  0.00     0.029 A 
ATOM     57  N   UNL A   1      41.330  31.259  34.893  1.00  0.00    -0.354 N 
ATOM     58  N   UNL A   1      41.468  29.457  32.576  1.00  0.00    -0.248 NA
ATOM     59  C   UNL A   1      42.556  27.765  31.390  1.00  0.00     0.031 C 
ATOM     60  C   UNL A   1      42.798  30.974  36.534  1.00  0.00     0.029 A 
ATOM     61  C   UNL A   1      42.396  30.480  35.303  1.00  0.00     0.049 A 
ATOM     62  H   UNL A   1      40.842  31.150  34.045  1.00  0.00     0.167 HD
ATOM     63  C   UNL A   1      42.525  28.974  33.338  1.00  0.00     0.074 A 
ATOM     64  C   UNL A   1      43.137  27.907  32.574  1.00  0.00     0.031 C 
ATOM     65  C   UNL A   1      42.954  29.381  34.557  1.00  0.00     0.034 A 
BRANCH  52  66
ATOM     66  C   UNL A   1      39.893  34.239  36.837  1.00  0.00     0.023 A 
ATOM     67  C   UNL A   1      40.228  35.584  36.576  1.00  0.00     0.012 A 
ATOM     68  C   UNL A   1      39.391  33.887  38.106  1.00  0.00     0.148 A 
ATOM     69  C   UNL A   1      40.104  36.554  37.570  1.00  0.00     0.002 A 
ATOM     70  C   UNL A   1      39.221  34.868  39.074  1.00  0.00     0.091 A 
ATOM     71  F   UNL A   1      39.097  32.600  38.341  1.00  0.00    -0.205 F 
ATOM     72  C   UNL A   1      39.591  36.198  38.814  1.00  0.00     0.022 A 
BRANCH  70  73
ATOM     73  S   UNL A   1      38.488  34.528  40.678  1.00  0.00     0.127 S 
ATOM     74  O   UNL A   1      37.229  33.890  40.297  1.00  0.00    -0.237 OA
ATOM     75  O   UNL A   1      39.471  33.628  41.279  1.00  0.00    -0.237 OA
ATOM     76  O   UNL A   1      38.356  35.817  41.342  1.00  0.00    -0.744 OA
ENDBRANCH  70  73
ENDBRANCH  52  66
BRANCH  53  77
ATOM     77  C   UNL A   1      40.661  27.885  29.150  1.00  0.00     0.023 A 
ATOM     78  C   UNL A   1      39.905  26.698  29.091  1.00  0.00     0.012 A 
ATOM     79  C   UNL A   1      41.539  28.194  28.092  1.00  0.00     0.148 A 
ATOM     80  C   UNL A   1      40.046  25.816  28.019  1.00  0.00     0.002 A 
ATOM     81  C   UNL A   1      41.632  27.339  26.999  1.00  0.00     0.091 A 
ATOM     82  F   UNL A   1      42.253  29.325  28.169  1.00  0.00    -0.205 F 
ATOM     83  C   UNL A   1      40.902  26.140  26.970  1.00  0.00     0.022 A 
BRANCH  81  84
ATOM     84  S   UNL A   1      42.609  27.732  25.545  1.00  0.00     0.127 S 
ATOM     85  O   UNL A   1      41.906  28.901  25.020  1.00  0.00    -0.237 OA
ATOM     86  O   UNL A   1      43.920  28.012  26.132  1.00  0.00    -0.237 OA
ATOM     87  O   UNL A   1      42.566  26.541  24.708  1.00  0.00    -0.744 OA
ENDBRANCH  81  84
ENDBRANCH  53  77
BRANCH  65  88
ATOM     88  C   UNL A   1      44.100  28.638  35.188  1.00  0.00     0.023 A 
ATOM     89  C   UNL A   1      45.427  29.030  34.933  1.00  0.00     0.012 A 
ATOM     90  C   UNL A   1      43.846  27.615  36.125  1.00  0.00     0.148 A 
ATOM     91  C   UNL A   1      46.487  28.400  35.585  1.00  0.00     0.002 A 
ATOM     92  C   UNL A   1      44.901  27.030  36.810  1.00  0.00     0.091 A 
ATOM     93  F   UNL A   1      42.573  27.249  36.338  1.00  0.00    -0.205 F 
ATOM     94  C   UNL A   1      46.223  27.412  36.533  1.00  0.00     0.022 A 
BRANCH  92  95
ATOM     95  S   UNL A   1      44.653  25.827  38.120  1.00  0.00     0.127 S 
ATOM     96  O   UNL A   1      44.048  24.714  37.392  1.00  0.00    -0.237 OA
ATOM     97  O   UNL A   1      46.021  25.586  38.578  1.00  0.00    -0.237 OA
ATOM     98  O   UNL A   1      43.788  26.469  39.101  1.00  0.00    -0.744 OA
ENDBRANCH  92  95
ENDBRANCH  65  88
ENDBRANCH  39  40
ENDBRANCH  31  34
ENDBRANCH  29  30
ENDBRANCH  28  29
ENDBRANCH   1  28
TORSDOF 17
ENDMDL
