MODEL 1
REMARK VINA RESULT:     -11.8      0.000      0.000
REMARK SMILES O=C(C[C@H](NS(=O)(=O)c1cccs1)c1ccccc1Cl)NCCCNC(=O)c1ccc(-c2c3nc(c(-c4cccc(S(=O)(=O)[O-])c4F)c4ccc([nH]4)c(-c4cccc(S(=O)(=O)[O-])c4F)c4nc(c(-c5cccc(S(=O)(=O)[O-])c5F)c5ccc2[nH]5)C=C4)C=C3)cc1
REMARK SMILES IDX 22 1 21 2 1 3 2 4 3 6 4 7 14 8 15 9 19 10 16 11 18 12 20 13
REMARK SMILES IDX 17 14 5 15 6 17 7 18 8 19 9 20 10 21 13 22 11 23 12 24 23 25
REMARK SMILES IDX 24 26 25 27 26 28 27 30 28 31 29 32 90 33 30 34 89 35 31 36
REMARK SMILES IDX 32 37 33 38 83 39 34 40 88 41 82 42 84 43 35 44 87 45 81 46
REMARK SMILES IDX 80 47 36 49 68 50 48 51 67 52 49 53 52 54 66 55 85 56 50 57
REMARK SMILES IDX 51 58 65 60 86 61 53 62 37 63 38 64 46 65 39 66 41 67 47 68
REMARK SMILES IDX 40 69 42 70 43 71 44 72 45 73 69 74 70 75 78 76 71 77 73 78
REMARK SMILES IDX 79 79 72 80 74 81 75 82 76 83 77 84 54 85 55 86 63 87 56 88
REMARK SMILES IDX 58 89 64 90 57 91 59 92 60 93 61 94 62 95
REMARK H PARENT 21 5 5 16 25 29 84 48 52 59
REMARK Flexibility Score: inf
ROOT
ATOM      1  C   UNL A   1      35.584  20.727  25.153  1.00  0.00     0.117 C 
ENDROOT
BRANCH   1   2
ATOM      2  N   UNL A   1      35.383  22.087  25.621  1.00  0.00    -0.356 N 
ATOM      3  O   UNL A   1      33.775  22.617  24.071  1.00  0.00    -0.275 OA
ATOM      4  C   UNL A   1      34.476  22.931  25.029  1.00  0.00     0.221 C 
ATOM      5  H   UNL A   1      35.913  22.415  26.383  1.00  0.00     0.163 HD
BRANCH   4   6
ATOM      6  C   UNL A   1      34.319  24.281  25.683  1.00  0.00     0.125 C 
BRANCH   6   7
ATOM      7  C   UNL A   1      33.336  25.180  24.920  1.00  0.00     0.111 C 
BRANCH   7   8
ATOM      8  C   UNL A   1      32.949  26.354  25.810  1.00  0.00    -0.011 A 
ATOM      9  C   UNL A   1      33.912  27.334  26.127  1.00  0.00     0.007 A 
ATOM     10  C   UNL A   1      31.658  26.500  26.348  1.00  0.00     0.045 A 
ATOM     11  C   UNL A   1      33.586  28.443  26.908  1.00  0.00     0.000 A 
ATOM     12  C   UNL A   1      31.334  27.617  27.126  1.00  0.00     0.021 A 
ATOM     13  Cl  UNL A   1      30.414  25.333  26.078  1.00  0.00    -0.084 Cl
ATOM     14  C   UNL A   1      32.293  28.591  27.399  1.00  0.00     0.002 A 
ENDBRANCH   7   8
BRANCH   7  15
ATOM     15  N   UNL A   1      33.928  25.647  23.630  1.00  0.00    -0.202 NA
ATOM     16  H   UNL A   1      34.639  24.970  23.357  1.00  0.00     0.142 HD
BRANCH  15  17
ATOM     17  S   UNL A   1      32.872  25.837  22.322  1.00  0.00     0.250 S 
ATOM     18  O   UNL A   1      33.665  26.435  21.268  1.00  0.00    -0.206 OA
ATOM     19  O   UNL A   1      32.167  24.593  22.117  1.00  0.00    -0.206 OA
BRANCH  17  20
ATOM     20  C   UNL A   1      31.680  27.089  22.738  1.00  0.00     0.134 A 
ATOM     21  C   UNL A   1      30.312  27.012  22.931  1.00  0.00     0.033 A 
ATOM     22  S   UNL A   1      32.246  28.688  22.949  1.00  0.00    -0.131 S 
ATOM     23  C   UNL A   1      29.722  28.284  23.182  1.00  0.00     0.013 A 
ATOM     24  C   UNL A   1      30.662  29.291  23.185  1.00  0.00     0.066 A 
ENDBRANCH  17  20
ENDBRANCH  15  17
ENDBRANCH   7  15
ENDBRANCH   6   7
ENDBRANCH   4   6
ENDBRANCH   1   2
BRANCH   1  25
ATOM     25  C   UNL A   1      37.000  20.483  24.647  1.00  0.00     0.042 C 
BRANCH  25  26
ATOM     26  C   UNL A   1      38.091  21.239  25.401  1.00  0.00     0.118 C 
BRANCH  26  27
ATOM     27  N   UNL A   1      39.096  20.365  25.990  1.00  0.00    -0.352 N 
ATOM     28  C   UNL A   1      40.248  20.681  26.671  1.00  0.00     0.251 C 
ATOM     29  H   UNL A   1      38.926  19.402  25.883  1.00  0.00     0.163 HD
ATOM     30  O   UNL A   1      41.035  19.787  26.972  1.00  0.00    -0.269 OA
BRANCH  28  31
ATOM     31  C   UNL A   1      40.564  22.086  27.021  1.00  0.00     0.039 A 
ATOM     32  C   UNL A   1      41.389  22.330  28.124  1.00  0.00     0.014 A 
ATOM     33  C   UNL A   1      40.043  23.158  26.292  1.00  0.00     0.014 A 
ATOM     34  C   UNL A   1      41.747  23.641  28.452  1.00  0.00     0.010 A 
ATOM     35  C   UNL A   1      40.453  24.459  26.579  1.00  0.00     0.010 A 
ATOM     36  C   UNL A   1      41.312  24.715  27.659  1.00  0.00    -0.014 A 
BRANCH  36  37
ATOM     37  C   UNL A   1      41.777  26.103  27.920  1.00  0.00     0.031 A 
ATOM     38  C   UNL A   1      43.176  26.525  27.562  1.00  0.00     0.074 A 
ATOM     39  C   UNL A   1      40.965  26.960  28.569  1.00  0.00     0.049 A 
ATOM     40  N   UNL A   1      43.766  27.675  27.763  1.00  0.00    -0.248 NA
ATOM     41  C   UNL A   1      44.032  25.518  26.914  1.00  0.00     0.031 C 
ATOM     42  C   UNL A   1      39.616  26.648  29.048  1.00  0.00     0.029 A 
ATOM     43  N   UNL A   1      41.163  28.260  28.964  1.00  0.00    -0.354 N 
ATOM     44  C   UNL A   1      45.068  27.522  27.305  1.00  0.00     0.074 A 
ATOM     45  C   UNL A   1      45.191  26.158  26.836  1.00  0.00     0.031 C 
ATOM     46  C   UNL A   1      39.110  27.724  29.671  1.00  0.00     0.029 A 
ATOM     47  C   UNL A   1      40.101  28.796  29.656  1.00  0.00     0.049 A 
ATOM     48  H   UNL A   1      41.988  28.762  28.770  1.00  0.00     0.167 HD
ATOM     49  C   UNL A   1      46.063  28.440  27.249  1.00  0.00     0.034 A 
ATOM     50  C   UNL A   1      39.942  30.010  30.216  1.00  0.00     0.034 A 
ATOM     51  C   UNL A   1      45.924  29.811  27.661  1.00  0.00     0.049 A 
ATOM     52  C   UNL A   1      41.040  31.030  30.084  1.00  0.00     0.074 A 
ATOM     53  C   UNL A   1      46.844  30.839  27.553  1.00  0.00     0.029 A 
ATOM     54  N   UNL A   1      44.797  30.346  28.264  1.00  0.00    -0.354 N 
ATOM     55  N   UNL A   1      42.203  30.915  29.491  1.00  0.00    -0.248 NA
ATOM     56  C   UNL A   1      40.789  32.358  30.664  1.00  0.00     0.031 C 
ATOM     57  C   UNL A   1      46.273  31.996  28.096  1.00  0.00     0.029 A 
ATOM     58  C   UNL A   1      44.996  31.689  28.536  1.00  0.00     0.049 A 
ATOM     59  H   UNL A   1      43.973  29.845  28.468  1.00  0.00     0.167 HD
ATOM     60  C   UNL A   1      42.809  32.163  29.598  1.00  0.00     0.074 A 
ATOM     61  C   UNL A   1      41.875  33.024  30.292  1.00  0.00     0.031 C 
ATOM     62  C   UNL A   1      44.037  32.553  29.175  1.00  0.00     0.034 A 
BRANCH  49  63
ATOM     63  C   UNL A   1      47.376  28.011  26.650  1.00  0.00     0.023 A 
ATOM     64  C   UNL A   1      48.427  27.620  27.505  1.00  0.00     0.012 A 
ATOM     65  C   UNL A   1      47.554  27.928  25.255  1.00  0.00     0.148 A 
ATOM     66  C   UNL A   1      49.644  27.183  26.983  1.00  0.00     0.002 A 
ATOM     67  C   UNL A   1      48.756  27.455  24.741  1.00  0.00     0.091 A 
ATOM     68  F   UNL A   1      46.552  28.326  24.457  1.00  0.00    -0.205 F 
ATOM     69  C   UNL A   1      49.804  27.091  25.604  1.00  0.00     0.022 A 
BRANCH  67  70
ATOM     70  S   UNL A   1      49.032  27.232  22.980  1.00  0.00     0.127 S 
ATOM     71  O   UNL A   1      48.367  25.953  22.736  1.00  0.00    -0.237 OA
ATOM     72  O   UNL A   1      48.350  28.393  22.408  1.00  0.00    -0.237 OA
ATOM     73  O   UNL A   1      50.478  27.233  22.802  1.00  0.00    -0.744 OA
ENDBRANCH  67  70
ENDBRANCH  49  63
BRANCH  50  74
ATOM     74  C   UNL A   1      38.653  30.354  30.880  1.00  0.00     0.023 A 
ATOM     75  C   UNL A   1      38.457  29.991  32.227  1.00  0.00     0.012 A 
ATOM     76  C   UNL A   1      37.645  31.068  30.207  1.00  0.00     0.148 A 
ATOM     77  C   UNL A   1      37.270  30.311  32.884  1.00  0.00     0.002 A 
ATOM     78  C   UNL A   1      36.483  31.428  30.882  1.00  0.00     0.091 A 
ATOM     79  F   UNL A   1      37.842  31.390  28.920  1.00  0.00    -0.205 F 
ATOM     80  C   UNL A   1      36.288  31.038  32.216  1.00  0.00     0.022 A 
BRANCH  78  81
ATOM     81  S   UNL A   1      35.230  32.478  30.136  1.00  0.00     0.127 S 
ATOM     82  O   UNL A   1      34.303  32.673  31.246  1.00  0.00    -0.237 OA
ATOM     83  O   UNL A   1      36.004  33.662  29.764  1.00  0.00    -0.237 OA
ATOM     84  O   UNL A   1      34.718  31.720  29.001  1.00  0.00    -0.744 OA
ENDBRANCH  78  81
ENDBRANCH  50  74
BRANCH  62  85
ATOM     85  C   UNL A   1      44.441  33.980  29.429  1.00  0.00     0.023 A 
ATOM     86  C   UNL A   1      44.978  34.337  30.682  1.00  0.00     0.012 A 
ATOM     87  C   UNL A   1      44.360  34.949  28.411  1.00  0.00     0.148 A 
ATOM     88  C   UNL A   1      45.401  35.642  30.926  1.00  0.00     0.002 A 
ATOM     89  C   UNL A   1      44.823  36.239  28.647  1.00  0.00     0.091 A 
ATOM     90  F   UNL A   1      43.826  34.597  27.231  1.00  0.00    -0.205 F 
ATOM     91  C   UNL A   1      45.334  36.590  29.907  1.00  0.00     0.022 A 
BRANCH  89  92
ATOM     92  S   UNL A   1      44.856  37.493  27.361  1.00  0.00     0.127 S 
ATOM     93  O   UNL A   1      43.457  37.528  26.940  1.00  0.00    -0.237 OA
ATOM     94  O   UNL A   1      45.303  38.681  28.090  1.00  0.00    -0.237 OA
ATOM     95  O   UNL A   1      45.803  37.012  26.365  1.00  0.00    -0.744 OA
ENDBRANCH  89  92
ENDBRANCH  62  85
ENDBRANCH  36  37
ENDBRANCH  28  31
ENDBRANCH  26  27
ENDBRANCH  25  26
ENDBRANCH   1  25
TORSDOF 18
ENDMDL
MODEL 2
REMARK VINA RESULT:     -11.8      4.995      9.820
REMARK SMILES O=C(C[C@H](NS(=O)(=O)c1cccs1)c1ccccc1Cl)NCCCNC(=O)c1ccc(-c2c3nc(c(-c4cccc(S(=O)(=O)[O-])c4F)c4ccc([nH]4)c(-c4cccc(S(=O)(=O)[O-])c4F)c4nc(c(-c5cccc(S(=O)(=O)[O-])c5F)c5ccc2[nH]5)C=C4)C=C3)cc1
REMARK SMILES IDX 22 1 21 2 1 3 2 4 3 6 4 7 14 8 15 9 19 10 16 11 18 12 20 13
REMARK SMILES IDX 17 14 5 15 6 17 7 18 8 19 9 20 10 21 13 22 11 23 12 24 23 25
REMARK SMILES IDX 24 26 25 27 26 28 27 30 28 31 29 32 90 33 30 34 89 35 31 36
REMARK SMILES IDX 32 37 33 38 83 39 34 40 88 41 82 42 84 43 35 44 87 45 81 46
REMARK SMILES IDX 80 47 36 49 68 50 48 51 67 52 49 53 52 54 66 55 85 56 50 57
REMARK SMILES IDX 51 58 65 60 86 61 53 62 37 63 38 64 46 65 39 66 41 67 47 68
REMARK SMILES IDX 40 69 42 70 43 71 44 72 45 73 69 74 70 75 78 76 71 77 73 78
REMARK SMILES IDX 79 79 72 80 74 81 75 82 76 83 77 84 54 85 55 86 63 87 56 88
REMARK SMILES IDX 58 89 64 90 57 91 59 92 60 93 61 94 62 95
REMARK H PARENT 21 5 5 16 25 29 84 48 52 59
REMARK Flexibility Score: inf
ROOT
ATOM      1  C   UNL A   1      31.840  27.360  26.364  1.00  0.00     0.117 C 
ENDROOT
BRANCH   1   2
ATOM      2  N   UNL A   1      31.966  25.926  26.171  1.00  0.00    -0.356 N 
ATOM      3  O   UNL A   1      29.742  25.465  26.506  1.00  0.00    -0.275 OA
ATOM      4  C   UNL A   1      30.883  25.086  26.258  1.00  0.00     0.221 C 
ATOM      5  H   UNL A   1      32.851  25.545  25.973  1.00  0.00     0.163 HD
BRANCH   4   6
ATOM      6  C   UNL A   1      31.159  23.636  25.945  1.00  0.00     0.125 C 
BRANCH   6   7
ATOM      7  C   UNL A   1      32.447  23.458  25.129  1.00  0.00     0.111 C 
BRANCH   7   8
ATOM      8  C   UNL A   1      32.645  21.975  24.839  1.00  0.00    -0.011 A 
ATOM      9  C   UNL A   1      32.222  21.446  23.603  1.00  0.00     0.007 A 
ATOM     10  C   UNL A   1      33.228  21.095  25.768  1.00  0.00     0.045 A 
ATOM     11  C   UNL A   1      32.420  20.102  23.285  1.00  0.00     0.000 A 
ATOM     12  C   UNL A   1      33.430  19.750  25.443  1.00  0.00     0.021 A 
ATOM     13  Cl  UNL A   1      33.730  21.617  27.336  1.00  0.00    -0.084 Cl
ATOM     14  C   UNL A   1      33.034  19.255  24.202  1.00  0.00     0.002 A 
ENDBRANCH   7   8
BRANCH   7  15
ATOM     15  N   UNL A   1      32.399  24.257  23.869  1.00  0.00    -0.202 NA
ATOM     16  H   UNL A   1      31.754  25.032  24.022  1.00  0.00     0.142 HD
BRANCH  15  17
ATOM     17  S   UNL A   1      33.858  24.908  23.313  1.00  0.00     0.250 S 
ATOM     18  O   UNL A   1      33.842  24.725  21.876  1.00  0.00    -0.206 OA
ATOM     19  O   UNL A   1      34.030  26.216  23.901  1.00  0.00    -0.206 OA
BRANCH  17  20
ATOM     20  C   UNL A   1      35.188  23.868  23.873  1.00  0.00     0.134 A 
ATOM     21  C   UNL A   1      35.872  22.847  23.236  1.00  0.00     0.033 A 
ATOM     22  S   UNL A   1      35.772  24.109  25.461  1.00  0.00    -0.131 S 
ATOM     23  C   UNL A   1      36.828  22.218  24.083  1.00  0.00     0.013 A 
ATOM     24  C   UNL A   1      36.852  22.787  25.337  1.00  0.00     0.066 A 
ENDBRANCH  17  20
ENDBRANCH  15  17
ENDBRANCH   7  15
ENDBRANCH   6   7
ENDBRANCH   4   6
ENDBRANCH   1   2
BRANCH   1  25
ATOM     25  C   UNL A   1      33.055  27.968  27.054  1.00  0.00     0.042 C 
BRANCH  25  26
ATOM     26  C   UNL A   1      33.797  29.022  26.238  1.00  0.00     0.118 C 
BRANCH  26  27
ATOM     27  N   UNL A   1      33.729  30.356  26.818  1.00  0.00    -0.352 N 
ATOM     28  C   UNL A   1      34.562  30.966  27.725  1.00  0.00     0.251 C 
ATOM     29  H   UNL A   1      32.969  30.904  26.515  1.00  0.00     0.163 HD
ATOM     30  O   UNL A   1      34.247  32.059  28.192  1.00  0.00    -0.269 OA
BRANCH  28  31
ATOM     31  C   UNL A   1      35.816  30.313  28.167  1.00  0.00     0.039 A 
ATOM     32  C   UNL A   1      36.936  30.384  27.331  1.00  0.00     0.014 A 
ATOM     33  C   UNL A   1      35.894  29.618  29.376  1.00  0.00     0.014 A 
ATOM     34  C   UNL A   1      38.149  29.821  27.741  1.00  0.00     0.010 A 
ATOM     35  C   UNL A   1      37.119  29.115  29.812  1.00  0.00     0.010 A 
ATOM     36  C   UNL A   1      38.260  29.214  29.002  1.00  0.00    -0.014 A 
BRANCH  36  37
ATOM     37  C   UNL A   1      39.568  28.715  29.503  1.00  0.00     0.031 A 
ATOM     38  C   UNL A   1      40.293  29.437  30.607  1.00  0.00     0.074 A 
ATOM     39  C   UNL A   1      40.149  27.662  28.897  1.00  0.00     0.049 A 
ATOM     40  N   UNL A   1      41.463  29.174  31.132  1.00  0.00    -0.248 NA
ATOM     41  C   UNL A   1      39.631  30.619  31.181  1.00  0.00     0.031 C 
ATOM     42  C   UNL A   1      39.591  26.928  27.758  1.00  0.00     0.029 A 
ATOM     43  N   UNL A   1      41.351  27.041  29.132  1.00  0.00    -0.354 N 
ATOM     44  C   UNL A   1      41.695  30.174  32.067  1.00  0.00     0.074 A 
ATOM     45  C   UNL A   1      40.554  31.066  32.021  1.00  0.00     0.031 C 
ATOM     46  C   UNL A   1      40.447  25.959  27.395  1.00  0.00     0.029 A 
ATOM     47  C   UNL A   1      41.623  26.014  28.259  1.00  0.00     0.049 A 
ATOM     48  H   UNL A   1      41.961  27.307  29.858  1.00  0.00     0.167 HD
ATOM     49  C   UNL A   1      42.744  30.323  32.910  1.00  0.00     0.034 A 
ATOM     50  C   UNL A   1      42.698  25.207  28.161  1.00  0.00     0.034 A 
ATOM     51  C   UNL A   1      43.850  29.406  32.996  1.00  0.00     0.049 A 
ATOM     52  C   UNL A   1      43.821  25.355  29.150  1.00  0.00     0.074 A 
ATOM     53  C   UNL A   1      44.911  29.420  33.885  1.00  0.00     0.029 A 
ATOM     54  N   UNL A   1      44.041  28.316  32.163  1.00  0.00    -0.354 N 
ATOM     55  N   UNL A   1      43.938  26.204  30.141  1.00  0.00    -0.248 NA
ATOM     56  C   UNL A   1      44.940  24.409  29.033  1.00  0.00     0.031 C 
ATOM     57  C   UNL A   1      45.747  28.338  33.584  1.00  0.00     0.029 A 
ATOM     58  C   UNL A   1      45.203  27.649  32.513  1.00  0.00     0.049 A 
ATOM     59  H   UNL A   1      43.438  28.052  31.430  1.00  0.00     0.167 HD
ATOM     60  C   UNL A   1      45.127  25.877  30.784  1.00  0.00     0.074 A 
ATOM     61  C   UNL A   1      45.681  24.736  30.084  1.00  0.00     0.031 C 
ATOM     62  C   UNL A   1      45.715  26.479  31.847  1.00  0.00     0.034 A 
BRANCH  49  63
ATOM     63  C   UNL A   1      42.713  31.486  33.866  1.00  0.00     0.023 A 
ATOM     64  C   UNL A   1      43.226  32.732  33.450  1.00  0.00     0.012 A 
ATOM     65  C   UNL A   1      42.124  31.372  35.140  1.00  0.00     0.148 A 
ATOM     66  C   UNL A   1      43.180  33.839  34.297  1.00  0.00     0.002 A 
ATOM     67  C   UNL A   1      42.047  32.489  35.965  1.00  0.00     0.091 A 
ATOM     68  F   UNL A   1      41.663  30.174  35.528  1.00  0.00    -0.205 F 
ATOM     69  C   UNL A   1      42.582  33.720  35.548  1.00  0.00     0.022 A 
BRANCH  67  70
ATOM     70  S   UNL A   1      41.231  32.453  37.565  1.00  0.00     0.127 S 
ATOM     71  O   UNL A   1      41.226  33.870  37.927  1.00  0.00    -0.237 OA
ATOM     72  O   UNL A   1      39.916  31.905  37.233  1.00  0.00    -0.237 OA
ATOM     73  O   UNL A   1      42.048  31.591  38.408  1.00  0.00    -0.744 OA
ENDBRANCH  67  70
ENDBRANCH  49  63
BRANCH  50  74
ATOM     74  C   UNL A   1      42.719  24.127  27.134  1.00  0.00     0.023 A 
ATOM     75  C   UNL A   1      43.435  24.332  25.938  1.00  0.00     0.012 A 
ATOM     76  C   UNL A   1      42.075  22.894  27.347  1.00  0.00     0.148 A 
ATOM     77  C   UNL A   1      43.489  23.337  24.963  1.00  0.00     0.002 A 
ATOM     78  C   UNL A   1      42.175  21.887  26.392  1.00  0.00     0.091 A 
ATOM     79  F   UNL A   1      41.384  22.724  28.483  1.00  0.00    -0.205 F 
ATOM     80  C   UNL A   1      42.869  22.112  25.193  1.00  0.00     0.022 A 
BRANCH  78  81
ATOM     81  S   UNL A   1      41.519  20.238  26.671  1.00  0.00     0.127 S 
ATOM     82  O   UNL A   1      41.877  19.559  25.429  1.00  0.00    -0.237 OA
ATOM     83  O   UNL A   1      42.270  19.804  27.849  1.00  0.00    -0.237 OA
ATOM     84  O   UNL A   1      40.094  20.425  26.909  1.00  0.00    -0.744 OA
ENDBRANCH  78  81
ENDBRANCH  50  74
BRANCH  62  85
ATOM     85  C   UNL A   1      47.018  25.908  32.339  1.00  0.00     0.023 A 
ATOM     86  C   UNL A   1      48.230  26.366  31.785  1.00  0.00     0.012 A 
ATOM     87  C   UNL A   1      47.049  24.978  33.395  1.00  0.00     0.148 A 
ATOM     88  C   UNL A   1      49.451  25.886  32.255  1.00  0.00     0.002 A 
ATOM     89  C   UNL A   1      48.272  24.534  33.887  1.00  0.00     0.091 A 
ATOM     90  F   UNL A   1      45.886  24.535  33.895  1.00  0.00    -0.205 F 
ATOM     91  C   UNL A   1      49.473  24.980  33.313  1.00  0.00     0.022 A 
BRANCH  89  92
ATOM     92  S   UNL A   1      48.389  23.436  35.305  1.00  0.00     0.127 S 
ATOM     93  O   UNL A   1      47.747  22.225  34.801  1.00  0.00    -0.237 OA
ATOM     94  O   UNL A   1      49.836  23.324  35.499  1.00  0.00    -0.237 OA
ATOM     95  O   UNL A   1      47.692  24.116  36.389  1.00  0.00    -0.744 OA
ENDBRANCH  89  92
ENDBRANCH  62  85
ENDBRANCH  36  37
ENDBRANCH  28  31
ENDBRANCH  26  27
ENDBRANCH  25  26
ENDBRANCH   1  25
TORSDOF 18
ENDMDL
MODEL 3
REMARK VINA RESULT:     -11.7      4.903      9.645
REMARK SMILES O=C(C[C@H](NS(=O)(=O)c1cccs1)c1ccccc1Cl)NCCCNC(=O)c1ccc(-c2c3nc(c(-c4cccc(S(=O)(=O)[O-])c4F)c4ccc([nH]4)c(-c4cccc(S(=O)(=O)[O-])c4F)c4nc(c(-c5cccc(S(=O)(=O)[O-])c5F)c5ccc2[nH]5)C=C4)C=C3)cc1
REMARK SMILES IDX 22 1 21 2 1 3 2 4 3 6 4 7 14 8 15 9 19 10 16 11 18 12 20 13
REMARK SMILES IDX 17 14 5 15 6 17 7 18 8 19 9 20 10 21 13 22 11 23 12 24 23 25
REMARK SMILES IDX 24 26 25 27 26 28 27 30 28 31 29 32 90 33 30 34 89 35 31 36
REMARK SMILES IDX 32 37 33 38 83 39 34 40 88 41 82 42 84 43 35 44 87 45 81 46
REMARK SMILES IDX 80 47 36 49 68 50 48 51 67 52 49 53 52 54 66 55 85 56 50 57
REMARK SMILES IDX 51 58 65 60 86 61 53 62 37 63 38 64 46 65 39 66 41 67 47 68
REMARK SMILES IDX 40 69 42 70 43 71 44 72 45 73 69 74 70 75 78 76 71 77 73 78
REMARK SMILES IDX 79 79 72 80 74 81 75 82 76 83 77 84 54 85 55 86 63 87 56 88
REMARK SMILES IDX 58 89 64 90 57 91 59 92 60 93 61 94 62 95
REMARK H PARENT 21 5 5 16 25 29 84 48 52 59
REMARK Flexibility Score: inf
ROOT
ATOM      1  C   UNL A   1      31.326  27.175  26.561  1.00  0.00     0.117 C 
ENDROOT
BRANCH   1   2
ATOM      2  N   UNL A   1      32.061  25.927  26.661  1.00  0.00    -0.356 N 
ATOM      3  O   UNL A   1      30.226  24.570  26.418  1.00  0.00    -0.275 OA
ATOM      4  C   UNL A   1      31.435  24.707  26.576  1.00  0.00     0.221 C 
ATOM      5  H   UNL A   1      33.036  25.954  26.793  1.00  0.00     0.163 HD
BRANCH   4   6
ATOM      6  C   UNL A   1      32.345  23.505  26.608  1.00  0.00     0.125 C 
BRANCH   6   7
ATOM      7  C   UNL A   1      33.166  23.370  25.317  1.00  0.00     0.111 C 
BRANCH   7   8
ATOM      8  C   UNL A   1      33.389  21.891  25.029  1.00  0.00    -0.011 A 
ATOM      9  C   UNL A   1      32.323  21.108  24.541  1.00  0.00     0.007 A 
ATOM     10  C   UNL A   1      34.627  21.258  25.241  1.00  0.00     0.045 A 
ATOM     11  C   UNL A   1      32.498  19.760  24.229  1.00  0.00     0.000 A 
ATOM     12  C   UNL A   1      34.800  19.907  24.922  1.00  0.00     0.021 A 
ATOM     13  Cl  UNL A   1      35.988  22.100  25.891  1.00  0.00    -0.084 Cl
ATOM     14  C   UNL A   1      33.740  19.160  24.409  1.00  0.00     0.002 A 
ENDBRANCH   7   8
BRANCH   7  15
ATOM     15  N   UNL A   1      32.486  24.050  24.176  1.00  0.00    -0.202 NA
ATOM     16  H   UNL A   1      31.825  24.720  24.568  1.00  0.00     0.142 HD
BRANCH  15  17
ATOM     17  S   UNL A   1      33.468  24.884  23.079  1.00  0.00     0.250 S 
ATOM     18  O   UNL A   1      34.816  24.763  23.596  1.00  0.00    -0.206 OA
ATOM     19  O   UNL A   1      33.135  24.449  21.742  1.00  0.00    -0.206 OA
BRANCH  17  20
ATOM     20  C   UNL A   1      33.105  26.620  23.206  1.00  0.00     0.134 A 
ATOM     21  C   UNL A   1      33.871  27.677  23.666  1.00  0.00     0.033 A 
ATOM     22  S   UNL A   1      31.563  27.150  22.693  1.00  0.00    -0.131 S 
ATOM     23  C   UNL A   1      33.159  28.911  23.662  1.00  0.00     0.013 A 
ATOM     24  C   UNL A   1      31.876  28.759  23.186  1.00  0.00     0.066 A 
ENDBRANCH  17  20
ENDBRANCH  15  17
ENDBRANCH   7  15
ENDBRANCH   6   7
ENDBRANCH   4   6
ENDBRANCH   1   2
BRANCH   1  25
ATOM     25  C   UNL A   1      31.799  28.216  27.568  1.00  0.00     0.042 C 
BRANCH  25  26
ATOM     26  C   UNL A   1      33.233  28.697  27.369  1.00  0.00     0.118 C 
BRANCH  26  27
ATOM     27  N   UNL A   1      33.374  30.145  27.445  1.00  0.00    -0.352 N 
ATOM     28  C   UNL A   1      34.419  30.905  27.913  1.00  0.00     0.251 C 
ATOM     29  H   UNL A   1      32.602  30.656  27.112  1.00  0.00     0.163 HD
ATOM     30  O   UNL A   1      34.281  32.121  28.015  1.00  0.00    -0.269 OA
BRANCH  28  31
ATOM     31  C   UNL A   1      35.697  30.274  28.321  1.00  0.00     0.039 A 
ATOM     32  C   UNL A   1      36.783  30.338  27.442  1.00  0.00     0.014 A 
ATOM     33  C   UNL A   1      35.827  29.608  29.542  1.00  0.00     0.014 A 
ATOM     34  C   UNL A   1      38.017  29.796  27.817  1.00  0.00     0.010 A 
ATOM     35  C   UNL A   1      37.074  29.127  29.942  1.00  0.00     0.010 A 
ATOM     36  C   UNL A   1      38.182  29.219  29.086  1.00  0.00    -0.014 A 
BRANCH  36  37
ATOM     37  C   UNL A   1      39.514  28.745  29.548  1.00  0.00     0.031 A 
ATOM     38  C   UNL A   1      40.251  29.471  30.642  1.00  0.00     0.074 A 
ATOM     39  C   UNL A   1      40.103  27.712  28.915  1.00  0.00     0.049 A 
ATOM     40  N   UNL A   1      41.439  29.229  31.133  1.00  0.00    -0.248 NA
ATOM     41  C   UNL A   1      39.577  30.631  31.246  1.00  0.00     0.031 C 
ATOM     42  C   UNL A   1      39.532  26.978  27.783  1.00  0.00     0.029 A 
ATOM     43  N   UNL A   1      41.325  27.117  29.113  1.00  0.00    -0.354 N 
ATOM     44  C   UNL A   1      41.672  30.225  32.074  1.00  0.00     0.074 A 
ATOM     45  C   UNL A   1      40.511  31.090  32.067  1.00  0.00     0.031 C 
ATOM     46  C   UNL A   1      40.401  26.033  27.387  1.00  0.00     0.029 A 
ATOM     47  C   UNL A   1      41.597  26.106  28.221  1.00  0.00     0.049 A 
ATOM     48  H   UNL A   1      41.947  27.389  29.826  1.00  0.00     0.167 HD
ATOM     49  C   UNL A   1      42.739  30.388  32.891  1.00  0.00     0.034 A 
ATOM     50  C   UNL A   1      42.687  25.325  28.086  1.00  0.00     0.034 A 
ATOM     51  C   UNL A   1      43.868  29.496  32.938  1.00  0.00     0.049 A 
ATOM     52  C   UNL A   1      43.832  25.488  29.048  1.00  0.00     0.074 A 
ATOM     53  C   UNL A   1      44.950  29.524  33.800  1.00  0.00     0.029 A 
ATOM     54  N   UNL A   1      44.062  28.420  32.089  1.00  0.00    -0.354 N 
ATOM     55  N   UNL A   1      43.955  26.329  30.046  1.00  0.00    -0.248 NA
ATOM     56  C   UNL A   1      44.969  24.570  28.892  1.00  0.00     0.031 C 
ATOM     57  C   UNL A   1      45.803  28.466  33.466  1.00  0.00     0.029 A 
ATOM     58  C   UNL A   1      45.247  27.776  32.401  1.00  0.00     0.049 A 
ATOM     59  H   UNL A   1      43.446  28.150  31.368  1.00  0.00     0.167 HD
ATOM     60  C   UNL A   1      45.167  26.022  30.654  1.00  0.00     0.074 A 
ATOM     61  C   UNL A   1      45.728  24.902  29.927  1.00  0.00     0.031 C 
ATOM     62  C   UNL A   1      45.768  26.626  31.709  1.00  0.00     0.034 A 
BRANCH  49  63
ATOM     63  C   UNL A   1      42.707  31.540  33.861  1.00  0.00     0.023 A 
ATOM     64  C   UNL A   1      43.184  32.801  33.448  1.00  0.00     0.012 A 
ATOM     65  C   UNL A   1      42.150  31.399  35.147  1.00  0.00     0.148 A 
ATOM     66  C   UNL A   1      43.135  33.896  34.308  1.00  0.00     0.002 A 
ATOM     67  C   UNL A   1      42.068  32.505  35.986  1.00  0.00     0.091 A 
ATOM     68  F   UNL A   1      41.723  30.188  35.532  1.00  0.00    -0.205 F 
ATOM     69  C   UNL A   1      42.568  33.751  35.572  1.00  0.00     0.022 A 
BRANCH  67  70
ATOM     70  S   UNL A   1      41.291  32.434  37.604  1.00  0.00     0.127 S 
ATOM     71  O   UNL A   1      41.309  33.841  38.004  1.00  0.00    -0.237 OA
ATOM     72  O   UNL A   1      39.963  31.908  37.290  1.00  0.00    -0.237 OA
ATOM     73  O   UNL A   1      42.120  31.543  38.404  1.00  0.00    -0.744 OA
ENDBRANCH  67  70
ENDBRANCH  49  63
BRANCH  50  74
ATOM     74  C   UNL A   1      42.706  24.257  27.047  1.00  0.00     0.023 A 
ATOM     75  C   UNL A   1      43.412  24.480  25.848  1.00  0.00     0.012 A 
ATOM     76  C   UNL A   1      42.070  23.018  27.250  1.00  0.00     0.148 A 
ATOM     77  C   UNL A   1      43.464  23.497  24.861  1.00  0.00     0.002 A 
ATOM     78  C   UNL A   1      42.169  22.023  26.284  1.00  0.00     0.091 A 
ATOM     79  F   UNL A   1      41.389  22.831  28.390  1.00  0.00    -0.205 F 
ATOM     80  C   UNL A   1      42.852  22.265  25.082  1.00  0.00     0.022 A 
BRANCH  78  81
ATOM     81  S   UNL A   1      41.524  20.367  26.548  1.00  0.00     0.127 S 
ATOM     82  O   UNL A   1      40.084  20.598  26.523  1.00  0.00    -0.237 OA
ATOM     83  O   UNL A   1      42.053  19.643  25.391  1.00  0.00    -0.237 OA
ATOM     84  O   UNL A   1      42.081  19.935  27.824  1.00  0.00    -0.744 OA
ENDBRANCH  78  81
ENDBRANCH  50  74
BRANCH  62  85
ATOM     85  C   UNL A   1      47.096  26.079  32.161  1.00  0.00     0.023 A 
ATOM     86  C   UNL A   1      48.282  26.562  31.572  1.00  0.00     0.012 A 
ATOM     87  C   UNL A   1      47.177  25.148  33.213  1.00  0.00     0.148 A 
ATOM     88  C   UNL A   1      49.525  26.105  32.005  1.00  0.00     0.002 A 
ATOM     89  C   UNL A   1      48.422  24.727  33.668  1.00  0.00     0.091 A 
ATOM     90  F   UNL A   1      46.037  24.682  33.747  1.00  0.00    -0.205 F 
ATOM     91  C   UNL A   1      49.596  25.198  33.060  1.00  0.00     0.022 A 
BRANCH  89  92
ATOM     92  S   UNL A   1      48.603  23.630  35.080  1.00  0.00     0.127 S 
ATOM     93  O   UNL A   1      48.096  24.459  36.171  1.00  0.00    -0.237 OA
ATOM     94  O   UNL A   1      47.740  22.505  34.718  1.00  0.00    -0.237 OA
ATOM     95  O   UNL A   1      50.020  23.300  35.144  1.00  0.00    -0.744 OA
ENDBRANCH  89  92
ENDBRANCH  62  85
ENDBRANCH  36  37
ENDBRANCH  28  31
ENDBRANCH  26  27
ENDBRANCH  25  26
ENDBRANCH   1  25
TORSDOF 18
ENDMDL
