MODEL 1
REMARK VINA RESULT:     -11.7      0.000      0.000
REMARK SMILES CCc1cc(OCC(=O)NCCCNC(=O)c2ccc(-c3c4nc(c(-c5cccc(S(=O)(=O)[O-])c5F)c5ccc([nH]5)c(-c5cccc(S(=O)(=O)[O-])c5F)c5nc(c(-c6cccc(S(=O)(=O)[O-])c6F)c6ccc3[nH]6)C=C5)C=C4)cc2)nc(Nc2ccc(C)c(F)c2)n1
REMARK SMILES IDX 11 1 10 2 8 3 9 4 7 6 6 7 5 8 3 9 4 10 91 11 81 12 80 13
REMARK SMILES IDX 2 14 1 15 82 16 83 18 84 19 90 20 85 21 88 22 86 23 89 24
REMARK SMILES IDX 87 25 12 26 13 27 14 28 15 29 16 31 17 32 18 33 79 34 19 35
REMARK SMILES IDX 78 36 20 37 21 38 22 39 72 40 23 41 77 42 71 43 73 44 24 45
REMARK SMILES IDX 76 46 70 47 69 48 25 50 57 51 37 52 56 53 38 54 41 55 55 56
REMARK SMILES IDX 74 57 39 58 40 59 54 61 75 62 42 63 26 64 27 65 35 66 28 67
REMARK SMILES IDX 30 68 36 69 29 70 31 71 32 72 33 73 34 74 58 75 59 76 67 77
REMARK SMILES IDX 60 78 62 79 68 80 61 81 63 82 64 83 65 84 66 85 43 86 44 87
REMARK SMILES IDX 52 88 45 89 47 90 53 91 46 92 48 93 49 94 50 95 51 96
REMARK H PARENT 10 5 82 17 14 30 73 49 41 60
REMARK Flexibility Score: inf
ROOT
ATOM      1  C   UNL A   1      36.378  20.507  25.038  1.00  0.00     0.117 C 
ENDROOT
BRANCH   1   2
ATOM      2  N   UNL A   1      36.539  21.813  25.652  1.00  0.00    -0.353 N 
ATOM      3  C   UNL A   1      36.476  23.036  25.056  1.00  0.00     0.258 C 
ATOM      4  O   UNL A   1      36.586  24.047  25.753  1.00  0.00    -0.271 OA
ATOM      5  H   UNL A   1      36.717  21.815  26.620  1.00  0.00     0.163 HD
BRANCH   3   6
ATOM      6  C   UNL A   1      36.244  23.135  23.542  1.00  0.00     0.331 C 
BRANCH   6   7
ATOM      7  O   UNL A   1      35.278  24.074  23.106  1.00  0.00    -0.467 OA
BRANCH   7   8
ATOM      8  C   UNL A   1      33.956  23.777  23.299  1.00  0.00     0.218 A 
ATOM      9  C   UNL A   1      31.740  24.179  23.945  1.00  0.00     0.050 A 
ATOM     10  C   UNL A   1      33.045  24.607  23.913  1.00  0.00     0.092 A 
ATOM     11  N   UNL A   1      31.395  22.984  23.441  1.00  0.00    -0.218 NA
ATOM     12  C   UNL A   1      32.344  22.200  22.903  1.00  0.00     0.230 A 
ATOM     13  N   UNL A   1      33.628  22.566  22.817  1.00  0.00    -0.177 NA
BRANCH   9  14
ATOM     14  C   UNL A   1      30.610  24.960  24.561  1.00  0.00     0.053 C 
ATOM     15  C   UNL A   1      30.857  26.442  24.803  1.00  0.00     0.011 C 
ENDBRANCH   9  14
BRANCH  12  16
ATOM     16  N   UNL A   1      31.997  20.915  22.493  1.00  0.00    -0.324 N 
ATOM     17  H   UNL A   1      31.514  20.845  21.639  1.00  0.00     0.170 HD
BRANCH  16  18
ATOM     18  C   UNL A   1      32.259  19.712  23.161  1.00  0.00     0.044 A 
ATOM     19  C   UNL A   1      32.523  18.547  22.434  1.00  0.00     0.026 A 
ATOM     20  C   UNL A   1      32.389  19.671  24.553  1.00  0.00     0.065 A 
ATOM     21  C   UNL A   1      32.940  17.376  23.081  1.00  0.00     0.008 A 
ATOM     22  C   UNL A   1      32.782  18.503  25.195  1.00  0.00     0.128 A 
ATOM     23  C   UNL A   1      33.078  17.347  24.474  1.00  0.00    -0.015 A 
ATOM     24  F   UNL A   1      32.903  18.511  26.530  1.00  0.00    -0.207 F 
ATOM     25  C   UNL A   1      33.560  16.110  25.166  1.00  0.00     0.047 C 
ENDBRANCH  16  18
ENDBRANCH  12  16
ENDBRANCH   7   8
ENDBRANCH   6   7
ENDBRANCH   3   6
ENDBRANCH   1   2
BRANCH   1  26
ATOM     26  C   UNL A   1      37.703  19.795  24.803  1.00  0.00     0.042 C 
BRANCH  26  27
ATOM     27  C   UNL A   1      38.838  20.243  25.720  1.00  0.00     0.118 C 
BRANCH  27  28
ATOM     28  N   UNL A   1      39.888  19.240  25.864  1.00  0.00    -0.352 N 
ATOM     29  C   UNL A   1      41.233  19.387  26.093  1.00  0.00     0.251 C 
ATOM     30  H   UNL A   1      39.581  18.307  25.783  1.00  0.00     0.163 HD
ATOM     31  O   UNL A   1      41.968  18.402  26.012  1.00  0.00    -0.269 OA
BRANCH  29  32
ATOM     32  C   UNL A   1      41.808  20.710  26.417  1.00  0.00     0.039 A 
ATOM     33  C   UNL A   1      42.124  21.586  25.373  1.00  0.00     0.014 A 
ATOM     34  C   UNL A   1      42.058  21.086  27.740  1.00  0.00     0.014 A 
ATOM     35  C   UNL A   1      42.621  22.861  25.659  1.00  0.00     0.010 A 
ATOM     36  C   UNL A   1      42.479  22.382  28.025  1.00  0.00     0.010 A 
ATOM     37  C   UNL A   1      42.766  23.285  26.989  1.00  0.00    -0.014 A 
BRANCH  37  38
ATOM     38  C   UNL A   1      43.195  24.669  27.323  1.00  0.00     0.031 A 
ATOM     39  C   UNL A   1      42.219  25.640  27.932  1.00  0.00     0.074 A 
ATOM     40  C   UNL A   1      44.433  25.084  26.980  1.00  0.00     0.049 A 
ATOM     41  N   UNL A   1      42.378  26.912  28.197  1.00  0.00    -0.248 NA
ATOM     42  C   UNL A   1      40.880  25.125  28.264  1.00  0.00     0.031 C 
ATOM     43  C   UNL A   1      45.448  24.260  26.316  1.00  0.00     0.029 A 
ATOM     44  N   UNL A   1      45.035  26.312  27.105  1.00  0.00    -0.354 N 
ATOM     45  C   UNL A   1      41.154  27.358  28.679  1.00  0.00     0.074 A 
ATOM     46  C   UNL A   1      40.254  26.226  28.657  1.00  0.00     0.031 C 
ATOM     47  C   UNL A   1      46.538  25.008  26.082  1.00  0.00     0.029 A 
ATOM     48  C   UNL A   1      46.290  26.371  26.540  1.00  0.00     0.049 A 
ATOM     49  H   UNL A   1      44.610  27.077  27.555  1.00  0.00     0.167 HD
ATOM     50  C   UNL A   1      40.815  28.593  29.117  1.00  0.00     0.034 A 
ATOM     51  C   UNL A   1      47.135  27.410  26.382  1.00  0.00     0.034 A 
ATOM     52  C   UNL A   1      41.725  29.704  29.181  1.00  0.00     0.049 A 
ATOM     53  C   UNL A   1      46.743  28.761  26.918  1.00  0.00     0.074 A 
ATOM     54  C   UNL A   1      41.502  30.965  29.706  1.00  0.00     0.029 A 
ATOM     55  N   UNL A   1      43.021  29.696  28.694  1.00  0.00    -0.354 N 
ATOM     56  N   UNL A   1      45.637  29.118  27.523  1.00  0.00    -0.248 NA
ATOM     57  C   UNL A   1      47.729  29.845  26.784  1.00  0.00     0.031 C 
ATOM     58  C   UNL A   1      42.652  31.732  29.501  1.00  0.00     0.029 A 
ATOM     59  C   UNL A   1      43.606  30.934  28.892  1.00  0.00     0.049 A 
ATOM     60  H   UNL A   1      43.461  28.924  28.269  1.00  0.00     0.167 HD
ATOM     61  C   UNL A   1      45.812  30.450  27.881  1.00  0.00     0.074 A 
ATOM     62  C   UNL A   1      47.136  30.833  27.439  1.00  0.00     0.031 C 
ATOM     63  C   UNL A   1      44.948  31.284  28.511  1.00  0.00     0.034 A 
BRANCH  50  64
ATOM     64  C   UNL A   1      39.407  28.816  29.604  1.00  0.00     0.023 A 
ATOM     65  C   UNL A   1      39.071  28.515  30.939  1.00  0.00     0.012 A 
ATOM     66  C   UNL A   1      38.448  29.424  28.769  1.00  0.00     0.148 A 
ATOM     67  C   UNL A   1      37.796  28.795  31.429  1.00  0.00     0.002 A 
ATOM     68  C   UNL A   1      37.195  29.744  29.278  1.00  0.00     0.091 A 
ATOM     69  F   UNL A   1      38.783  29.688  27.498  1.00  0.00    -0.205 F 
ATOM     70  C   UNL A   1      36.864  29.421  30.604  1.00  0.00     0.022 A 
BRANCH  68  71
ATOM     71  S   UNL A   1      35.955  30.629  28.327  1.00  0.00     0.127 S 
ATOM     72  O   UNL A   1      36.716  31.784  27.852  1.00  0.00    -0.237 OA
ATOM     73  O   UNL A   1      35.614  29.654  27.290  1.00  0.00    -0.237 OA
ATOM     74  O   UNL A   1      34.876  30.936  29.254  1.00  0.00    -0.744 OA
ENDBRANCH  68  71
ENDBRANCH  50  64
BRANCH  51  75
ATOM     75  C   UNL A   1      48.455  27.211  25.716  1.00  0.00     0.023 A 
ATOM     76  C   UNL A   1      49.561  26.779  26.474  1.00  0.00     0.012 A 
ATOM     77  C   UNL A   1      48.622  27.453  24.338  1.00  0.00     0.148 A 
ATOM     78  C   UNL A   1      50.818  26.638  25.884  1.00  0.00     0.002 A 
ATOM     79  C   UNL A   1      49.862  27.252  23.744  1.00  0.00     0.091 A 
ATOM     80  F   UNL A   1      47.563  27.874  23.633  1.00  0.00    -0.205 F 
ATOM     81  C   UNL A   1      50.967  26.867  24.519  1.00  0.00     0.022 A 
BRANCH  79  82
ATOM     82  S   UNL A   1      50.112  27.393  21.970  1.00  0.00     0.127 S 
ATOM     83  O   UNL A   1      49.840  28.808  21.740  1.00  0.00    -0.237 OA
ATOM     84  O   UNL A   1      51.517  27.005  21.831  1.00  0.00    -0.237 OA
ATOM     85  O   UNL A   1      49.173  26.457  21.367  1.00  0.00    -0.744 OA
ENDBRANCH  79  82
ENDBRANCH  51  75
BRANCH  63  86
ATOM     86  C   UNL A   1      45.419  32.678  28.833  1.00  0.00     0.023 A 
ATOM     87  C   UNL A   1      46.015  32.956  30.079  1.00  0.00     0.012 A 
ATOM     88  C   UNL A   1      45.351  33.691  27.856  1.00  0.00     0.148 A 
ATOM     89  C   UNL A   1      46.510  34.230  30.356  1.00  0.00     0.002 A 
ATOM     90  C   UNL A   1      45.895  34.941  28.119  1.00  0.00     0.091 A 
ATOM     91  F   UNL A   1      44.764  33.409  26.683  1.00  0.00    -0.205 F 
ATOM     92  C   UNL A   1      46.463  35.217  29.374  1.00  0.00     0.022 A 
BRANCH  90  93
ATOM     93  S   UNL A   1      45.972  36.239  26.880  1.00  0.00     0.127 S 
ATOM     94  O   UNL A   1      44.605  36.759  26.907  1.00  0.00    -0.237 OA
ATOM     95  O   UNL A   1      46.978  37.142  27.441  1.00  0.00    -0.237 OA
ATOM     96  O   UNL A   1      46.367  35.589  25.638  1.00  0.00    -0.744 OA
ENDBRANCH  90  93
ENDBRANCH  63  86
ENDBRANCH  37  38
ENDBRANCH  29  32
ENDBRANCH  27  28
ENDBRANCH  26  27
ENDBRANCH   1  26
TORSDOF 18
ENDMDL
MODEL 2
REMARK VINA RESULT:     -11.6      6.734     12.001
REMARK SMILES CCc1cc(OCC(=O)NCCCNC(=O)c2ccc(-c3c4nc(c(-c5cccc(S(=O)(=O)[O-])c5F)c5ccc([nH]5)c(-c5cccc(S(=O)(=O)[O-])c5F)c5nc(c(-c6cccc(S(=O)(=O)[O-])c6F)c6ccc3[nH]6)C=C5)C=C4)cc2)nc(Nc2ccc(C)c(F)c2)n1
REMARK SMILES IDX 11 1 10 2 8 3 9 4 7 6 6 7 5 8 3 9 4 10 91 11 81 12 80 13
REMARK SMILES IDX 2 14 1 15 82 16 83 18 84 19 90 20 85 21 88 22 86 23 89 24
REMARK SMILES IDX 87 25 12 26 13 27 14 28 15 29 16 31 17 32 18 33 79 34 19 35
REMARK SMILES IDX 78 36 20 37 21 38 22 39 72 40 23 41 77 42 71 43 73 44 24 45
REMARK SMILES IDX 76 46 70 47 69 48 25 50 57 51 37 52 56 53 38 54 41 55 55 56
REMARK SMILES IDX 74 57 39 58 40 59 54 61 75 62 42 63 26 64 27 65 35 66 28 67
REMARK SMILES IDX 30 68 36 69 29 70 31 71 32 72 33 73 34 74 58 75 59 76 67 77
REMARK SMILES IDX 60 78 62 79 68 80 61 81 63 82 64 83 65 84 66 85 43 86 44 87
REMARK SMILES IDX 52 88 45 89 47 90 53 91 46 92 48 93 49 94 50 95 51 96
REMARK H PARENT 10 5 82 17 14 30 73 49 41 60
REMARK Flexibility Score: inf
ROOT
ATOM      1  C   UNL A   1      31.754  30.732  25.869  1.00  0.00     0.117 C 
ENDROOT
BRANCH   1   2
ATOM      2  N   UNL A   1      32.962  30.108  26.377  1.00  0.00    -0.353 N 
ATOM      3  C   UNL A   1      33.076  28.952  27.089  1.00  0.00     0.258 C 
ATOM      4  O   UNL A   1      34.200  28.545  27.392  1.00  0.00    -0.271 OA
ATOM      5  H   UNL A   1      33.804  30.579  26.182  1.00  0.00     0.163 HD
BRANCH   3   6
ATOM      6  C   UNL A   1      31.815  28.168  27.476  1.00  0.00     0.331 C 
BRANCH   6   7
ATOM      7  O   UNL A   1      31.922  26.756  27.488  1.00  0.00    -0.467 OA
BRANCH   7   8
ATOM      8  C   UNL A   1      31.628  26.076  26.337  1.00  0.00     0.218 A 
ATOM      9  C   UNL A   1      31.926  24.464  24.664  1.00  0.00     0.050 A 
ATOM     10  C   UNL A   1      32.420  25.099  25.777  1.00  0.00     0.092 A 
ATOM     11  N   UNL A   1      30.748  24.824  24.132  1.00  0.00    -0.218 NA
ATOM     12  C   UNL A   1      30.050  25.822  24.698  1.00  0.00     0.230 A 
ATOM     13  N   UNL A   1      30.461  26.465  25.796  1.00  0.00    -0.177 NA
BRANCH   9  14
ATOM     14  C   UNL A   1      32.647  23.365  23.930  1.00  0.00     0.053 C 
ATOM     15  C   UNL A   1      34.002  23.717  23.333  1.00  0.00     0.011 C 
ENDBRANCH   9  14
BRANCH  12  16
ATOM     16  N   UNL A   1      28.891  26.268  24.069  1.00  0.00    -0.324 N 
ATOM     17  H   UNL A   1      28.116  25.662  24.101  1.00  0.00     0.170 HD
BRANCH  16  18
ATOM     18  C   UNL A   1      28.704  27.482  23.396  1.00  0.00     0.044 A 
ATOM     19  C   UNL A   1      27.466  28.133  23.449  1.00  0.00     0.026 A 
ATOM     20  C   UNL A   1      29.771  28.132  22.769  1.00  0.00     0.065 A 
ATOM     21  C   UNL A   1      27.309  29.419  22.916  1.00  0.00     0.008 A 
ATOM     22  C   UNL A   1      29.607  29.400  22.221  1.00  0.00     0.128 A 
ATOM     23  C   UNL A   1      28.385  30.067  22.299  1.00  0.00    -0.015 A 
ATOM     24  F   UNL A   1      30.659  29.991  21.638  1.00  0.00    -0.207 F 
ATOM     25  C   UNL A   1      28.232  31.457  21.763  1.00  0.00     0.047 C 
ENDBRANCH  16  18
ENDBRANCH  12  16
ENDBRANCH   7   8
ENDBRANCH   6   7
ENDBRANCH   3   6
ENDBRANCH   1   2
BRANCH   1  26
ATOM     26  C   UNL A   1      31.423  32.042  26.571  1.00  0.00     0.042 C 
BRANCH  26  27
ATOM     27  C   UNL A   1      32.592  32.673  27.323  1.00  0.00     0.118 C 
BRANCH  27  28
ATOM     28  N   UNL A   1      32.378  34.083  27.634  1.00  0.00    -0.352 N 
ATOM     29  C   UNL A   1      32.993  34.894  28.555  1.00  0.00     0.251 C 
ATOM     30  H   UNL A   1      31.679  34.523  27.097  1.00  0.00     0.163 HD
ATOM     31  O   UNL A   1      32.536  36.018  28.766  1.00  0.00    -0.269 OA
BRANCH  29  32
ATOM     32  C   UNL A   1      34.180  34.429  29.303  1.00  0.00     0.039 A 
ATOM     33  C   UNL A   1      34.001  33.825  30.552  1.00  0.00     0.014 A 
ATOM     34  C   UNL A   1      35.470  34.602  28.794  1.00  0.00     0.014 A 
ATOM     35  C   UNL A   1      35.104  33.332  31.254  1.00  0.00     0.010 A 
ATOM     36  C   UNL A   1      36.559  34.041  29.457  1.00  0.00     0.010 A 
ATOM     37  C   UNL A   1      36.390  33.401  30.695  1.00  0.00    -0.014 A 
BRANCH  37  38
ATOM     38  C   UNL A   1      37.567  32.795  31.371  1.00  0.00     0.031 A 
ATOM     39  C   UNL A   1      38.291  31.635  30.741  1.00  0.00     0.074 A 
ATOM     40  C   UNL A   1      37.919  33.219  32.604  1.00  0.00     0.049 A 
ATOM     41  N   UNL A   1      39.270  30.914  31.224  1.00  0.00    -0.248 NA
ATOM     42  C   UNL A   1      37.843  31.212  29.403  1.00  0.00     0.031 C 
ATOM     43  C   UNL A   1      37.249  34.285  33.354  1.00  0.00     0.029 A 
ATOM     44  N   UNL A   1      38.900  32.780  33.458  1.00  0.00    -0.354 N 
ATOM     45  C   UNL A   1      39.521  29.928  30.277  1.00  0.00     0.074 A 
ATOM     46  C   UNL A   1      38.583  30.132  29.196  1.00  0.00     0.031 C 
ATOM     47  C   UNL A   1      37.830  34.407  34.558  1.00  0.00     0.029 A 
ATOM     48  C   UNL A   1      38.884  33.406  34.684  1.00  0.00     0.049 A 
ATOM     49  H   UNL A   1      39.553  32.083  33.217  1.00  0.00     0.167 HD
ATOM     50  C   UNL A   1      40.460  28.953  30.299  1.00  0.00     0.034 A 
ATOM     51  C   UNL A   1      39.616  33.183  35.795  1.00  0.00     0.034 A 
ATOM     52  C   UNL A   1      41.421  28.780  31.354  1.00  0.00     0.049 A 
ATOM     53  C   UNL A   1      40.679  32.117  35.770  1.00  0.00     0.074 A 
ATOM     54  C   UNL A   1      42.476  27.887  31.415  1.00  0.00     0.029 A 
ATOM     55  N   UNL A   1      41.439  29.502  32.535  1.00  0.00    -0.354 N 
ATOM     56  N   UNL A   1      41.009  31.305  34.797  1.00  0.00    -0.248 NA
ATOM     57  C   UNL A   1      41.497  31.961  36.984  1.00  0.00     0.031 C 
ATOM     58  C   UNL A   1      43.108  28.041  32.652  1.00  0.00     0.029 A 
ATOM     59  C   UNL A   1      42.476  29.065  33.339  1.00  0.00     0.049 A 
ATOM     60  H   UNL A   1      40.806  30.220  32.769  1.00  0.00     0.167 HD
ATOM     61  C   UNL A   1      42.098  30.576  35.261  1.00  0.00     0.074 A 
ATOM     62  C   UNL A   1      42.382  31.053  36.598  1.00  0.00     0.031 C 
ATOM     63  C   UNL A   1      42.793  29.593  34.640  1.00  0.00     0.034 A 
BRANCH  50  64
ATOM     64  C   UNL A   1      40.531  28.005  29.129  1.00  0.00     0.023 A 
ATOM     65  C   UNL A   1      39.598  26.954  29.021  1.00  0.00     0.012 A 
ATOM     66  C   UNL A   1      41.453  28.223  28.086  1.00  0.00     0.148 A 
ATOM     67  C   UNL A   1      39.596  26.121  27.903  1.00  0.00     0.002 A 
ATOM     68  C   UNL A   1      41.413  27.418  26.954  1.00  0.00     0.091 A 
ATOM     69  F   UNL A   1      42.342  29.218  28.215  1.00  0.00    -0.205 F 
ATOM     70  C   UNL A   1      40.493  26.361  26.865  1.00  0.00     0.022 A 
BRANCH  68  71
ATOM     71  S   UNL A   1      42.464  27.698  25.524  1.00  0.00     0.127 S 
ATOM     72  O   UNL A   1      42.225  26.488  24.740  1.00  0.00    -0.237 OA
ATOM     73  O   UNL A   1      41.888  28.918  24.956  1.00  0.00    -0.237 OA
ATOM     74  O   UNL A   1      43.818  27.846  26.039  1.00  0.00    -0.744 OA
ENDBRANCH  68  71
ENDBRANCH  50  64
BRANCH  51  75
ATOM     75  C   UNL A   1      39.395  34.006  37.020  1.00  0.00     0.023 A 
ATOM     76  C   UNL A   1      39.833  35.345  37.048  1.00  0.00     0.012 A 
ATOM     77  C   UNL A   1      38.758  33.470  38.156  1.00  0.00     0.148 A 
ATOM     78  C   UNL A   1      39.686  36.118  38.201  1.00  0.00     0.002 A 
ATOM     79  C   UNL A   1      38.560  34.264  39.279  1.00  0.00     0.091 A 
ATOM     80  F   UNL A   1      38.357  32.192  38.117  1.00  0.00    -0.205 F 
ATOM     81  C   UNL A   1      39.043  35.581  39.312  1.00  0.00     0.022 A 
BRANCH  79  82
ATOM     82  S   UNL A   1      37.624  33.697  40.704  1.00  0.00     0.127 S 
ATOM     83  O   UNL A   1      36.413  33.174  40.079  1.00  0.00    -0.237 OA
ATOM     84  O   UNL A   1      38.515  32.681  41.267  1.00  0.00    -0.237 OA
ATOM     85  O   UNL A   1      37.448  34.871  41.550  1.00  0.00    -0.744 OA
ENDBRANCH  79  82
ENDBRANCH  51  75
BRANCH  63  86
ATOM     86  C   UNL A   1      43.980  29.004  35.355  1.00  0.00     0.023 A 
ATOM     87  C   UNL A   1      45.283  29.448  35.056  1.00  0.00     0.012 A 
ATOM     88  C   UNL A   1      43.788  28.072  36.395  1.00  0.00     0.148 A 
ATOM     89  C   UNL A   1      46.379  28.952  35.762  1.00  0.00     0.002 A 
ATOM     90  C   UNL A   1      44.877  27.623  37.130  1.00  0.00     0.091 A 
ATOM     91  F   UNL A   1      42.540  27.650  36.652  1.00  0.00    -0.205 F 
ATOM     92  C   UNL A   1      46.175  28.052  36.806  1.00  0.00     0.022 A 
BRANCH  90  93
ATOM     93  S   UNL A   1      44.700  26.546  38.556  1.00  0.00     0.127 S 
ATOM     94  O   UNL A   1      43.306  26.121  38.437  1.00  0.00    -0.237 OA
ATOM     95  O   UNL A   1      45.683  25.498  38.275  1.00  0.00    -0.237 OA
ATOM     96  O   UNL A   1      45.004  27.365  39.722  1.00  0.00    -0.744 OA
ENDBRANCH  90  93
ENDBRANCH  63  86
ENDBRANCH  37  38
ENDBRANCH  29  32
ENDBRANCH  27  28
ENDBRANCH  26  27
ENDBRANCH   1  26
TORSDOF 18
ENDMDL
MODEL 3
REMARK VINA RESULT:     -11.4      6.561     11.447
REMARK SMILES CCc1cc(OCC(=O)NCCCNC(=O)c2ccc(-c3c4nc(c(-c5cccc(S(=O)(=O)[O-])c5F)c5ccc([nH]5)c(-c5cccc(S(=O)(=O)[O-])c5F)c5nc(c(-c6cccc(S(=O)(=O)[O-])c6F)c6ccc3[nH]6)C=C5)C=C4)cc2)nc(Nc2ccc(C)c(F)c2)n1
REMARK SMILES IDX 11 1 10 2 8 3 9 4 7 6 6 7 5 8 3 9 4 10 91 11 81 12 80 13
REMARK SMILES IDX 2 14 1 15 82 16 83 18 84 19 90 20 85 21 88 22 86 23 89 24
REMARK SMILES IDX 87 25 12 26 13 27 14 28 15 29 16 31 17 32 18 33 79 34 19 35
REMARK SMILES IDX 78 36 20 37 21 38 22 39 72 40 23 41 77 42 71 43 73 44 24 45
REMARK SMILES IDX 76 46 70 47 69 48 25 50 57 51 37 52 56 53 38 54 41 55 55 56
REMARK SMILES IDX 74 57 39 58 40 59 54 61 75 62 42 63 26 64 27 65 35 66 28 67
REMARK SMILES IDX 30 68 36 69 29 70 31 71 32 72 33 73 34 74 58 75 59 76 67 77
REMARK SMILES IDX 60 78 62 79 68 80 61 81 63 82 64 83 65 84 66 85 43 86 44 87
REMARK SMILES IDX 52 88 45 89 47 90 53 91 46 92 48 93 49 94 50 95 51 96
REMARK H PARENT 10 5 82 17 14 30 73 49 41 60
REMARK Flexibility Score: inf
ROOT
ATOM      1  C   UNL A   1      31.804  30.285  26.363  1.00  0.00     0.117 C 
ENDROOT
BRANCH   1   2
ATOM      2  N   UNL A   1      32.551  29.911  25.176  1.00  0.00    -0.353 N 
ATOM      3  C   UNL A   1      33.413  28.868  25.018  1.00  0.00     0.258 C 
ATOM      4  O   UNL A   1      33.920  28.673  23.911  1.00  0.00    -0.271 OA
ATOM      5  H   UNL A   1      32.419  30.483  24.386  1.00  0.00     0.163 HD
BRANCH   3   6
ATOM      6  C   UNL A   1      33.715  27.943  26.205  1.00  0.00     0.331 C 
BRANCH   6   7
ATOM      7  O   UNL A   1      32.652  27.127  26.664  1.00  0.00    -0.467 OA
BRANCH   7   8
ATOM      8  C   UNL A   1      31.869  26.504  25.731  1.00  0.00     0.218 A 
ATOM      9  C   UNL A   1      29.957  26.163  24.421  1.00  0.00     0.050 A 
ATOM     10  C   UNL A   1      30.564  26.843  25.448  1.00  0.00     0.092 A 
ATOM     11  N   UNL A   1      30.601  25.184  23.767  1.00  0.00    -0.218 NA
ATOM     12  C   UNL A   1      31.855  24.868  24.130  1.00  0.00     0.230 A 
ATOM     13  N   UNL A   1      32.514  25.506  25.103  1.00  0.00    -0.177 NA
BRANCH   9  14
ATOM     14  C   UNL A   1      28.543  26.410  23.965  1.00  0.00     0.053 C 
ATOM     15  C   UNL A   1      28.263  27.750  23.301  1.00  0.00     0.011 C 
ENDBRANCH   9  14
BRANCH  12  16
ATOM     16  N   UNL A   1      32.470  23.773  23.528  1.00  0.00    -0.324 N 
ATOM     17  H   UNL A   1      32.011  23.390  22.747  1.00  0.00     0.170 HD
BRANCH  16  18
ATOM     18  C   UNL A   1      33.667  23.157  23.911  1.00  0.00     0.044 A 
ATOM     19  C   UNL A   1      33.661  22.152  24.886  1.00  0.00     0.026 A 
ATOM     20  C   UNL A   1      34.867  23.432  23.248  1.00  0.00     0.065 A 
ATOM     21  C   UNL A   1      34.821  21.418  25.167  1.00  0.00     0.008 A 
ATOM     22  C   UNL A   1      36.022  22.717  23.544  1.00  0.00     0.128 A 
ATOM     23  C   UNL A   1      36.016  21.694  24.490  1.00  0.00    -0.015 A 
ATOM     24  F   UNL A   1      37.148  23.007  22.876  1.00  0.00    -0.207 F 
ATOM     25  C   UNL A   1      37.247  20.886  24.759  1.00  0.00     0.047 C 
ENDBRANCH  16  18
ENDBRANCH  12  16
ENDBRANCH   7   8
ENDBRANCH   6   7
ENDBRANCH   3   6
ENDBRANCH   1   2
BRANCH   1  26
ATOM     26  C   UNL A   1      31.661  31.793  26.522  1.00  0.00     0.042 C 
BRANCH  26  27
ATOM     27  C   UNL A   1      32.840  32.474  27.212  1.00  0.00     0.118 C 
BRANCH  27  28
ATOM     28  N   UNL A   1      32.568  33.863  27.570  1.00  0.00    -0.352 N 
ATOM     29  C   UNL A   1      33.121  34.654  28.545  1.00  0.00     0.251 C 
ATOM     30  H   UNL A   1      31.876  34.302  27.024  1.00  0.00     0.163 HD
ATOM     31  O   UNL A   1      32.621  35.754  28.783  1.00  0.00    -0.269 OA
BRANCH  29  32
ATOM     32  C   UNL A   1      34.294  34.195  29.321  1.00  0.00     0.039 A 
ATOM     33  C   UNL A   1      34.090  33.379  30.438  1.00  0.00     0.014 A 
ATOM     34  C   UNL A   1      35.590  34.581  28.969  1.00  0.00     0.014 A 
ATOM     35  C   UNL A   1      35.186  32.892  31.156  1.00  0.00     0.010 A 
ATOM     36  C   UNL A   1      36.682  34.033  29.637  1.00  0.00     0.010 A 
ATOM     37  C   UNL A   1      36.495  33.183  30.739  1.00  0.00    -0.014 A 
BRANCH  37  38
ATOM     38  C   UNL A   1      37.678  32.597  31.421  1.00  0.00     0.031 A 
ATOM     39  C   UNL A   1      38.423  31.447  30.795  1.00  0.00     0.074 A 
ATOM     40  C   UNL A   1      38.019  33.028  32.653  1.00  0.00     0.049 A 
ATOM     41  N   UNL A   1      39.412  30.742  31.283  1.00  0.00    -0.248 NA
ATOM     42  C   UNL A   1      37.986  31.015  29.456  1.00  0.00     0.031 C 
ATOM     43  C   UNL A   1      37.330  34.085  33.400  1.00  0.00     0.029 A 
ATOM     44  N   UNL A   1      39.004  32.606  33.512  1.00  0.00    -0.354 N 
ATOM     45  C   UNL A   1      39.682  29.759  30.339  1.00  0.00     0.074 A 
ATOM     46  C   UNL A   1      38.745  29.946  29.254  1.00  0.00     0.031 C 
ATOM     47  C   UNL A   1      37.904  34.219  34.606  1.00  0.00     0.029 A 
ATOM     48  C   UNL A   1      38.973  33.235  34.738  1.00  0.00     0.049 A 
ATOM     49  H   UNL A   1      39.668  31.920  33.275  1.00  0.00     0.167 HD
ATOM     50  C   UNL A   1      40.635  28.799  30.366  1.00  0.00     0.034 A 
ATOM     51  C   UNL A   1      39.704  33.026  35.852  1.00  0.00     0.034 A 
ATOM     52  C   UNL A   1      41.596  28.644  31.425  1.00  0.00     0.049 A 
ATOM     53  C   UNL A   1      40.784  31.977  35.833  1.00  0.00     0.074 A 
ATOM     54  C   UNL A   1      42.664  27.767  31.492  1.00  0.00     0.029 A 
ATOM     55  N   UNL A   1      41.597  29.368  32.605  1.00  0.00    -0.354 N 
ATOM     56  N   UNL A   1      41.130  31.167  34.862  1.00  0.00    -0.248 NA
ATOM     57  C   UNL A   1      41.599  31.836  37.049  1.00  0.00     0.031 C 
ATOM     58  C   UNL A   1      43.289  27.934  32.731  1.00  0.00     0.029 A 
ATOM     59  C   UNL A   1      42.638  28.949  33.413  1.00  0.00     0.049 A 
ATOM     60  H   UNL A   1      40.953  30.076  32.835  1.00  0.00     0.167 HD
ATOM     61  C   UNL A   1      42.228  30.457  35.332  1.00  0.00     0.074 A 
ATOM     62  C   UNL A   1      42.500  30.941  36.669  1.00  0.00     0.031 C 
ATOM     63  C   UNL A   1      42.942  29.484  34.714  1.00  0.00     0.034 A 
BRANCH  50  64
ATOM     64  C   UNL A   1      40.726  27.850  29.199  1.00  0.00     0.023 A 
ATOM     65  C   UNL A   1      39.845  26.754  29.117  1.00  0.00     0.012 A 
ATOM     66  C   UNL A   1      41.610  28.109  28.132  1.00  0.00     0.148 A 
ATOM     67  C   UNL A   1      39.857  25.916  28.003  1.00  0.00     0.002 A 
ATOM     68  C   UNL A   1      41.584  27.298  27.004  1.00  0.00     0.091 A 
ATOM     69  F   UNL A   1      42.451  29.148  28.237  1.00  0.00    -0.205 F 
ATOM     70  C   UNL A   1      40.716  26.196  26.942  1.00  0.00     0.022 A 
BRANCH  68  71
ATOM     71  S   UNL A   1      42.585  27.624  25.549  1.00  0.00     0.127 S 
ATOM     72  O   UNL A   1      42.323  26.435  24.738  1.00  0.00    -0.237 OA
ATOM     73  O   UNL A   1      41.985  28.856  25.036  1.00  0.00    -0.237 OA
ATOM     74  O   UNL A   1      43.955  27.762  26.022  1.00  0.00    -0.744 OA
ENDBRANCH  68  71
ENDBRANCH  50  64
BRANCH  51  75
ATOM     75  C   UNL A   1      39.465  33.847  37.073  1.00  0.00     0.023 A 
ATOM     76  C   UNL A   1      39.923  35.179  37.118  1.00  0.00     0.012 A 
ATOM     77  C   UNL A   1      38.792  33.317  38.192  1.00  0.00     0.148 A 
ATOM     78  C   UNL A   1      39.759  35.950  38.270  1.00  0.00     0.002 A 
ATOM     79  C   UNL A   1      38.579  34.110  39.313  1.00  0.00     0.091 A 
ATOM     80  F   UNL A   1      38.373  32.045  38.137  1.00  0.00    -0.205 F 
ATOM     81  C   UNL A   1      39.081  35.418  39.363  1.00  0.00     0.022 A 
BRANCH  79  82
ATOM     82  S   UNL A   1      37.599  33.551  40.712  1.00  0.00     0.127 S 
ATOM     83  O   UNL A   1      38.496  32.586  41.340  1.00  0.00    -0.237 OA
ATOM     84  O   UNL A   1      37.407  34.793  41.462  1.00  0.00    -0.237 OA
ATOM     85  O   UNL A   1      36.375  33.006  40.139  1.00  0.00    -0.744 OA
ENDBRANCH  79  82
ENDBRANCH  51  75
BRANCH  63  86
ATOM     86  C   UNL A   1      44.135  28.915  35.436  1.00  0.00     0.023 A 
ATOM     87  C   UNL A   1      45.411  29.485  35.258  1.00  0.00     0.012 A 
ATOM     88  C   UNL A   1      43.967  27.869  36.365  1.00  0.00     0.148 A 
ATOM     89  C   UNL A   1      46.507  29.002  35.974  1.00  0.00     0.002 A 
ATOM     90  C   UNL A   1      45.051  27.430  37.114  1.00  0.00     0.091 A 
ATOM     91  F   UNL A   1      42.747  27.330  36.506  1.00  0.00    -0.205 F 
ATOM     92  C   UNL A   1      46.325  27.986  36.909  1.00  0.00     0.022 A 
BRANCH  90  93
ATOM     93  S   UNL A   1      44.891  26.200  38.413  1.00  0.00     0.127 S 
ATOM     94  O   UNL A   1      43.906  25.285  37.838  1.00  0.00    -0.237 OA
ATOM     95  O   UNL A   1      46.248  25.660  38.496  1.00  0.00    -0.237 OA
ATOM     96  O   UNL A   1      44.452  26.921  39.600  1.00  0.00    -0.744 OA
ENDBRANCH  90  93
ENDBRANCH  63  86
ENDBRANCH  37  38
ENDBRANCH  29  32
ENDBRANCH  27  28
ENDBRANCH  26  27
ENDBRANCH   1  26
TORSDOF 18
ENDMDL
