MODEL 1
REMARK VINA RESULT:     -14.1      0.000      0.000
REMARK SMILES CC1(C)O[C@@H]2C[C@@H]3[C@H]4CCC5=CC(=O)C=C[C@@]5(C)[C@]4(F)[C@H](O)C[C@]3(C)[C@]2(C(=O)NCCCNC(=O)c2ccc(-c3c4nc(c(-c5cccc(S(=O)(=O)[O-])c5F)c5ccc([nH]5)c(-c5cccc(S(=O)(=O)[O-])c5F)c5nc(c(-c6cccc(S(=O)(=O)[O-])c6F)c6ccc3[nH]6)C=C5)C=C4)cc2)O1
REMARK SMILES IDX 32 1 31 2 30 3 29 4 27 5 28 6 26 8 1 9 2 10 4 11 99 12 3 13
REMARK SMILES IDX 5 14 6 15 24 16 7 17 23 18 25 19 8 20 21 21 9 22 19 23 10 24
REMARK SMILES IDX 17 25 20 26 11 27 16 28 18 29 12 30 15 31 13 32 14 33 22 34
REMARK SMILES IDX 33 36 34 37 35 39 36 40 37 41 98 42 38 43 97 44 39 45 40 46
REMARK SMILES IDX 41 47 91 48 42 49 96 50 90 51 92 52 43 53 95 54 89 55 88 56
REMARK SMILES IDX 44 58 76 59 56 60 75 61 57 62 60 63 74 64 93 65 58 66 59 67
REMARK SMILES IDX 73 69 94 70 61 71 45 72 46 73 54 74 47 75 49 76 55 77 48 78
REMARK SMILES IDX 50 79 51 80 52 81 53 82 77 83 78 84 86 85 79 86 81 87 87 88
REMARK SMILES IDX 80 89 82 90 83 91 84 92 85 93 62 94 63 95 71 96 64 97 66 98
REMARK SMILES IDX 72 99 65 100 67 101 68 102 69 103 70 104
REMARK H PARENT 29 7 22 35 33 38 92 57 60 68
REMARK Flexibility Score: inf
ROOT
ATOM      1  C   UNL A   1      32.913  29.473  25.230  1.00  0.00     0.118 C 
ENDROOT
BRANCH   1   2
ATOM      2  C   UNL A   1      31.758  28.574  24.799  1.00  0.00     0.042 C 
BRANCH   2   3
ATOM      3  C   UNL A   1      31.384  27.568  25.878  1.00  0.00     0.117 C 
BRANCH   3   4
ATOM      4  N   UNL A   1      30.677  26.451  25.304  1.00  0.00    -0.353 N 
ATOM      5  C   UNL A   1      31.113  25.362  24.644  1.00  0.00     0.255 C 
ATOM      6  O   UNL A   1      30.250  24.810  23.943  1.00  0.00    -0.272 OA
ATOM      7  H   UNL A   1      29.700  26.492  25.415  1.00  0.00     0.163 HD
BRANCH   5   8
ATOM      8  C   UNL A   1      32.499  24.722  24.788  1.00  0.00     0.181 C 
ATOM      9  C   UNL A   1      33.001  25.312  21.570  1.00  0.00     0.075 C 
ATOM     10  C   UNL A   1      33.658  24.609  22.749  1.00  0.00     0.164 C 
ATOM     11  O   UNL A   1      34.365  25.556  23.559  1.00  0.00    -0.344 OA
ATOM     12  O   UNL A   1      32.618  23.976  23.526  1.00  0.00    -0.331 OA
ATOM     13  C   UNL A   1      34.659  23.560  22.239  1.00  0.00     0.075 C 
ATOM     14  C   UNL A   1      33.882  25.431  24.899  1.00  0.00     0.164 C 
ATOM     15  C   UNL A   1      34.830  24.462  25.757  1.00  0.00     0.040 C 
ATOM     16  C   UNL A   1      32.541  23.715  26.015  1.00  0.00     0.014 C 
ATOM     17  C   UNL A   1      33.985  23.180  25.770  1.00  0.00     0.008 C 
ATOM     18  C   UNL A   1      31.500  22.583  26.172  1.00  0.00     0.046 C 
ATOM     19  C   UNL A   1      32.369  24.560  27.320  1.00  0.00     0.015 C 
ATOM     20  C   UNL A   1      34.248  21.715  25.338  1.00  0.00     0.035 C 
ATOM     21  C   UNL A   1      31.753  21.289  25.413  1.00  0.00     0.154 C 
ATOM     22  C   UNL A   1      35.673  21.239  25.575  1.00  0.00     0.012 C 
ATOM     23  C   UNL A   1      33.169  20.693  25.700  1.00  0.00     0.152 C 
ATOM     24  C   UNL A   1      35.934  20.086  24.610  1.00  0.00     0.032 C 
ATOM     25  C   UNL A   1      33.453  19.299  24.957  1.00  0.00     0.044 C 
ATOM     26  F   UNL A   1      33.276  20.503  27.058  1.00  0.00    -0.239 F 
ATOM     27  C   UNL A   1      34.956  18.962  24.825  1.00  0.00    -0.053 C 
ATOM     28  C   UNL A   1      32.768  18.142  25.712  1.00  0.00    -0.009 C 
ATOM     29  C   UNL A   1      32.876  19.270  23.512  1.00  0.00     0.024 C 
ATOM     30  C   UNL A   1      35.391  17.688  24.800  1.00  0.00     0.052 C 
ATOM     31  C   UNL A   1      33.065  16.861  25.409  1.00  0.00     0.048 C 
ATOM     32  C   UNL A   1      34.435  16.562  24.899  1.00  0.00     0.178 C 
ATOM     33  O   UNL A   1      34.762  15.423  24.589  1.00  0.00    -0.290 OA
BRANCH  21  34
ATOM     34  O   UNL A   1      31.476  21.522  24.035  1.00  0.00    -0.390 OA
ATOM     35  H   UNL A   1      31.920  22.337  23.750  1.00  0.00     0.211 HD
ENDBRANCH  21  34
ENDBRANCH   5   8
ENDBRANCH   3   4
ENDBRANCH   2   3
ENDBRANCH   1   2
BRANCH   1  36
ATOM     36  N   UNL A   1      32.428  30.736  25.782  1.00  0.00    -0.352 N 
ATOM     37  C   UNL A   1      32.839  31.400  26.905  1.00  0.00     0.251 C 
ATOM     38  H   UNL A   1      31.703  31.169  25.276  1.00  0.00     0.163 HD
ATOM     39  O   UNL A   1      32.107  32.255  27.417  1.00  0.00    -0.269 OA
BRANCH  37  40
ATOM     40  C   UNL A   1      34.154  31.094  27.488  1.00  0.00     0.039 A 
ATOM     41  C   UNL A   1      35.082  32.118  27.683  1.00  0.00     0.014 A 
ATOM     42  C   UNL A   1      34.459  29.778  27.849  1.00  0.00     0.014 A 
ATOM     43  C   UNL A   1      36.294  31.829  28.311  1.00  0.00     0.010 A 
ATOM     44  C   UNL A   1      35.622  29.512  28.555  1.00  0.00     0.010 A 
ATOM     45  C   UNL A   1      36.553  30.534  28.790  1.00  0.00    -0.014 A 
BRANCH  45  46
ATOM     46  C   UNL A   1      37.776  30.225  29.568  1.00  0.00     0.031 A 
ATOM     47  C   UNL A   1      38.801  29.272  29.019  1.00  0.00     0.074 A 
ATOM     48  C   UNL A   1      37.903  30.722  30.815  1.00  0.00     0.049 A 
ATOM     49  N   UNL A   1      39.895  28.828  29.581  1.00  0.00    -0.248 NA
ATOM     50  C   UNL A   1      38.554  28.720  27.675  1.00  0.00     0.031 C 
ATOM     51  C   UNL A   1      36.930  31.590  31.484  1.00  0.00     0.029 A 
ATOM     52  N   UNL A   1      38.888  30.546  31.753  1.00  0.00    -0.354 N 
ATOM     53  C   UNL A   1      40.440  27.918  28.684  1.00  0.00     0.074 A 
ATOM     54  C   UNL A   1      39.545  27.850  27.551  1.00  0.00     0.031 C 
ATOM     55  C   UNL A   1      37.372  31.880  32.717  1.00  0.00     0.029 A 
ATOM     56  C   UNL A   1      38.635  31.187  32.943  1.00  0.00     0.049 A 
ATOM     57  H   UNL A   1      39.699  30.011  31.589  1.00  0.00     0.167 HD
ATOM     58  C   UNL A   1      41.595  27.221  28.787  1.00  0.00     0.034 A 
ATOM     59  C   UNL A   1      39.338  31.203  34.093  1.00  0.00     0.034 A 
ATOM     60  C   UNL A   1      42.500  27.328  29.899  1.00  0.00     0.049 A 
ATOM     61  C   UNL A   1      40.630  30.437  34.165  1.00  0.00     0.074 A 
ATOM     62  C   UNL A   1      43.749  26.753  30.046  1.00  0.00     0.029 A 
ATOM     63  N   UNL A   1      42.247  28.042  31.060  1.00  0.00    -0.354 N 
ATOM     64  N   UNL A   1      41.222  29.727  33.235  1.00  0.00    -0.248 NA
ATOM     65  C   UNL A   1      41.367  30.496  35.435  1.00  0.00     0.031 C 
ATOM     66  C   UNL A   1      44.233  27.085  31.315  1.00  0.00     0.029 A 
ATOM     67  C   UNL A   1      43.302  27.898  31.942  1.00  0.00     0.049 A 
ATOM     68  H   UNL A   1      41.435  28.571  31.231  1.00  0.00     0.167 HD
ATOM     69  C   UNL A   1      42.412  29.281  33.796  1.00  0.00     0.074 A 
ATOM     70  C   UNL A   1      42.471  29.825  35.137  1.00  0.00     0.031 C 
ATOM     71  C   UNL A   1      43.366  28.482  33.257  1.00  0.00     0.034 A 
BRANCH  58  72
ATOM     72  C   UNL A   1      41.971  26.305  27.652  1.00  0.00     0.023 A 
ATOM     73  C   UNL A   1      42.769  26.789  26.595  1.00  0.00     0.012 A 
ATOM     74  C   UNL A   1      41.600  24.946  27.672  1.00  0.00     0.148 A 
ATOM     75  C   UNL A   1      43.168  25.942  25.562  1.00  0.00     0.002 A 
ATOM     76  C   UNL A   1      42.041  24.098  26.664  1.00  0.00     0.091 A 
ATOM     77  F   UNL A   1      40.823  24.511  28.674  1.00  0.00    -0.205 F 
ATOM     78  C   UNL A   1      42.815  24.597  25.603  1.00  0.00     0.022 A 
BRANCH  76  79
ATOM     79  S   UNL A   1      41.711  22.332  26.667  1.00  0.00     0.127 S 
ATOM     80  O   UNL A   1      42.361  21.910  25.427  1.00  0.00    -0.237 OA
ATOM     81  O   UNL A   1      42.387  21.898  27.889  1.00  0.00    -0.237 OA
ATOM     82  O   UNL A   1      40.262  22.193  26.688  1.00  0.00    -0.744 OA
ENDBRANCH  76  79
ENDBRANCH  58  72
BRANCH  59  83
ATOM     83  C   UNL A   1      38.862  32.011  35.252  1.00  0.00     0.023 A 
ATOM     84  C   UNL A   1      38.976  33.415  35.206  1.00  0.00     0.012 A 
ATOM     85  C   UNL A   1      38.290  31.406  36.387  1.00  0.00     0.148 A 
ATOM     86  C   UNL A   1      38.566  34.197  36.285  1.00  0.00     0.002 A 
ATOM     87  C   UNL A   1      37.829  32.195  37.434  1.00  0.00     0.091 A 
ATOM     88  F   UNL A   1      38.198  30.068  36.415  1.00  0.00    -0.205 F 
ATOM     89  C   UNL A   1      37.984  33.589  37.394  1.00  0.00     0.022 A 
BRANCH  87  90
ATOM     90  S   UNL A   1      36.948  31.509  38.840  1.00  0.00     0.127 S 
ATOM     91  O   UNL A   1      37.898  31.734  39.927  1.00  0.00    -0.237 OA
ATOM     92  O   UNL A   1      35.750  32.349  38.884  1.00  0.00    -0.237 OA
ATOM     93  O   UNL A   1      36.690  30.116  38.502  1.00  0.00    -0.744 OA
ENDBRANCH  87  90
ENDBRANCH  59  83
BRANCH  71  94
ATOM     94  C   UNL A   1      44.570  28.163  34.103  1.00  0.00     0.023 A 
ATOM     95  C   UNL A   1      45.700  29.002  34.058  1.00  0.00     0.012 A 
ATOM     96  C   UNL A   1      44.549  27.075  34.998  1.00  0.00     0.148 A 
ATOM     97  C   UNL A   1      46.805  28.746  34.868  1.00  0.00     0.002 A 
ATOM     98  C   UNL A   1      45.632  26.857  35.841  1.00  0.00     0.091 A 
ATOM     99  F   UNL A   1      43.470  26.281  35.015  1.00  0.00    -0.205 F 
ATOM    100  C   UNL A   1      46.767  27.682  35.766  1.00  0.00     0.022 A 
BRANCH  98 101
ATOM    101  S   UNL A   1      45.635  25.575  37.099  1.00  0.00     0.127 S 
ATOM    102  O   UNL A   1      44.421  25.895  37.850  1.00  0.00    -0.237 OA
ATOM    103  O   UNL A   1      45.551  24.355  36.295  1.00  0.00    -0.237 OA
ATOM    104  O   UNL A   1      46.881  25.733  37.834  1.00  0.00    -0.744 OA
ENDBRANCH  98 101
ENDBRANCH  71  94
ENDBRANCH  45  46
ENDBRANCH  37  40
ENDBRANCH   1  36
TORSDOF 14
ENDMDL
MODEL 2
REMARK VINA RESULT:     -14.0      1.484      2.143
REMARK SMILES CC1(C)O[C@@H]2C[C@@H]3[C@H]4CCC5=CC(=O)C=C[C@@]5(C)[C@]4(F)[C@H](O)C[C@]3(C)[C@]2(C(=O)NCCCNC(=O)c2ccc(-c3c4nc(c(-c5cccc(S(=O)(=O)[O-])c5F)c5ccc([nH]5)c(-c5cccc(S(=O)(=O)[O-])c5F)c5nc(c(-c6cccc(S(=O)(=O)[O-])c6F)c6ccc3[nH]6)C=C5)C=C4)cc2)O1
REMARK SMILES IDX 32 1 31 2 30 3 29 4 27 5 28 6 26 8 1 9 2 10 4 11 99 12 3 13
REMARK SMILES IDX 5 14 6 15 24 16 7 17 23 18 25 19 8 20 21 21 9 22 19 23 10 24
REMARK SMILES IDX 17 25 20 26 11 27 16 28 18 29 12 30 15 31 13 32 14 33 22 34
REMARK SMILES IDX 33 36 34 37 35 39 36 40 37 41 98 42 38 43 97 44 39 45 40 46
REMARK SMILES IDX 41 47 91 48 42 49 96 50 90 51 92 52 43 53 95 54 89 55 88 56
REMARK SMILES IDX 44 58 76 59 56 60 75 61 57 62 60 63 74 64 93 65 58 66 59 67
REMARK SMILES IDX 73 69 94 70 61 71 45 72 46 73 54 74 47 75 49 76 55 77 48 78
REMARK SMILES IDX 50 79 51 80 52 81 53 82 77 83 78 84 86 85 79 86 81 87 87 88
REMARK SMILES IDX 80 89 82 90 83 91 84 92 85 93 62 94 63 95 71 96 64 97 66 98
REMARK SMILES IDX 72 99 65 100 67 101 68 102 69 103 70 104
REMARK H PARENT 29 7 22 35 33 38 92 57 60 68
REMARK Flexibility Score: inf
ROOT
ATOM      1  C   UNL A   1      32.186  31.818  26.753  1.00  0.00     0.118 C 
ENDROOT
BRANCH   1   2
ATOM      2  C   UNL A   1      30.873  31.444  26.071  1.00  0.00     0.042 C 
BRANCH   2   3
ATOM      3  C   UNL A   1      31.100  30.774  24.723  1.00  0.00     0.117 C 
BRANCH   3   4
ATOM      4  N   UNL A   1      30.286  29.591  24.604  1.00  0.00    -0.353 N 
ATOM      5  C   UNL A   1      30.609  28.301  24.396  1.00  0.00     0.255 C 
ATOM      6  O   UNL A   1      29.683  27.607  23.949  1.00  0.00    -0.272 OA
ATOM      7  H   UNL A   1      29.319  29.757  24.689  1.00  0.00     0.163 HD
BRANCH   5   8
ATOM      8  C   UNL A   1      31.942  27.641  24.772  1.00  0.00     0.181 C 
ATOM      9  C   UNL A   1      33.081  28.458  21.773  1.00  0.00     0.075 C 
ATOM     10  C   UNL A   1      33.490  27.666  23.007  1.00  0.00     0.164 C 
ATOM     11  O   UNL A   1      34.013  28.546  24.010  1.00  0.00    -0.344 OA
ATOM     12  O   UNL A   1      32.319  26.987  23.509  1.00  0.00    -0.331 OA
ATOM     13  C   UNL A   1      34.581  26.648  22.635  1.00  0.00     0.075 C 
ATOM     14  C   UNL A   1      33.269  28.328  25.211  1.00  0.00     0.164 C 
ATOM     15  C   UNL A   1      34.030  27.292  26.170  1.00  0.00     0.040 C 
ATOM     16  C   UNL A   1      31.740  26.547  25.904  1.00  0.00     0.014 C 
ATOM     17  C   UNL A   1      33.208  26.019  25.919  1.00  0.00     0.008 C 
ATOM     18  C   UNL A   1      30.697  25.416  25.765  1.00  0.00     0.046 C 
ATOM     19  C   UNL A   1      31.303  27.297  27.206  1.00  0.00     0.015 C 
ATOM     20  C   UNL A   1      33.562  24.587  25.444  1.00  0.00     0.035 C 
ATOM     21  C   UNL A   1      31.106  24.178  24.981  1.00  0.00     0.154 C 
ATOM     22  C   UNL A   1      34.912  24.083  25.930  1.00  0.00     0.012 C 
ATOM     23  C   UNL A   1      32.439  23.550  25.505  1.00  0.00     0.152 C 
ATOM     24  C   UNL A   1      35.372  23.001  24.956  1.00  0.00     0.032 C 
ATOM     25  C   UNL A   1      32.876  22.212  24.736  1.00  0.00     0.044 C 
ATOM     26  F   UNL A   1      32.269  23.262  26.839  1.00  0.00    -0.239 F 
ATOM     27  C   UNL A   1      34.377  21.873  24.887  1.00  0.00    -0.053 C 
ATOM     28  C   UNL A   1      32.060  21.009  25.250  1.00  0.00    -0.009 C 
ATOM     29  C   UNL A   1      32.604  22.292  23.205  1.00  0.00     0.024 C 
ATOM     30  C   UNL A   1      34.816  20.600  24.858  1.00  0.00     0.052 C 
ATOM     31  C   UNL A   1      32.420  19.751  24.922  1.00  0.00     0.048 C 
ATOM     32  C   UNL A   1      33.867  19.478  24.680  1.00  0.00     0.178 C 
ATOM     33  O   UNL A   1      34.258  18.362  24.360  1.00  0.00    -0.290 OA
BRANCH  21  34
ATOM     34  O   UNL A   1      31.113  24.513  23.597  1.00  0.00    -0.390 OA
ATOM     35  H   UNL A   1      30.859  25.444  23.488  1.00  0.00     0.211 HD
ENDBRANCH  21  34
ENDBRANCH   5   8
ENDBRANCH   3   4
ENDBRANCH   2   3
ENDBRANCH   1   2
BRANCH   1  36
ATOM     36  N   UNL A   1      32.242  33.249  27.051  1.00  0.00    -0.352 N 
ATOM     37  C   UNL A   1      33.035  33.911  27.948  1.00  0.00     0.251 C 
ATOM     38  H   UNL A   1      31.623  33.813  26.535  1.00  0.00     0.163 HD
ATOM     39  O   UNL A   1      32.722  35.046  28.324  1.00  0.00    -0.269 OA
BRANCH  37  40
ATOM     40  C   UNL A   1      34.258  33.266  28.449  1.00  0.00     0.039 A 
ATOM     41  C   UNL A   1      35.491  33.900  28.293  1.00  0.00     0.014 A 
ATOM     42  C   UNL A   1      34.171  32.025  29.088  1.00  0.00     0.014 A 
ATOM     43  C   UNL A   1      36.632  33.318  28.845  1.00  0.00     0.010 A 
ATOM     44  C   UNL A   1      35.289  31.496  29.714  1.00  0.00     0.010 A 
ATOM     45  C   UNL A   1      36.531  32.135  29.597  1.00  0.00    -0.014 A 
BRANCH  45  46
ATOM     46  C   UNL A   1      37.703  31.559  30.297  1.00  0.00     0.031 A 
ATOM     47  C   UNL A   1      38.539  30.503  29.630  1.00  0.00     0.074 A 
ATOM     48  C   UNL A   1      37.943  31.914  31.575  1.00  0.00     0.049 A 
ATOM     49  N   UNL A   1      39.556  29.835  30.109  1.00  0.00    -0.248 NA
ATOM     50  C   UNL A   1      38.169  30.123  28.255  1.00  0.00     0.031 C 
ATOM     51  C   UNL A   1      37.147  32.868  32.353  1.00  0.00     0.029 A 
ATOM     52  N   UNL A   1      38.906  31.493  32.456  1.00  0.00    -0.354 N 
ATOM     53  C   UNL A   1      39.918  28.932  29.118  1.00  0.00     0.074 A 
ATOM     54  C   UNL A   1      38.997  29.115  28.019  1.00  0.00     0.031 C 
ATOM     55  C   UNL A   1      37.662  32.968  33.588  1.00  0.00     0.029 A 
ATOM     56  C   UNL A   1      38.795  32.057  33.705  1.00  0.00     0.049 A 
ATOM     57  H   UNL A   1      39.611  30.848  32.216  1.00  0.00     0.167 HD
ATOM     58  C   UNL A   1      40.941  28.046  29.116  1.00  0.00     0.034 A 
ATOM     59  C   UNL A   1      39.518  31.853  34.824  1.00  0.00     0.034 A 
ATOM     60  C   UNL A   1      41.878  27.901  30.196  1.00  0.00     0.049 A 
ATOM     61  C   UNL A   1      40.664  30.880  34.780  1.00  0.00     0.074 A 
ATOM     62  C   UNL A   1      43.015  27.116  30.245  1.00  0.00     0.029 A 
ATOM     63  N   UNL A   1      41.777  28.539  31.422  1.00  0.00    -0.354 N 
ATOM     64  N   UNL A   1      41.105  30.169  33.770  1.00  0.00    -0.248 NA
ATOM     65  C   UNL A   1      41.431  30.702  36.021  1.00  0.00     0.031 C 
ATOM     66  C   UNL A   1      43.579  27.247  31.518  1.00  0.00     0.029 A 
ATOM     67  C   UNL A   1      42.814  28.144  32.247  1.00  0.00     0.049 A 
ATOM     68  H   UNL A   1      41.070  29.178  31.669  1.00  0.00     0.167 HD
ATOM     69  C   UNL A   1      42.216  29.483  34.245  1.00  0.00     0.074 A 
ATOM     70  C   UNL A   1      42.398  29.887  35.624  1.00  0.00     0.031 C 
ATOM     71  C   UNL A   1      43.007  28.588  33.603  1.00  0.00     0.034 A 
BRANCH  58  72
ATOM     72  C   UNL A   1      41.129  27.187  27.894  1.00  0.00     0.023 A 
ATOM     73  C   UNL A   1      41.780  27.713  26.759  1.00  0.00     0.012 A 
ATOM     74  C   UNL A   1      40.731  25.835  27.898  1.00  0.00     0.148 A 
ATOM     75  C   UNL A   1      42.007  26.916  25.638  1.00  0.00     0.002 A 
ATOM     76  C   UNL A   1      41.004  25.035  26.795  1.00  0.00     0.091 A 
ATOM     77  F   UNL A   1      40.094  25.359  28.977  1.00  0.00    -0.205 F 
ATOM     78  C   UNL A   1      41.631  25.576  25.660  1.00  0.00     0.022 A 
BRANCH  76  79
ATOM     79  S   UNL A   1      40.634  23.277  26.755  1.00  0.00     0.127 S 
ATOM     80  O   UNL A   1      41.536  22.812  25.702  1.00  0.00    -0.237 OA
ATOM     81  O   UNL A   1      41.006  22.857  28.106  1.00  0.00    -0.237 OA
ATOM     82  O   UNL A   1      39.215  23.170  26.451  1.00  0.00    -0.744 OA
ENDBRANCH  76  79
ENDBRANCH  58  72
BRANCH  59  83
ATOM     83  C   UNL A   1      39.214  32.622  36.065  1.00  0.00     0.023 A 
ATOM     84  C   UNL A   1      39.767  33.907  36.232  1.00  0.00     0.012 A 
ATOM     85  C   UNL A   1      38.377  32.099  37.068  1.00  0.00     0.148 A 
ATOM     86  C   UNL A   1      39.524  34.640  37.394  1.00  0.00     0.002 A 
ATOM     87  C   UNL A   1      38.091  32.858  38.197  1.00  0.00     0.091 A 
ATOM     88  F   UNL A   1      37.867  30.871  36.895  1.00  0.00    -0.205 F 
ATOM     89  C   UNL A   1      38.679  34.121  38.371  1.00  0.00     0.022 A 
BRANCH  87  90
ATOM     90  S   UNL A   1      36.911  32.326  39.442  1.00  0.00     0.127 S 
ATOM     91  O   UNL A   1      37.400  30.987  39.763  1.00  0.00    -0.237 OA
ATOM     92  O   UNL A   1      37.111  33.325  40.493  1.00  0.00    -0.237 OA
ATOM     93  O   UNL A   1      35.606  32.387  38.798  1.00  0.00    -0.744 OA
ENDBRANCH  87  90
ENDBRANCH  59  83
BRANCH  71  94
ATOM     94  C   UNL A   1      44.161  27.999  34.372  1.00  0.00     0.023 A 
ATOM     95  C   UNL A   1      45.383  28.695  34.442  1.00  0.00     0.012 A 
ATOM     96  C   UNL A   1      44.006  26.794  35.085  1.00  0.00     0.148 A 
ATOM     97  C   UNL A   1      46.446  28.184  35.186  1.00  0.00     0.002 A 
ATOM     98  C   UNL A   1      45.051  26.319  35.868  1.00  0.00     0.091 A 
ATOM     99  F   UNL A   1      42.839  26.142  34.993  1.00  0.00    -0.205 F 
ATOM    100  C   UNL A   1      46.277  27.005  35.907  1.00  0.00     0.022 A 
BRANCH  98 101
ATOM    101  S   UNL A   1      44.894  24.865  36.909  1.00  0.00     0.127 S 
ATOM    102  O   UNL A   1      46.245  24.745  37.458  1.00  0.00    -0.237 OA
ATOM    103  O   UNL A   1      43.878  25.285  37.875  1.00  0.00    -0.237 OA
ATOM    104  O   UNL A   1      44.483  23.780  36.029  1.00  0.00    -0.744 OA
ENDBRANCH  98 101
ENDBRANCH  71  94
ENDBRANCH  45  46
ENDBRANCH  37  40
ENDBRANCH   1  36
TORSDOF 14
ENDMDL
MODEL 3
REMARK VINA RESULT:     -14.0      5.336     10.513
REMARK SMILES CC1(C)O[C@@H]2C[C@@H]3[C@H]4CCC5=CC(=O)C=C[C@@]5(C)[C@]4(F)[C@H](O)C[C@]3(C)[C@]2(C(=O)NCCCNC(=O)c2ccc(-c3c4nc(c(-c5cccc(S(=O)(=O)[O-])c5F)c5ccc([nH]5)c(-c5cccc(S(=O)(=O)[O-])c5F)c5nc(c(-c6cccc(S(=O)(=O)[O-])c6F)c6ccc3[nH]6)C=C5)C=C4)cc2)O1
REMARK SMILES IDX 32 1 31 2 30 3 29 4 27 5 28 6 26 8 1 9 2 10 4 11 99 12 3 13
REMARK SMILES IDX 5 14 6 15 24 16 7 17 23 18 25 19 8 20 21 21 9 22 19 23 10 24
REMARK SMILES IDX 17 25 20 26 11 27 16 28 18 29 12 30 15 31 13 32 14 33 22 34
REMARK SMILES IDX 33 36 34 37 35 39 36 40 37 41 98 42 38 43 97 44 39 45 40 46
REMARK SMILES IDX 41 47 91 48 42 49 96 50 90 51 92 52 43 53 95 54 89 55 88 56
REMARK SMILES IDX 44 58 76 59 56 60 75 61 57 62 60 63 74 64 93 65 58 66 59 67
REMARK SMILES IDX 73 69 94 70 61 71 45 72 46 73 54 74 47 75 49 76 55 77 48 78
REMARK SMILES IDX 50 79 51 80 52 81 53 82 77 83 78 84 86 85 79 86 81 87 87 88
REMARK SMILES IDX 80 89 82 90 83 91 84 92 85 93 62 94 63 95 71 96 64 97 66 98
REMARK SMILES IDX 72 99 65 100 67 101 68 102 69 103 70 104
REMARK H PARENT 29 7 22 35 33 38 92 57 60 68
REMARK Flexibility Score: inf
ROOT
ATOM      1  C   UNL A   1      38.701  20.139  25.288  1.00  0.00     0.118 C 
ENDROOT
BRANCH   1   2
ATOM      2  C   UNL A   1      37.416  19.366  25.005  1.00  0.00     0.042 C 
BRANCH   2   3
ATOM      3  C   UNL A   1      36.193  20.272  25.002  1.00  0.00     0.117 C 
BRANCH   3   4
ATOM      4  N   UNL A   1      36.458  21.476  24.256  1.00  0.00    -0.353 N 
ATOM      5  C   UNL A   1      35.654  22.483  23.869  1.00  0.00     0.255 C 
ATOM      6  O   UNL A   1      36.090  23.150  22.918  1.00  0.00    -0.272 OA
ATOM      7  H   UNL A   1      37.397  21.580  23.978  1.00  0.00     0.163 HD
BRANCH   5   8
ATOM      8  C   UNL A   1      34.359  22.913  24.569  1.00  0.00     0.181 C 
ATOM      9  C   UNL A   1      32.802  20.457  22.987  1.00  0.00     0.075 C 
ATOM     10  C   UNL A   1      32.503  21.643  23.893  1.00  0.00     0.164 C 
ATOM     11  O   UNL A   1      32.747  21.296  25.261  1.00  0.00    -0.344 OA
ATOM     12  O   UNL A   1      33.365  22.733  23.500  1.00  0.00    -0.331 OA
ATOM     13  C   UNL A   1      31.027  22.051  23.750  1.00  0.00     0.075 C 
ATOM     14  C   UNL A   1      33.662  22.255  25.798  1.00  0.00     0.164 C 
ATOM     15  C   UNL A   1      32.875  23.425  26.563  1.00  0.00     0.040 C 
ATOM     16  C   UNL A   1      34.418  24.441  24.997  1.00  0.00     0.014 C 
ATOM     17  C   UNL A   1      32.952  24.547  25.518  1.00  0.00     0.008 C 
ATOM     18  C   UNL A   1      34.778  25.554  23.987  1.00  0.00     0.046 C 
ATOM     19  C   UNL A   1      35.516  24.574  26.103  1.00  0.00     0.015 C 
ATOM     20  C   UNL A   1      31.892  25.417  24.794  1.00  0.00     0.035 C 
ATOM     21  C   UNL A   1      33.659  26.093  23.110  1.00  0.00     0.154 C 
ATOM     22  C   UNL A   1      30.684  25.768  25.648  1.00  0.00     0.012 C 
ATOM     23  C   UNL A   1      32.424  26.571  23.942  1.00  0.00     0.152 C 
ATOM     24  C   UNL A   1      29.528  26.072  24.697  1.00  0.00     0.032 C 
ATOM     25  C   UNL A   1      31.242  27.195  23.054  1.00  0.00     0.044 C 
ATOM     26  F   UNL A   1      32.862  27.522  24.833  1.00  0.00    -0.239 F 
ATOM     27  C   UNL A   1      29.870  27.206  23.768  1.00  0.00    -0.053 C 
ATOM     28  C   UNL A   1      31.583  28.644  22.653  1.00  0.00    -0.009 C 
ATOM     29  C   UNL A   1      31.028  26.419  21.722  1.00  0.00     0.024 C 
ATOM     30  C   UNL A   1      28.947  28.148  23.501  1.00  0.00     0.052 C 
ATOM     31  C   UNL A   1      30.639  29.442  22.112  1.00  0.00     0.048 C 
ATOM     32  C   UNL A   1      29.218  29.212  22.508  1.00  0.00     0.178 C 
ATOM     33  O   UNL A   1      28.311  29.888  22.039  1.00  0.00    -0.290 OA
BRANCH  21  34
ATOM     34  O   UNL A   1      33.363  25.115  22.118  1.00  0.00    -0.390 OA
ATOM     35  H   UNL A   1      34.191  24.770  21.747  1.00  0.00     0.211 HD
ENDBRANCH  21  34
ENDBRANCH   5   8
ENDBRANCH   3   4
ENDBRANCH   2   3
ENDBRANCH   1   2
BRANCH   1  36
ATOM     36  N   UNL A   1      39.756  19.256  25.783  1.00  0.00    -0.352 N 
ATOM     37  C   UNL A   1      41.015  19.575  26.214  1.00  0.00     0.251 C 
ATOM     38  H   UNL A   1      39.529  18.299  25.810  1.00  0.00     0.163 HD
ATOM     39  O   UNL A   1      41.887  18.700  26.267  1.00  0.00    -0.269 OA
BRANCH  37  40
ATOM     40  C   UNL A   1      41.314  20.957  26.617  1.00  0.00     0.039 A 
ATOM     41  C   UNL A   1      41.856  21.210  27.879  1.00  0.00     0.014 A 
ATOM     42  C   UNL A   1      41.062  22.006  25.728  1.00  0.00     0.014 A 
ATOM     43  C   UNL A   1      42.212  22.515  28.219  1.00  0.00     0.010 A 
ATOM     44  C   UNL A   1      41.502  23.285  26.032  1.00  0.00     0.010 A 
ATOM     45  C   UNL A   1      42.078  23.553  27.281  1.00  0.00    -0.014 A 
BRANCH  45  46
ATOM     46  C   UNL A   1      42.560  24.925  27.569  1.00  0.00     0.031 A 
ATOM     47  C   UNL A   1      41.639  25.934  28.197  1.00  0.00     0.074 A 
ATOM     48  C   UNL A   1      43.794  25.285  27.162  1.00  0.00     0.049 A 
ATOM     49  N   UNL A   1      41.859  27.196  28.459  1.00  0.00    -0.248 NA
ATOM     50  C   UNL A   1      40.284  25.478  28.551  1.00  0.00     0.031 C 
ATOM     51  C   UNL A   1      44.744  24.412  26.467  1.00  0.00     0.029 A 
ATOM     52  N   UNL A   1      44.450  26.486  27.248  1.00  0.00    -0.354 N 
ATOM     53  C   UNL A   1      40.665  27.692  28.965  1.00  0.00     0.074 A 
ATOM     54  C   UNL A   1      39.712  26.605  28.949  1.00  0.00     0.031 C 
ATOM     55  C   UNL A   1      45.864  25.103  26.201  1.00  0.00     0.029 A 
ATOM     56  C   UNL A   1      45.696  26.476  26.667  1.00  0.00     0.049 A 
ATOM     57  H   UNL A   1      44.064  27.281  27.684  1.00  0.00     0.167 HD
ATOM     58  C   UNL A   1      40.394  28.937  29.422  1.00  0.00     0.034 A 
ATOM     59  C   UNL A   1      46.598  27.465  26.515  1.00  0.00     0.034 A 
ATOM     60  C   UNL A   1      41.361  30.000  29.473  1.00  0.00     0.049 A 
ATOM     61  C   UNL A   1      46.276  28.830  27.058  1.00  0.00     0.074 A 
ATOM     62  C   UNL A   1      41.220  31.260  30.024  1.00  0.00     0.029 A 
ATOM     63  N   UNL A   1      42.638  29.934  28.940  1.00  0.00    -0.354 N 
ATOM     64  N   UNL A   1      45.206  29.232  27.701  1.00  0.00    -0.248 NA
ATOM     65  C   UNL A   1      47.297  29.873  26.880  1.00  0.00     0.031 C 
ATOM     66  C   UNL A   1      42.400  31.972  29.786  1.00  0.00     0.029 A 
ATOM     67  C   UNL A   1      43.288  31.142  29.121  1.00  0.00     0.049 A 
ATOM     68  H   UNL A   1      43.025  29.145  28.496  1.00  0.00     0.167 HD
ATOM     69  C   UNL A   1      45.436  30.561  28.030  1.00  0.00     0.074 A 
ATOM     70  C   UNL A   1      46.760  30.889  27.541  1.00  0.00     0.031 C 
ATOM     71  C   UNL A   1      44.622  31.439  28.667  1.00  0.00     0.034 A 
BRANCH  58  72
ATOM     72  C   UNL A   1      39.008  29.213  29.942  1.00  0.00     0.023 A 
ATOM     73  C   UNL A   1      38.674  28.868  31.267  1.00  0.00     0.012 A 
ATOM     74  C   UNL A   1      38.062  29.884  29.142  1.00  0.00     0.148 A 
ATOM     75  C   UNL A   1      37.411  29.162  31.780  1.00  0.00     0.002 A 
ATOM     76  C   UNL A   1      36.823  30.215  29.675  1.00  0.00     0.091 A 
ATOM     77  F   UNL A   1      38.391  30.183  27.877  1.00  0.00    -0.205 F 
ATOM     78  C   UNL A   1      36.492  29.845  30.990  1.00  0.00     0.022 A 
BRANCH  76  79
ATOM     79  S   UNL A   1      35.598  31.167  28.769  1.00  0.00     0.127 S 
ATOM     80  O   UNL A   1      34.945  30.126  27.976  1.00  0.00    -0.237 OA
ATOM     81  O   UNL A   1      34.778  31.716  29.848  1.00  0.00    -0.237 OA
ATOM     82  O   UNL A   1      36.343  32.157  28.003  1.00  0.00    -0.744 OA
ENDBRANCH  76  79
ENDBRANCH  58  72
BRANCH  59  83
ATOM     83  C   UNL A   1      47.912  27.190  25.866  1.00  0.00     0.023 A 
ATOM     84  C   UNL A   1      48.978  26.705  26.649  1.00  0.00     0.012 A 
ATOM     85  C   UNL A   1      48.109  27.392  24.487  1.00  0.00     0.148 A 
ATOM     86  C   UNL A   1      50.228  26.465  26.077  1.00  0.00     0.002 A 
ATOM     87  C   UNL A   1      49.339  27.095  23.913  1.00  0.00     0.091 A 
ATOM     88  F   UNL A   1      47.084  27.863  23.761  1.00  0.00    -0.205 F 
ATOM     89  C   UNL A   1      50.406  26.650  24.709  1.00  0.00     0.022 A 
BRANCH  87  90
ATOM     90  S   UNL A   1      49.618  27.176  22.140  1.00  0.00     0.127 S 
ATOM     91  O   UNL A   1      48.652  26.201  21.641  1.00  0.00    -0.237 OA
ATOM     92  O   UNL A   1      49.293  28.573  21.848  1.00  0.00    -0.237 OA
ATOM     93  O   UNL A   1      51.021  26.835  21.947  1.00  0.00    -0.744 OA
ENDBRANCH  87  90
ENDBRANCH  59  83
BRANCH  71  94
ATOM     94  C   UNL A   1      45.142  32.833  28.898  1.00  0.00     0.023 A 
ATOM     95  C   UNL A   1      45.908  33.113  30.046  1.00  0.00     0.012 A 
ATOM     96  C   UNL A   1      44.934  33.844  27.939  1.00  0.00     0.148 A 
ATOM     97  C   UNL A   1      46.434  34.388  30.253  1.00  0.00     0.002 A 
ATOM     98  C   UNL A   1      45.506  35.097  28.125  1.00  0.00     0.091 A 
ATOM     99  F   UNL A   1      44.190  33.560  26.861  1.00  0.00    -0.205 F 
ATOM    100  C   UNL A   1      46.244  35.374  29.288  1.00  0.00     0.022 A 
BRANCH  98 101
ATOM    101  S   UNL A   1      45.400  36.399  26.893  1.00  0.00     0.127 S 
ATOM    102  O   UNL A   1      46.163  37.472  27.530  1.00  0.00    -0.237 OA
ATOM    103  O   UNL A   1      46.058  35.785  25.739  1.00  0.00    -0.237 OA
ATOM    104  O   UNL A   1      43.981  36.668  26.711  1.00  0.00    -0.744 OA
ENDBRANCH  98 101
ENDBRANCH  71  94
ENDBRANCH  45  46
ENDBRANCH  37  40
ENDBRANCH   1  36
TORSDOF 14
ENDMDL
