MODEL 1
REMARK VINA RESULT:     -10.7      0.000      0.000
REMARK SMILES C[C@@H](C(=O)NCCCNC(=O)c1ccc(-c2c3nc(c(-c4cccc(S(=O)(=O)[O-])c4F)c4ccc([nH]4)c(-c4cccc(S(=O)(=O)[O-])c4F)c4nc(c(-c5cccc(S(=O)(=O)[O-])c5F)c5ccc2[nH]5)C=C4)C=C3)cc1)c1ccc(C[C@H]2CCC[C@@H]2O)cc1
REMARK SMILES IDX 6 1 5 2 3 3 4 4 2 6 1 7 75 8 76 9 87 10 77 11 86 12 78 13
REMARK SMILES IDX 79 14 80 15 81 16 84 17 82 18 83 19 85 20 7 22 8 23 9 24
REMARK SMILES IDX 10 25 11 27 12 28 13 29 74 30 14 31 73 32 15 33 16 34 17 35
REMARK SMILES IDX 67 36 18 37 72 38 66 39 68 40 19 41 71 42 65 43 64 44 20 46
REMARK SMILES IDX 52 47 32 48 51 49 33 50 36 51 50 52 69 53 34 54 35 55 49 57
REMARK SMILES IDX 70 58 37 59 21 60 22 61 30 62 23 63 25 64 31 65 24 66 26 67
REMARK SMILES IDX 27 68 28 69 29 70 53 71 54 72 62 73 55 74 57 75 63 76 56 77
REMARK SMILES IDX 58 78 59 79 60 80 61 81 38 82 39 83 47 84 40 85 42 86 48 87
REMARK SMILES IDX 41 88 43 89 44 90 45 91 46 92
REMARK H PARENT 5 5 85 21 9 26 68 45 36 56
REMARK Flexibility Score: inf
ROOT
ATOM      1  C   UNL A   1      33.242  34.862  28.773  1.00  0.00     0.117 C 
ENDROOT
BRANCH   1   2
ATOM      2  N   UNL A   1      33.344  36.142  29.449  1.00  0.00    -0.356 N 
ATOM      3  C   UNL A   1      33.024  36.492  30.730  1.00  0.00     0.227 C 
ATOM      4  O   UNL A   1      32.933  37.702  30.951  1.00  0.00    -0.274 OA
ATOM      5  H   UNL A   1      33.700  36.875  28.896  1.00  0.00     0.163 HD
BRANCH   3   6
ATOM      6  C   UNL A   1      32.779  35.398  31.786  1.00  0.00     0.105 C 
ATOM      7  C   UNL A   1      31.892  36.016  32.880  1.00  0.00     0.023 C 
BRANCH   6   8
ATOM      8  C   UNL A   1      34.032  34.759  32.402  1.00  0.00    -0.036 A 
ATOM      9  C   UNL A   1      35.226  35.496  32.480  1.00  0.00     0.005 A 
ATOM     10  C   UNL A   1      34.058  33.449  32.899  1.00  0.00     0.005 A 
ATOM     11  C   UNL A   1      36.427  34.896  32.866  1.00  0.00     0.004 A 
ATOM     12  C   UNL A   1      35.263  32.839  33.262  1.00  0.00     0.004 A 
ATOM     13  C   UNL A   1      36.469  33.537  33.178  1.00  0.00    -0.048 A 
BRANCH  13  14
ATOM     14  C   UNL A   1      37.785  32.820  33.347  1.00  0.00     0.041 C 
BRANCH  14  15
ATOM     15  C   UNL A   1      38.500  33.061  34.694  1.00  0.00     0.022 C 
ATOM     16  C   UNL A   1      39.169  34.435  34.880  1.00  0.00     0.007 C 
ATOM     17  C   UNL A   1      37.631  32.894  35.945  1.00  0.00     0.117 C 
ATOM     18  C   UNL A   1      39.001  34.794  36.361  1.00  0.00     0.003 C 
ATOM     19  C   UNL A   1      38.482  33.533  37.032  1.00  0.00     0.032 C 
BRANCH  17  20
ATOM     20  O   UNL A   1      37.378  31.527  36.214  1.00  0.00    -0.393 OA
ATOM     21  H   UNL A   1      36.742  31.183  35.569  1.00  0.00     0.210 HD
ENDBRANCH  17  20
ENDBRANCH  14  15
ENDBRANCH  13  14
ENDBRANCH   6   8
ENDBRANCH   3   6
ENDBRANCH   1   2
BRANCH   1  22
ATOM     22  C   UNL A   1      34.563  34.092  28.819  1.00  0.00     0.042 C 
BRANCH  22  23
ATOM     23  C   UNL A   1      34.444  32.650  29.301  1.00  0.00     0.118 C 
BRANCH  23  24
ATOM     24  N   UNL A   1      33.933  31.760  28.273  1.00  0.00    -0.352 N 
ATOM     25  C   UNL A   1      34.540  30.694  27.656  1.00  0.00     0.251 C 
ATOM     26  H   UNL A   1      33.015  31.949  27.973  1.00  0.00     0.163 HD
ATOM     27  O   UNL A   1      34.002  30.188  26.673  1.00  0.00    -0.269 OA
BRANCH  25  28
ATOM     28  C   UNL A   1      35.829  30.158  28.152  1.00  0.00     0.039 A 
ATOM     29  C   UNL A   1      35.857  29.540  29.406  1.00  0.00     0.014 A 
ATOM     30  C   UNL A   1      37.013  30.301  27.423  1.00  0.00     0.014 A 
ATOM     31  C   UNL A   1      37.060  29.040  29.911  1.00  0.00     0.010 A 
ATOM     32  C   UNL A   1      38.197  29.734  27.893  1.00  0.00     0.010 A 
ATOM     33  C   UNL A   1      38.239  29.116  29.151  1.00  0.00    -0.014 A 
BRANCH  33  34
ATOM     34  C   UNL A   1      39.523  28.577  29.671  1.00  0.00     0.031 A 
ATOM     35  C   UNL A   1      40.181  29.205  30.872  1.00  0.00     0.074 A 
ATOM     36  C   UNL A   1      40.132  27.561  29.026  1.00  0.00     0.049 A 
ATOM     37  N   UNL A   1      41.308  28.886  31.455  1.00  0.00    -0.248 NA
ATOM     38  C   UNL A   1      39.500  30.359  31.482  1.00  0.00     0.031 C 
ATOM     39  C   UNL A   1      39.640  26.922  27.804  1.00  0.00     0.029 A 
ATOM     40  N   UNL A   1      41.306  26.905  29.295  1.00  0.00    -0.354 N 
ATOM     41  C   UNL A   1      41.488  29.818  32.471  1.00  0.00     0.074 A 
ATOM     42  C   UNL A   1      40.373  30.735  32.405  1.00  0.00     0.031 C 
ATOM     43  C   UNL A   1      40.503  25.962  27.433  1.00  0.00     0.029 A 
ATOM     44  C   UNL A   1      41.618  25.930  28.376  1.00  0.00     0.049 A 
ATOM     45  H   UNL A   1      41.873  27.112  30.073  1.00  0.00     0.167 HD
ATOM     46  C   UNL A   1      42.474  29.885  33.399  1.00  0.00     0.034 A 
ATOM     47  C   UNL A   1      42.678  25.103  28.303  1.00  0.00     0.034 A 
ATOM     48  C   UNL A   1      43.552  28.939  33.499  1.00  0.00     0.049 A 
ATOM     49  C   UNL A   1      43.724  25.154  29.384  1.00  0.00     0.074 A 
ATOM     50  C   UNL A   1      44.548  28.866  34.458  1.00  0.00     0.029 A 
ATOM     51  N   UNL A   1      43.777  27.900  32.610  1.00  0.00    -0.354 N 
ATOM     52  N   UNL A   1      43.786  25.937  30.434  1.00  0.00    -0.248 NA
ATOM     53  C   UNL A   1      44.821  24.180  29.295  1.00  0.00     0.031 C 
ATOM     54  C   UNL A   1      45.384  27.791  34.138  1.00  0.00     0.029 A 
ATOM     55  C   UNL A   1      44.897  27.181  32.993  1.00  0.00     0.049 A 
ATOM     56  H   UNL A   1      43.223  27.703  31.821  1.00  0.00     0.167 HD
ATOM     57  C   UNL A   1      44.905  25.527  31.150  1.00  0.00     0.074 A 
ATOM     58  C   UNL A   1      45.477  24.410  30.425  1.00  0.00     0.031 C 
ATOM     59  C   UNL A   1      45.421  26.036  32.295  1.00  0.00     0.034 A 
BRANCH  46  60
ATOM     60  C   UNL A   1      42.396  30.988  34.425  1.00  0.00     0.023 A 
ATOM     61  C   UNL A   1      41.763  30.741  35.660  1.00  0.00     0.012 A 
ATOM     62  C   UNL A   1      42.993  32.242  34.194  1.00  0.00     0.148 A 
ATOM     63  C   UNL A   1      41.692  31.736  36.635  1.00  0.00     0.002 A 
ATOM     64  C   UNL A   1      42.958  33.213  35.189  1.00  0.00     0.091 A 
ATOM     65  F   UNL A   1      43.573  32.467  33.006  1.00  0.00    -0.205 F 
ATOM     66  C   UNL A   1      42.298  32.966  36.403  1.00  0.00     0.022 A 
BRANCH  64  67
ATOM     67  S   UNL A   1      43.779  34.803  35.019  1.00  0.00     0.127 S 
ATOM     68  O   UNL A   1      43.962  34.887  33.570  1.00  0.00    -0.237 OA
ATOM     69  O   UNL A   1      42.781  35.725  35.561  1.00  0.00    -0.237 OA
ATOM     70  O   UNL A   1      45.003  34.707  35.801  1.00  0.00    -0.744 OA
ENDBRANCH  64  67
ENDBRANCH  46  60
BRANCH  47  71
ATOM     71  C   UNL A   1      42.758  24.095  27.207  1.00  0.00     0.023 A 
ATOM     72  C   UNL A   1      43.482  24.404  26.038  1.00  0.00     0.012 A 
ATOM     73  C   UNL A   1      42.155  22.828  27.327  1.00  0.00     0.148 A 
ATOM     74  C   UNL A   1      43.576  23.482  24.995  1.00  0.00     0.002 A 
ATOM     75  C   UNL A   1      42.299  21.895  26.306  1.00  0.00     0.091 A 
ATOM     76  F   UNL A   1      41.461  22.557  28.441  1.00  0.00    -0.205 F 
ATOM     77  C   UNL A   1      42.994  22.225  25.133  1.00  0.00     0.022 A 
BRANCH  75  78
ATOM     78  S   UNL A   1      41.699  20.208  26.458  1.00  0.00     0.127 S 
ATOM     79  O   UNL A   1      42.227  19.820  27.765  1.00  0.00    -0.237 OA
ATOM     80  O   UNL A   1      40.247  20.397  26.414  1.00  0.00    -0.237 OA
ATOM     81  O   UNL A   1      42.243  19.494  25.315  1.00  0.00    -0.744 OA
ENDBRANCH  75  78
ENDBRANCH  47  71
BRANCH  59  82
ATOM     82  C   UNL A   1      46.649  25.374  32.865  1.00  0.00     0.023 A 
ATOM     83  C   UNL A   1      47.927  25.846  32.509  1.00  0.00     0.012 A 
ATOM     84  C   UNL A   1      46.533  24.331  33.805  1.00  0.00     0.148 A 
ATOM     85  C   UNL A   1      49.073  25.268  33.055  1.00  0.00     0.002 A 
ATOM     86  C   UNL A   1      47.677  23.792  34.380  1.00  0.00     0.091 A 
ATOM     87  F   UNL A   1      45.308  23.881  34.115  1.00  0.00    -0.205 F 
ATOM     88  C   UNL A   1      48.948  24.250  33.997  1.00  0.00     0.022 A 
BRANCH  86  89
ATOM     89  S   UNL A   1      47.602  22.546  35.672  1.00  0.00     0.127 S 
ATOM     90  O   UNL A   1      48.959  22.597  36.215  1.00  0.00    -0.237 OA
ATOM     91  O   UNL A   1      46.569  23.078  36.561  1.00  0.00    -0.237 OA
ATOM     92  O   UNL A   1      47.239  21.303  35.005  1.00  0.00    -0.744 OA
ENDBRANCH  86  89
ENDBRANCH  59  82
ENDBRANCH  33  34
ENDBRANCH  25  28
ENDBRANCH  23  24
ENDBRANCH  22  23
ENDBRANCH   1  22
TORSDOF 17
ENDMDL
MODEL 2
REMARK VINA RESULT:     -10.7      6.093     12.210
REMARK SMILES C[C@@H](C(=O)NCCCNC(=O)c1ccc(-c2c3nc(c(-c4cccc(S(=O)(=O)[O-])c4F)c4ccc([nH]4)c(-c4cccc(S(=O)(=O)[O-])c4F)c4nc(c(-c5cccc(S(=O)(=O)[O-])c5F)c5ccc2[nH]5)C=C4)C=C3)cc1)c1ccc(C[C@H]2CCC[C@@H]2O)cc1
REMARK SMILES IDX 6 1 5 2 3 3 4 4 2 6 1 7 75 8 76 9 87 10 77 11 86 12 78 13
REMARK SMILES IDX 79 14 80 15 81 16 84 17 82 18 83 19 85 20 7 22 8 23 9 24
REMARK SMILES IDX 10 25 11 27 12 28 13 29 74 30 14 31 73 32 15 33 16 34 17 35
REMARK SMILES IDX 67 36 18 37 72 38 66 39 68 40 19 41 71 42 65 43 64 44 20 46
REMARK SMILES IDX 52 47 32 48 51 49 33 50 36 51 50 52 69 53 34 54 35 55 49 57
REMARK SMILES IDX 70 58 37 59 21 60 22 61 30 62 23 63 25 64 31 65 24 66 26 67
REMARK SMILES IDX 27 68 28 69 29 70 53 71 54 72 62 73 55 74 57 75 63 76 56 77
REMARK SMILES IDX 58 78 59 79 60 80 61 81 38 82 39 83 47 84 40 85 42 86 48 87
REMARK SMILES IDX 41 88 43 89 44 90 45 91 46 92
REMARK H PARENT 5 5 85 21 9 26 68 45 36 56
REMARK Flexibility Score: inf
ROOT
ATOM      1  C   UNL A   1      35.450  23.939  24.442  1.00  0.00     0.117 C 
ENDROOT
BRANCH   1   2
ATOM      2  N   UNL A   1      34.483  24.220  25.487  1.00  0.00    -0.356 N 
ATOM      3  C   UNL A   1      33.130  24.397  25.414  1.00  0.00     0.227 C 
ATOM      4  O   UNL A   1      32.600  24.911  26.402  1.00  0.00    -0.274 OA
ATOM      5  H   UNL A   1      34.862  24.295  26.393  1.00  0.00     0.163 HD
BRANCH   3   6
ATOM      6  C   UNL A   1      32.370  23.983  24.141  1.00  0.00     0.105 C 
ATOM      7  C   UNL A   1      30.989  24.657  24.199  1.00  0.00     0.023 C 
BRANCH   6   8
ATOM      8  C   UNL A   1      32.225  22.473  23.899  1.00  0.00    -0.036 A 
ATOM      9  C   UNL A   1      32.202  21.590  24.993  1.00  0.00     0.005 A 
ATOM     10  C   UNL A   1      32.115  21.909  22.621  1.00  0.00     0.005 A 
ATOM     11  C   UNL A   1      32.251  20.206  24.810  1.00  0.00     0.004 A 
ATOM     12  C   UNL A   1      32.190  20.525  22.435  1.00  0.00     0.004 A 
ATOM     13  C   UNL A   1      32.333  19.666  23.527  1.00  0.00    -0.048 A 
BRANCH  13  14
ATOM     14  C   UNL A   1      32.642  18.204  23.318  1.00  0.00     0.041 C 
BRANCH  14  15
ATOM     15  C   UNL A   1      33.358  17.507  24.494  1.00  0.00     0.022 C 
ATOM     16  C   UNL A   1      32.943  16.053  24.786  1.00  0.00     0.007 C 
ATOM     17  C   UNL A   1      34.886  17.448  24.400  1.00  0.00     0.117 C 
ATOM     18  C   UNL A   1      34.214  15.332  25.252  1.00  0.00     0.003 C 
ATOM     19  C   UNL A   1      35.250  16.423  25.464  1.00  0.00     0.032 C 
BRANCH  17  20
ATOM     20  O   UNL A   1      35.465  18.712  24.672  1.00  0.00    -0.393 OA
ATOM     21  H   UNL A   1      34.893  19.206  25.279  1.00  0.00     0.210 HD
ENDBRANCH  17  20
ENDBRANCH  14  15
ENDBRANCH  13  14
ENDBRANCH   6   8
ENDBRANCH   3   6
ENDBRANCH   1   2
BRANCH   1  22
ATOM     22  C   UNL A   1      35.967  22.502  24.522  1.00  0.00     0.042 C 
BRANCH  22  23
ATOM     23  C   UNL A   1      36.369  22.047  25.921  1.00  0.00     0.118 C 
BRANCH  23  24
ATOM     24  N   UNL A   1      37.384  21.008  25.898  1.00  0.00    -0.352 N 
ATOM     25  C   UNL A   1      38.748  21.112  26.013  1.00  0.00     0.251 C 
ATOM     26  H   UNL A   1      37.043  20.092  25.783  1.00  0.00     0.163 HD
ATOM     27  O   UNL A   1      39.443  20.125  25.777  1.00  0.00    -0.269 OA
BRANCH  25  28
ATOM     28  C   UNL A   1      39.385  22.390  26.406  1.00  0.00     0.039 A 
ATOM     29  C   UNL A   1      40.359  22.370  27.409  1.00  0.00     0.014 A 
ATOM     30  C   UNL A   1      39.002  23.607  25.836  1.00  0.00     0.014 A 
ATOM     31  C   UNL A   1      40.967  23.561  27.816  1.00  0.00     0.010 A 
ATOM     32  C   UNL A   1      39.663  24.783  26.188  1.00  0.00     0.010 A 
ATOM     33  C   UNL A   1      40.637  24.777  27.197  1.00  0.00    -0.014 A 
BRANCH  33  34
ATOM     34  C   UNL A   1      41.285  26.050  27.610  1.00  0.00     0.031 A 
ATOM     35  C   UNL A   1      42.721  26.325  27.247  1.00  0.00     0.074 A 
ATOM     36  C   UNL A   1      40.603  26.932  28.367  1.00  0.00     0.049 A 
ATOM     37  N   UNL A   1      43.459  27.366  27.535  1.00  0.00    -0.248 NA
ATOM     38  C   UNL A   1      43.429  25.284  26.483  1.00  0.00     0.031 C 
ATOM     39  C   UNL A   1      39.235  26.746  28.856  1.00  0.00     0.029 A 
ATOM     40  N   UNL A   1      40.975  28.151  28.877  1.00  0.00    -0.354 N 
ATOM     41  C   UNL A   1      44.723  27.090  27.024  1.00  0.00     0.074 A 
ATOM     42  C   UNL A   1      44.661  25.770  26.438  1.00  0.00     0.031 C 
ATOM     43  C   UNL A   1      38.882  27.814  29.590  1.00  0.00     0.029 A 
ATOM     44  C   UNL A   1      40.001  28.751  29.641  1.00  0.00     0.049 A 
ATOM     45  H   UNL A   1      41.856  28.558  28.711  1.00  0.00     0.167 HD
ATOM     46  C   UNL A   1      45.826  27.877  27.012  1.00  0.00     0.034 A 
ATOM     47  C   UNL A   1      40.007  29.923  30.304  1.00  0.00     0.034 A 
ATOM     48  C   UNL A   1      45.869  29.211  27.547  1.00  0.00     0.049 A 
ATOM     49  C   UNL A   1      41.222  30.807  30.218  1.00  0.00     0.074 A 
ATOM     50  C   UNL A   1      46.910  30.123  27.502  1.00  0.00     0.029 A 
ATOM     51  N   UNL A   1      44.828  29.826  28.223  1.00  0.00    -0.354 N 
ATOM     52  N   UNL A   1      42.351  30.597  29.586  1.00  0.00    -0.248 NA
ATOM     53  C   UNL A   1      41.148  32.108  30.900  1.00  0.00     0.031 C 
ATOM     54  C   UNL A   1      46.501  31.284  28.166  1.00  0.00     0.029 A 
ATOM     55  C   UNL A   1      45.200  31.104  28.605  1.00  0.00     0.049 A 
ATOM     56  H   UNL A   1      43.954  29.414  28.406  1.00  0.00     0.167 HD
ATOM     57  C   UNL A   1      43.106  31.752  29.761  1.00  0.00     0.074 A 
ATOM     58  C   UNL A   1      42.296  32.666  30.540  1.00  0.00     0.031 C 
ATOM     59  C   UNL A   1      44.362  32.025  29.329  1.00  0.00     0.034 A 
BRANCH  46  60
ATOM     60  C   UNL A   1      47.064  27.337  26.342  1.00  0.00     0.023 A 
ATOM     61  C   UNL A   1      47.290  27.614  24.979  1.00  0.00     0.012 A 
ATOM     62  C   UNL A   1      48.027  26.608  27.067  1.00  0.00     0.148 A 
ATOM     63  C   UNL A   1      48.436  27.144  24.337  1.00  0.00     0.002 A 
ATOM     64  C   UNL A   1      49.188  26.181  26.432  1.00  0.00     0.091 A 
ATOM     65  F   UNL A   1      47.786  26.335  28.357  1.00  0.00    -0.205 F 
ATOM     66  C   UNL A   1      49.388  26.437  25.066  1.00  0.00     0.022 A 
BRANCH  64  67
ATOM     67  S   UNL A   1      50.512  25.334  27.302  1.00  0.00     0.127 S 
ATOM     68  O   UNL A   1      49.812  24.170  27.843  1.00  0.00    -0.237 OA
ATOM     69  O   UNL A   1      51.450  25.032  26.219  1.00  0.00    -0.237 OA
ATOM     70  O   UNL A   1      51.012  26.279  28.289  1.00  0.00    -0.744 OA
ENDBRANCH  64  67
ENDBRANCH  46  60
BRANCH  47  71
ATOM     71  C   UNL A   1      38.788  30.367  31.039  1.00  0.00     0.023 A 
ATOM     72  C   UNL A   1      38.682  30.106  32.420  1.00  0.00     0.012 A 
ATOM     73  C   UNL A   1      37.754  31.069  30.391  1.00  0.00     0.148 A 
ATOM     74  C   UNL A   1      37.554  30.508  33.136  1.00  0.00     0.002 A 
ATOM     75  C   UNL A   1      36.657  31.514  31.122  1.00  0.00     0.091 A 
ATOM     76  F   UNL A   1      37.867  31.296  29.075  1.00  0.00    -0.205 F 
ATOM     77  C   UNL A   1      36.547  31.220  32.490  1.00  0.00     0.022 A 
BRANCH  75  78
ATOM     78  S   UNL A   1      35.382  32.554  30.400  1.00  0.00     0.127 S 
ATOM     79  O   UNL A   1      35.081  31.840  29.160  1.00  0.00    -0.237 OA
ATOM     80  O   UNL A   1      34.329  32.493  31.416  1.00  0.00    -0.237 OA
ATOM     81  O   UNL A   1      35.989  33.867  30.246  1.00  0.00    -0.744 OA
ENDBRANCH  75  78
ENDBRANCH  47  71
BRANCH  59  82
ATOM     82  C   UNL A   1      44.934  33.381  29.653  1.00  0.00     0.023 A 
ATOM     83  C   UNL A   1      45.697  33.557  30.823  1.00  0.00     0.012 A 
ATOM     84  C   UNL A   1      44.773  34.461  28.763  1.00  0.00     0.148 A 
ATOM     85  C   UNL A   1      46.263  34.796  31.121  1.00  0.00     0.002 A 
ATOM     86  C   UNL A   1      45.380  35.680  29.042  1.00  0.00     0.091 A 
ATOM     87  F   UNL A   1      44.026  34.280  27.664  1.00  0.00    -0.205 F 
ATOM     88  C   UNL A   1      46.115  35.853  30.225  1.00  0.00     0.022 A 
BRANCH  86  89
ATOM     89  S   UNL A   1      45.320  37.063  27.896  1.00  0.00     0.127 S 
ATOM     90  O   UNL A   1      46.002  36.511  26.727  1.00  0.00    -0.237 OA
ATOM     91  O   UNL A   1      43.882  37.266  27.725  1.00  0.00    -0.237 OA
ATOM     92  O   UNL A   1      46.005  38.162  28.564  1.00  0.00    -0.744 OA
ENDBRANCH  86  89
ENDBRANCH  59  82
ENDBRANCH  33  34
ENDBRANCH  25  28
ENDBRANCH  23  24
ENDBRANCH  22  23
ENDBRANCH   1  22
TORSDOF 17
ENDMDL
MODEL 3
REMARK VINA RESULT:     -10.7      4.004      7.259
REMARK SMILES C[C@@H](C(=O)NCCCNC(=O)c1ccc(-c2c3nc(c(-c4cccc(S(=O)(=O)[O-])c4F)c4ccc([nH]4)c(-c4cccc(S(=O)(=O)[O-])c4F)c4nc(c(-c5cccc(S(=O)(=O)[O-])c5F)c5ccc2[nH]5)C=C4)C=C3)cc1)c1ccc(C[C@H]2CCC[C@@H]2O)cc1
REMARK SMILES IDX 6 1 5 2 3 3 4 4 2 6 1 7 75 8 76 9 87 10 77 11 86 12 78 13
REMARK SMILES IDX 79 14 80 15 81 16 84 17 82 18 83 19 85 20 7 22 8 23 9 24
REMARK SMILES IDX 10 25 11 27 12 28 13 29 74 30 14 31 73 32 15 33 16 34 17 35
REMARK SMILES IDX 67 36 18 37 72 38 66 39 68 40 19 41 71 42 65 43 64 44 20 46
REMARK SMILES IDX 52 47 32 48 51 49 33 50 36 51 50 52 69 53 34 54 35 55 49 57
REMARK SMILES IDX 70 58 37 59 21 60 22 61 30 62 23 63 25 64 31 65 24 66 26 67
REMARK SMILES IDX 27 68 28 69 29 70 53 71 54 72 62 73 55 74 57 75 63 76 56 77
REMARK SMILES IDX 58 78 59 79 60 80 61 81 38 82 39 83 47 84 40 85 42 86 48 87
REMARK SMILES IDX 41 88 43 89 44 90 45 91 46 92
REMARK H PARENT 5 5 85 21 9 26 68 45 36 56
REMARK Flexibility Score: inf
ROOT
ATOM      1  C   UNL A   1      32.109  28.747  25.077  1.00  0.00     0.117 C 
ENDROOT
BRANCH   1   2
ATOM      2  N   UNL A   1      30.947  28.250  24.363  1.00  0.00    -0.356 N 
ATOM      3  C   UNL A   1      30.861  27.362  23.328  1.00  0.00     0.227 C 
ATOM      4  O   UNL A   1      29.787  27.343  22.723  1.00  0.00    -0.274 OA
ATOM      5  H   UNL A   1      30.085  28.609  24.673  1.00  0.00     0.163 HD
BRANCH   3   6
ATOM      6  C   UNL A   1      32.072  26.481  22.970  1.00  0.00     0.105 C 
ATOM      7  C   UNL A   1      31.868  25.997  21.525  1.00  0.00     0.023 C 
BRANCH   6   8
ATOM      8  C   UNL A   1      32.346  25.293  23.904  1.00  0.00    -0.036 A 
ATOM      9  C   UNL A   1      33.667  24.857  24.111  1.00  0.00     0.005 A 
ATOM     10  C   UNL A   1      31.332  24.596  24.575  1.00  0.00     0.005 A 
ATOM     11  C   UNL A   1      33.942  23.678  24.806  1.00  0.00     0.004 A 
ATOM     12  C   UNL A   1      31.603  23.402  25.250  1.00  0.00     0.004 A 
ATOM     13  C   UNL A   1      32.903  22.894  25.307  1.00  0.00    -0.048 A 
BRANCH  13  14
ATOM     14  C   UNL A   1      33.162  21.503  25.830  1.00  0.00     0.041 C 
BRANCH  14  15
ATOM     15  C   UNL A   1      32.437  20.368  25.077  1.00  0.00     0.022 C 
ATOM     16  C   UNL A   1      32.359  20.502  23.545  1.00  0.00     0.007 C 
ATOM     17  C   UNL A   1      32.994  18.959  25.303  1.00  0.00     0.117 C 
ATOM     18  C   UNL A   1      32.463  19.077  22.987  1.00  0.00     0.003 C 
ATOM     19  C   UNL A   1      32.339  18.156  24.189  1.00  0.00     0.032 C 
BRANCH  17  20
ATOM     20  O   UNL A   1      32.639  18.467  26.582  1.00  0.00    -0.393 OA
ATOM     21  H   UNL A   1      32.231  19.177  27.100  1.00  0.00     0.210 HD
ENDBRANCH  17  20
ENDBRANCH  14  15
ENDBRANCH  13  14
ENDBRANCH   6   8
ENDBRANCH   3   6
ENDBRANCH   1   2
BRANCH   1  22
ATOM     22  C   UNL A   1      32.378  27.941  26.349  1.00  0.00     0.042 C 
BRANCH  22  23
ATOM     23  C   UNL A   1      33.522  28.470  27.208  1.00  0.00     0.118 C 
BRANCH  23  24
ATOM     24  N   UNL A   1      33.506  29.918  27.327  1.00  0.00    -0.352 N 
ATOM     25  C   UNL A   1      34.429  30.761  27.894  1.00  0.00     0.251 C 
ATOM     26  H   UNL A   1      32.714  30.360  26.944  1.00  0.00     0.163 HD
ATOM     27  O   UNL A   1      34.133  31.943  28.060  1.00  0.00    -0.269 OA
BRANCH  25  28
ATOM     28  C   UNL A   1      35.760  30.264  28.312  1.00  0.00     0.039 A 
ATOM     29  C   UNL A   1      35.887  29.675  29.573  1.00  0.00     0.014 A 
ATOM     30  C   UNL A   1      36.889  30.417  27.501  1.00  0.00     0.014 A 
ATOM     31  C   UNL A   1      37.133  29.212  30.006  1.00  0.00     0.010 A 
ATOM     32  C   UNL A   1      38.114  29.886  27.901  1.00  0.00     0.010 A 
ATOM     33  C   UNL A   1      38.256  29.298  29.167  1.00  0.00    -0.014 A 
BRANCH  33  34
ATOM     34  C   UNL A   1      39.584  28.799  29.609  1.00  0.00     0.031 A 
ATOM     35  C   UNL A   1      40.331  29.500  30.714  1.00  0.00     0.074 A 
ATOM     36  C   UNL A   1      40.149  27.751  28.975  1.00  0.00     0.049 A 
ATOM     37  N   UNL A   1      41.505  29.223  31.219  1.00  0.00    -0.248 NA
ATOM     38  C   UNL A   1      39.688  30.683  31.310  1.00  0.00     0.031 C 
ATOM     39  C   UNL A   1      39.567  27.039  27.837  1.00  0.00     0.029 A 
ATOM     40  N   UNL A   1      41.349  27.120  29.184  1.00  0.00    -0.354 N 
ATOM     41  C   UNL A   1      41.757  30.214  32.162  1.00  0.00     0.074 A 
ATOM     42  C   UNL A   1      40.630  31.118  32.135  1.00  0.00     0.031 C 
ATOM     43  C   UNL A   1      40.408  26.065  27.452  1.00  0.00     0.029 A 
ATOM     44  C   UNL A   1      41.596  26.095  28.300  1.00  0.00     0.049 A 
ATOM     45  H   UNL A   1      41.975  27.375  29.900  1.00  0.00     0.167 HD
ATOM     46  C   UNL A   1      42.815  30.342  33.000  1.00  0.00     0.034 A 
ATOM     47  C   UNL A   1      42.656  25.272  28.188  1.00  0.00     0.034 A 
ATOM     48  C   UNL A   1      43.908  29.410  33.065  1.00  0.00     0.049 A 
ATOM     49  C   UNL A   1      43.786  25.393  29.174  1.00  0.00     0.074 A 
ATOM     50  C   UNL A   1      44.980  29.400  33.941  1.00  0.00     0.029 A 
ATOM     51  N   UNL A   1      44.072  28.323  32.221  1.00  0.00    -0.354 N 
ATOM     52  N   UNL A   1      43.925  26.237  30.169  1.00  0.00    -0.248 NA
ATOM     53  C   UNL A   1      44.884  24.423  29.052  1.00  0.00     0.031 C 
ATOM     54  C   UNL A   1      45.799  28.314  33.616  1.00  0.00     0.029 A 
ATOM     55  C   UNL A   1      45.227  27.635  32.552  1.00  0.00     0.049 A 
ATOM     56  H   UNL A   1      43.457  28.076  31.493  1.00  0.00     0.167 HD
ATOM     57  C   UNL A   1      45.104  25.876  30.812  1.00  0.00     0.074 A 
ATOM     58  C   UNL A   1      45.628  24.723  30.108  1.00  0.00     0.031 C 
ATOM     59  C   UNL A   1      45.706  26.455  31.880  1.00  0.00     0.034 A 
BRANCH  46  60
ATOM     60  C   UNL A   1      42.808  31.502  33.963  1.00  0.00     0.023 A 
ATOM     61  C   UNL A   1      43.345  32.741  33.559  1.00  0.00     0.012 A 
ATOM     62  C   UNL A   1      42.224  31.386  35.240  1.00  0.00     0.148 A 
ATOM     63  C   UNL A   1      43.335  33.837  34.422  1.00  0.00     0.002 A 
ATOM     64  C   UNL A   1      42.177  32.496  36.077  1.00  0.00     0.091 A 
ATOM     65  F   UNL A   1      41.737  30.195  35.616  1.00  0.00    -0.205 F 
ATOM     66  C   UNL A   1      42.743  33.716  35.675  1.00  0.00     0.022 A 
BRANCH  64  67
ATOM     67  S   UNL A   1      41.365  32.465  37.679  1.00  0.00     0.127 S 
ATOM     68  O   UNL A   1      42.209  31.530  38.421  1.00  0.00    -0.237 OA
ATOM     69  O   UNL A   1      41.477  33.860  38.109  1.00  0.00    -0.237 OA
ATOM     70  O   UNL A   1      40.003  32.017  37.429  1.00  0.00    -0.744 OA
ENDBRANCH  64  67
ENDBRANCH  46  60
BRANCH  47  71
ATOM     71  C   UNL A   1      42.658  24.203  27.149  1.00  0.00     0.023 A 
ATOM     72  C   UNL A   1      43.361  24.411  25.946  1.00  0.00     0.012 A 
ATOM     73  C   UNL A   1      42.001  22.975  27.356  1.00  0.00     0.148 A 
ATOM     74  C   UNL A   1      43.382  23.430  24.954  1.00  0.00     0.002 A 
ATOM     75  C   UNL A   1      42.072  21.980  26.386  1.00  0.00     0.091 A 
ATOM     76  F   UNL A   1      41.328  22.799  28.502  1.00  0.00    -0.205 F 
ATOM     77  C   UNL A   1      42.747  22.212  25.178  1.00  0.00     0.022 A 
BRANCH  75  78
ATOM     78  S   UNL A   1      41.399  20.335  26.649  1.00  0.00     0.127 S 
ATOM     79  O   UNL A   1      41.897  19.618  25.476  1.00  0.00    -0.237 OA
ATOM     80  O   UNL A   1      42.025  19.950  27.916  1.00  0.00    -0.237 OA
ATOM     81  O   UNL A   1      39.958  20.509  26.723  1.00  0.00    -0.744 OA
ENDBRANCH  75  78
ENDBRANCH  47  71
BRANCH  59  82
ATOM     82  C   UNL A   1      46.983  25.836  32.384  1.00  0.00     0.023 A 
ATOM     83  C   UNL A   1      48.222  26.283  31.885  1.00  0.00     0.012 A 
ATOM     84  C   UNL A   1      46.958  24.861  33.401  1.00  0.00     0.148 A 
ATOM     85  C   UNL A   1      49.416  25.745  32.367  1.00  0.00     0.002 A 
ATOM     86  C   UNL A   1      48.153  24.364  33.909  1.00  0.00     0.091 A 
ATOM     87  F   UNL A   1      45.768  24.432  33.848  1.00  0.00    -0.205 F 
ATOM     88  C   UNL A   1      49.381  24.795  33.385  1.00  0.00     0.022 A 
BRANCH  86  89
ATOM     89  S   UNL A   1      48.200  23.211  35.286  1.00  0.00     0.127 S 
ATOM     90  O   UNL A   1      47.481  23.952  36.321  1.00  0.00    -0.237 OA
ATOM     91  O   UNL A   1      47.481  22.054  34.752  1.00  0.00    -0.237 OA
ATOM     92  O   UNL A   1      49.612  22.968  35.552  1.00  0.00    -0.744 OA
ENDBRANCH  86  89
ENDBRANCH  59  82
ENDBRANCH  33  34
ENDBRANCH  25  28
ENDBRANCH  23  24
ENDBRANCH  22  23
ENDBRANCH   1  22
TORSDOF 17
ENDMDL
