MODEL 1
REMARK VINA RESULT:     -11.7      0.000      0.000
REMARK SMILES O=C(NCCCNC(=O)[C@H]1C=C[C@@H](NC(=O)[C@@H]2CSC[NH2+]2)C1)c1ccc(-c2c3nc(c(-c4cccc(S(=O)(=O)[O-])c4F)c4ccc([nH]4)c(-c4cccc(S(=O)(=O)[O-])c4F)c4nc(c(-c5cccc(S(=O)(=O)[O-])c5F)c5ccc2[nH]5)C=C4)C=C3)cc1
REMARK SMILES IDX 4 1 3 2 1 3 2 4 23 6 24 7 85 8 25 9 84 10 26 11 27 12 28 13
REMARK SMILES IDX 78 14 29 15 83 16 77 17 79 18 30 19 82 20 76 21 75 22 31 24
REMARK SMILES IDX 63 25 43 26 62 27 44 28 47 29 61 30 80 31 45 32 46 33 60 35
REMARK SMILES IDX 81 36 48 37 32 38 33 39 41 40 34 41 36 42 42 43 35 44 37 45
REMARK SMILES IDX 38 46 39 47 40 48 64 49 65 50 73 51 66 52 68 53 74 54 67 55
REMARK SMILES IDX 69 56 70 57 71 58 72 59 49 60 50 61 58 62 51 63 53 64 59 65
REMARK SMILES IDX 52 66 54 67 55 68 56 69 57 70 5 71 6 72 7 73 8 74 9 76 10 77
REMARK SMILES IDX 11 78 22 79 12 80 13 81 14 82 15 83 16 85 17 86 18 87 21 88
REMARK SMILES IDX 19 89 20 90
REMARK H PARENT 3 5 79 23 47 34 7 75 14 84 21 91 21 92
REMARK Flexibility Score: inf
ROOT
ATOM      1  C   UNL A   1      32.744  32.455  27.229  1.00  0.00     0.118 C 
ENDROOT
BRANCH   1   2
ATOM      2  N   UNL A   1      32.593  33.841  27.654  1.00  0.00    -0.352 N 
ATOM      3  O   UNL A   1      32.719  35.592  29.052  1.00  0.00    -0.269 OA
ATOM      4  C   UNL A   1      33.193  34.513  28.684  1.00  0.00     0.251 C 
ATOM      5  H   UNL A   1      31.962  34.375  27.118  1.00  0.00     0.163 HD
BRANCH   4   6
ATOM      6  C   UNL A   1      34.386  33.955  29.349  1.00  0.00     0.039 A 
ATOM      7  C   UNL A   1      34.253  32.993  30.356  1.00  0.00     0.014 A 
ATOM      8  C   UNL A   1      35.655  34.356  28.925  1.00  0.00     0.014 A 
ATOM      9  C   UNL A   1      35.378  32.528  31.026  1.00  0.00     0.010 A 
ATOM     10  C   UNL A   1      36.788  33.823  29.541  1.00  0.00     0.010 A 
ATOM     11  C   UNL A   1      36.657  32.924  30.610  1.00  0.00    -0.014 A 
BRANCH  11  12
ATOM     12  C   UNL A   1      37.858  32.331  31.245  1.00  0.00     0.031 A 
ATOM     13  C   UNL A   1      38.583  31.188  30.599  1.00  0.00     0.074 A 
ATOM     14  C   UNL A   1      38.250  32.795  32.448  1.00  0.00     0.049 A 
ATOM     15  N   UNL A   1      39.591  30.492  31.054  1.00  0.00    -0.248 NA
ATOM     16  C   UNL A   1      38.105  30.762  29.274  1.00  0.00     0.031 C 
ATOM     17  C   UNL A   1      37.593  33.876  33.185  1.00  0.00     0.029 A 
ATOM     18  N   UNL A   1      39.267  32.395  33.277  1.00  0.00    -0.354 N 
ATOM     19  C   UNL A   1      39.839  29.514  30.099  1.00  0.00     0.074 A 
ATOM     20  C   UNL A   1      38.873  29.707  29.039  1.00  0.00     0.031 C 
ATOM     21  C   UNL A   1      38.209  34.043  34.363  1.00  0.00     0.029 A 
ATOM     22  C   UNL A   1      39.265  33.045  34.488  1.00  0.00     0.049 A 
ATOM     23  H   UNL A   1      39.931  31.712  33.029  1.00  0.00     0.167 HD
ATOM     24  C   UNL A   1      40.790  28.549  30.106  1.00  0.00     0.034 A 
ATOM     25  C   UNL A   1      40.001  32.834  35.597  1.00  0.00     0.034 A 
ATOM     26  C   UNL A   1      41.756  28.383  31.158  1.00  0.00     0.049 A 
ATOM     27  C   UNL A   1      41.052  31.766  35.579  1.00  0.00     0.074 A 
ATOM     28  C   UNL A   1      42.812  27.491  31.224  1.00  0.00     0.029 A 
ATOM     29  N   UNL A   1      41.773  29.110  32.340  1.00  0.00    -0.354 N 
ATOM     30  N   UNL A   1      41.365  30.938  34.612  1.00  0.00    -0.248 NA
ATOM     31  C   UNL A   1      41.876  31.620  36.787  1.00  0.00     0.031 C 
ATOM     32  C   UNL A   1      43.444  27.654  32.461  1.00  0.00     0.029 A 
ATOM     33  C   UNL A   1      42.808  28.676  33.149  1.00  0.00     0.049 A 
ATOM     34  H   UNL A   1      41.142  29.830  32.569  1.00  0.00     0.167 HD
ATOM     35  C   UNL A   1      42.440  30.194  35.079  1.00  0.00     0.074 A 
ATOM     36  C   UNL A   1      42.731  30.676  36.415  1.00  0.00     0.031 C 
ATOM     37  C   UNL A   1      43.118  29.199  34.457  1.00  0.00     0.034 A 
BRANCH  24  38
ATOM     38  C   UNL A   1      40.836  27.606  28.932  1.00  0.00     0.023 A 
ATOM     39  C   UNL A   1      39.930  26.528  28.858  1.00  0.00     0.012 A 
ATOM     40  C   UNL A   1      41.755  27.806  27.882  1.00  0.00     0.148 A 
ATOM     41  C   UNL A   1      39.968  25.640  27.784  1.00  0.00     0.002 A 
ATOM     42  C   UNL A   1      41.756  26.943  26.792  1.00  0.00     0.091 A 
ATOM     43  F   UNL A   1      42.625  28.822  27.976  1.00  0.00    -0.205 F 
ATOM     44  C   UNL A   1      40.874  25.852  26.747  1.00  0.00     0.022 A 
BRANCH  42  45
ATOM     45  S   UNL A   1      42.832  27.187  25.375  1.00  0.00     0.127 S 
ATOM     46  O   UNL A   1      42.673  25.920  24.662  1.00  0.00    -0.237 OA
ATOM     47  O   UNL A   1      42.219  28.339  24.713  1.00  0.00    -0.237 OA
ATOM     48  O   UNL A   1      44.158  27.443  25.923  1.00  0.00    -0.744 OA
ENDBRANCH  42  45
ENDBRANCH  24  38
BRANCH  25  49
ATOM     49  C   UNL A   1      39.757  33.685  36.794  1.00  0.00     0.023 A 
ATOM     50  C   UNL A   1      40.104  35.048  36.761  1.00  0.00     0.012 A 
ATOM     51  C   UNL A   1      39.091  33.168  37.924  1.00  0.00     0.148 A 
ATOM     52  C   UNL A   1      39.800  35.881  37.838  1.00  0.00     0.002 A 
ATOM     53  C   UNL A   1      38.741  34.015  38.967  1.00  0.00     0.091 A 
ATOM     54  F   UNL A   1      38.774  31.866  37.932  1.00  0.00    -0.205 F 
ATOM     55  C   UNL A   1      39.108  35.369  38.934  1.00  0.00     0.022 A 
BRANCH  53  56
ATOM     56  S   UNL A   1      37.724  33.480  40.349  1.00  0.00     0.127 S 
ATOM     57  O   UNL A   1      36.532  32.982  39.667  1.00  0.00    -0.237 OA
ATOM     58  O   UNL A   1      38.565  32.446  40.954  1.00  0.00    -0.237 OA
ATOM     59  O   UNL A   1      37.529  34.660  41.178  1.00  0.00    -0.744 OA
ENDBRANCH  53  56
ENDBRANCH  25  49
BRANCH  37  60
ATOM     60  C   UNL A   1      44.284  28.581  35.183  1.00  0.00     0.023 A 
ATOM     61  C   UNL A   1      45.584  29.086  34.987  1.00  0.00     0.012 A 
ATOM     62  C   UNL A   1      44.066  27.578  36.147  1.00  0.00     0.148 A 
ATOM     63  C   UNL A   1      46.653  28.590  35.732  1.00  0.00     0.002 A 
ATOM     64  C   UNL A   1      45.126  27.123  36.919  1.00  0.00     0.091 A 
ATOM     65  F   UNL A   1      42.822  27.100  36.301  1.00  0.00    -0.205 F 
ATOM     66  C   UNL A   1      46.422  27.621  36.706  1.00  0.00     0.022 A 
BRANCH  64  67
ATOM     67  S   UNL A   1      44.909  25.954  38.266  1.00  0.00     0.127 S 
ATOM     68  O   UNL A   1      46.283  25.786  38.739  1.00  0.00    -0.237 OA
ATOM     69  O   UNL A   1      44.035  26.692  39.176  1.00  0.00    -0.237 OA
ATOM     70  O   UNL A   1      44.307  24.765  37.676  1.00  0.00    -0.744 OA
ENDBRANCH  64  67
ENDBRANCH  37  60
ENDBRANCH  11  12
ENDBRANCH   4   6
ENDBRANCH   1   2
BRANCH   1  71
ATOM     71  C   UNL A   1      31.503  31.946  26.508  1.00  0.00     0.042 C 
BRANCH  71  72
ATOM     72  C   UNL A   1      31.577  30.463  26.172  1.00  0.00     0.117 C 
BRANCH  72  73
ATOM     73  N   UNL A   1      31.290  30.201  24.774  1.00  0.00    -0.356 N 
ATOM     74  C   UNL A   1      31.093  29.027  24.115  1.00  0.00     0.227 C 
ATOM     75  H   UNL A   1      31.228  31.005  24.209  1.00  0.00     0.163 HD
ATOM     76  O   UNL A   1      30.914  29.081  22.895  1.00  0.00    -0.274 OA
BRANCH  74  77
ATOM     77  C   UNL A   1      31.051  27.679  24.837  1.00  0.00     0.103 C 
ATOM     78  C   UNL A   1      30.049  26.709  24.290  1.00  0.00    -0.016 C 
ATOM     79  C   UNL A   1      32.379  26.911  24.794  1.00  0.00     0.047 C 
ATOM     80  C   UNL A   1      30.579  25.493  24.123  1.00  0.00    -0.006 C 
ATOM     81  C   UNL A   1      32.011  25.440  24.540  1.00  0.00     0.106 C 
BRANCH  81  82
ATOM     82  N   UNL A   1      32.781  24.857  23.464  1.00  0.00    -0.345 N 
ATOM     83  C   UNL A   1      33.406  23.643  23.395  1.00  0.00     0.279 C 
ATOM     84  H   UNL A   1      32.869  25.419  22.661  1.00  0.00     0.164 HD
ATOM     85  O   UNL A   1      34.084  23.401  22.396  1.00  0.00    -0.268 OA
BRANCH  83  86
ATOM     86  C   UNL A   1      33.287  22.676  24.583  1.00  0.00     0.283 C 
ATOM     87  C   UNL A   1      34.564  21.833  24.661  1.00  0.00     0.150 C 
ATOM     88  N   UNL A   1      32.056  21.842  24.478  1.00  0.00    -0.327 N 
ATOM     89  S   UNL A   1      33.992  20.129  24.792  1.00  0.00    -0.096 SA
ATOM     90  C   UNL A   1      32.442  20.532  23.974  1.00  0.00     0.333 C 
ATOM     91  H   UNL A   1      31.396  22.279  23.837  1.00  0.00     0.347 HD
ATOM     92  H   UNL A   1      31.611  21.752  25.391  1.00  0.00     0.347 HD
ENDBRANCH  83  86
ENDBRANCH  81  82
ENDBRANCH  74  77
ENDBRANCH  72  73
ENDBRANCH  71  72
ENDBRANCH   1  71
TORSDOF 15
ENDMDL
MODEL 2
REMARK VINA RESULT:     -11.7      3.883      9.122
REMARK SMILES O=C(NCCCNC(=O)[C@H]1C=C[C@@H](NC(=O)[C@@H]2CSC[NH2+]2)C1)c1ccc(-c2c3nc(c(-c4cccc(S(=O)(=O)[O-])c4F)c4ccc([nH]4)c(-c4cccc(S(=O)(=O)[O-])c4F)c4nc(c(-c5cccc(S(=O)(=O)[O-])c5F)c5ccc2[nH]5)C=C4)C=C3)cc1
REMARK SMILES IDX 4 1 3 2 1 3 2 4 23 6 24 7 85 8 25 9 84 10 26 11 27 12 28 13
REMARK SMILES IDX 78 14 29 15 83 16 77 17 79 18 30 19 82 20 76 21 75 22 31 24
REMARK SMILES IDX 63 25 43 26 62 27 44 28 47 29 61 30 80 31 45 32 46 33 60 35
REMARK SMILES IDX 81 36 48 37 32 38 33 39 41 40 34 41 36 42 42 43 35 44 37 45
REMARK SMILES IDX 38 46 39 47 40 48 64 49 65 50 73 51 66 52 68 53 74 54 67 55
REMARK SMILES IDX 69 56 70 57 71 58 72 59 49 60 50 61 58 62 51 63 53 64 59 65
REMARK SMILES IDX 52 66 54 67 55 68 56 69 57 70 5 71 6 72 7 73 8 74 9 76 10 77
REMARK SMILES IDX 11 78 22 79 12 80 13 81 14 82 15 83 16 85 17 86 18 87 21 88
REMARK SMILES IDX 19 89 20 90
REMARK H PARENT 3 5 79 23 47 34 7 75 14 84 21 91 21 92
REMARK Flexibility Score: inf
ROOT
ATOM      1  C   UNL A   1      33.528  28.359  27.123  1.00  0.00     0.118 C 
ENDROOT
BRANCH   1   2
ATOM      2  N   UNL A   1      33.584  29.814  27.061  1.00  0.00    -0.352 N 
ATOM      3  O   UNL A   1      34.182  31.882  27.697  1.00  0.00    -0.269 OA
ATOM      4  C   UNL A   1      34.472  30.683  27.634  1.00  0.00     0.251 C 
ATOM      5  H   UNL A   1      32.874  30.236  26.524  1.00  0.00     0.163 HD
BRANCH   4   6
ATOM      6  C   UNL A   1      35.755  30.196  28.173  1.00  0.00     0.039 A 
ATOM      7  C   UNL A   1      35.830  29.682  29.472  1.00  0.00     0.014 A 
ATOM      8  C   UNL A   1      36.887  30.201  27.354  1.00  0.00     0.014 A 
ATOM      9  C   UNL A   1      37.058  29.294  29.996  1.00  0.00     0.010 A 
ATOM     10  C   UNL A   1      38.101  29.730  27.854  1.00  0.00     0.010 A 
ATOM     11  C   UNL A   1      38.201  29.295  29.185  1.00  0.00    -0.014 A 
BRANCH  11  12
ATOM     12  C   UNL A   1      39.482  28.765  29.709  1.00  0.00     0.031 A 
ATOM     13  C   UNL A   1      40.209  29.470  30.815  1.00  0.00     0.074 A 
ATOM     14  C   UNL A   1      40.016  27.672  29.128  1.00  0.00     0.049 A 
ATOM     15  N   UNL A   1      41.378  29.200  31.333  1.00  0.00    -0.248 NA
ATOM     16  C   UNL A   1      39.542  30.638  31.410  1.00  0.00     0.031 C 
ATOM     17  C   UNL A   1      39.413  26.933  28.018  1.00  0.00     0.029 A 
ATOM     18  N   UNL A   1      41.198  27.018  29.364  1.00  0.00    -0.354 N 
ATOM     19  C   UNL A   1      41.613  30.191  32.278  1.00  0.00     0.074 A 
ATOM     20  C   UNL A   1      40.463  31.069  32.261  1.00  0.00     0.031 C 
ATOM     21  C   UNL A   1      40.234  25.938  27.655  1.00  0.00     0.029 A 
ATOM     22  C   UNL A   1      41.444  26.006  28.467  1.00  0.00     0.049 A 
ATOM     23  H   UNL A   1      41.808  27.250  30.101  1.00  0.00     0.167 HD
ATOM     24  C   UNL A   1      42.688  30.347  33.088  1.00  0.00     0.034 A 
ATOM     25  C   UNL A   1      42.539  25.242  28.285  1.00  0.00     0.034 A 
ATOM     26  C   UNL A   1      43.814  29.452  33.107  1.00  0.00     0.049 A 
ATOM     27  C   UNL A   1      43.713  25.427  29.198  1.00  0.00     0.074 A 
ATOM     28  C   UNL A   1      44.915  29.474  33.944  1.00  0.00     0.029 A 
ATOM     29  N   UNL A   1      43.997  28.390  32.234  1.00  0.00    -0.354 N 
ATOM     30  N   UNL A   1      43.862  26.283  30.179  1.00  0.00    -0.248 NA
ATOM     31  C   UNL A   1      44.857  24.526  29.006  1.00  0.00     0.031 C 
ATOM     32  C   UNL A   1      45.780  28.446  33.554  1.00  0.00     0.029 A 
ATOM     33  C   UNL A   1      45.199  27.758  32.499  1.00  0.00     0.049 A 
ATOM     34  H   UNL A   1      43.363  28.123  31.529  1.00  0.00     0.167 HD
ATOM     35  C   UNL A   1      45.101  26.005  30.744  1.00  0.00     0.074 A 
ATOM     36  C   UNL A   1      45.658  24.894  29.998  1.00  0.00     0.031 C 
ATOM     37  C   UNL A   1      45.718  26.620  31.781  1.00  0.00     0.034 A 
BRANCH  24  38
ATOM     38  C   UNL A   1      42.688  31.523  34.028  1.00  0.00     0.023 A 
ATOM     39  C   UNL A   1      43.252  32.750  33.622  1.00  0.00     0.012 A 
ATOM     40  C   UNL A   1      42.098  31.426  35.305  1.00  0.00     0.148 A 
ATOM     41  C   UNL A   1      43.271  33.845  34.486  1.00  0.00     0.002 A 
ATOM     42  C   UNL A   1      42.080  32.535  36.143  1.00  0.00     0.091 A 
ATOM     43  F   UNL A   1      41.584  30.248  35.686  1.00  0.00    -0.205 F 
ATOM     44  C   UNL A   1      42.677  33.741  35.741  1.00  0.00     0.022 A 
BRANCH  42  45
ATOM     45  S   UNL A   1      41.265  32.516  37.744  1.00  0.00     0.127 S 
ATOM     46  O   UNL A   1      42.112  31.590  38.494  1.00  0.00    -0.237 OA
ATOM     47  O   UNL A   1      41.370  33.914  38.164  1.00  0.00    -0.237 OA
ATOM     48  O   UNL A   1      39.903  32.065  37.490  1.00  0.00    -0.744 OA
ENDBRANCH  42  45
ENDBRANCH  24  38
BRANCH  25  49
ATOM     49  C   UNL A   1      42.535  24.227  27.196  1.00  0.00     0.023 A 
ATOM     50  C   UNL A   1      43.210  24.497  25.992  1.00  0.00     0.012 A 
ATOM     51  C   UNL A   1      41.952  22.959  27.393  1.00  0.00     0.148 A 
ATOM     52  C   UNL A   1      43.296  23.523  24.996  1.00  0.00     0.002 A 
ATOM     53  C   UNL A   1      42.091  21.977  26.422  1.00  0.00     0.091 A 
ATOM     54  F   UNL A   1      41.314  22.728  28.549  1.00  0.00    -0.205 F 
ATOM     55  C   UNL A   1      42.749  22.261  25.216  1.00  0.00     0.022 A 
BRANCH  53  56
ATOM     56  S   UNL A   1      41.551  20.281  26.676  1.00  0.00     0.127 S 
ATOM     57  O   UNL A   1      41.954  19.649  25.423  1.00  0.00    -0.237 OA
ATOM     58  O   UNL A   1      42.339  19.891  27.846  1.00  0.00    -0.237 OA
ATOM     59  O   UNL A   1      40.116  20.354  26.913  1.00  0.00    -0.744 OA
ENDBRANCH  53  56
ENDBRANCH  25  49
BRANCH  37  60
ATOM     60  C   UNL A   1      47.055  26.085  32.221  1.00  0.00     0.023 A 
ATOM     61  C   UNL A   1      47.133  25.190  33.306  1.00  0.00     0.012 A 
ATOM     62  C   UNL A   1      48.216  26.383  31.481  1.00  0.00     0.148 A 
ATOM     63  C   UNL A   1      48.352  24.608  33.654  1.00  0.00     0.002 A 
ATOM     64  C   UNL A   1      49.416  25.763  31.803  1.00  0.00     0.091 A 
ATOM     65  F   UNL A   1      48.119  27.254  30.466  1.00  0.00    -0.205 F 
ATOM     66  C   UNL A   1      49.488  24.883  32.895  1.00  0.00     0.022 A 
BRANCH  64  67
ATOM     67  S   UNL A   1      50.906  25.975  30.822  1.00  0.00     0.127 S 
ATOM     68  O   UNL A   1      50.490  25.434  29.529  1.00  0.00    -0.237 OA
ATOM     69  O   UNL A   1      51.088  27.426  30.847  1.00  0.00    -0.237 OA
ATOM     70  O   UNL A   1      51.949  25.221  31.503  1.00  0.00    -0.744 OA
ENDBRANCH  64  67
ENDBRANCH  37  60
ENDBRANCH  11  12
ENDBRANCH   4   6
ENDBRANCH   1   2
BRANCH   1  71
ATOM     71  C   UNL A   1      33.683  27.728  25.746  1.00  0.00     0.042 C 
BRANCH  71  72
ATOM     72  C   UNL A   1      32.381  27.153  25.205  1.00  0.00     0.117 C 
BRANCH  72  73
ATOM     73  N   UNL A   1      31.725  26.282  26.163  1.00  0.00    -0.356 N 
ATOM     74  C   UNL A   1      31.873  24.951  26.397  1.00  0.00     0.227 C 
ATOM     75  H   UNL A   1      31.063  26.730  26.739  1.00  0.00     0.163 HD
ATOM     76  O   UNL A   1      31.142  24.436  27.249  1.00  0.00    -0.274 OA
BRANCH  74  77
ATOM     77  C   UNL A   1      32.923  24.104  25.676  1.00  0.00     0.103 C 
ATOM     78  C   UNL A   1      34.059  23.649  26.539  1.00  0.00    -0.016 C 
ATOM     79  C   UNL A   1      32.366  22.806  25.075  1.00  0.00     0.047 C 
ATOM     80  C   UNL A   1      34.319  22.349  26.369  1.00  0.00    -0.006 C 
ATOM     81  C   UNL A   1      33.416  21.720  25.361  1.00  0.00     0.106 C 
BRANCH  81  82
ATOM     82  N   UNL A   1      32.834  20.531  25.943  1.00  0.00    -0.345 N 
ATOM     83  C   UNL A   1      32.948  19.224  25.557  1.00  0.00     0.279 C 
ATOM     84  H   UNL A   1      32.273  20.686  26.736  1.00  0.00     0.164 HD
ATOM     85  O   UNL A   1      32.280  18.385  26.164  1.00  0.00    -0.268 OA
BRANCH  83  86
ATOM     86  C   UNL A   1      33.841  18.878  24.356  1.00  0.00     0.283 C 
ATOM     87  C   UNL A   1      33.053  17.974  23.401  1.00  0.00     0.150 C 
ATOM     88  N   UNL A   1      35.124  18.261  24.799  1.00  0.00    -0.327 N 
ATOM     89  S   UNL A   1      34.150  16.586  23.061  1.00  0.00    -0.096 SA
ATOM     90  C   UNL A   1      35.017  16.821  24.618  1.00  0.00     0.333 C 
ATOM     91  H   UNL A   1      35.290  18.476  25.782  1.00  0.00     0.347 HD
ATOM     92  H   UNL A   1      35.901  18.630  24.251  1.00  0.00     0.347 HD
ENDBRANCH  83  86
ENDBRANCH  81  82
ENDBRANCH  74  77
ENDBRANCH  72  73
ENDBRANCH  71  72
ENDBRANCH   1  71
TORSDOF 15
ENDMDL
MODEL 3
REMARK VINA RESULT:     -11.6      6.694     11.610
REMARK SMILES O=C(NCCCNC(=O)[C@H]1C=C[C@@H](NC(=O)[C@@H]2CSC[NH2+]2)C1)c1ccc(-c2c3nc(c(-c4cccc(S(=O)(=O)[O-])c4F)c4ccc([nH]4)c(-c4cccc(S(=O)(=O)[O-])c4F)c4nc(c(-c5cccc(S(=O)(=O)[O-])c5F)c5ccc2[nH]5)C=C4)C=C3)cc1
REMARK SMILES IDX 4 1 3 2 1 3 2 4 23 6 24 7 85 8 25 9 84 10 26 11 27 12 28 13
REMARK SMILES IDX 78 14 29 15 83 16 77 17 79 18 30 19 82 20 76 21 75 22 31 24
REMARK SMILES IDX 63 25 43 26 62 27 44 28 47 29 61 30 80 31 45 32 46 33 60 35
REMARK SMILES IDX 81 36 48 37 32 38 33 39 41 40 34 41 36 42 42 43 35 44 37 45
REMARK SMILES IDX 38 46 39 47 40 48 64 49 65 50 73 51 66 52 68 53 74 54 67 55
REMARK SMILES IDX 69 56 70 57 71 58 72 59 49 60 50 61 58 62 51 63 53 64 59 65
REMARK SMILES IDX 52 66 54 67 55 68 56 69 57 70 5 71 6 72 7 73 8 74 9 76 10 77
REMARK SMILES IDX 11 78 22 79 12 80 13 81 14 82 15 83 16 85 17 86 18 87 21 88
REMARK SMILES IDX 19 89 20 90
REMARK H PARENT 3 5 79 23 47 34 7 75 14 84 21 91 21 92
REMARK Flexibility Score: inf
ROOT
ATOM      1  C   UNL A   1      39.169  19.970  26.272  1.00  0.00     0.118 C 
ENDROOT
BRANCH   1   2
ATOM      2  N   UNL A   1      40.397  19.208  26.078  1.00  0.00    -0.352 N 
ATOM      3  O   UNL A   1      42.543  18.869  25.517  1.00  0.00    -0.269 OA
ATOM      4  C   UNL A   1      41.689  19.644  25.958  1.00  0.00     0.251 C 
ATOM      5  H   UNL A   1      40.279  18.232  26.026  1.00  0.00     0.163 HD
BRANCH   4   6
ATOM      6  C   UNL A   1      42.056  21.018  26.346  1.00  0.00     0.039 A 
ATOM      7  C   UNL A   1      42.312  21.333  27.685  1.00  0.00     0.014 A 
ATOM      8  C   UNL A   1      42.200  21.993  25.356  1.00  0.00     0.014 A 
ATOM      9  C   UNL A   1      42.585  22.647  28.050  1.00  0.00     0.010 A 
ATOM     10  C   UNL A   1      42.559  23.292  25.715  1.00  0.00     0.010 A 
ATOM     11  C   UNL A   1      42.732  23.634  27.066  1.00  0.00    -0.014 A 
BRANCH  11  12
ATOM     12  C   UNL A   1      43.144  25.005  27.448  1.00  0.00     0.031 A 
ATOM     13  C   UNL A   1      42.171  25.948  28.091  1.00  0.00     0.074 A 
ATOM     14  C   UNL A   1      44.393  25.413  27.147  1.00  0.00     0.049 A 
ATOM     15  N   UNL A   1      42.333  27.206  28.408  1.00  0.00    -0.248 NA
ATOM     16  C   UNL A   1      40.838  25.413  28.410  1.00  0.00     0.031 C 
ATOM     17  C   UNL A   1      45.407  24.591  26.485  1.00  0.00     0.029 A 
ATOM     18  N   UNL A   1      45.008  26.626  27.323  1.00  0.00    -0.354 N 
ATOM     19  C   UNL A   1      41.111  27.630  28.915  1.00  0.00     0.074 A 
ATOM     20  C   UNL A   1      40.217  26.493  28.863  1.00  0.00     0.031 C 
ATOM     21  C   UNL A   1      46.511  25.325  26.293  1.00  0.00     0.029 A 
ATOM     22  C   UNL A   1      46.263  26.682  26.765  1.00  0.00     0.049 A 
ATOM     23  H   UNL A   1      44.592  27.380  27.800  1.00  0.00     0.167 HD
ATOM     24  C   UNL A   1      40.771  28.854  29.386  1.00  0.00     0.034 A 
ATOM     25  C   UNL A   1      47.107  27.720  26.609  1.00  0.00     0.034 A 
ATOM     26  C   UNL A   1      41.678  29.968  29.450  1.00  0.00     0.049 A 
ATOM     27  C   UNL A   1      46.713  29.064  27.145  1.00  0.00     0.074 A 
ATOM     28  C   UNL A   1      41.459  31.226  29.984  1.00  0.00     0.029 A 
ATOM     29  N   UNL A   1      42.970  29.968  28.944  1.00  0.00    -0.354 N 
ATOM     30  N   UNL A   1      45.603  29.414  27.747  1.00  0.00    -0.248 NA
ATOM     31  C   UNL A   1      47.694  30.149  27.012  1.00  0.00     0.031 C 
ATOM     32  C   UNL A   1      42.606  31.996  29.769  1.00  0.00     0.029 A 
ATOM     33  C   UNL A   1      43.555  31.207  29.136  1.00  0.00     0.049 A 
ATOM     34  H   UNL A   1      43.407  29.199  28.513  1.00  0.00     0.167 HD
ATOM     35  C   UNL A   1      45.761  30.749  28.095  1.00  0.00     0.074 A 
ATOM     36  C   UNL A   1      47.081  31.143  27.642  1.00  0.00     0.031 C 
ATOM     37  C   UNL A   1      44.889  31.571  28.726  1.00  0.00     0.034 A 
BRANCH  24  38
ATOM     38  C   UNL A   1      39.361  29.045  29.880  1.00  0.00     0.023 A 
ATOM     39  C   UNL A   1      39.020  28.672  31.197  1.00  0.00     0.012 A 
ATOM     40  C   UNL A   1      38.379  29.626  29.053  1.00  0.00     0.148 A 
ATOM     41  C   UNL A   1      37.716  28.832  31.665  1.00  0.00     0.002 A 
ATOM     42  C   UNL A   1      37.093  29.824  29.543  1.00  0.00     0.091 A 
ATOM     43  F   UNL A   1      38.712  29.956  27.797  1.00  0.00    -0.205 F 
ATOM     44  C   UNL A   1      36.756  29.416  30.842  1.00  0.00     0.022 A 
BRANCH  42  45
ATOM     45  S   UNL A   1      35.815  30.643  28.582  1.00  0.00     0.127 S 
ATOM     46  O   UNL A   1      35.200  29.513  27.886  1.00  0.00    -0.237 OA
ATOM     47  O   UNL A   1      34.980  31.244  29.622  1.00  0.00    -0.237 OA
ATOM     48  O   UNL A   1      36.510  31.605  27.736  1.00  0.00    -0.744 OA
ENDBRANCH  42  45
ENDBRANCH  24  38
BRANCH  25  49
ATOM     49  C   UNL A   1      48.411  27.491  25.927  1.00  0.00     0.023 A 
ATOM     50  C   UNL A   1      49.509  27.020  26.669  1.00  0.00     0.012 A 
ATOM     51  C   UNL A   1      48.533  27.644  24.531  1.00  0.00     0.148 A 
ATOM     52  C   UNL A   1      50.712  26.712  26.032  1.00  0.00     0.002 A 
ATOM     53  C   UNL A   1      49.713  27.282  23.897  1.00  0.00     0.091 A 
ATOM     54  F   UNL A   1      47.472  28.097  23.849  1.00  0.00    -0.205 F 
ATOM     55  C   UNL A   1      50.810  26.830  24.647  1.00  0.00     0.022 A 
BRANCH  53  56
ATOM     56  S   UNL A   1      49.884  27.259  22.109  1.00  0.00     0.127 S 
ATOM     57  O   UNL A   1      51.251  26.772  21.945  1.00  0.00    -0.237 OA
ATOM     58  O   UNL A   1      48.840  26.310  21.723  1.00  0.00    -0.237 OA
ATOM     59  O   UNL A   1      49.647  28.627  21.670  1.00  0.00    -0.744 OA
ENDBRANCH  53  56
ENDBRANCH  25  49
BRANCH  37  60
ATOM     60  C   UNL A   1      45.335  32.978  29.021  1.00  0.00     0.023 A 
ATOM     61  C   UNL A   1      46.066  33.255  30.192  1.00  0.00     0.012 A 
ATOM     62  C   UNL A   1      45.128  34.000  28.073  1.00  0.00     0.148 A 
ATOM     63  C   UNL A   1      46.573  34.534  30.422  1.00  0.00     0.002 A 
ATOM     64  C   UNL A   1      45.677  35.257  28.285  1.00  0.00     0.091 A 
ATOM     65  F   UNL A   1      44.413  33.716  26.975  1.00  0.00    -0.205 F 
ATOM     66  C   UNL A   1      46.392  35.529  29.463  1.00  0.00     0.022 A 
BRANCH  64  67
ATOM     67  S   UNL A   1      45.585  36.570  27.062  1.00  0.00     0.127 S 
ATOM     68  O   UNL A   1      46.316  37.648  27.726  1.00  0.00    -0.237 OA
ATOM     69  O   UNL A   1      46.277  35.976  25.919  1.00  0.00    -0.237 OA
ATOM     70  O   UNL A   1      44.166  36.824  26.847  1.00  0.00    -0.744 OA
ENDBRANCH  64  67
ENDBRANCH  37  60
ENDBRANCH  11  12
ENDBRANCH   4   6
ENDBRANCH   1   2
BRANCH   1  71
ATOM     71  C   UNL A   1      38.377  20.104  24.978  1.00  0.00     0.042 C 
BRANCH  71  72
ATOM     72  C   UNL A   1      37.132  20.965  25.130  1.00  0.00     0.117 C 
BRANCH  72  73
ATOM     73  N   UNL A   1      36.997  21.931  24.055  1.00  0.00    -0.356 N 
ATOM     74  C   UNL A   1      35.896  22.560  23.562  1.00  0.00     0.227 C 
ATOM     75  H   UNL A   1      37.841  22.171  23.609  1.00  0.00     0.163 HD
ATOM     76  O   UNL A   1      36.052  23.309  22.592  1.00  0.00    -0.274 OA
BRANCH  74  77
ATOM     77  C   UNL A   1      34.510  22.396  24.187  1.00  0.00     0.103 C 
ATOM     78  C   UNL A   1      33.388  22.973  23.379  1.00  0.00    -0.016 C 
ATOM     79  C   UNL A   1      34.099  20.934  24.410  1.00  0.00     0.047 C 
ATOM     80  C   UNL A   1      32.364  22.120  23.277  1.00  0.00    -0.006 C 
ATOM     81  C   UNL A   1      32.619  20.843  24.006  1.00  0.00     0.106 C 
BRANCH  81  82
ATOM     82  N   UNL A   1      32.359  19.740  23.106  1.00  0.00    -0.345 N 
ATOM     83  C   UNL A   1      32.553  18.400  23.288  1.00  0.00     0.279 C 
ATOM     84  H   UNL A   1      31.988  19.995  22.231  1.00  0.00     0.164 HD
ATOM     85  O   UNL A   1      32.338  17.652  22.333  1.00  0.00    -0.268 OA
BRANCH  83  86
ATOM     86  C   UNL A   1      33.087  17.902  24.640  1.00  0.00     0.283 C 
ATOM     87  C   UNL A   1      34.551  17.482  24.466  1.00  0.00     0.150 C 
ATOM     88  N   UNL A   1      32.238  16.805  25.184  1.00  0.00    -0.327 N 
ATOM     89  S   UNL A   1      34.656  15.842  25.205  1.00  0.00    -0.096 SA
ATOM     90  C   UNL A   1      32.907  15.541  24.914  1.00  0.00     0.333 C 
ATOM     91  H   UNL A   1      31.325  16.817  24.732  1.00  0.00     0.347 HD
ATOM     92  H   UNL A   1      32.104  16.927  26.188  1.00  0.00     0.347 HD
ENDBRANCH  83  86
ENDBRANCH  81  82
ENDBRANCH  74  77
ENDBRANCH  72  73
ENDBRANCH  71  72
ENDBRANCH   1  71
TORSDOF 15
ENDMDL
