MODEL 1
REMARK VINA RESULT:     -12.0      0.000      0.000
REMARK SMILES O=C(C[C@H]1CN(c2nc(C3CC3)ns2)CCO1)NCCCNC(=O)c1ccc(-c2c3nc(c(-c4cccc(S(=O)(=O)[O-])c4F)c4ccc([nH]4)c(-c4cccc(S(=O)(=O)[O-])c4F)c4nc(c(-c5cccc(S(=O)(=O)[O-])c5F)c5ccc2[nH]5)C=C4)C=C3)cc1
REMARK SMILES IDX 20 1 19 2 18 3 1 4 2 5 3 7 4 8 5 9 17 10 6 11 16 12 15 13
REMARK SMILES IDX 7 14 8 15 14 16 9 17 13 18 10 19 11 20 12 21 21 22 22 23
REMARK SMILES IDX 23 24 24 26 25 27 26 28 87 29 27 30 86 31 28 32 29 33 30 34
REMARK SMILES IDX 80 35 31 36 85 37 79 38 81 39 32 40 84 41 78 42 77 43 33 45
REMARK SMILES IDX 65 46 45 47 64 48 46 49 49 50 63 51 82 52 47 53 48 54 62 56
REMARK SMILES IDX 83 57 50 58 34 59 35 60 43 61 36 62 38 63 44 64 37 65 39 66
REMARK SMILES IDX 40 67 41 68 42 69 66 70 67 71 75 72 68 73 70 74 76 75 69 76
REMARK SMILES IDX 71 77 72 78 73 79 74 80 51 81 52 82 60 83 53 84 55 85 61 86
REMARK SMILES IDX 54 87 56 88 57 89 58 90 59 91
REMARK H PARENT 18 6 22 25 81 44 49 55
REMARK Flexibility Score: inf
ROOT
ATOM      1  C   UNL A   1      33.556  29.140  23.954  1.00  0.00     0.042 C 
ENDROOT
BRANCH   1   2
ATOM      2  C   UNL A   1      32.683  28.356  22.987  1.00  0.00     0.117 C 
BRANCH   2   3
ATOM      3  N   UNL A   1      32.499  26.977  23.383  1.00  0.00    -0.356 N 
ATOM      4  O   UNL A   1      34.027  26.099  21.920  1.00  0.00    -0.275 OA
ATOM      5  C   UNL A   1      33.249  25.953  22.857  1.00  0.00     0.222 C 
ATOM      6  H   UNL A   1      31.810  26.764  24.053  1.00  0.00     0.163 HD
BRANCH   5   7
ATOM      7  C   UNL A   1      33.021  24.601  23.495  1.00  0.00     0.133 C 
BRANCH   7   8
ATOM      8  C   UNL A   1      31.752  24.419  24.349  1.00  0.00     0.147 C 
ATOM      9  C   UNL A   1      31.244  22.961  24.365  1.00  0.00     0.151 C 
ATOM     10  O   UNL A   1      31.803  24.973  25.680  1.00  0.00    -0.374 OA
ATOM     11  N   UNL A   1      31.951  22.159  25.359  1.00  0.00    -0.342 N 
ATOM     12  C   UNL A   1      32.559  24.167  26.603  1.00  0.00     0.182 C 
ATOM     13  C   UNL A   1      32.024  22.731  26.698  1.00  0.00     0.147 C 
BRANCH  11  14
ATOM     14  C   UNL A   1      32.666  21.070  24.987  1.00  0.00     0.205 A 
ATOM     15  N   UNL A   1      32.153  19.950  24.530  1.00  0.00    -0.203 NA
ATOM     16  S   UNL A   1      34.391  20.941  25.130  1.00  0.00     0.004 S 
ATOM     17  C   UNL A   1      33.174  19.038  24.298  1.00  0.00     0.147 A 
ATOM     18  N   UNL A   1      34.428  19.354  24.626  1.00  0.00    -0.174 NA
BRANCH  17  19
ATOM     19  C   UNL A   1      32.890  17.676  23.665  1.00  0.00     0.059 C 
ATOM     20  C   UNL A   1      34.044  16.803  23.217  1.00  0.00     0.012 C 
ATOM     21  C   UNL A   1      33.277  16.434  24.442  1.00  0.00     0.012 C 
ENDBRANCH  17  19
ENDBRANCH  11  14
ENDBRANCH   7   8
ENDBRANCH   5   7
ENDBRANCH   2   3
ENDBRANCH   1   2
BRANCH   1  22
ATOM     22  C   UNL A   1      33.059  29.141  25.394  1.00  0.00     0.118 C 
BRANCH  22  23
ATOM     23  N   UNL A   1      32.677  30.463  25.872  1.00  0.00    -0.352 N 
ATOM     24  C   UNL A   1      33.205  31.234  26.877  1.00  0.00     0.251 C 
ATOM     25  H   UNL A   1      31.914  30.868  25.399  1.00  0.00     0.163 HD
ATOM     26  O   UNL A   1      32.629  32.273  27.195  1.00  0.00    -0.269 OA
BRANCH  24  27
ATOM     27  C   UNL A   1      34.442  30.830  27.587  1.00  0.00     0.039 A 
ATOM     28  C   UNL A   1      35.474  31.767  27.714  1.00  0.00     0.014 A 
ATOM     29  C   UNL A   1      34.617  29.538  28.088  1.00  0.00     0.014 A 
ATOM     30  C   UNL A   1      36.657  31.418  28.372  1.00  0.00     0.010 A 
ATOM     31  C   UNL A   1      35.760  29.221  28.821  1.00  0.00     0.010 A 
ATOM     32  C   UNL A   1      36.804  30.147  28.951  1.00  0.00    -0.014 A 
BRANCH  32  33
ATOM     33  C   UNL A   1      38.054  29.774  29.667  1.00  0.00     0.031 A 
ATOM     34  C   UNL A   1      38.343  30.326  31.040  1.00  0.00     0.074 A 
ATOM     35  C   UNL A   1      38.956  28.973  29.066  1.00  0.00     0.049 A 
ATOM     36  N   UNL A   1      39.367  30.098  31.822  1.00  0.00    -0.248 NA
ATOM     37  C   UNL A   1      37.369  31.279  31.599  1.00  0.00     0.031 C 
ATOM     38  C   UNL A   1      38.842  28.441  27.706  1.00  0.00     0.029 A 
ATOM     39  N   UNL A   1      40.154  28.476  29.515  1.00  0.00    -0.354 N 
ATOM     40  C   UNL A   1      39.179  30.898  32.943  1.00  0.00     0.074 A 
ATOM     41  C   UNL A   1      37.964  31.652  32.722  1.00  0.00     0.031 C 
ATOM     42  C   UNL A   1      39.916  27.681  27.439  1.00  0.00     0.029 A 
ATOM     43  C   UNL A   1      40.806  27.688  28.596  1.00  0.00     0.049 A 
ATOM     44  H   UNL A   1      40.513  28.668  30.411  1.00  0.00     0.167 HD
ATOM     45  C   UNL A   1      39.925  30.977  34.071  1.00  0.00     0.034 A 
ATOM     46  C   UNL A   1      41.982  27.036  28.678  1.00  0.00     0.034 A 
ATOM     47  C   UNL A   1      41.110  30.196  34.308  1.00  0.00     0.049 A 
ATOM     48  C   UNL A   1      42.759  27.087  29.966  1.00  0.00     0.074 A 
ATOM     49  C   UNL A   1      41.892  30.143  35.449  1.00  0.00     0.029 A 
ATOM     50  N   UNL A   1      41.686  29.333  33.390  1.00  0.00    -0.354 N 
ATOM     51  N   UNL A   1      42.478  27.725  31.076  1.00  0.00    -0.248 NA
ATOM     52  C   UNL A   1      43.991  26.288  30.030  1.00  0.00     0.031 C 
ATOM     53  C   UNL A   1      42.953  29.263  35.211  1.00  0.00     0.029 A 
ATOM     54  C   UNL A   1      42.812  28.742  33.936  1.00  0.00     0.049 A 
ATOM     55  H   UNL A   1      41.343  29.164  32.482  1.00  0.00     0.167 HD
ATOM     56  C   UNL A   1      43.470  27.368  31.983  1.00  0.00     0.074 A 
ATOM     57  C   UNL A   1      44.347  26.442  31.297  1.00  0.00     0.031 C 
ATOM     58  C   UNL A   1      43.645  27.778  33.264  1.00  0.00     0.034 A 
BRANCH  45  59
ATOM     59  C   UNL A   1      39.452  31.905  35.161  1.00  0.00     0.023 A 
ATOM     60  C   UNL A   1      39.690  33.291  35.048  1.00  0.00     0.012 A 
ATOM     61  C   UNL A   1      38.729  31.418  36.268  1.00  0.00     0.148 A 
ATOM     62  C   UNL A   1      39.252  34.172  36.036  1.00  0.00     0.002 A 
ATOM     63  C   UNL A   1      38.253  32.309  37.224  1.00  0.00     0.091 A 
ATOM     64  F   UNL A   1      38.529  30.097  36.371  1.00  0.00    -0.205 F 
ATOM     65  C   UNL A   1      38.525  33.683  37.117  1.00  0.00     0.022 A 
BRANCH  63  66
ATOM     66  S   UNL A   1      37.237  31.791  38.611  1.00  0.00     0.127 S 
ATOM     67  O   UNL A   1      38.127  32.048  39.743  1.00  0.00    -0.237 OA
ATOM     68  O   UNL A   1      36.096  32.703  38.515  1.00  0.00    -0.237 OA
ATOM     69  O   UNL A   1      36.916  30.390  38.374  1.00  0.00    -0.744 OA
ENDBRANCH  63  66
ENDBRANCH  45  59
BRANCH  46  70
ATOM     70  C   UNL A   1      42.456  26.204  27.535  1.00  0.00     0.023 A 
ATOM     71  C   UNL A   1      43.305  26.775  26.567  1.00  0.00     0.012 A 
ATOM     72  C   UNL A   1      42.084  24.852  27.411  1.00  0.00     0.148 A 
ATOM     73  C   UNL A   1      43.745  26.028  25.475  1.00  0.00     0.002 A 
ATOM     74  C   UNL A   1      42.572  24.096  26.349  1.00  0.00     0.091 A 
ATOM     75  F   UNL A   1      41.269  24.329  28.337  1.00  0.00    -0.205 F 
ATOM     76  C   UNL A   1      43.386  24.687  25.371  1.00  0.00     0.022 A 
BRANCH  74  77
ATOM     77  S   UNL A   1      42.268  22.333  26.207  1.00  0.00     0.127 S 
ATOM     78  O   UNL A   1      43.024  21.997  25.001  1.00  0.00    -0.237 OA
ATOM     79  O   UNL A   1      42.844  21.826  27.454  1.00  0.00    -0.237 OA
ATOM     80  O   UNL A   1      40.825  22.188  26.110  1.00  0.00    -0.744 OA
ENDBRANCH  74  77
ENDBRANCH  46  70
BRANCH  58  81
ATOM     81  C   UNL A   1      44.796  27.184  34.035  1.00  0.00     0.023 A 
ATOM     82  C   UNL A   1      46.059  27.811  34.017  1.00  0.00     0.012 A 
ATOM     83  C   UNL A   1      44.611  26.028  34.818  1.00  0.00     0.148 A 
ATOM     84  C   UNL A   1      47.128  27.269  34.729  1.00  0.00     0.002 A 
ATOM     85  C   UNL A   1      45.668  25.524  35.567  1.00  0.00     0.091 A 
ATOM     86  F   UNL A   1      43.409  25.432  34.809  1.00  0.00    -0.205 F 
ATOM     87  C   UNL A   1      46.931  26.133  35.512  1.00  0.00     0.022 A 
BRANCH  85  88
ATOM     88  S   UNL A   1      45.469  24.127  36.679  1.00  0.00     0.127 S 
ATOM     89  O   UNL A   1      45.069  23.066  35.756  1.00  0.00    -0.237 OA
ATOM     90  O   UNL A   1      46.814  23.975  37.235  1.00  0.00    -0.237 OA
ATOM     91  O   UNL A   1      44.461  24.532  37.650  1.00  0.00    -0.744 OA
ENDBRANCH  85  88
ENDBRANCH  58  81
ENDBRANCH  32  33
ENDBRANCH  24  27
ENDBRANCH  22  23
ENDBRANCH   1  22
TORSDOF 16
ENDMDL
MODEL 2
REMARK VINA RESULT:     -11.9      2.617      3.282
REMARK SMILES O=C(C[C@H]1CN(c2nc(C3CC3)ns2)CCO1)NCCCNC(=O)c1ccc(-c2c3nc(c(-c4cccc(S(=O)(=O)[O-])c4F)c4ccc([nH]4)c(-c4cccc(S(=O)(=O)[O-])c4F)c4nc(c(-c5cccc(S(=O)(=O)[O-])c5F)c5ccc2[nH]5)C=C4)C=C3)cc1
REMARK SMILES IDX 20 1 19 2 18 3 1 4 2 5 3 7 4 8 5 9 17 10 6 11 16 12 15 13
REMARK SMILES IDX 7 14 8 15 14 16 9 17 13 18 10 19 11 20 12 21 21 22 22 23
REMARK SMILES IDX 23 24 24 26 25 27 26 28 87 29 27 30 86 31 28 32 29 33 30 34
REMARK SMILES IDX 80 35 31 36 85 37 79 38 81 39 32 40 84 41 78 42 77 43 33 45
REMARK SMILES IDX 65 46 45 47 64 48 46 49 49 50 63 51 82 52 47 53 48 54 62 56
REMARK SMILES IDX 83 57 50 58 34 59 35 60 43 61 36 62 38 63 44 64 37 65 39 66
REMARK SMILES IDX 40 67 41 68 42 69 66 70 67 71 75 72 68 73 70 74 76 75 69 76
REMARK SMILES IDX 71 77 72 78 73 79 74 80 51 81 52 82 60 83 53 84 55 85 61 86
REMARK SMILES IDX 54 87 56 88 57 89 58 90 59 91
REMARK H PARENT 18 6 22 25 81 44 49 55
REMARK Flexibility Score: inf
ROOT
ATOM      1  C   UNL A   1      32.717  28.141  26.823  1.00  0.00     0.042 C 
ENDROOT
BRANCH   1   2
ATOM      2  C   UNL A   1      32.159  27.210  25.759  1.00  0.00     0.117 C 
BRANCH   2   3
ATOM      3  N   UNL A   1      32.689  25.867  25.848  1.00  0.00    -0.356 N 
ATOM      4  O   UNL A   1      30.869  24.958  26.901  1.00  0.00    -0.275 OA
ATOM      5  C   UNL A   1      31.960  24.819  26.357  1.00  0.00     0.222 C 
ATOM      6  H   UNL A   1      33.606  25.697  25.533  1.00  0.00     0.163 HD
BRANCH   5   7
ATOM      7  C   UNL A   1      32.619  23.464  26.234  1.00  0.00     0.133 C 
BRANCH   7   8
ATOM      8  C   UNL A   1      34.142  23.387  26.453  1.00  0.00     0.147 C 
ATOM      9  C   UNL A   1      34.662  21.937  26.545  1.00  0.00     0.151 C 
ATOM     10  O   UNL A   1      34.948  24.180  25.556  1.00  0.00    -0.374 OA
ATOM     11  N   UNL A   1      34.888  21.364  25.222  1.00  0.00    -0.342 N 
ATOM     12  C   UNL A   1      35.090  23.591  24.250  1.00  0.00     0.182 C 
ATOM     13  C   UNL A   1      35.681  22.176  24.308  1.00  0.00     0.147 C 
BRANCH  11  14
ATOM     14  C   UNL A   1      34.215  20.257  24.824  1.00  0.00     0.205 A 
ATOM     15  N   UNL A   1      34.733  19.053  24.728  1.00  0.00    -0.203 NA
ATOM     16  S   UNL A   1      32.564  20.259  24.290  1.00  0.00     0.004 S 
ATOM     17  C   UNL A   1      33.770  18.176  24.243  1.00  0.00     0.147 A 
ATOM     18  N   UNL A   1      32.574  18.644  23.881  1.00  0.00    -0.174 NA
BRANCH  17  19
ATOM     19  C   UNL A   1      34.052  16.679  24.123  1.00  0.00     0.059 C 
ATOM     20  C   UNL A   1      34.951  16.003  25.137  1.00  0.00     0.012 C 
ATOM     21  C   UNL A   1      33.480  15.759  25.183  1.00  0.00     0.012 C 
ENDBRANCH  17  19
ENDBRANCH  11  14
ENDBRANCH   7   8
ENDBRANCH   5   7
ENDBRANCH   2   3
ENDBRANCH   1   2
BRANCH   1  22
ATOM     22  C   UNL A   1      33.910  28.974  26.370  1.00  0.00     0.118 C 
BRANCH  22  23
ATOM     23  N   UNL A   1      33.848  30.360  26.813  1.00  0.00    -0.352 N 
ATOM     24  C   UNL A   1      34.657  31.056  27.677  1.00  0.00     0.251 C 
ATOM     25  H   UNL A   1      33.106  30.882  26.432  1.00  0.00     0.163 HD
ATOM     26  O   UNL A   1      34.331  32.194  28.009  1.00  0.00    -0.269 OA
BRANCH  24  27
ATOM     27  C   UNL A   1      35.897  30.455  28.221  1.00  0.00     0.039 A 
ATOM     28  C   UNL A   1      37.112  30.743  27.588  1.00  0.00     0.014 A 
ATOM     29  C   UNL A   1      35.878  29.583  29.312  1.00  0.00     0.014 A 
ATOM     30  C   UNL A   1      38.300  30.188  28.070  1.00  0.00     0.010 A 
ATOM     31  C   UNL A   1      37.074  29.103  29.846  1.00  0.00     0.010 A 
ATOM     32  C   UNL A   1      38.296  29.379  29.218  1.00  0.00    -0.014 A 
BRANCH  32  33
ATOM     33  C   UNL A   1      39.560  28.798  29.747  1.00  0.00     0.031 A 
ATOM     34  C   UNL A   1      40.207  29.371  30.983  1.00  0.00     0.074 A 
ATOM     35  C   UNL A   1      40.156  27.782  29.091  1.00  0.00     0.049 A 
ATOM     36  N   UNL A   1      41.295  28.984  31.599  1.00  0.00    -0.248 NA
ATOM     37  C   UNL A   1      39.564  30.548  31.593  1.00  0.00     0.031 C 
ATOM     38  C   UNL A   1      39.684  27.193  27.836  1.00  0.00     0.029 A 
ATOM     39  N   UNL A   1      41.295  27.073  29.382  1.00  0.00    -0.354 N 
ATOM     40  C   UNL A   1      41.484  29.884  32.642  1.00  0.00     0.074 A 
ATOM     41  C   UNL A   1      40.423  30.863  32.551  1.00  0.00     0.031 C 
ATOM     42  C   UNL A   1      40.516  26.203  27.475  1.00  0.00     0.029 A 
ATOM     43  C   UNL A   1      41.592  26.100  28.456  1.00  0.00     0.049 A 
ATOM     44  H   UNL A   1      41.847  27.246  30.178  1.00  0.00     0.167 HD
ATOM     45  C   UNL A   1      42.431  29.880  33.611  1.00  0.00     0.034 A 
ATOM     46  C   UNL A   1      42.610  25.219  28.407  1.00  0.00     0.034 A 
ATOM     47  C   UNL A   1      43.460  28.883  33.727  1.00  0.00     0.049 A 
ATOM     48  C   UNL A   1      43.611  25.193  29.531  1.00  0.00     0.074 A 
ATOM     49  C   UNL A   1      44.417  28.743  34.717  1.00  0.00     0.029 A 
ATOM     50  N   UNL A   1      43.670  27.853  32.823  1.00  0.00    -0.354 N 
ATOM     51  N   UNL A   1      43.676  25.953  30.597  1.00  0.00    -0.248 NA
ATOM     52  C   UNL A   1      44.650  24.155  29.470  1.00  0.00     0.031 C 
ATOM     53  C   UNL A   1      45.219  27.642  34.399  1.00  0.00     0.029 A 
ATOM     54  C   UNL A   1      44.740  27.075  33.231  1.00  0.00     0.049 A 
ATOM     55  H   UNL A   1      43.135  27.698  32.010  1.00  0.00     0.167 HD
ATOM     56  C   UNL A   1      44.731  25.457  31.355  1.00  0.00     0.074 A 
ATOM     57  C   UNL A   1      45.262  24.319  30.634  1.00  0.00     0.031 C 
ATOM     58  C   UNL A   1      45.222  25.909  32.535  1.00  0.00     0.034 A 
BRANCH  45  59
ATOM     59  C   UNL A   1      42.365  30.963  34.659  1.00  0.00     0.023 A 
ATOM     60  C   UNL A   1      41.652  30.733  35.854  1.00  0.00     0.012 A 
ATOM     61  C   UNL A   1      43.046  32.184  34.488  1.00  0.00     0.148 A 
ATOM     62  C   UNL A   1      41.585  31.712  36.844  1.00  0.00     0.002 A 
ATOM     63  C   UNL A   1      43.016  33.136  35.501  1.00  0.00     0.091 A 
ATOM     64  F   UNL A   1      43.702  32.395  33.338  1.00  0.00    -0.205 F 
ATOM     65  C   UNL A   1      42.275  32.908  36.672  1.00  0.00     0.022 A 
BRANCH  63  66
ATOM     66  S   UNL A   1      43.938  34.675  35.413  1.00  0.00     0.127 S 
ATOM     67  O   UNL A   1      43.396  35.276  34.194  1.00  0.00    -0.237 OA
ATOM     68  O   UNL A   1      43.538  35.345  36.651  1.00  0.00    -0.237 OA
ATOM     69  O   UNL A   1      45.343  34.299  35.353  1.00  0.00    -0.744 OA
ENDBRANCH  63  66
ENDBRANCH  45  59
BRANCH  46  70
ATOM     70  C   UNL A   1      42.685  24.227  27.296  1.00  0.00     0.023 A 
ATOM     71  C   UNL A   1      43.393  24.552  26.123  1.00  0.00     0.012 A 
ATOM     72  C   UNL A   1      42.076  22.962  27.404  1.00  0.00     0.148 A 
ATOM     73  C   UNL A   1      43.460  23.652  25.059  1.00  0.00     0.002 A 
ATOM     74  C   UNL A   1      42.195  22.048  26.362  1.00  0.00     0.091 A 
ATOM     75  F   UNL A   1      41.401  22.675  28.525  1.00  0.00    -0.205 F 
ATOM     76  C   UNL A   1      42.869  22.397  25.182  1.00  0.00     0.022 A 
BRANCH  74  77
ATOM     77  S   UNL A   1      41.578  20.366  26.486  1.00  0.00     0.127 S 
ATOM     78  O   UNL A   1      42.072  19.964  27.803  1.00  0.00    -0.237 OA
ATOM     79  O   UNL A   1      40.130  20.570  26.409  1.00  0.00    -0.237 OA
ATOM     80  O   UNL A   1      42.145  19.654  25.353  1.00  0.00    -0.744 OA
ENDBRANCH  74  77
ENDBRANCH  46  70
BRANCH  58  81
ATOM     81  C   UNL A   1      46.358  25.139  33.159  1.00  0.00     0.023 A 
ATOM     82  C   UNL A   1      47.691  25.546  32.947  1.00  0.00     0.012 A 
ATOM     83  C   UNL A   1      46.099  24.037  33.997  1.00  0.00     0.148 A 
ATOM     84  C   UNL A   1      48.747  24.839  33.522  1.00  0.00     0.002 A 
ATOM     85  C   UNL A   1      47.153  23.371  34.609  1.00  0.00     0.091 A 
ATOM     86  F   UNL A   1      44.826  23.650  34.174  1.00  0.00    -0.205 F 
ATOM     87  C   UNL A   1      48.479  23.760  34.360  1.00  0.00     0.022 A 
BRANCH  85  88
ATOM     88  S   UNL A   1      46.887  22.037  35.783  1.00  0.00     0.127 S 
ATOM     89  O   UNL A   1      46.310  20.999  34.930  1.00  0.00    -0.237 OA
ATOM     90  O   UNL A   1      48.246  21.755  36.250  1.00  0.00    -0.237 OA
ATOM     91  O   UNL A   1      46.002  22.578  36.806  1.00  0.00    -0.744 OA
ENDBRANCH  85  88
ENDBRANCH  58  81
ENDBRANCH  32  33
ENDBRANCH  24  27
ENDBRANCH  22  23
ENDBRANCH   1  22
TORSDOF 16
ENDMDL
MODEL 3
REMARK VINA RESULT:     -11.8      1.214      1.767
REMARK SMILES O=C(C[C@H]1CN(c2nc(C3CC3)ns2)CCO1)NCCCNC(=O)c1ccc(-c2c3nc(c(-c4cccc(S(=O)(=O)[O-])c4F)c4ccc([nH]4)c(-c4cccc(S(=O)(=O)[O-])c4F)c4nc(c(-c5cccc(S(=O)(=O)[O-])c5F)c5ccc2[nH]5)C=C4)C=C3)cc1
REMARK SMILES IDX 20 1 19 2 18 3 1 4 2 5 3 7 4 8 5 9 17 10 6 11 16 12 15 13
REMARK SMILES IDX 7 14 8 15 14 16 9 17 13 18 10 19 11 20 12 21 21 22 22 23
REMARK SMILES IDX 23 24 24 26 25 27 26 28 87 29 27 30 86 31 28 32 29 33 30 34
REMARK SMILES IDX 80 35 31 36 85 37 79 38 81 39 32 40 84 41 78 42 77 43 33 45
REMARK SMILES IDX 65 46 45 47 64 48 46 49 49 50 63 51 82 52 47 53 48 54 62 56
REMARK SMILES IDX 83 57 50 58 34 59 35 60 43 61 36 62 38 63 44 64 37 65 39 66
REMARK SMILES IDX 40 67 41 68 42 69 66 70 67 71 75 72 68 73 70 74 76 75 69 76
REMARK SMILES IDX 71 77 72 78 73 79 74 80 51 81 52 82 60 83 53 84 55 85 61 86
REMARK SMILES IDX 54 87 56 88 57 89 58 90 59 91
REMARK H PARENT 18 6 22 25 81 44 49 55
REMARK Flexibility Score: inf
ROOT
ATOM      1  C   UNL A   1      32.471  28.328  26.701  1.00  0.00     0.042 C 
ENDROOT
BRANCH   1   2
ATOM      2  C   UNL A   1      31.681  27.375  25.819  1.00  0.00     0.117 C 
BRANCH   2   3
ATOM      3  N   UNL A   1      32.393  26.150  25.531  1.00  0.00    -0.356 N 
ATOM      4  O   UNL A   1      31.337  24.878  27.116  1.00  0.00    -0.275 OA
ATOM      5  C   UNL A   1      32.108  24.965  26.166  1.00  0.00     0.222 C 
ATOM      6  H   UNL A   1      33.109  26.165  24.856  1.00  0.00     0.163 HD
BRANCH   5   7
ATOM      7  C   UNL A   1      32.850  23.760  25.633  1.00  0.00     0.133 C 
BRANCH   7   8
ATOM      8  C   UNL A   1      34.312  23.567  26.077  1.00  0.00     0.147 C 
ATOM      9  C   UNL A   1      34.651  22.096  26.404  1.00  0.00     0.151 C 
ATOM     10  O   UNL A   1      35.314  24.161  25.224  1.00  0.00    -0.374 OA
ATOM     11  N   UNL A   1      34.985  21.344  25.198  1.00  0.00    -0.342 N 
ATOM     12  C   UNL A   1      35.561  23.403  24.025  1.00  0.00     0.182 C 
ATOM     13  C   UNL A   1      35.978  21.957  24.324  1.00  0.00     0.147 C 
BRANCH  11  14
ATOM     14  C   UNL A   1      34.252  20.265  24.832  1.00  0.00     0.205 A 
ATOM     15  N   UNL A   1      34.723  19.047  24.685  1.00  0.00    -0.203 NA
ATOM     16  S   UNL A   1      32.569  20.327  24.411  1.00  0.00     0.004 S 
ATOM     17  C   UNL A   1      33.702  18.209  24.255  1.00  0.00     0.147 A 
ATOM     18  N   UNL A   1      32.500  18.719  23.980  1.00  0.00    -0.174 NA
BRANCH  17  19
ATOM     19  C   UNL A   1      33.927  16.705  24.097  1.00  0.00     0.059 C 
ATOM     20  C   UNL A   1      34.925  15.999  24.991  1.00  0.00     0.012 C 
ATOM     21  C   UNL A   1      33.464  15.794  25.215  1.00  0.00     0.012 C 
ENDBRANCH  17  19
ENDBRANCH  11  14
ENDBRANCH   7   8
ENDBRANCH   5   7
ENDBRANCH   2   3
ENDBRANCH   1   2
BRANCH   1  22
ATOM     22  C   UNL A   1      33.292  29.360  25.938  1.00  0.00     0.118 C 
BRANCH  22  23
ATOM     23  N   UNL A   1      33.052  30.729  26.376  1.00  0.00    -0.352 N 
ATOM     24  C   UNL A   1      33.703  31.491  27.313  1.00  0.00     0.251 C 
ATOM     25  H   UNL A   1      32.299  31.179  25.929  1.00  0.00     0.163 HD
ATOM     26  O   UNL A   1      33.237  32.588  27.616  1.00  0.00    -0.269 OA
BRANCH  24  27
ATOM     27  C   UNL A   1      34.942  31.011  27.969  1.00  0.00     0.039 A 
ATOM     28  C   UNL A   1      36.054  31.860  27.999  1.00  0.00     0.014 A 
ATOM     29  C   UNL A   1      35.039  29.728  28.514  1.00  0.00     0.014 A 
ATOM     30  C   UNL A   1      37.241  31.438  28.604  1.00  0.00     0.010 A 
ATOM     31  C   UNL A   1      36.193  29.342  29.195  1.00  0.00     0.010 A 
ATOM     32  C   UNL A   1      37.316  30.181  29.227  1.00  0.00    -0.014 A 
BRANCH  32  33
ATOM     33  C   UNL A   1      38.571  29.731  29.887  1.00  0.00     0.031 A 
ATOM     34  C   UNL A   1      38.982  30.301  31.221  1.00  0.00     0.074 A 
ATOM     35  C   UNL A   1      39.370  28.839  29.268  1.00  0.00     0.049 A 
ATOM     36  N   UNL A   1      40.028  30.015  31.954  1.00  0.00    -0.248 NA
ATOM     37  C   UNL A   1      38.121  31.349  31.797  1.00  0.00     0.031 C 
ATOM     38  C   UNL A   1      39.136  28.275  27.937  1.00  0.00     0.029 A 
ATOM     39  N   UNL A   1      40.549  28.261  29.670  1.00  0.00    -0.354 N 
ATOM     40  C   UNL A   1      39.968  30.865  33.053  1.00  0.00     0.074 A 
ATOM     41  C   UNL A   1      38.807  31.708  32.871  1.00  0.00     0.031 C 
ATOM     42  C   UNL A   1      40.129  27.421  27.640  1.00  0.00     0.029 A 
ATOM     43  C   UNL A   1      41.082  27.392  28.746  1.00  0.00     0.049 A 
ATOM     44  H   UNL A   1      40.973  28.451  30.537  1.00  0.00     0.167 HD
ATOM     45  C   UNL A   1      40.782  30.919  34.135  1.00  0.00     0.034 A 
ATOM     46  C   UNL A   1      42.205  26.649  28.789  1.00  0.00     0.034 A 
ATOM     47  C   UNL A   1      41.912  30.052  34.336  1.00  0.00     0.049 A 
ATOM     48  C   UNL A   1      43.056  26.678  30.029  1.00  0.00     0.074 A 
ATOM     49  C   UNL A   1      42.751  29.972  35.434  1.00  0.00     0.029 A 
ATOM     50  N   UNL A   1      42.364  29.115  33.420  1.00  0.00    -0.354 N 
ATOM     51  N   UNL A   1      42.891  27.372  31.128  1.00  0.00    -0.248 NA
ATOM     52  C   UNL A   1      44.221  25.783  30.055  1.00  0.00     0.031 C 
ATOM     53  C   UNL A   1      43.724  29.001  35.171  1.00  0.00     0.029 A 
ATOM     54  C   UNL A   1      43.469  28.452  33.926  1.00  0.00     0.049 A 
ATOM     55  H   UNL A   1      41.957  28.945  32.540  1.00  0.00     0.167 HD
ATOM     56  C   UNL A   1      43.901  26.965  31.992  1.00  0.00     0.074 A 
ATOM     57  C   UNL A   1      44.661  25.949  31.294  1.00  0.00     0.031 C 
ATOM     58  C   UNL A   1      44.181  27.401  33.246  1.00  0.00     0.034 A 
BRANCH  45  59
ATOM     59  C   UNL A   1      40.448  31.918  35.214  1.00  0.00     0.023 A 
ATOM     60  C   UNL A   1      41.214  33.096  35.335  1.00  0.00     0.012 A 
ATOM     61  C   UNL A   1      39.348  31.720  36.073  1.00  0.00     0.148 A 
ATOM     62  C   UNL A   1      40.919  34.041  36.317  1.00  0.00     0.002 A 
ATOM     63  C   UNL A   1      39.030  32.691  37.017  1.00  0.00     0.091 A 
ATOM     64  F   UNL A   1      38.642  30.587  35.958  1.00  0.00    -0.205 F 
ATOM     65  C   UNL A   1      39.822  33.844  37.149  1.00  0.00     0.022 A 
BRANCH  63  66
ATOM     66  S   UNL A   1      37.589  32.571  38.082  1.00  0.00     0.127 S 
ATOM     67  O   UNL A   1      36.528  33.059  37.200  1.00  0.00    -0.237 OA
ATOM     68  O   UNL A   1      37.533  31.137  38.364  1.00  0.00    -0.237 OA
ATOM     69  O   UNL A   1      37.874  33.408  39.239  1.00  0.00    -0.744 OA
ENDBRANCH  63  66
ENDBRANCH  45  59
BRANCH  46  70
ATOM     70  C   UNL A   1      42.544  25.744  27.652  1.00  0.00     0.023 A 
ATOM     71  C   UNL A   1      43.405  26.202  26.635  1.00  0.00     0.012 A 
ATOM     72  C   UNL A   1      42.035  24.434  27.584  1.00  0.00     0.148 A 
ATOM     73  C   UNL A   1      43.721  25.386  25.549  1.00  0.00     0.002 A 
ATOM     74  C   UNL A   1      42.399  23.606  26.527  1.00  0.00     0.091 A 
ATOM     75  F   UNL A   1      41.212  24.020  28.557  1.00  0.00    -0.205 F 
ATOM     76  C   UNL A   1      43.226  24.085  25.500  1.00  0.00     0.022 A 
BRANCH  74  77
ATOM     77  S   UNL A   1      41.915  21.878  26.450  1.00  0.00     0.127 S 
ATOM     78  O   UNL A   1      42.765  21.379  25.370  1.00  0.00    -0.237 OA
ATOM     79  O   UNL A   1      42.278  21.404  27.787  1.00  0.00    -0.237 OA
ATOM     80  O   UNL A   1      40.487  21.881  26.182  1.00  0.00    -0.744 OA
ENDBRANCH  74  77
ENDBRANCH  46  70
BRANCH  58  81
ATOM     81  C   UNL A   1      45.324  26.741  33.975  1.00  0.00     0.023 A 
ATOM     82  C   UNL A   1      46.640  27.218  33.810  1.00  0.00     0.012 A 
ATOM     83  C   UNL A   1      45.084  25.674  34.863  1.00  0.00     0.148 A 
ATOM     84  C   UNL A   1      47.702  26.613  34.482  1.00  0.00     0.002 A 
ATOM     85  C   UNL A   1      46.140  25.112  35.569  1.00  0.00     0.091 A 
ATOM     86  F   UNL A   1      43.829  25.218  34.994  1.00  0.00    -0.205 F 
ATOM     87  C   UNL A   1      47.452  25.569  35.368  1.00  0.00     0.022 A 
BRANCH  85  88
ATOM     88  S   UNL A   1      45.887  23.832  36.806  1.00  0.00     0.127 S 
ATOM     89  O   UNL A   1      47.238  23.659  37.336  1.00  0.00    -0.237 OA
ATOM     90  O   UNL A   1      44.948  24.470  37.729  1.00  0.00    -0.237 OA
ATOM     91  O   UNL A   1      45.340  22.689  36.088  1.00  0.00    -0.744 OA
ENDBRANCH  85  88
ENDBRANCH  58  81
ENDBRANCH  32  33
ENDBRANCH  24  27
ENDBRANCH  22  23
ENDBRANCH   1  22
TORSDOF 16
ENDMDL
