MODEL 1
REMARK VINA RESULT:     -11.3      0.000      0.000
REMARK SMILES C[C@H](CC(=O)NCCCNC(=O)c1ccc(-c2c3nc(c(-c4cccc(S(=O)(=O)[O-])c4F)c4ccc([nH]4)c(-c4cccc(S(=O)(=O)[O-])c4F)c4nc(c(-c5cccc(S(=O)(=O)[O-])c5F)c5ccc2[nH]5)C=C4)C=C3)cc1)c1ccc(O)cc1
REMARK SMILES IDX 8 1 7 2 6 3 4 4 5 5 3 7 2 8 1 9 76 10 77 11 82 12 78 13
REMARK SMILES IDX 81 14 79 15 80 16 9 18 10 19 11 20 12 22 13 23 14 24 75 25
REMARK SMILES IDX 15 26 74 27 16 28 17 29 18 30 68 31 19 32 73 33 67 34 69 35
REMARK SMILES IDX 20 36 72 37 66 38 65 39 21 41 53 42 33 43 52 44 34 45 37 46
REMARK SMILES IDX 51 47 70 48 35 49 36 50 50 52 71 53 38 54 22 55 23 56 31 57
REMARK SMILES IDX 24 58 26 59 32 60 25 61 27 62 28 63 29 64 30 65 54 66 55 67
REMARK SMILES IDX 63 68 56 69 58 70 64 71 57 72 59 73 60 74 61 75 62 76 39 77
REMARK SMILES IDX 40 78 48 79 41 80 43 81 49 82 42 83 44 84 45 85 46 86 47 87
REMARK H PARENT 6 6 80 17 10 21 69 40 37 51
REMARK Flexibility Score: inf
ROOT
ATOM      1  C   UNL A   1      31.402  32.403  26.802  1.00  0.00     0.042 C 
ENDROOT
BRANCH   1   2
ATOM      2  C   UNL A   1      31.481  30.942  26.354  1.00  0.00     0.117 C 
BRANCH   2   3
ATOM      3  N   UNL A   1      32.660  30.229  26.834  1.00  0.00    -0.356 N 
ATOM      4  C   UNL A   1      32.849  28.926  27.188  1.00  0.00     0.220 C 
ATOM      5  O   UNL A   1      33.989  28.568  27.494  1.00  0.00    -0.275 OA
ATOM      6  H   UNL A   1      33.465  30.791  26.915  1.00  0.00     0.163 HD
BRANCH   4   7
ATOM      7  C   UNL A   1      31.691  27.948  27.227  1.00  0.00     0.108 C 
BRANCH   7   8
ATOM      8  C   UNL A   1      31.690  26.985  26.020  1.00  0.00     0.025 C 
ATOM      9  C   UNL A   1      30.608  25.914  26.201  1.00  0.00     0.013 C 
BRANCH   8  10
ATOM     10  C   UNL A   1      31.464  27.641  24.658  1.00  0.00    -0.044 A 
ATOM     11  C   UNL A   1      32.499  28.122  23.842  1.00  0.00     0.008 A 
ATOM     12  C   UNL A   1      30.136  27.862  24.238  1.00  0.00     0.008 A 
ATOM     13  C   UNL A   1      32.212  28.872  22.697  1.00  0.00     0.046 A 
ATOM     14  C   UNL A   1      29.848  28.636  23.114  1.00  0.00     0.046 A 
ATOM     15  C   UNL A   1      30.893  29.154  22.365  1.00  0.00     0.115 A 
BRANCH  15  16
ATOM     16  O   UNL A   1      30.655  29.970  21.299  1.00  0.00    -0.508 OA
ATOM     17  H   UNL A   1      30.143  29.660  20.578  1.00  0.00     0.293 HD
ENDBRANCH  15  16
ENDBRANCH   8  10
ENDBRANCH   7   8
ENDBRANCH   4   7
ENDBRANCH   2   3
ENDBRANCH   1   2
BRANCH   1  18
ATOM     18  C   UNL A   1      32.733  33.029  27.200  1.00  0.00     0.118 C 
BRANCH  18  19
ATOM     19  N   UNL A   1      32.558  34.374  27.720  1.00  0.00    -0.352 N 
ATOM     20  C   UNL A   1      33.110  34.957  28.837  1.00  0.00     0.251 C 
ATOM     21  H   UNL A   1      31.957  34.953  27.198  1.00  0.00     0.163 HD
ATOM     22  O   UNL A   1      32.623  35.998  29.271  1.00  0.00    -0.269 OA
BRANCH  20  23
ATOM     23  C   UNL A   1      34.275  34.345  29.527  1.00  0.00     0.039 A 
ATOM     24  C   UNL A   1      34.056  33.589  30.683  1.00  0.00     0.014 A 
ATOM     25  C   UNL A   1      35.583  34.565  29.085  1.00  0.00     0.014 A 
ATOM     26  C   UNL A   1      35.140  33.022  31.366  1.00  0.00     0.010 A 
ATOM     27  C   UNL A   1      36.653  33.937  29.722  1.00  0.00     0.010 A 
ATOM     28  C   UNL A   1      36.447  33.172  30.879  1.00  0.00    -0.014 A 
BRANCH  28  29
ATOM     29  C   UNL A   1      37.611  32.548  31.568  1.00  0.00     0.031 A 
ATOM     30  C   UNL A   1      38.355  31.405  30.928  1.00  0.00     0.074 A 
ATOM     31  C   UNL A   1      37.953  32.954  32.807  1.00  0.00     0.049 A 
ATOM     32  N   UNL A   1      39.357  30.704  31.395  1.00  0.00    -0.248 NA
ATOM     33  C   UNL A   1      37.899  30.979  29.595  1.00  0.00     0.031 C 
ATOM     34  C   UNL A   1      37.279  34.007  33.567  1.00  0.00     0.029 A 
ATOM     35  N   UNL A   1      38.940  32.513  33.655  1.00  0.00    -0.354 N 
ATOM     36  C   UNL A   1      39.625  29.734  30.436  1.00  0.00     0.074 A 
ATOM     37  C   UNL A   1      38.656  29.914  29.376  1.00  0.00     0.031 C 
ATOM     38  C   UNL A   1      37.879  34.142  34.760  1.00  0.00     0.029 A 
ATOM     39  C   UNL A   1      38.958  33.163  34.866  1.00  0.00     0.049 A 
ATOM     40  H   UNL A   1      39.574  31.798  33.417  1.00  0.00     0.167 HD
ATOM     41  C   UNL A   1      40.605  28.798  30.420  1.00  0.00     0.034 A 
ATOM     42  C   UNL A   1      39.750  32.993  35.943  1.00  0.00     0.034 A 
ATOM     43  C   UNL A   1      41.593  28.646  31.453  1.00  0.00     0.049 A 
ATOM     44  C   UNL A   1      40.837  31.953  35.900  1.00  0.00     0.074 A 
ATOM     45  C   UNL A   1      42.681  27.790  31.487  1.00  0.00     0.029 A 
ATOM     46  N   UNL A   1      41.610  29.357  32.644  1.00  0.00    -0.354 N 
ATOM     47  N   UNL A   1      41.173  31.150  34.919  1.00  0.00    -0.248 NA
ATOM     48  C   UNL A   1      41.673  31.815  37.102  1.00  0.00     0.031 C 
ATOM     49  C   UNL A   1      43.341  27.968  32.709  1.00  0.00     0.029 A 
ATOM     50  C   UNL A   1      42.677  28.949  33.428  1.00  0.00     0.049 A 
ATOM     51  H   UNL A   1      40.958  30.052  32.895  1.00  0.00     0.167 HD
ATOM     52  C   UNL A   1      42.277  30.435  35.371  1.00  0.00     0.074 A 
ATOM     53  C   UNL A   1      42.564  30.914  36.708  1.00  0.00     0.031 C 
ATOM     54  C   UNL A   1      42.981  29.463  34.740  1.00  0.00     0.034 A 
BRANCH  41  55
ATOM     55  C   UNL A   1      40.682  27.896  29.213  1.00  0.00     0.023 A 
ATOM     56  C   UNL A   1      39.865  26.747  29.152  1.00  0.00     0.012 A 
ATOM     57  C   UNL A   1      41.536  28.190  28.132  1.00  0.00     0.148 A 
ATOM     58  C   UNL A   1      39.933  25.880  28.061  1.00  0.00     0.002 A 
ATOM     59  C   UNL A   1      41.565  27.346  27.027  1.00  0.00     0.091 A 
ATOM     60  F   UNL A   1      42.322  29.272  28.212  1.00  0.00    -0.205 F 
ATOM     61  C   UNL A   1      40.777  26.184  26.997  1.00  0.00     0.022 A 
BRANCH  59  62
ATOM     62  S   UNL A   1      42.562  27.698  25.575  1.00  0.00     0.127 S 
ATOM     63  O   UNL A   1      43.903  27.779  26.150  1.00  0.00    -0.237 OA
ATOM     64  O   UNL A   1      42.328  26.519  24.740  1.00  0.00    -0.237 OA
ATOM     65  O   UNL A   1      42.033  28.938  25.025  1.00  0.00    -0.744 OA
ENDBRANCH  59  62
ENDBRANCH  41  55
BRANCH  42  66
ATOM     66  C   UNL A   1      39.598  33.893  37.121  1.00  0.00     0.023 A 
ATOM     67  C   UNL A   1      40.037  35.228  37.021  1.00  0.00     0.012 A 
ATOM     68  C   UNL A   1      38.979  33.460  38.310  1.00  0.00     0.148 A 
ATOM     69  C   UNL A   1      39.880  36.110  38.089  1.00  0.00     0.002 A 
ATOM     70  C   UNL A   1      38.778  34.359  39.351  1.00  0.00     0.091 A 
ATOM     71  F   UNL A   1      38.576  32.184  38.387  1.00  0.00    -0.205 F 
ATOM     72  C   UNL A   1      39.241  35.680  39.248  1.00  0.00     0.022 A 
BRANCH  70  73
ATOM     73  S   UNL A   1      37.854  33.936  40.833  1.00  0.00     0.127 S 
ATOM     74  O   UNL A   1      38.810  33.102  41.555  1.00  0.00    -0.237 OA
ATOM     75  O   UNL A   1      37.614  35.252  41.424  1.00  0.00    -0.237 OA
ATOM     76  O   UNL A   1      36.650  33.257  40.370  1.00  0.00    -0.744 OA
ENDBRANCH  70  73
ENDBRANCH  42  66
BRANCH  54  77
ATOM     77  C   UNL A   1      44.149  28.855  35.474  1.00  0.00     0.023 A 
ATOM     78  C   UNL A   1      45.440  29.388  35.291  1.00  0.00     0.012 A 
ATOM     79  C   UNL A   1      43.957  27.811  36.400  1.00  0.00     0.148 A 
ATOM     80  C   UNL A   1      46.527  28.874  35.999  1.00  0.00     0.002 A 
ATOM     81  C   UNL A   1      45.036  27.336  37.137  1.00  0.00     0.091 A 
ATOM     82  F   UNL A   1      42.724  27.306  36.546  1.00  0.00    -0.205 F 
ATOM     83  C   UNL A   1      46.322  27.858  36.929  1.00  0.00     0.022 A 
BRANCH  81  84
ATOM     84  S   UNL A   1      44.854  26.094  38.422  1.00  0.00     0.127 S 
ATOM     85  O   UNL A   1      43.994  26.782  39.383  1.00  0.00    -0.237 OA
ATOM     86  O   UNL A   1      44.208  24.995  37.703  1.00  0.00    -0.237 OA
ATOM     87  O   UNL A   1      46.201  25.799  38.890  1.00  0.00    -0.744 OA
ENDBRANCH  81  84
ENDBRANCH  54  77
ENDBRANCH  28  29
ENDBRANCH  20  23
ENDBRANCH  18  19
ENDBRANCH   1  18
TORSDOF 16
ENDMDL
MODEL 2
REMARK VINA RESULT:     -11.1      3.827      9.967
REMARK SMILES C[C@H](CC(=O)NCCCNC(=O)c1ccc(-c2c3nc(c(-c4cccc(S(=O)(=O)[O-])c4F)c4ccc([nH]4)c(-c4cccc(S(=O)(=O)[O-])c4F)c4nc(c(-c5cccc(S(=O)(=O)[O-])c5F)c5ccc2[nH]5)C=C4)C=C3)cc1)c1ccc(O)cc1
REMARK SMILES IDX 8 1 7 2 6 3 4 4 5 5 3 7 2 8 1 9 76 10 77 11 82 12 78 13
REMARK SMILES IDX 81 14 79 15 80 16 9 18 10 19 11 20 12 22 13 23 14 24 75 25
REMARK SMILES IDX 15 26 74 27 16 28 17 29 18 30 68 31 19 32 73 33 67 34 69 35
REMARK SMILES IDX 20 36 72 37 66 38 65 39 21 41 53 42 33 43 52 44 34 45 37 46
REMARK SMILES IDX 51 47 70 48 35 49 36 50 50 52 71 53 38 54 22 55 23 56 31 57
REMARK SMILES IDX 24 58 26 59 32 60 25 61 27 62 28 63 29 64 30 65 54 66 55 67
REMARK SMILES IDX 63 68 56 69 58 70 64 71 57 72 59 73 60 74 61 75 62 76 39 77
REMARK SMILES IDX 40 78 48 79 41 80 43 81 49 82 42 83 44 84 45 85 46 86 47 87
REMARK H PARENT 6 6 80 17 10 21 69 40 37 51
REMARK Flexibility Score: inf
ROOT
ATOM      1  C   UNL A   1      34.304  34.522  28.053  1.00  0.00     0.042 C 
ENDROOT
BRANCH   1   2
ATOM      2  C   UNL A   1      33.111  34.468  29.010  1.00  0.00     0.117 C 
BRANCH   2   3
ATOM      3  N   UNL A   1      33.369  35.047  30.324  1.00  0.00    -0.356 N 
ATOM      4  C   UNL A   1      34.093  34.595  31.387  1.00  0.00     0.220 C 
ATOM      5  O   UNL A   1      34.207  35.335  32.367  1.00  0.00    -0.275 OA
ATOM      6  H   UNL A   1      32.943  35.923  30.468  1.00  0.00     0.163 HD
BRANCH   4   7
ATOM      7  C   UNL A   1      34.723  33.216  31.377  1.00  0.00     0.108 C 
BRANCH   7   8
ATOM      8  C   UNL A   1      36.040  33.162  32.183  1.00  0.00     0.025 C 
ATOM      9  C   UNL A   1      36.300  31.732  32.672  1.00  0.00     0.013 C 
BRANCH   8  10
ATOM     10  C   UNL A   1      37.288  33.626  31.433  1.00  0.00    -0.044 A 
ATOM     11  C   UNL A   1      37.514  33.382  30.070  1.00  0.00     0.008 A 
ATOM     12  C   UNL A   1      38.315  34.249  32.171  1.00  0.00     0.008 A 
ATOM     13  C   UNL A   1      38.755  33.673  29.492  1.00  0.00     0.046 A 
ATOM     14  C   UNL A   1      39.562  34.511  31.605  1.00  0.00     0.046 A 
ATOM     15  C   UNL A   1      39.777  34.198  30.271  1.00  0.00     0.115 A 
BRANCH  15  16
ATOM     16  O   UNL A   1      41.001  34.376  29.698  1.00  0.00    -0.508 OA
ATOM     17  H   UNL A   1      41.474  35.172  29.841  1.00  0.00     0.293 HD
ENDBRANCH  15  16
ENDBRANCH   8  10
ENDBRANCH   7   8
ENDBRANCH   4   7
ENDBRANCH   2   3
ENDBRANCH   1   2
BRANCH   1  18
ATOM     18  C   UNL A   1      35.082  33.219  27.917  1.00  0.00     0.118 C 
BRANCH  18  19
ATOM     19  N   UNL A   1      34.195  32.075  27.801  1.00  0.00    -0.352 N 
ATOM     20  C   UNL A   1      34.498  30.733  27.786  1.00  0.00     0.251 C 
ATOM     21  H   UNL A   1      33.238  32.290  27.721  1.00  0.00     0.163 HD
ATOM     22  O   UNL A   1      33.652  29.933  27.392  1.00  0.00    -0.269 OA
BRANCH  20  23
ATOM     23  C   UNL A   1      35.828  30.241  28.227  1.00  0.00     0.039 A 
ATOM     24  C   UNL A   1      35.974  29.767  29.535  1.00  0.00     0.014 A 
ATOM     25  C   UNL A   1      36.945  30.304  27.389  1.00  0.00     0.014 A 
ATOM     26  C   UNL A   1      37.223  29.321  29.985  1.00  0.00     0.010 A 
ATOM     27  C   UNL A   1      38.170  29.788  27.813  1.00  0.00     0.010 A 
ATOM     28  C   UNL A   1      38.329  29.306  29.120  1.00  0.00    -0.014 A 
BRANCH  28  29
ATOM     29  C   UNL A   1      39.657  28.801  29.564  1.00  0.00     0.031 A 
ATOM     30  C   UNL A   1      40.412  29.499  30.666  1.00  0.00     0.074 A 
ATOM     31  C   UNL A   1      40.226  27.760  28.924  1.00  0.00     0.049 A 
ATOM     32  N   UNL A   1      41.599  29.237  31.151  1.00  0.00    -0.248 NA
ATOM     33  C   UNL A   1      39.755  30.660  31.288  1.00  0.00     0.031 C 
ATOM     34  C   UNL A   1      39.633  27.032  27.803  1.00  0.00     0.029 A 
ATOM     35  N   UNL A   1      41.441  27.147  29.112  1.00  0.00    -0.354 N 
ATOM     36  C   UNL A   1      41.847  30.217  32.105  1.00  0.00     0.074 A 
ATOM     37  C   UNL A   1      40.701  31.101  32.104  1.00  0.00     0.031 C 
ATOM     38  C   UNL A   1      40.476  26.063  27.411  1.00  0.00     0.029 A 
ATOM     39  C   UNL A   1      41.684  26.121  28.229  1.00  0.00     0.049 A 
ATOM     40  H   UNL A   1      42.079  27.418  29.812  1.00  0.00     0.167 HD
ATOM     41  C   UNL A   1      42.913  30.355  32.930  1.00  0.00     0.034 A 
ATOM     42  C   UNL A   1      42.757  25.318  28.090  1.00  0.00     0.034 A 
ATOM     43  C   UNL A   1      44.032  29.453  32.960  1.00  0.00     0.049 A 
ATOM     44  C   UNL A   1      43.927  25.483  29.022  1.00  0.00     0.074 A 
ATOM     45  C   UNL A   1      45.117  29.453  33.820  1.00  0.00     0.029 A 
ATOM     46  N   UNL A   1      44.220  28.394  32.084  1.00  0.00    -0.354 N 
ATOM     47  N   UNL A   1      44.074  26.319  30.022  1.00  0.00    -0.248 NA
ATOM     48  C   UNL A   1      45.067  24.576  28.826  1.00  0.00     0.031 C 
ATOM     49  C   UNL A   1      45.972  28.409  33.448  1.00  0.00     0.029 A 
ATOM     50  C   UNL A   1      45.410  27.745  32.369  1.00  0.00     0.049 A 
ATOM     51  H   UNL A   1      43.597  28.142  31.364  1.00  0.00     0.167 HD
ATOM     52  C   UNL A   1      45.305  26.019  30.593  1.00  0.00     0.074 A 
ATOM     53  C   UNL A   1      45.856  24.911  29.839  1.00  0.00     0.031 C 
ATOM     54  C   UNL A   1      45.929  26.614  31.640  1.00  0.00     0.034 A 
BRANCH  41  55
ATOM     55  C   UNL A   1      42.890  31.505  33.907  1.00  0.00     0.023 A 
ATOM     56  C   UNL A   1      43.410  32.757  33.516  1.00  0.00     0.012 A 
ATOM     57  C   UNL A   1      42.337  31.361  35.194  1.00  0.00     0.148 A 
ATOM     58  C   UNL A   1      43.426  33.832  34.406  1.00  0.00     0.002 A 
ATOM     59  C   UNL A   1      42.314  32.450  36.060  1.00  0.00     0.091 A 
ATOM     60  F   UNL A   1      41.865  30.162  35.560  1.00  0.00    -0.205 F 
ATOM     61  C   UNL A   1      42.872  33.679  35.674  1.00  0.00     0.022 A 
BRANCH  59  62
ATOM     62  S   UNL A   1      41.550  32.369  37.684  1.00  0.00     0.127 S 
ATOM     63  O   UNL A   1      40.194  31.941  37.352  1.00  0.00    -0.237 OA
ATOM     64  O   UNL A   1      42.360  31.355  38.362  1.00  0.00    -0.237 OA
ATOM     65  O   UNL A   1      41.673  33.708  38.243  1.00  0.00    -0.744 OA
ENDBRANCH  59  62
ENDBRANCH  41  55
BRANCH  42  66
ATOM     66  C   UNL A   1      42.733  24.223  27.078  1.00  0.00     0.023 A 
ATOM     67  C   UNL A   1      43.407  24.411  25.855  1.00  0.00     0.012 A 
ATOM     68  C   UNL A   1      42.104  22.990  27.335  1.00  0.00     0.148 A 
ATOM     69  C   UNL A   1      43.437  23.398  24.897  1.00  0.00     0.002 A 
ATOM     70  C   UNL A   1      42.183  21.966  26.398  1.00  0.00     0.091 A 
ATOM     71  F   UNL A   1      41.462  22.836  28.501  1.00  0.00    -0.205 F 
ATOM     72  C   UNL A   1      42.836  22.172  25.173  1.00  0.00     0.022 A 
BRANCH  70  73
ATOM     73  S   UNL A   1      41.550  20.314  26.711  1.00  0.00     0.127 S 
ATOM     74  O   UNL A   1      41.864  19.629  25.461  1.00  0.00    -0.237 OA
ATOM     75  O   UNL A   1      42.352  19.897  27.861  1.00  0.00    -0.237 OA
ATOM     76  O   UNL A   1      40.130  20.481  26.998  1.00  0.00    -0.744 OA
ENDBRANCH  70  73
ENDBRANCH  42  66
BRANCH  54  77
ATOM     77  C   UNL A   1      47.273  26.074  32.055  1.00  0.00     0.023 A 
ATOM     78  C   UNL A   1      48.439  26.540  31.416  1.00  0.00     0.012 A 
ATOM     79  C   UNL A   1      47.388  25.166  33.127  1.00  0.00     0.148 A 
ATOM     80  C   UNL A   1      49.697  26.092  31.819  1.00  0.00     0.002 A 
ATOM     81  C   UNL A   1      48.647  24.760  33.554  1.00  0.00     0.091 A 
ATOM     82  F   UNL A   1      46.266  24.720  33.710  1.00  0.00    -0.205 F 
ATOM     83  C   UNL A   1      49.801  25.213  32.895  1.00  0.00     0.022 A 
BRANCH  81  84
ATOM     84  S   UNL A   1      48.885  23.703  34.987  1.00  0.00     0.127 S 
ATOM     85  O   UNL A   1      50.340  23.566  35.019  1.00  0.00    -0.237 OA
ATOM     86  O   UNL A   1      48.326  24.515  36.068  1.00  0.00    -0.237 OA
ATOM     87  O   UNL A   1      48.149  22.477  34.710  1.00  0.00    -0.744 OA
ENDBRANCH  81  84
ENDBRANCH  54  77
ENDBRANCH  28  29
ENDBRANCH  20  23
ENDBRANCH  18  19
ENDBRANCH   1  18
TORSDOF 16
ENDMDL
MODEL 3
REMARK VINA RESULT:     -11.1      2.953      4.147
REMARK SMILES C[C@H](CC(=O)NCCCNC(=O)c1ccc(-c2c3nc(c(-c4cccc(S(=O)(=O)[O-])c4F)c4ccc([nH]4)c(-c4cccc(S(=O)(=O)[O-])c4F)c4nc(c(-c5cccc(S(=O)(=O)[O-])c5F)c5ccc2[nH]5)C=C4)C=C3)cc1)c1ccc(O)cc1
REMARK SMILES IDX 8 1 7 2 6 3 4 4 5 5 3 7 2 8 1 9 76 10 77 11 82 12 78 13
REMARK SMILES IDX 81 14 79 15 80 16 9 18 10 19 11 20 12 22 13 23 14 24 75 25
REMARK SMILES IDX 15 26 74 27 16 28 17 29 18 30 68 31 19 32 73 33 67 34 69 35
REMARK SMILES IDX 20 36 72 37 66 38 65 39 21 41 53 42 33 43 52 44 34 45 37 46
REMARK SMILES IDX 51 47 70 48 35 49 36 50 50 52 71 53 38 54 22 55 23 56 31 57
REMARK SMILES IDX 24 58 26 59 32 60 25 61 27 62 28 63 29 64 30 65 54 66 55 67
REMARK SMILES IDX 63 68 56 69 58 70 64 71 57 72 59 73 60 74 61 75 62 76 39 77
REMARK SMILES IDX 40 78 48 79 41 80 43 81 49 82 42 83 44 84 45 85 46 86 47 87
REMARK H PARENT 6 6 80 17 10 21 69 40 37 51
REMARK Flexibility Score: inf
ROOT
ATOM      1  C   UNL A   1      33.508  28.952  23.625  1.00  0.00     0.042 C 
ENDROOT
BRANCH   1   2
ATOM      2  C   UNL A   1      32.403  28.421  22.709  1.00  0.00     0.117 C 
BRANCH   2   3
ATOM      3  N   UNL A   1      32.849  27.415  21.751  1.00  0.00    -0.356 N 
ATOM      4  C   UNL A   1      32.926  26.056  21.836  1.00  0.00     0.220 C 
ATOM      5  O   UNL A   1      33.277  25.432  20.831  1.00  0.00    -0.275 OA
ATOM      6  H   UNL A   1      33.147  27.784  20.889  1.00  0.00     0.163 HD
BRANCH   4   7
ATOM      7  C   UNL A   1      32.612  25.331  23.129  1.00  0.00     0.108 C 
BRANCH   7   8
ATOM      8  C   UNL A   1      33.809  24.506  23.650  1.00  0.00     0.025 C 
ATOM      9  C   UNL A   1      34.407  25.174  24.894  1.00  0.00     0.013 C 
BRANCH   8  10
ATOM     10  C   UNL A   1      33.498  23.054  24.013  1.00  0.00    -0.044 A 
ATOM     11  C   UNL A   1      32.835  22.162  23.157  1.00  0.00     0.008 A 
ATOM     12  C   UNL A   1      33.808  22.613  25.315  1.00  0.00     0.008 A 
ATOM     13  C   UNL A   1      32.421  20.908  23.620  1.00  0.00     0.046 A 
ATOM     14  C   UNL A   1      33.369  21.376  25.788  1.00  0.00     0.046 A 
ATOM     15  C   UNL A   1      32.658  20.542  24.938  1.00  0.00     0.115 A 
BRANCH  15  16
ATOM     16  O   UNL A   1      32.154  19.355  25.380  1.00  0.00    -0.508 OA
ATOM     17  H   UNL A   1      32.731  18.699  25.718  1.00  0.00     0.293 HD
ENDBRANCH  15  16
ENDBRANCH   8  10
ENDBRANCH   7   8
ENDBRANCH   4   7
ENDBRANCH   2   3
ENDBRANCH   1   2
BRANCH   1  18
ATOM     18  C   UNL A   1      33.167  28.960  25.110  1.00  0.00     0.118 C 
BRANCH  18  19
ATOM     19  N   UNL A   1      32.614  30.237  25.526  1.00  0.00    -0.352 N 
ATOM     20  C   UNL A   1      32.928  31.010  26.620  1.00  0.00     0.251 C 
ATOM     21  H   UNL A   1      31.912  30.603  24.941  1.00  0.00     0.163 HD
ATOM     22  O   UNL A   1      32.160  31.906  26.959  1.00  0.00    -0.269 OA
BRANCH  20  23
ATOM     23  C   UNL A   1      34.172  30.772  27.396  1.00  0.00     0.039 A 
ATOM     24  C   UNL A   1      34.386  29.512  27.963  1.00  0.00     0.014 A 
ATOM     25  C   UNL A   1      35.095  31.797  27.627  1.00  0.00     0.014 A 
ATOM     26  C   UNL A   1      35.539  29.269  28.720  1.00  0.00     0.010 A 
ATOM     27  C   UNL A   1      36.279  31.532  28.316  1.00  0.00     0.010 A 
ATOM     28  C   UNL A   1      36.508  30.272  28.886  1.00  0.00    -0.014 A 
BRANCH  28  29
ATOM     29  C   UNL A   1      37.759  30.026  29.655  1.00  0.00     0.031 A 
ATOM     30  C   UNL A   1      38.842  29.143  29.092  1.00  0.00     0.074 A 
ATOM     31  C   UNL A   1      37.891  30.531  30.898  1.00  0.00     0.049 A 
ATOM     32  N   UNL A   1      39.974  28.773  29.635  1.00  0.00    -0.248 NA
ATOM     33  C   UNL A   1      38.612  28.582  27.751  1.00  0.00     0.031 C 
ATOM     34  C   UNL A   1      36.894  31.351  31.586  1.00  0.00     0.029 A 
ATOM     35  N   UNL A   1      38.910  30.412  31.811  1.00  0.00    -0.354 N 
ATOM     36  C   UNL A   1      40.571  27.911  28.723  1.00  0.00     0.074 A 
ATOM     37  C   UNL A   1      39.659  27.784  27.607  1.00  0.00     0.031 C 
ATOM     38  C   UNL A   1      37.355  31.673  32.806  1.00  0.00     0.029 A 
ATOM     39  C   UNL A   1      38.664  31.056  33.000  1.00  0.00     0.049 A 
ATOM     40  H   UNL A   1      39.739  29.911  31.630  1.00  0.00     0.167 HD
ATOM     41  C   UNL A   1      41.781  27.303  28.789  1.00  0.00     0.034 A 
ATOM     42  C   UNL A   1      39.405  31.140  34.123  1.00  0.00     0.034 A 
ATOM     43  C   UNL A   1      42.706  27.462  29.878  1.00  0.00     0.049 A 
ATOM     44  C   UNL A   1      40.749  30.465  34.172  1.00  0.00     0.074 A 
ATOM     45  C   UNL A   1      43.992  26.964  29.998  1.00  0.00     0.029 A 
ATOM     46  N   UNL A   1      42.442  28.164  31.045  1.00  0.00    -0.354 N 
ATOM     47  N   UNL A   1      41.364  29.782  33.236  1.00  0.00    -0.248 NA
ATOM     48  C   UNL A   1      41.514  30.595  35.420  1.00  0.00     0.031 C 
ATOM     49  C   UNL A   1      44.496  27.345  31.247  1.00  0.00     0.029 A 
ATOM     50  C   UNL A   1      43.532  28.098  31.898  1.00  0.00     0.049 A 
ATOM     51  H   UNL A   1      41.602  28.640  31.239  1.00  0.00     0.167 HD
ATOM     52  C   UNL A   1      42.598  29.429  33.769  1.00  0.00     0.074 A 
ATOM     53  C   UNL A   1      42.651  29.990  35.104  1.00  0.00     0.031 C 
ATOM     54  C   UNL A   1      43.593  28.697  33.208  1.00  0.00     0.034 A 
BRANCH  41  55
ATOM     55  C   UNL A   1      42.192  26.446  27.616  1.00  0.00     0.023 A 
ATOM     56  C   UNL A   1      42.929  27.023  26.560  1.00  0.00     0.012 A 
ATOM     57  C   UNL A   1      41.875  25.075  27.566  1.00  0.00     0.148 A 
ATOM     58  C   UNL A   1      43.300  26.263  25.451  1.00  0.00     0.002 A 
ATOM     59  C   UNL A   1      42.288  24.313  26.478  1.00  0.00     0.091 A 
ATOM     60  F   UNL A   1      41.157  24.545  28.565  1.00  0.00    -0.205 F 
ATOM     61  C   UNL A   1      42.986  24.907  25.414  1.00  0.00     0.022 A 
BRANCH  59  62
ATOM     62  S   UNL A   1      41.998  22.542  26.381  1.00  0.00     0.127 S 
ATOM     63  O   UNL A   1      42.644  22.205  25.115  1.00  0.00    -0.237 OA
ATOM     64  O   UNL A   1      42.694  22.045  27.570  1.00  0.00    -0.237 OA
ATOM     65  O   UNL A   1      40.552  22.378  26.419  1.00  0.00    -0.744 OA
ENDBRANCH  59  62
ENDBRANCH  41  55
BRANCH  42  66
ATOM     66  C   UNL A   1      38.925  31.973  35.263  1.00  0.00     0.023 A 
ATOM     67  C   UNL A   1      38.999  33.376  35.161  1.00  0.00     0.012 A 
ATOM     68  C   UNL A   1      38.350  31.396  36.412  1.00  0.00     0.148 A 
ATOM     69  C   UNL A   1      38.529  34.190  36.191  1.00  0.00     0.002 A 
ATOM     70  C   UNL A   1      37.835  32.214  37.411  1.00  0.00     0.091 A 
ATOM     71  F   UNL A   1      38.297  30.059  36.492  1.00  0.00    -0.205 F 
ATOM     72  C   UNL A   1      37.936  33.610  37.310  1.00  0.00     0.022 A 
BRANCH  70  73
ATOM     73  S   UNL A   1      36.943  31.567  38.830  1.00  0.00     0.127 S 
ATOM     74  O   UNL A   1      37.909  31.760  39.907  1.00  0.00    -0.237 OA
ATOM     75  O   UNL A   1      35.777  32.449  38.881  1.00  0.00    -0.237 OA
ATOM     76  O   UNL A   1      36.632  30.180  38.504  1.00  0.00    -0.744 OA
ENDBRANCH  70  73
ENDBRANCH  42  66
BRANCH  54  77
ATOM     77  C   UNL A   1      44.841  28.469  34.022  1.00  0.00     0.023 A 
ATOM     78  C   UNL A   1      45.894  29.401  33.957  1.00  0.00     0.012 A 
ATOM     79  C   UNL A   1      44.936  27.378  34.908  1.00  0.00     0.148 A 
ATOM     80  C   UNL A   1      47.037  29.237  34.741  1.00  0.00     0.002 A 
ATOM     81  C   UNL A   1      46.056  27.245  35.721  1.00  0.00     0.091 A 
ATOM     82  F   UNL A   1      43.930  26.492  34.942  1.00  0.00    -0.205 F 
ATOM     83  C   UNL A   1      47.112  28.167  35.630  1.00  0.00     0.022 A 
BRANCH  81  84
ATOM     84  S   UNL A   1      46.202  25.954  36.961  1.00  0.00     0.127 S 
ATOM     85  O   UNL A   1      47.452  26.318  37.626  1.00  0.00    -0.237 OA
ATOM     86  O   UNL A   1      44.999  26.162  37.767  1.00  0.00    -0.237 OA
ATOM     87  O   UNL A   1      46.228  24.695  36.229  1.00  0.00    -0.744 OA
ENDBRANCH  81  84
ENDBRANCH  54  77
ENDBRANCH  28  29
ENDBRANCH  20  23
ENDBRANCH  18  19
ENDBRANCH   1  18
TORSDOF 16
ENDMDL
