MODEL 1
REMARK VINA RESULT:     -11.7      0.000      0.000
REMARK SMILES C[C@]1(c2nnnn2CCC(=O)NCCCNC(=O)c2ccc(-c3c4nc(c(-c5cccc(S(=O)(=O)[O-])c5F)c5ccc([nH]5)c(-c5cccc(S(=O)(=O)[O-])c5F)c5nc(c(-c6cccc(S(=O)(=O)[O-])c6F)c6ccc3[nH]6)C=C5)C=C4)cc2)CCCO1
REMARK SMILES IDX 14 1 13 2 12 3 10 4 11 5 9 7 8 8 7 9 3 10 4 11 5 12 6 13
REMARK SMILES IDX 2 14 1 15 82 16 85 17 83 18 84 19 15 20 16 21 17 22 18 24
REMARK SMILES IDX 19 25 20 26 81 27 21 28 80 29 22 30 23 31 24 32 74 33 25 34
REMARK SMILES IDX 79 35 73 36 75 37 26 38 78 39 72 40 71 41 27 43 59 44 39 45
REMARK SMILES IDX 58 46 40 47 43 48 57 49 76 50 41 51 42 52 56 54 77 55 44 56
REMARK SMILES IDX 28 57 29 58 37 59 30 60 32 61 38 62 31 63 33 64 34 65 35 66
REMARK SMILES IDX 36 67 60 68 61 69 69 70 62 71 64 72 70 73 63 74 65 75 66 76
REMARK SMILES IDX 67 77 68 78 45 79 46 80 54 81 47 82 49 83 55 84 48 85 50 86
REMARK SMILES IDX 51 87 52 88 53 89
REMARK H PARENT 12 6 16 23 75 42 43 53
REMARK Flexibility Score: inf
ROOT
ATOM      1  C   UNL A   1      36.910  19.837  24.977  1.00  0.00     0.042 C 
ENDROOT
BRANCH   1   2
ATOM      2  C   UNL A   1      35.817  20.817  25.373  1.00  0.00     0.117 C 
BRANCH   2   3
ATOM      3  N   UNL A   1      34.506  20.179  25.424  1.00  0.00    -0.356 N 
ATOM      4  C   UNL A   1      33.319  20.558  24.875  1.00  0.00     0.221 C 
ATOM      5  O   UNL A   1      32.332  19.848  25.058  1.00  0.00    -0.275 OA
ATOM      6  H   UNL A   1      34.475  19.339  25.936  1.00  0.00     0.163 HD
BRANCH   4   7
ATOM      7  C   UNL A   1      33.215  21.793  24.005  1.00  0.00     0.124 C 
BRANCH   7   8
ATOM      8  C   UNL A   1      31.844  22.463  24.095  1.00  0.00     0.158 C 
BRANCH   8   9
ATOM      9  N   UNL A   1      31.579  23.105  25.363  1.00  0.00    -0.226 N 
ATOM     10  C   UNL A   1      32.245  24.089  26.058  1.00  0.00     0.183 A 
ATOM     11  N   UNL A   1      31.754  24.096  27.288  1.00  0.00    -0.111 NA
ATOM     12  N   UNL A   1      30.657  23.279  27.274  1.00  0.00    -0.024 NA
ATOM     13  N   UNL A   1      30.521  22.699  26.093  1.00  0.00    -0.045 NA
BRANCH  10  14
ATOM     14  C   UNL A   1      33.146  25.156  25.531  1.00  0.00     0.126 C 
ATOM     15  C   UNL A   1      34.578  24.586  25.559  1.00  0.00     0.051 C 
ATOM     16  C   UNL A   1      32.776  25.669  24.141  1.00  0.00     0.046 C 
ATOM     17  O   UNL A   1      33.103  26.317  26.378  1.00  0.00    -0.367 OA
ATOM     18  C   UNL A   1      33.422  27.037  24.132  1.00  0.00     0.032 C 
ATOM     19  C   UNL A   1      33.213  27.494  25.562  1.00  0.00     0.161 C 
ENDBRANCH  10  14
ENDBRANCH   8   9
ENDBRANCH   7   8
ENDBRANCH   4   7
ENDBRANCH   2   3
ENDBRANCH   1   2
BRANCH   1  20
ATOM     20  C   UNL A   1      38.306  20.355  25.200  1.00  0.00     0.118 C 
BRANCH  20  21
ATOM     21  N   UNL A   1      39.334  19.335  25.415  1.00  0.00    -0.352 N 
ATOM     22  C   UNL A   1      40.656  19.529  25.788  1.00  0.00     0.251 C 
ATOM     23  H   UNL A   1      39.054  18.401  25.278  1.00  0.00     0.163 HD
ATOM     24  O   UNL A   1      41.461  18.590  25.722  1.00  0.00    -0.269 OA
BRANCH  22  25
ATOM     25  C   UNL A   1      41.106  20.853  26.268  1.00  0.00     0.039 A 
ATOM     26  C   UNL A   1      41.972  21.707  25.580  1.00  0.00     0.014 A 
ATOM     27  C   UNL A   1      40.688  21.243  27.520  1.00  0.00     0.014 A 
ATOM     28  C   UNL A   1      42.415  22.865  26.232  1.00  0.00     0.010 A 
ATOM     29  C   UNL A   1      40.696  22.550  27.844  1.00  0.00     0.010 A 
ATOM     30  C   UNL A   1      41.797  23.236  27.426  1.00  0.00    -0.014 A 
BRANCH  30  31
ATOM     31  C   UNL A   1      42.104  24.390  28.237  1.00  0.00     0.031 A 
ATOM     32  C   UNL A   1      41.028  25.391  28.214  1.00  0.00     0.074 A 
ATOM     33  C   UNL A   1      43.107  24.393  29.147  1.00  0.00     0.049 A 
ATOM     34  N   UNL A   1      40.979  26.433  27.456  1.00  0.00    -0.248 NA
ATOM     35  C   UNL A   1      39.758  25.078  28.890  1.00  0.00     0.031 C 
ATOM     36  C   UNL A   1      43.986  23.290  29.564  1.00  0.00     0.029 A 
ATOM     37  N   UNL A   1      43.459  25.385  30.005  1.00  0.00    -0.354 N 
ATOM     38  C   UNL A   1      39.794  27.062  27.809  1.00  0.00     0.074 A 
ATOM     39  C   UNL A   1      38.974  26.043  28.401  1.00  0.00     0.031 C 
ATOM     40  C   UNL A   1      44.588  23.612  30.734  1.00  0.00     0.029 A 
ATOM     41  C   UNL A   1      44.247  24.980  31.078  1.00  0.00     0.049 A 
ATOM     42  H   UNL A   1      43.178  26.319  29.878  1.00  0.00     0.167 HD
ATOM     43  C   UNL A   1      39.737  28.418  27.913  1.00  0.00     0.034 A 
ATOM     44  C   UNL A   1      44.511  25.712  32.193  1.00  0.00     0.034 A 
ATOM     45  C   UNL A   1      40.949  29.021  27.399  1.00  0.00     0.049 A 
ATOM     46  C   UNL A   1      44.236  27.132  31.849  1.00  0.00     0.074 A 
ATOM     47  C   UNL A   1      41.642  28.951  26.204  1.00  0.00     0.029 A 
ATOM     48  N   UNL A   1      41.853  29.474  28.334  1.00  0.00    -0.354 N 
ATOM     49  N   UNL A   1      44.932  27.806  30.975  1.00  0.00    -0.248 NA
ATOM     50  C   UNL A   1      42.901  27.645  32.114  1.00  0.00     0.031 C 
ATOM     51  C   UNL A   1      43.016  28.895  26.581  1.00  0.00     0.029 A 
ATOM     52  C   UNL A   1      43.097  29.034  27.968  1.00  0.00     0.049 A 
ATOM     53  H   UNL A   1      41.642  30.019  29.126  1.00  0.00     0.167 HD
ATOM     54  C   UNL A   1      43.975  28.496  30.240  1.00  0.00     0.074 A 
ATOM     55  C   UNL A   1      42.761  28.449  31.055  1.00  0.00     0.031 C 
ATOM     56  C   UNL A   1      44.161  28.760  28.911  1.00  0.00     0.034 A 
BRANCH  43  57
ATOM     57  C   UNL A   1      38.819  29.195  28.831  1.00  0.00     0.023 A 
ATOM     58  C   UNL A   1      38.185  30.324  28.265  1.00  0.00     0.012 A 
ATOM     59  C   UNL A   1      38.737  29.057  30.236  1.00  0.00     0.148 A 
ATOM     60  C   UNL A   1      37.579  31.303  29.056  1.00  0.00     0.002 A 
ATOM     61  C   UNL A   1      38.065  29.993  31.014  1.00  0.00     0.091 A 
ATOM     62  F   UNL A   1      39.411  28.096  30.866  1.00  0.00    -0.205 F 
ATOM     63  C   UNL A   1      37.516  31.136  30.433  1.00  0.00     0.022 A 
BRANCH  61  64
ATOM     64  S   UNL A   1      37.913  29.807  32.796  1.00  0.00     0.127 S 
ATOM     65  O   UNL A   1      36.987  30.887  33.124  1.00  0.00    -0.237 OA
ATOM     66  O   UNL A   1      37.358  28.458  32.907  1.00  0.00    -0.237 OA
ATOM     67  O   UNL A   1      39.265  29.941  33.325  1.00  0.00    -0.744 OA
ENDBRANCH  61  64
ENDBRANCH  43  57
BRANCH  44  68
ATOM     68  C   UNL A   1      44.686  25.272  33.602  1.00  0.00     0.023 A 
ATOM     69  C   UNL A   1      43.555  25.130  34.434  1.00  0.00     0.012 A 
ATOM     70  C   UNL A   1      45.903  24.707  34.043  1.00  0.00     0.148 A 
ATOM     71  C   UNL A   1      43.623  24.412  35.637  1.00  0.00     0.002 A 
ATOM     72  C   UNL A   1      45.967  23.997  35.240  1.00  0.00     0.091 A 
ATOM     73  F   UNL A   1      46.976  24.776  33.245  1.00  0.00    -0.205 F 
ATOM     74  C   UNL A   1      44.826  23.836  36.033  1.00  0.00     0.022 A 
BRANCH  72  75
ATOM     75  S   UNL A   1      47.481  23.199  35.792  1.00  0.00     0.127 S 
ATOM     76  O   UNL A   1      47.742  22.256  34.704  1.00  0.00    -0.237 OA
ATOM     77  O   UNL A   1      48.407  24.325  35.860  1.00  0.00    -0.237 OA
ATOM     78  O   UNL A   1      47.150  22.568  37.063  1.00  0.00    -0.744 OA
ENDBRANCH  72  75
ENDBRANCH  44  68
BRANCH  56  79
ATOM     79  C   UNL A   1      45.528  28.520  28.317  1.00  0.00     0.023 A 
ATOM     80  C   UNL A   1      46.599  29.427  28.465  1.00  0.00     0.012 A 
ATOM     81  C   UNL A   1      45.783  27.260  27.751  1.00  0.00     0.148 A 
ATOM     82  C   UNL A   1      47.888  29.091  28.039  1.00  0.00     0.002 A 
ATOM     83  C   UNL A   1      47.072  26.911  27.374  1.00  0.00     0.091 A 
ATOM     84  F   UNL A   1      44.755  26.407  27.616  1.00  0.00    -0.205 F 
ATOM     85  C   UNL A   1      48.128  27.826  27.506  1.00  0.00     0.022 A 
BRANCH  83  86
ATOM     86  S   UNL A   1      47.456  25.254  26.804  1.00  0.00     0.127 S 
ATOM     87  O   UNL A   1      46.944  24.430  27.897  1.00  0.00    -0.237 OA
ATOM     88  O   UNL A   1      46.691  25.162  25.558  1.00  0.00    -0.237 OA
ATOM     89  O   UNL A   1      48.901  25.222  26.615  1.00  0.00    -0.744 OA
ENDBRANCH  83  86
ENDBRANCH  56  79
ENDBRANCH  30  31
ENDBRANCH  22  25
ENDBRANCH  20  21
ENDBRANCH   1  20
TORSDOF 16
ENDMDL
MODEL 2
REMARK VINA RESULT:     -11.7      1.805      2.134
REMARK SMILES C[C@]1(c2nnnn2CCC(=O)NCCCNC(=O)c2ccc(-c3c4nc(c(-c5cccc(S(=O)(=O)[O-])c5F)c5ccc([nH]5)c(-c5cccc(S(=O)(=O)[O-])c5F)c5nc(c(-c6cccc(S(=O)(=O)[O-])c6F)c6ccc3[nH]6)C=C5)C=C4)cc2)CCCO1
REMARK SMILES IDX 14 1 13 2 12 3 10 4 11 5 9 7 8 8 7 9 3 10 4 11 5 12 6 13
REMARK SMILES IDX 2 14 1 15 82 16 85 17 83 18 84 19 15 20 16 21 17 22 18 24
REMARK SMILES IDX 19 25 20 26 81 27 21 28 80 29 22 30 23 31 24 32 74 33 25 34
REMARK SMILES IDX 79 35 73 36 75 37 26 38 78 39 72 40 71 41 27 43 59 44 39 45
REMARK SMILES IDX 58 46 40 47 43 48 57 49 76 50 41 51 42 52 56 54 77 55 44 56
REMARK SMILES IDX 28 57 29 58 37 59 30 60 32 61 38 62 31 63 33 64 34 65 35 66
REMARK SMILES IDX 36 67 60 68 61 69 69 70 62 71 64 72 70 73 63 74 65 75 66 76
REMARK SMILES IDX 67 77 68 78 45 79 46 80 54 81 47 82 49 83 55 84 48 85 50 86
REMARK SMILES IDX 51 87 52 88 53 89
REMARK H PARENT 12 6 16 23 75 42 43 53
REMARK Flexibility Score: inf
ROOT
ATOM      1  C   UNL A   1      37.498  19.401  25.005  1.00  0.00     0.042 C 
ENDROOT
BRANCH   1   2
ATOM      2  C   UNL A   1      36.307  20.348  25.009  1.00  0.00     0.117 C 
BRANCH   2   3
ATOM      3  N   UNL A   1      36.558  21.541  24.210  1.00  0.00    -0.356 N 
ATOM      4  C   UNL A   1      35.773  22.629  23.978  1.00  0.00     0.221 C 
ATOM      5  O   UNL A   1      36.205  23.526  23.255  1.00  0.00    -0.275 OA
ATOM      6  H   UNL A   1      37.437  21.564  23.767  1.00  0.00     0.163 HD
BRANCH   4   7
ATOM      7  C   UNL A   1      34.418  22.774  24.638  1.00  0.00     0.124 C 
BRANCH   7   8
ATOM      8  C   UNL A   1      34.370  23.929  25.638  1.00  0.00     0.158 C 
BRANCH   8   9
ATOM      9  N   UNL A   1      33.038  24.274  26.083  1.00  0.00    -0.226 N 
ATOM     10  C   UNL A   1      32.312  25.441  26.009  1.00  0.00     0.183 A 
ATOM     11  N   UNL A   1      31.278  25.308  26.826  1.00  0.00    -0.111 NA
ATOM     12  N   UNL A   1      31.259  23.999  27.220  1.00  0.00    -0.024 NA
ATOM     13  N   UNL A   1      32.309  23.351  26.741  1.00  0.00    -0.045 NA
BRANCH  10  14
ATOM     14  C   UNL A   1      32.441  26.559  25.029  1.00  0.00     0.126 C 
ATOM     15  C   UNL A   1      31.106  27.329  25.049  1.00  0.00     0.051 C 
ATOM     16  C   UNL A   1      33.626  27.489  25.280  1.00  0.00     0.046 C 
ATOM     17  O   UNL A   1      32.648  26.045  23.702  1.00  0.00    -0.367 OA
ATOM     18  C   UNL A   1      33.844  28.092  23.909  1.00  0.00     0.032 C 
ATOM     19  C   UNL A   1      33.544  26.920  22.997  1.00  0.00     0.161 C 
ENDBRANCH  10  14
ENDBRANCH   8   9
ENDBRANCH   7   8
ENDBRANCH   4   7
ENDBRANCH   2   3
ENDBRANCH   1   2
BRANCH   1  20
ATOM     20  C   UNL A   1      38.792  20.046  25.425  1.00  0.00     0.118 C 
BRANCH  20  21
ATOM     21  N   UNL A   1      39.901  19.128  25.691  1.00  0.00    -0.352 N 
ATOM     22  C   UNL A   1      41.199  19.450  26.060  1.00  0.00     0.251 C 
ATOM     23  H   UNL A   1      39.701  18.168  25.596  1.00  0.00     0.163 HD
ATOM     24  O   UNL A   1      42.081  18.580  26.041  1.00  0.00    -0.269 OA
BRANCH  22  25
ATOM     25  C   UNL A   1      41.531  20.828  26.480  1.00  0.00     0.039 A 
ATOM     26  C   UNL A   1      42.289  21.735  25.735  1.00  0.00     0.014 A 
ATOM     27  C   UNL A   1      41.116  21.221  27.732  1.00  0.00     0.014 A 
ATOM     28  C   UNL A   1      42.636  22.954  26.332  1.00  0.00     0.010 A 
ATOM     29  C   UNL A   1      41.007  22.533  28.011  1.00  0.00     0.010 A 
ATOM     30  C   UNL A   1      42.022  23.306  27.534  1.00  0.00    -0.014 A 
BRANCH  30  31
ATOM     31  C   UNL A   1      42.239  24.514  28.295  1.00  0.00     0.031 A 
ATOM     32  C   UNL A   1      41.106  25.446  28.200  1.00  0.00     0.074 A 
ATOM     33  C   UNL A   1      43.217  24.620  29.225  1.00  0.00     0.049 A 
ATOM     34  N   UNL A   1      41.015  26.446  27.392  1.00  0.00    -0.248 NA
ATOM     35  C   UNL A   1      39.841  25.088  28.862  1.00  0.00     0.031 C 
ATOM     36  C   UNL A   1      44.150  23.593  29.714  1.00  0.00     0.029 A 
ATOM     37  N   UNL A   1      43.488  25.670  30.043  1.00  0.00    -0.354 N 
ATOM     38  C   UNL A   1      39.786  27.018  27.688  1.00  0.00     0.074 A 
ATOM     39  C   UNL A   1      39.013  25.980  28.310  1.00  0.00     0.031 C 
ATOM     40  C   UNL A   1      44.702  24.005  30.881  1.00  0.00     0.029 A 
ATOM     41  C   UNL A   1      44.272  25.365  31.151  1.00  0.00     0.049 A 
ATOM     42  H   UNL A   1      43.155  26.579  29.865  1.00  0.00     0.167 HD
ATOM     43  C   UNL A   1      39.645  28.372  27.726  1.00  0.00     0.034 A 
ATOM     44  C   UNL A   1      44.464  26.162  32.235  1.00  0.00     0.034 A 
ATOM     45  C   UNL A   1      40.832  29.022  27.210  1.00  0.00     0.049 A 
ATOM     46  C   UNL A   1      44.114  27.545  31.817  1.00  0.00     0.074 A 
ATOM     47  C   UNL A   1      41.557  28.938  26.035  1.00  0.00     0.029 A 
ATOM     48  N   UNL A   1      41.684  29.572  28.142  1.00  0.00    -0.354 N 
ATOM     49  N   UNL A   1      44.789  28.219  30.927  1.00  0.00    -0.248 NA
ATOM     50  C   UNL A   1      42.744  27.989  32.027  1.00  0.00     0.031 C 
ATOM     51  C   UNL A   1      42.923  28.984  26.445  1.00  0.00     0.029 A 
ATOM     52  C   UNL A   1      42.960  29.192  27.826  1.00  0.00     0.049 A 
ATOM     53  H   UNL A   1      41.421  30.140  28.902  1.00  0.00     0.167 HD
ATOM     54  C   UNL A   1      43.813  28.815  30.139  1.00  0.00     0.074 A 
ATOM     55  C   UNL A   1      42.583  28.732  30.929  1.00  0.00     0.031 C 
ATOM     56  C   UNL A   1      44.015  29.027  28.803  1.00  0.00     0.034 A 
BRANCH  43  57
ATOM     57  C   UNL A   1      38.660  29.134  28.585  1.00  0.00     0.023 A 
ATOM     58  C   UNL A   1      37.917  30.142  27.931  1.00  0.00     0.012 A 
ATOM     59  C   UNL A   1      38.598  29.111  29.997  1.00  0.00     0.148 A 
ATOM     60  C   UNL A   1      37.222  31.123  28.642  1.00  0.00     0.002 A 
ATOM     61  C   UNL A   1      37.842  30.042  30.700  1.00  0.00     0.091 A 
ATOM     62  F   UNL A   1      39.366  28.279  30.700  1.00  0.00    -0.205 F 
ATOM     63  C   UNL A   1      37.182  31.072  30.030  1.00  0.00     0.022 A 
BRANCH  61  64
ATOM     64  S   UNL A   1      37.717  29.999  32.493  1.00  0.00     0.127 S 
ATOM     65  O   UNL A   1      36.757  31.070  32.744  1.00  0.00    -0.237 OA
ATOM     66  O   UNL A   1      37.211  28.646  32.723  1.00  0.00    -0.237 OA
ATOM     67  O   UNL A   1      39.069  30.222  32.991  1.00  0.00    -0.744 OA
ENDBRANCH  61  64
ENDBRANCH  43  57
BRANCH  44  68
ATOM     68  C   UNL A   1      44.630  25.800  33.667  1.00  0.00     0.023 A 
ATOM     69  C   UNL A   1      45.925  25.600  34.191  1.00  0.00     0.012 A 
ATOM     70  C   UNL A   1      43.565  25.945  34.583  1.00  0.00     0.148 A 
ATOM     71  C   UNL A   1      46.157  25.593  35.574  1.00  0.00     0.002 A 
ATOM     72  C   UNL A   1      43.799  25.933  35.956  1.00  0.00     0.091 A 
ATOM     73  F   UNL A   1      42.336  26.195  34.113  1.00  0.00    -0.205 F 
ATOM     74  C   UNL A   1      45.096  25.770  36.456  1.00  0.00     0.022 A 
BRANCH  72  75
ATOM     75  S   UNL A   1      42.477  26.192  37.148  1.00  0.00     0.127 S 
ATOM     76  O   UNL A   1      41.938  27.486  36.728  1.00  0.00    -0.237 OA
ATOM     77  O   UNL A   1      41.605  25.051  36.883  1.00  0.00    -0.237 OA
ATOM     78  O   UNL A   1      43.124  26.209  38.453  1.00  0.00    -0.744 OA
ENDBRANCH  72  75
ENDBRANCH  44  68
BRANCH  56  79
ATOM     79  C   UNL A   1      45.408  28.843  28.252  1.00  0.00     0.023 A 
ATOM     80  C   UNL A   1      46.419  29.819  28.379  1.00  0.00     0.012 A 
ATOM     81  C   UNL A   1      45.752  27.576  27.755  1.00  0.00     0.148 A 
ATOM     82  C   UNL A   1      47.736  29.543  27.998  1.00  0.00     0.002 A 
ATOM     83  C   UNL A   1      47.069  27.288  27.423  1.00  0.00     0.091 A 
ATOM     84  F   UNL A   1      44.781  26.656  27.639  1.00  0.00    -0.205 F 
ATOM     85  C   UNL A   1      48.064  28.271  27.533  1.00  0.00     0.022 A 
BRANCH  83  86
ATOM     86  S   UNL A   1      47.565  25.633  26.943  1.00  0.00     0.127 S 
ATOM     87  O   UNL A   1      46.879  25.468  25.663  1.00  0.00    -0.237 OA
ATOM     88  O   UNL A   1      49.022  25.754  26.845  1.00  0.00    -0.237 OA
ATOM     89  O   UNL A   1      47.115  24.755  28.016  1.00  0.00    -0.744 OA
ENDBRANCH  83  86
ENDBRANCH  56  79
ENDBRANCH  30  31
ENDBRANCH  22  25
ENDBRANCH  20  21
ENDBRANCH   1  20
TORSDOF 16
ENDMDL
MODEL 3
REMARK VINA RESULT:     -11.5      3.485      7.898
REMARK SMILES C[C@]1(c2nnnn2CCC(=O)NCCCNC(=O)c2ccc(-c3c4nc(c(-c5cccc(S(=O)(=O)[O-])c5F)c5ccc([nH]5)c(-c5cccc(S(=O)(=O)[O-])c5F)c5nc(c(-c6cccc(S(=O)(=O)[O-])c6F)c6ccc3[nH]6)C=C5)C=C4)cc2)CCCO1
REMARK SMILES IDX 14 1 13 2 12 3 10 4 11 5 9 7 8 8 7 9 3 10 4 11 5 12 6 13
REMARK SMILES IDX 2 14 1 15 82 16 85 17 83 18 84 19 15 20 16 21 17 22 18 24
REMARK SMILES IDX 19 25 20 26 81 27 21 28 80 29 22 30 23 31 24 32 74 33 25 34
REMARK SMILES IDX 79 35 73 36 75 37 26 38 78 39 72 40 71 41 27 43 59 44 39 45
REMARK SMILES IDX 58 46 40 47 43 48 57 49 76 50 41 51 42 52 56 54 77 55 44 56
REMARK SMILES IDX 28 57 29 58 37 59 30 60 32 61 38 62 31 63 33 64 34 65 35 66
REMARK SMILES IDX 36 67 60 68 61 69 69 70 62 71 64 72 70 73 63 74 65 75 66 76
REMARK SMILES IDX 67 77 68 78 45 79 46 80 54 81 47 82 49 83 55 84 48 85 50 86
REMARK SMILES IDX 51 87 52 88 53 89
REMARK H PARENT 12 6 16 23 75 42 43 53
REMARK Flexibility Score: inf
ROOT
ATOM      1  C   UNL A   1      33.044  30.904  27.219  1.00  0.00     0.042 C 
ENDROOT
BRANCH   1   2
ATOM      2  C   UNL A   1      33.227  29.574  26.505  1.00  0.00     0.117 C 
BRANCH   2   3
ATOM      3  N   UNL A   1      33.520  29.754  25.087  1.00  0.00    -0.356 N 
ATOM      4  C   UNL A   1      33.352  28.903  24.037  1.00  0.00     0.221 C 
ATOM      5  O   UNL A   1      33.678  29.282  22.913  1.00  0.00    -0.275 OA
ATOM      6  H   UNL A   1      33.899  30.631  24.852  1.00  0.00     0.163 HD
BRANCH   4   7
ATOM      7  C   UNL A   1      32.721  27.539  24.225  1.00  0.00     0.124 C 
BRANCH   7   8
ATOM      8  C   UNL A   1      33.678  26.397  23.883  1.00  0.00     0.158 C 
BRANCH   8   9
ATOM      9  N   UNL A   1      33.358  25.703  22.656  1.00  0.00    -0.226 N 
ATOM     10  C   UNL A   1      33.057  24.386  22.389  1.00  0.00     0.183 A 
ATOM     11  N   UNL A   1      33.143  24.225  21.077  1.00  0.00    -0.111 NA
ATOM     12  N   UNL A   1      33.278  25.476  20.540  1.00  0.00    -0.024 NA
ATOM     13  N   UNL A   1      33.373  26.388  21.494  1.00  0.00    -0.045 NA
BRANCH  10  14
ATOM     14  C   UNL A   1      32.473  23.360  23.302  1.00  0.00     0.126 C 
ATOM     15  C   UNL A   1      31.066  23.855  23.690  1.00  0.00     0.051 C 
ATOM     16  C   UNL A   1      32.428  21.948  22.722  1.00  0.00     0.046 C 
ATOM     17  O   UNL A   1      33.260  23.243  24.500  1.00  0.00    -0.367 OA
ATOM     18  C   UNL A   1      32.371  21.099  23.973  1.00  0.00     0.032 C 
ATOM     19  C   UNL A   1      33.272  21.869  24.917  1.00  0.00     0.161 C 
ENDBRANCH  10  14
ENDBRANCH   8   9
ENDBRANCH   7   8
ENDBRANCH   4   7
ENDBRANCH   2   3
ENDBRANCH   1   2
BRANCH   1  20
ATOM     20  C   UNL A   1      34.337  31.599  27.556  1.00  0.00     0.118 C 
BRANCH  20  21
ATOM     21  N   UNL A   1      34.375  32.270  28.857  1.00  0.00    -0.352 N 
ATOM     22  C   UNL A   1      35.248  32.031  29.909  1.00  0.00     0.251 C 
ATOM     23  H   UNL A   1      33.701  32.974  29.002  1.00  0.00     0.163 HD
ATOM     24  O   UNL A   1      35.022  32.526  31.023  1.00  0.00    -0.269 OA
BRANCH  22  25
ATOM     25  C   UNL A   1      36.446  31.191  29.704  1.00  0.00     0.039 A 
ATOM     26  C   UNL A   1      36.432  29.820  29.440  1.00  0.00     0.014 A 
ATOM     27  C   UNL A   1      37.672  31.799  29.851  1.00  0.00     0.014 A 
ATOM     28  C   UNL A   1      37.656  29.139  29.411  1.00  0.00     0.010 A 
ATOM     29  C   UNL A   1      38.760  31.240  29.288  1.00  0.00     0.010 A 
ATOM     30  C   UNL A   1      38.834  29.885  29.409  1.00  0.00    -0.014 A 
BRANCH  30  31
ATOM     31  C   UNL A   1      40.183  29.372  29.375  1.00  0.00     0.031 A 
ATOM     32  C   UNL A   1      40.725  29.135  30.720  1.00  0.00     0.074 A 
ATOM     33  C   UNL A   1      40.744  28.876  28.246  1.00  0.00     0.049 A 
ATOM     34  N   UNL A   1      41.475  29.943  31.389  1.00  0.00    -0.248 NA
ATOM     35  C   UNL A   1      40.173  28.027  31.518  1.00  0.00     0.031 C 
ATOM     36  C   UNL A   1      40.137  28.666  26.923  1.00  0.00     0.029 A 
ATOM     37  N   UNL A   1      41.971  28.315  28.095  1.00  0.00    -0.354 N 
ATOM     38  C   UNL A   1      41.731  29.275  32.576  1.00  0.00     0.074 A 
ATOM     39  C   UNL A   1      40.669  28.320  32.723  1.00  0.00     0.031 C 
ATOM     40  C   UNL A   1      40.914  27.824  26.200  1.00  0.00     0.029 A 
ATOM     41  C   UNL A   1      42.127  27.544  26.946  1.00  0.00     0.049 A 
ATOM     42  H   UNL A   1      42.696  28.443  28.748  1.00  0.00     0.167 HD
ATOM     43  C   UNL A   1      42.971  29.315  33.138  1.00  0.00     0.034 A 
ATOM     44  C   UNL A   1      43.149  26.684  26.697  1.00  0.00     0.034 A 
ATOM     45  C   UNL A   1      43.806  30.286  32.461  1.00  0.00     0.049 A 
ATOM     46  C   UNL A   1      44.266  27.073  27.598  1.00  0.00     0.074 A 
ATOM     47  C   UNL A   1      43.689  31.630  32.159  1.00  0.00     0.029 A 
ATOM     48  N   UNL A   1      44.748  29.783  31.591  1.00  0.00    -0.354 N 
ATOM     49  N   UNL A   1      44.905  28.206  27.502  1.00  0.00    -0.248 NA
ATOM     50  C   UNL A   1      44.346  26.421  28.897  1.00  0.00     0.031 C 
ATOM     51  C   UNL A   1      44.194  31.752  30.831  1.00  0.00     0.029 A 
ATOM     52  C   UNL A   1      44.680  30.506  30.430  1.00  0.00     0.049 A 
ATOM     53  H   UNL A   1      45.363  29.037  31.773  1.00  0.00     0.167 HD
ATOM     54  C   UNL A   1      45.033  28.637  28.817  1.00  0.00     0.074 A 
ATOM     55  C   UNL A   1      44.776  27.450  29.633  1.00  0.00     0.031 C 
ATOM     56  C   UNL A   1      45.017  29.968  29.129  1.00  0.00     0.034 A 
BRANCH  43  57
ATOM     57  C   UNL A   1      43.588  28.231  33.995  1.00  0.00     0.023 A 
ATOM     58  C   UNL A   1      44.177  28.658  35.206  1.00  0.00     0.012 A 
ATOM     59  C   UNL A   1      43.855  26.903  33.590  1.00  0.00     0.148 A 
ATOM     60  C   UNL A   1      45.049  27.841  35.929  1.00  0.00     0.002 A 
ATOM     61  C   UNL A   1      44.661  26.066  34.353  1.00  0.00     0.091 A 
ATOM     62  F   UNL A   1      43.448  26.458  32.401  1.00  0.00    -0.205 F 
ATOM     63  C   UNL A   1      45.291  26.541  35.504  1.00  0.00     0.022 A 
BRANCH  61  64
ATOM     64  S   UNL A   1      44.973  24.361  33.874  1.00  0.00     0.127 S 
ATOM     65  O   UNL A   1      46.061  23.999  34.779  1.00  0.00    -0.237 OA
ATOM     66  O   UNL A   1      43.686  23.731  34.168  1.00  0.00    -0.237 OA
ATOM     67  O   UNL A   1      45.308  24.401  32.456  1.00  0.00    -0.744 OA
ENDBRANCH  61  64
ENDBRANCH  43  57
BRANCH  44  68
ATOM     68  C   UNL A   1      43.147  25.384  25.978  1.00  0.00     0.023 A 
ATOM     69  C   UNL A   1      44.199  25.076  25.088  1.00  0.00     0.012 A 
ATOM     70  C   UNL A   1      42.295  24.331  26.378  1.00  0.00     0.148 A 
ATOM     71  C   UNL A   1      44.422  23.762  24.653  1.00  0.00     0.002 A 
ATOM     72  C   UNL A   1      42.519  23.027  25.941  1.00  0.00     0.091 A 
ATOM     73  F   UNL A   1      41.327  24.584  27.268  1.00  0.00    -0.205 F 
ATOM     74  C   UNL A   1      43.589  22.737  25.088  1.00  0.00     0.022 A 
BRANCH  72  75
ATOM     75  S   UNL A   1      41.501  21.651  26.494  1.00  0.00     0.127 S 
ATOM     76  O   UNL A   1      40.169  22.059  26.044  1.00  0.00    -0.237 OA
ATOM     77  O   UNL A   1      42.081  20.533  25.756  1.00  0.00    -0.237 OA
ATOM     78  O   UNL A   1      41.656  21.607  27.942  1.00  0.00    -0.744 OA
ENDBRANCH  72  75
ENDBRANCH  44  68
BRANCH  56  79
ATOM     79  C   UNL A   1      45.118  30.969  28.003  1.00  0.00     0.023 A 
ATOM     80  C   UNL A   1      43.990  31.499  27.342  1.00  0.00     0.012 A 
ATOM     81  C   UNL A   1      46.380  31.523  27.734  1.00  0.00     0.148 A 
ATOM     82  C   UNL A   1      44.122  32.541  26.419  1.00  0.00     0.002 A 
ATOM     83  C   UNL A   1      46.503  32.590  26.854  1.00  0.00     0.091 A 
ATOM     84  F   UNL A   1      47.446  31.010  28.369  1.00  0.00    -0.205 F 
ATOM     85  C   UNL A   1      45.378  33.097  26.186  1.00  0.00     0.022 A 
BRANCH  83  86
ATOM     86  S   UNL A   1      48.074  33.422  26.617  1.00  0.00     0.127 S 
ATOM     87  O   UNL A   1      47.776  34.323  25.505  1.00  0.00    -0.237 OA
ATOM     88  O   UNL A   1      48.278  34.088  27.906  1.00  0.00    -0.237 OA
ATOM     89  O   UNL A   1      49.043  32.371  26.334  1.00  0.00    -0.744 OA
ENDBRANCH  83  86
ENDBRANCH  56  79
ENDBRANCH  30  31
ENDBRANCH  22  25
ENDBRANCH  20  21
ENDBRANCH   1  20
TORSDOF 16
ENDMDL
