MODEL 1
REMARK VINA RESULT:     -11.9      0.000      0.000
REMARK SMILES O=C(CCn1c(SCc2ccccn2)nc2ccccc2c1=O)NCCCNC(=O)c1ccc(-c2c3nc(c(-c4cccc(S(=O)(=O)[O-])c4F)c4ccc([nH]4)c(-c4cccc(S(=O)(=O)[O-])c4F)c4nc(c(-c5cccc(S(=O)(=O)[O-])c5F)c5ccc2[nH]5)C=C4)C=C3)cc1
REMARK SMILES IDX 25 1 24 2 1 3 2 4 3 6 4 7 5 8 6 9 22 10 15 11 21 12 23 13
REMARK SMILES IDX 16 14 20 15 17 16 19 17 18 18 7 19 8 20 9 21 10 22 14 23
REMARK SMILES IDX 11 24 13 25 12 26 26 27 27 28 28 29 29 30 30 32 31 33 32 34
REMARK SMILES IDX 93 35 33 36 92 37 34 38 35 39 36 40 86 41 37 42 91 43 85 44
REMARK SMILES IDX 87 45 38 46 90 47 84 48 83 49 39 51 71 52 51 53 70 54 52 55
REMARK SMILES IDX 55 56 69 57 88 58 53 59 54 60 68 62 89 63 56 64 40 65 41 66
REMARK SMILES IDX 49 67 42 68 44 69 50 70 43 71 45 72 46 73 47 74 48 75 72 76
REMARK SMILES IDX 73 77 81 78 74 79 76 80 82 81 75 82 77 83 78 84 79 85 80 86
REMARK SMILES IDX 57 87 58 88 66 89 59 90 61 91 67 92 60 93 62 94 63 95 64 96
REMARK SMILES IDX 65 97
REMARK H PARENT 24 5 28 31 87 50 55 61
REMARK Flexibility Score: inf
ROOT
ATOM      1  C   UNL A   1      31.960  28.467  25.136  1.00  0.00     0.117 C 
ENDROOT
BRANCH   1   2
ATOM      2  N   UNL A   1      32.043  27.021  25.040  1.00  0.00    -0.356 N 
ATOM      3  O   UNL A   1      30.639  26.562  26.804  1.00  0.00    -0.275 OA
ATOM      4  C   UNL A   1      31.315  26.184  25.852  1.00  0.00     0.221 C 
ATOM      5  H   UNL A   1      32.643  26.624  24.368  1.00  0.00     0.163 HD
BRANCH   4   6
ATOM      6  C   UNL A   1      31.301  24.743  25.404  1.00  0.00     0.122 C 
BRANCH   6   7
ATOM      7  C   UNL A   1      32.456  24.505  24.422  1.00  0.00     0.138 C 
BRANCH   7   8
ATOM      8  N   UNL A   1      33.429  23.546  24.949  1.00  0.00    -0.287 N 
ATOM      9  C   UNL A   1      33.401  22.163  24.823  1.00  0.00     0.171 A 
ATOM     10  C   UNL A   1      34.563  24.168  25.501  1.00  0.00     0.262 A 
ATOM     11  N   UNL A   1      34.479  21.448  24.915  1.00  0.00    -0.224 NA
ATOM     12  C   UNL A   1      35.786  23.364  25.616  1.00  0.00     0.066 A 
ATOM     13  O   UNL A   1      34.614  25.357  25.816  1.00  0.00    -0.269 OA
ATOM     14  C   UNL A   1      35.702  22.041  25.216  1.00  0.00     0.079 A 
ATOM     15  C   UNL A   1      37.008  23.932  25.996  1.00  0.00     0.016 A 
ATOM     16  C   UNL A   1      36.873  21.284  25.136  1.00  0.00     0.029 A 
ATOM     17  C   UNL A   1      38.170  23.164  25.936  1.00  0.00     0.001 A 
ATOM     18  C   UNL A   1      38.104  21.846  25.486  1.00  0.00     0.002 A 
BRANCH   9  19
ATOM     19  S   UNL A   1      32.046  21.134  24.444  1.00  0.00    -0.081 SA
BRANCH  19  20
ATOM     20  C   UNL A   1      32.407  19.784  23.348  1.00  0.00     0.134 C 
BRANCH  20  21
ATOM     21  C   UNL A   1      32.723  18.432  23.939  1.00  0.00     0.051 A 
ATOM     22  C   UNL A   1      33.513  17.551  23.197  1.00  0.00     0.025 A 
ATOM     23  N   UNL A   1      32.286  18.129  25.185  1.00  0.00    -0.260 NA
ATOM     24  C   UNL A   1      33.854  16.320  23.745  1.00  0.00     0.003 A 
ATOM     25  C   UNL A   1      32.640  16.931  25.698  1.00  0.00     0.111 A 
ATOM     26  C   UNL A   1      33.414  16.003  25.024  1.00  0.00     0.020 A 
ENDBRANCH  20  21
ENDBRANCH  19  20
ENDBRANCH   9  19
ENDBRANCH   7   8
ENDBRANCH   6   7
ENDBRANCH   4   6
ENDBRANCH   1   2
BRANCH   1  27
ATOM     27  C   UNL A   1      33.215  29.119  25.679  1.00  0.00     0.042 C 
BRANCH  27  28
ATOM     28  C   UNL A   1      33.214  29.391  27.175  1.00  0.00     0.118 C 
BRANCH  28  29
ATOM     29  N   UNL A   1      33.523  30.759  27.582  1.00  0.00    -0.352 N 
ATOM     30  C   UNL A   1      34.729  31.223  28.086  1.00  0.00     0.251 C 
ATOM     31  H   UNL A   1      32.799  31.421  27.489  1.00  0.00     0.163 HD
ATOM     32  O   UNL A   1      34.895  32.393  28.388  1.00  0.00    -0.269 OA
BRANCH  30  33
ATOM     33  C   UNL A   1      35.804  30.226  28.297  1.00  0.00     0.039 A 
ATOM     34  C   UNL A   1      35.901  29.582  29.531  1.00  0.00     0.014 A 
ATOM     35  C   UNL A   1      36.826  30.126  27.353  1.00  0.00     0.014 A 
ATOM     36  C   UNL A   1      37.124  29.040  29.909  1.00  0.00     0.010 A 
ATOM     37  C   UNL A   1      38.022  29.494  27.706  1.00  0.00     0.010 A 
ATOM     38  C   UNL A   1      38.212  29.026  29.016  1.00  0.00    -0.014 A 
BRANCH  38  39
ATOM     39  C   UNL A   1      39.554  28.602  29.500  1.00  0.00     0.031 A 
ATOM     40  C   UNL A   1      40.296  27.468  28.829  1.00  0.00     0.074 A 
ATOM     41  C   UNL A   1      40.147  29.282  30.500  1.00  0.00     0.049 A 
ATOM     42  N   UNL A   1      41.460  26.954  29.136  1.00  0.00    -0.248 NA
ATOM     43  C   UNL A   1      39.653  26.828  27.670  1.00  0.00     0.031 C 
ATOM     44  C   UNL A   1      39.549  30.403  31.224  1.00  0.00     0.029 A 
ATOM     45  N   UNL A   1      41.391  29.146  31.064  1.00  0.00    -0.354 N 
ATOM     46  C   UNL A   1      41.660  25.898  28.254  1.00  0.00     0.074 A 
ATOM     47  C   UNL A   1      40.502  25.848  27.387  1.00  0.00     0.031 C 
ATOM     48  C   UNL A   1      40.443  30.891  32.094  1.00  0.00     0.029 A 
ATOM     49  C   UNL A   1      41.654  30.079  32.038  1.00  0.00     0.049 A 
ATOM     50  H   UNL A   1      42.031  28.449  30.796  1.00  0.00     0.167 HD
ATOM     51  C   UNL A   1      42.717  25.058  28.159  1.00  0.00     0.034 A 
ATOM     52  C   UNL A   1      42.741  30.256  32.813  1.00  0.00     0.034 A 
ATOM     53  C   UNL A   1      43.909  25.154  28.957  1.00  0.00     0.049 A 
ATOM     54  C   UNL A   1      43.908  29.326  32.674  1.00  0.00     0.074 A 
ATOM     55  C   UNL A   1      45.044  24.364  28.904  1.00  0.00     0.029 A 
ATOM     56  N   UNL A   1      44.130  26.108  29.937  1.00  0.00    -0.354 N 
ATOM     57  N   UNL A   1      44.083  28.350  31.816  1.00  0.00    -0.248 NA
ATOM     58  C   UNL A   1      45.025  29.514  33.610  1.00  0.00     0.031 C 
ATOM     59  C   UNL A   1      45.958  24.847  29.847  1.00  0.00     0.029 A 
ATOM     60  C   UNL A   1      45.385  25.932  30.492  1.00  0.00     0.049 A 
ATOM     61  H   UNL A   1      43.489  26.807  30.200  1.00  0.00     0.167 HD
ATOM     62  C   UNL A   1      45.323  27.802  32.114  1.00  0.00     0.074 A 
ATOM     63  C   UNL A   1      45.874  28.578  33.207  1.00  0.00     0.031 C 
ATOM     64  C   UNL A   1      45.935  26.732  31.553  1.00  0.00     0.034 A 
BRANCH  51  65
ATOM     65  C   UNL A   1      42.670  23.978  27.112  1.00  0.00     0.023 A 
ATOM     66  C   UNL A   1      43.226  24.227  25.843  1.00  0.00     0.012 A 
ATOM     67  C   UNL A   1      42.170  22.696  27.414  1.00  0.00     0.148 A 
ATOM     68  C   UNL A   1      43.279  23.217  24.884  1.00  0.00     0.002 A 
ATOM     69  C   UNL A   1      42.247  21.687  26.460  1.00  0.00     0.091 A 
ATOM     70  F   UNL A   1      41.630  22.490  28.624  1.00  0.00    -0.205 F 
ATOM     71  C   UNL A   1      42.800  21.946  25.195  1.00  0.00     0.022 A 
BRANCH  69  72
ATOM     72  S   UNL A   1      41.703  20.004  26.777  1.00  0.00     0.127 S 
ATOM     73  O   UNL A   1      42.685  19.560  27.767  1.00  0.00    -0.237 OA
ATOM     74  O   UNL A   1      40.355  20.211  27.307  1.00  0.00    -0.237 OA
ATOM     75  O   UNL A   1      41.755  19.317  25.496  1.00  0.00    -0.744 OA
ENDBRANCH  69  72
ENDBRANCH  51  65
BRANCH  52  76
ATOM     76  C   UNL A   1      42.769  31.398  33.764  1.00  0.00     0.023 A 
ATOM     77  C   UNL A   1      43.221  32.653  33.315  1.00  0.00     0.012 A 
ATOM     78  C   UNL A   1      42.261  31.272  35.071  1.00  0.00     0.148 A 
ATOM     79  C   UNL A   1      43.159  33.768  34.152  1.00  0.00     0.002 A 
ATOM     80  C   UNL A   1      42.155  32.396  35.881  1.00  0.00     0.091 A 
ATOM     81  F   UNL A   1      41.855  30.062  35.479  1.00  0.00    -0.205 F 
ATOM     82  C   UNL A   1      42.613  33.642  35.426  1.00  0.00     0.022 A 
BRANCH  80  83
ATOM     83  S   UNL A   1      41.334  32.353  37.477  1.00  0.00     0.127 S 
ATOM     84  O   UNL A   1      40.033  31.789  37.129  1.00  0.00    -0.237 OA
ATOM     85  O   UNL A   1      42.208  31.464  38.243  1.00  0.00    -0.237 OA
ATOM     86  O   UNL A   1      41.322  33.732  37.949  1.00  0.00    -0.744 OA
ENDBRANCH  80  83
ENDBRANCH  52  76
BRANCH  64  87
ATOM     87  C   UNL A   1      47.257  26.310  32.124  1.00  0.00     0.023 A 
ATOM     88  C   UNL A   1      48.426  26.959  31.679  1.00  0.00     0.012 A 
ATOM     89  C   UNL A   1      47.342  25.350  33.150  1.00  0.00     0.148 A 
ATOM     90  C   UNL A   1      49.663  26.650  32.240  1.00  0.00     0.002 A 
ATOM     91  C   UNL A   1      48.576  25.065  33.721  1.00  0.00     0.091 A 
ATOM     92  F   UNL A   1      46.218  24.731  33.541  1.00  0.00    -0.205 F 
ATOM     93  C   UNL A   1      49.738  25.713  33.267  1.00  0.00     0.022 A 
BRANCH  91  94
ATOM     94  S   UNL A   1      48.752  23.917  35.092  1.00  0.00     0.127 S 
ATOM     95  O   UNL A   1      50.193  23.963  35.336  1.00  0.00    -0.237 OA
ATOM     96  O   UNL A   1      47.936  24.542  36.134  1.00  0.00    -0.237 OA
ATOM     97  O   UNL A   1      48.235  22.643  34.609  1.00  0.00    -0.744 OA
ENDBRANCH  91  94
ENDBRANCH  64  87
ENDBRANCH  38  39
ENDBRANCH  30  33
ENDBRANCH  28  29
ENDBRANCH  27  28
ENDBRANCH   1  27
TORSDOF 18
ENDMDL
MODEL 2
REMARK VINA RESULT:     -11.7      2.930      3.740
REMARK SMILES O=C(CCn1c(SCc2ccccn2)nc2ccccc2c1=O)NCCCNC(=O)c1ccc(-c2c3nc(c(-c4cccc(S(=O)(=O)[O-])c4F)c4ccc([nH]4)c(-c4cccc(S(=O)(=O)[O-])c4F)c4nc(c(-c5cccc(S(=O)(=O)[O-])c5F)c5ccc2[nH]5)C=C4)C=C3)cc1
REMARK SMILES IDX 25 1 24 2 1 3 2 4 3 6 4 7 5 8 6 9 22 10 15 11 21 12 23 13
REMARK SMILES IDX 16 14 20 15 17 16 19 17 18 18 7 19 8 20 9 21 10 22 14 23
REMARK SMILES IDX 11 24 13 25 12 26 26 27 27 28 28 29 29 30 30 32 31 33 32 34
REMARK SMILES IDX 93 35 33 36 92 37 34 38 35 39 36 40 86 41 37 42 91 43 85 44
REMARK SMILES IDX 87 45 38 46 90 47 84 48 83 49 39 51 71 52 51 53 70 54 52 55
REMARK SMILES IDX 55 56 69 57 88 58 53 59 54 60 68 62 89 63 56 64 40 65 41 66
REMARK SMILES IDX 49 67 42 68 44 69 50 70 43 71 45 72 46 73 47 74 48 75 72 76
REMARK SMILES IDX 73 77 81 78 74 79 76 80 82 81 75 82 77 83 78 84 79 85 80 86
REMARK SMILES IDX 57 87 58 88 66 89 59 90 61 91 67 92 60 93 62 94 63 95 64 96
REMARK SMILES IDX 65 97
REMARK H PARENT 24 5 28 31 87 50 55 61
REMARK Flexibility Score: inf
ROOT
ATOM      1  C   UNL A   1      33.878  28.035  23.861  1.00  0.00     0.117 C 
ENDROOT
BRANCH   1   2
ATOM      2  N   UNL A   1      33.390  26.674  23.728  1.00  0.00    -0.356 N 
ATOM      3  O   UNL A   1      33.856  26.448  21.486  1.00  0.00    -0.275 OA
ATOM      4  C   UNL A   1      33.483  25.968  22.553  1.00  0.00     0.221 C 
ATOM      5  H   UNL A   1      32.978  26.240  24.510  1.00  0.00     0.163 HD
BRANCH   4   6
ATOM      6  C   UNL A   1      33.208  24.490  22.693  1.00  0.00     0.122 C 
BRANCH   6   7
ATOM      7  C   UNL A   1      32.905  24.167  24.162  1.00  0.00     0.138 C 
BRANCH   7   8
ATOM      8  N   UNL A   1      33.925  23.294  24.748  1.00  0.00    -0.287 N 
ATOM      9  C   UNL A   1      34.082  21.929  24.543  1.00  0.00     0.171 A 
ATOM     10  C   UNL A   1      34.906  24.004  25.464  1.00  0.00     0.262 A 
ATOM     11  N   UNL A   1      35.224  21.340  24.721  1.00  0.00    -0.224 NA
ATOM     12  C   UNL A   1      36.198  23.341  25.678  1.00  0.00     0.066 A 
ATOM     13  O   UNL A   1      34.774  25.166  25.848  1.00  0.00    -0.269 OA
ATOM     14  C   UNL A   1      36.323  22.049  25.198  1.00  0.00     0.079 A 
ATOM     15  C   UNL A   1      37.290  24.021  26.231  1.00  0.00     0.016 A 
ATOM     16  C   UNL A   1      37.580  21.441  25.215  1.00  0.00     0.029 A 
ATOM     17  C   UNL A   1      38.538  23.399  26.266  1.00  0.00     0.001 A 
ATOM     18  C   UNL A   1      38.686  22.117  25.740  1.00  0.00     0.002 A 
BRANCH   9  19
ATOM     19  S   UNL A   1      32.915  20.778  23.949  1.00  0.00    -0.081 SA
BRANCH  19  20
ATOM     20  C   UNL A   1      32.358  19.587  25.143  1.00  0.00     0.134 C 
BRANCH  20  21
ATOM     21  C   UNL A   1      32.837  18.161  25.026  1.00  0.00     0.051 A 
ATOM     22  C   UNL A   1      34.110  17.929  24.502  1.00  0.00     0.025 A 
ATOM     23  N   UNL A   1      32.053  17.154  25.480  1.00  0.00    -0.260 NA
ATOM     24  C   UNL A   1      34.587  16.625  24.431  1.00  0.00     0.003 A 
ATOM     25  C   UNL A   1      32.544  15.898  25.409  1.00  0.00     0.111 A 
ATOM     26  C   UNL A   1      33.792  15.587  24.898  1.00  0.00     0.020 A 
ENDBRANCH  20  21
ENDBRANCH  19  20
ENDBRANCH   9  19
ENDBRANCH   7   8
ENDBRANCH   6   7
ENDBRANCH   4   6
ENDBRANCH   1   2
BRANCH   1  27
ATOM     27  C   UNL A   1      32.995  28.921  24.715  1.00  0.00     0.042 C 
BRANCH  27  28
ATOM     28  C   UNL A   1      33.540  29.250  26.096  1.00  0.00     0.118 C 
BRANCH  28  29
ATOM     29  N   UNL A   1      33.106  30.517  26.677  1.00  0.00    -0.352 N 
ATOM     30  C   UNL A   1      33.866  31.377  27.457  1.00  0.00     0.251 C 
ATOM     31  H   UNL A   1      32.177  30.790  26.497  1.00  0.00     0.163 HD
ATOM     32  O   UNL A   1      33.415  32.424  27.889  1.00  0.00    -0.269 OA
BRANCH  30  33
ATOM     33  C   UNL A   1      35.243  30.947  27.794  1.00  0.00     0.039 A 
ATOM     34  C   UNL A   1      35.479  29.609  28.111  1.00  0.00     0.014 A 
ATOM     35  C   UNL A   1      36.217  31.920  28.017  1.00  0.00     0.014 A 
ATOM     36  C   UNL A   1      36.598  29.289  28.871  1.00  0.00     0.010 A 
ATOM     37  C   UNL A   1      37.386  31.571  28.699  1.00  0.00     0.010 A 
ATOM     38  C   UNL A   1      37.544  30.273  29.210  1.00  0.00    -0.014 A 
BRANCH  38  39
ATOM     39  C   UNL A   1      38.637  29.944  30.166  1.00  0.00     0.031 A 
ATOM     40  C   UNL A   1      39.775  29.038  29.758  1.00  0.00     0.074 A 
ATOM     41  C   UNL A   1      38.650  30.517  31.384  1.00  0.00     0.049 A 
ATOM     42  N   UNL A   1      40.794  28.628  30.471  1.00  0.00    -0.248 NA
ATOM     43  C   UNL A   1      39.774  28.523  28.379  1.00  0.00     0.031 C 
ATOM     44  C   UNL A   1      37.621  31.421  31.899  1.00  0.00     0.029 A 
ATOM     45  N   UNL A   1      39.569  30.446  32.401  1.00  0.00    -0.354 N 
ATOM     46  C   UNL A   1      41.516  27.765  29.653  1.00  0.00     0.074 A 
ATOM     47  C   UNL A   1      40.827  27.716  28.382  1.00  0.00     0.031 C 
ATOM     48  C   UNL A   1      37.991  31.865  33.108  1.00  0.00     0.029 A 
ATOM     49  C   UNL A   1      39.250  31.229  33.484  1.00  0.00     0.049 A 
ATOM     50  H   UNL A   1      40.378  29.886  32.357  1.00  0.00     0.167 HD
ATOM     51  C   UNL A   1      42.656  27.090  29.926  1.00  0.00     0.034 A 
ATOM     52  C   UNL A   1      39.888  31.409  34.655  1.00  0.00     0.034 A 
ATOM     53  C   UNL A   1      43.394  27.199  31.155  1.00  0.00     0.049 A 
ATOM     54  C   UNL A   1      41.162  30.666  34.926  1.00  0.00     0.074 A 
ATOM     55  C   UNL A   1      44.580  26.576  31.504  1.00  0.00     0.029 A 
ATOM     56  N   UNL A   1      43.031  27.998  32.227  1.00  0.00    -0.354 N 
ATOM     57  N   UNL A   1      41.836  29.875  34.127  1.00  0.00    -0.248 NA
ATOM     58  C   UNL A   1      41.761  30.835  36.258  1.00  0.00     0.031 C 
ATOM     59  C   UNL A   1      44.940  27.006  32.786  1.00  0.00     0.029 A 
ATOM     60  C   UNL A   1      43.972  27.890  33.236  1.00  0.00     0.049 A 
ATOM     61  H   UNL A   1      42.224  28.559  32.266  1.00  0.00     0.167 HD
ATOM     62  C   UNL A   1      42.933  29.443  34.861  1.00  0.00     0.074 A 
ATOM     63  C   UNL A   1      42.854  30.090  36.155  1.00  0.00     0.031 C 
ATOM     64  C   UNL A   1      43.900  28.565  34.504  1.00  0.00     0.034 A 
BRANCH  51  65
ATOM     65  C   UNL A   1      43.225  26.201  28.854  1.00  0.00     0.023 A 
ATOM     66  C   UNL A   1      42.775  24.870  28.755  1.00  0.00     0.012 A 
ATOM     67  C   UNL A   1      44.121  26.706  27.892  1.00  0.00     0.148 A 
ATOM     68  C   UNL A   1      43.214  24.051  27.717  1.00  0.00     0.002 A 
ATOM     69  C   UNL A   1      44.537  25.889  26.846  1.00  0.00     0.091 A 
ATOM     70  F   UNL A   1      44.548  27.970  28.019  1.00  0.00    -0.205 F 
ATOM     71  C   UNL A   1      44.086  24.561  26.759  1.00  0.00     0.022 A 
BRANCH  69  72
ATOM     72  S   UNL A   1      45.620  26.465  25.534  1.00  0.00     0.127 S 
ATOM     73  O   UNL A   1      46.857  26.730  26.269  1.00  0.00    -0.237 OA
ATOM     74  O   UNL A   1      45.676  25.303  24.647  1.00  0.00    -0.237 OA
ATOM     75  O   UNL A   1      44.972  27.636  24.962  1.00  0.00    -0.744 OA
ENDBRANCH  69  72
ENDBRANCH  51  65
BRANCH  52  76
ATOM     76  C   UNL A   1      39.329  32.373  35.640  1.00  0.00     0.023 A 
ATOM     77  C   UNL A   1      38.382  31.923  36.579  1.00  0.00     0.012 A 
ATOM     78  C   UNL A   1      39.803  33.697  35.714  1.00  0.00     0.148 A 
ATOM     79  C   UNL A   1      37.920  32.776  37.581  1.00  0.00     0.002 A 
ATOM     80  C   UNL A   1      39.377  34.525  36.744  1.00  0.00     0.091 A 
ATOM     81  F   UNL A   1      40.691  34.104  34.796  1.00  0.00    -0.205 F 
ATOM     82  C   UNL A   1      38.428  34.069  37.673  1.00  0.00     0.022 A 
BRANCH  80  83
ATOM     83  S   UNL A   1      40.085  36.151  37.023  1.00  0.00     0.127 S 
ATOM     84  O   UNL A   1      39.777  36.830  35.767  1.00  0.00    -0.237 OA
ATOM     85  O   UNL A   1      39.323  36.619  38.181  1.00  0.00    -0.237 OA
ATOM     86  O   UNL A   1      41.499  35.924  37.289  1.00  0.00    -0.744 OA
ENDBRANCH  80  83
ENDBRANCH  52  76
BRANCH  64  87
ATOM     87  C   UNL A   1      44.939  28.222  35.531  1.00  0.00     0.023 A 
ATOM     88  C   UNL A   1      46.167  28.911  35.509  1.00  0.00     0.012 A 
ATOM     89  C   UNL A   1      44.678  27.296  36.559  1.00  0.00     0.148 A 
ATOM     90  C   UNL A   1      47.127  28.676  36.491  1.00  0.00     0.002 A 
ATOM     91  C   UNL A   1      45.631  27.085  37.549  1.00  0.00     0.091 A 
ATOM     92  F   UNL A   1      43.510  26.637  36.545  1.00  0.00    -0.205 F 
ATOM     93  C   UNL A   1      46.856  27.773  37.516  1.00  0.00     0.022 A 
BRANCH  91  94
ATOM     94  S   UNL A   1      45.337  25.986  38.939  1.00  0.00     0.127 S 
ATOM     95  O   UNL A   1      44.040  26.458  39.422  1.00  0.00    -0.237 OA
ATOM     96  O   UNL A   1      45.306  24.669  38.299  1.00  0.00    -0.237 OA
ATOM     97  O   UNL A   1      46.459  26.187  39.846  1.00  0.00    -0.744 OA
ENDBRANCH  91  94
ENDBRANCH  64  87
ENDBRANCH  38  39
ENDBRANCH  30  33
ENDBRANCH  28  29
ENDBRANCH  27  28
ENDBRANCH   1  27
TORSDOF 18
ENDMDL
MODEL 3
REMARK VINA RESULT:     -11.7      1.592      7.511
REMARK SMILES O=C(CCn1c(SCc2ccccn2)nc2ccccc2c1=O)NCCCNC(=O)c1ccc(-c2c3nc(c(-c4cccc(S(=O)(=O)[O-])c4F)c4ccc([nH]4)c(-c4cccc(S(=O)(=O)[O-])c4F)c4nc(c(-c5cccc(S(=O)(=O)[O-])c5F)c5ccc2[nH]5)C=C4)C=C3)cc1
REMARK SMILES IDX 25 1 24 2 1 3 2 4 3 6 4 7 5 8 6 9 22 10 15 11 21 12 23 13
REMARK SMILES IDX 16 14 20 15 17 16 19 17 18 18 7 19 8 20 9 21 10 22 14 23
REMARK SMILES IDX 11 24 13 25 12 26 26 27 27 28 28 29 29 30 30 32 31 33 32 34
REMARK SMILES IDX 93 35 33 36 92 37 34 38 35 39 36 40 86 41 37 42 91 43 85 44
REMARK SMILES IDX 87 45 38 46 90 47 84 48 83 49 39 51 71 52 51 53 70 54 52 55
REMARK SMILES IDX 55 56 69 57 88 58 53 59 54 60 68 62 89 63 56 64 40 65 41 66
REMARK SMILES IDX 49 67 42 68 44 69 50 70 43 71 45 72 46 73 47 74 48 75 72 76
REMARK SMILES IDX 73 77 81 78 74 79 76 80 82 81 75 82 77 83 78 84 79 85 80 86
REMARK SMILES IDX 57 87 58 88 66 89 59 90 61 91 67 92 60 93 62 94 63 95 64 96
REMARK SMILES IDX 65 97
REMARK H PARENT 24 5 28 31 87 50 55 61
REMARK Flexibility Score: inf
ROOT
ATOM      1  C   UNL A   1      32.088  28.375  25.345  1.00  0.00     0.117 C 
ENDROOT
BRANCH   1   2
ATOM      2  N   UNL A   1      32.163  26.926  25.290  1.00  0.00    -0.356 N 
ATOM      3  O   UNL A   1      30.429  26.519  26.746  1.00  0.00    -0.275 OA
ATOM      4  C   UNL A   1      31.274  26.114  25.953  1.00  0.00     0.221 C 
ATOM      5  H   UNL A   1      32.879  26.508  24.758  1.00  0.00     0.163 HD
BRANCH   4   6
ATOM      6  C   UNL A   1      31.325  24.665  25.534  1.00  0.00     0.122 C 
BRANCH   6   7
ATOM      7  C   UNL A   1      32.486  24.461  24.552  1.00  0.00     0.138 C 
BRANCH   7   8
ATOM      8  N   UNL A   1      33.474  23.510  25.069  1.00  0.00    -0.287 N 
ATOM      9  C   UNL A   1      33.432  22.124  24.984  1.00  0.00     0.171 A 
ATOM     10  C   UNL A   1      34.633  24.140  25.557  1.00  0.00     0.262 A 
ATOM     11  N   UNL A   1      34.508  21.404  25.054  1.00  0.00    -0.224 NA
ATOM     12  C   UNL A   1      35.854  23.329  25.647  1.00  0.00     0.066 A 
ATOM     13  O   UNL A   1      34.704  25.337  25.835  1.00  0.00    -0.269 OA
ATOM     14  C   UNL A   1      35.746  21.996  25.290  1.00  0.00     0.079 A 
ATOM     15  C   UNL A   1      37.094  23.899  25.962  1.00  0.00     0.016 A 
ATOM     16  C   UNL A   1      36.908  21.229  25.185  1.00  0.00     0.029 A 
ATOM     17  C   UNL A   1      38.247  23.121  25.878  1.00  0.00     0.001 A 
ATOM     18  C   UNL A   1      38.155  21.790  25.470  1.00  0.00     0.002 A 
BRANCH   9  19
ATOM     19  S   UNL A   1      32.056  21.095  24.689  1.00  0.00    -0.081 SA
BRANCH  19  20
ATOM     20  C   UNL A   1      32.322  19.803  23.501  1.00  0.00     0.134 C 
BRANCH  20  21
ATOM     21  C   UNL A   1      32.706  18.429  23.993  1.00  0.00     0.051 A 
ATOM     22  C   UNL A   1      33.521  17.637  23.182  1.00  0.00     0.025 A 
ATOM     23  N   UNL A   1      32.303  18.023  25.220  1.00  0.00    -0.260 NA
ATOM     24  C   UNL A   1      33.925  16.388  23.639  1.00  0.00     0.003 A 
ATOM     25  C   UNL A   1      32.717  16.810  25.645  1.00  0.00     0.111 A 
ATOM     26  C   UNL A   1      33.520  15.965  24.898  1.00  0.00     0.020 A 
ENDBRANCH  20  21
ENDBRANCH  19  20
ENDBRANCH   9  19
ENDBRANCH   7   8
ENDBRANCH   6   7
ENDBRANCH   4   6
ENDBRANCH   1   2
BRANCH   1  27
ATOM     27  C   UNL A   1      33.321  29.031  25.930  1.00  0.00     0.042 C 
BRANCH  27  28
ATOM     28  C   UNL A   1      33.277  29.287  27.428  1.00  0.00     0.118 C 
BRANCH  28  29
ATOM     29  N   UNL A   1      33.556  30.654  27.859  1.00  0.00    -0.352 N 
ATOM     30  C   UNL A   1      34.775  31.155  28.292  1.00  0.00     0.251 C 
ATOM     31  H   UNL A   1      32.801  31.285  27.839  1.00  0.00     0.163 HD
ATOM     32  O   UNL A   1      34.913  32.321  28.622  1.00  0.00    -0.269 OA
BRANCH  30  33
ATOM     33  C   UNL A   1      35.903  30.200  28.393  1.00  0.00     0.039 A 
ATOM     34  C   UNL A   1      36.136  29.549  29.605  1.00  0.00     0.014 A 
ATOM     35  C   UNL A   1      36.840  30.151  27.360  1.00  0.00     0.014 A 
ATOM     36  C   UNL A   1      37.409  29.054  29.865  1.00  0.00     0.010 A 
ATOM     37  C   UNL A   1      38.086  29.565  27.597  1.00  0.00     0.010 A 
ATOM     38  C   UNL A   1      38.412  29.093  28.879  1.00  0.00    -0.014 A 
BRANCH  38  39
ATOM     39  C   UNL A   1      39.808  28.719  29.235  1.00  0.00     0.031 A 
ATOM     40  C   UNL A   1      40.533  29.420  30.361  1.00  0.00     0.074 A 
ATOM     41  C   UNL A   1      40.407  27.697  28.597  1.00  0.00     0.049 A 
ATOM     42  N   UNL A   1      41.757  29.238  30.788  1.00  0.00    -0.248 NA
ATOM     43  C   UNL A   1      39.796  30.458  31.102  1.00  0.00     0.031 C 
ATOM     44  C   UNL A   1      39.815  26.927  27.502  1.00  0.00     0.029 A 
ATOM     45  N   UNL A   1      41.634  27.112  28.790  1.00  0.00    -0.354 N 
ATOM     46  C   UNL A   1      41.957  30.172  31.799  1.00  0.00     0.074 A 
ATOM     47  C   UNL A   1      40.723  30.917  31.933  1.00  0.00     0.031 C 
ATOM     48  C   UNL A   1      40.652  25.937  27.159  1.00  0.00     0.029 A 
ATOM     49  C   UNL A   1      41.866  26.040  27.962  1.00  0.00     0.049 A 
ATOM     50  H   UNL A   1      42.284  27.431  29.457  1.00  0.00     0.167 HD
ATOM     51  C   UNL A   1      43.057  30.381  32.558  1.00  0.00     0.034 A 
ATOM     52  C   UNL A   1      42.940  25.236  27.847  1.00  0.00     0.034 A 
ATOM     53  C   UNL A   1      44.256  29.591  32.492  1.00  0.00     0.049 A 
ATOM     54  C   UNL A   1      44.138  25.474  28.716  1.00  0.00     0.074 A 
ATOM     55  C   UNL A   1      45.408  29.711  33.249  1.00  0.00     0.029 A 
ATOM     56  N   UNL A   1      44.451  28.520  31.634  1.00  0.00    -0.354 N 
ATOM     57  N   UNL A   1      44.293  26.348  29.680  1.00  0.00    -0.248 NA
ATOM     58  C   UNL A   1      45.311  24.620  28.479  1.00  0.00     0.031 C 
ATOM     59  C   UNL A   1      46.298  28.705  32.856  1.00  0.00     0.029 A 
ATOM     60  C   UNL A   1      45.701  27.967  31.847  1.00  0.00     0.049 A 
ATOM     61  H   UNL A   1      43.797  28.201  30.971  1.00  0.00     0.167 HD
ATOM     62  C   UNL A   1      45.582  26.158  30.159  1.00  0.00     0.074 A 
ATOM     63  C   UNL A   1      46.153  25.060  29.406  1.00  0.00     0.031 C 
ATOM     64  C   UNL A   1      46.243  26.853  31.116  1.00  0.00     0.034 A 
BRANCH  51  65
ATOM     65  C   UNL A   1      43.010  31.483  33.582  1.00  0.00     0.023 A 
ATOM     66  C   UNL A   1      43.441  32.774  33.221  1.00  0.00     0.012 A 
ATOM     67  C   UNL A   1      42.452  31.266  34.857  1.00  0.00     0.148 A 
ATOM     68  C   UNL A   1      43.324  33.834  34.118  1.00  0.00     0.002 A 
ATOM     69  C   UNL A   1      42.317  32.333  35.738  1.00  0.00     0.091 A 
ATOM     70  F   UNL A   1      42.066  30.024  35.182  1.00  0.00    -0.205 F 
ATOM     71  C   UNL A   1      42.754  33.617  35.371  1.00  0.00     0.022 A 
BRANCH  69  72
ATOM     72  S   UNL A   1      41.553  32.169  37.356  1.00  0.00     0.127 S 
ATOM     73  O   UNL A   1      40.231  31.652  37.004  1.00  0.00    -0.237 OA
ATOM     74  O   UNL A   1      42.431  31.201  38.014  1.00  0.00    -0.237 OA
ATOM     75  O   UNL A   1      41.565  33.500  37.943  1.00  0.00    -0.744 OA
ENDBRANCH  69  72
ENDBRANCH  51  65
BRANCH  52  76
ATOM     76  C   UNL A   1      42.892  24.104  26.884  1.00  0.00     0.023 A 
ATOM     77  C   UNL A   1      43.595  24.208  25.669  1.00  0.00     0.012 A 
ATOM     78  C   UNL A   1      42.244  22.897  27.209  1.00  0.00     0.148 A 
ATOM     79  C   UNL A   1      43.657  23.123  24.794  1.00  0.00     0.002 A 
ATOM     80  C   UNL A   1      42.353  21.805  26.357  1.00  0.00     0.091 A 
ATOM     81  F   UNL A   1      41.567  22.832  28.364  1.00  0.00    -0.205 F 
ATOM     82  C   UNL A   1      43.051  21.920  25.145  1.00  0.00     0.022 A 
BRANCH  80  83
ATOM     83  S   UNL A   1      41.727  20.180  26.796  1.00  0.00     0.127 S 
ATOM     84  O   UNL A   1      41.817  19.473  25.522  1.00  0.00    -0.237 OA
ATOM     85  O   UNL A   1      42.688  19.749  27.811  1.00  0.00    -0.237 OA
ATOM     86  O   UNL A   1      40.380  20.403  27.303  1.00  0.00    -0.744 OA
ENDBRANCH  80  83
ENDBRANCH  52  76
BRANCH  64  87
ATOM     87  C   UNL A   1      47.669  26.474  31.388  1.00  0.00     0.023 A 
ATOM     88  C   UNL A   1      47.938  25.530  32.398  1.00  0.00     0.012 A 
ATOM     89  C   UNL A   1      48.725  26.973  30.602  1.00  0.00     0.148 A 
ATOM     90  C   UNL A   1      49.242  25.095  32.630  1.00  0.00     0.002 A 
ATOM     91  C   UNL A   1      50.018  26.515  30.823  1.00  0.00     0.091 A 
ATOM     92  F   UNL A   1      48.445  27.887  29.661  1.00  0.00    -0.205 F 
ATOM     93  C   UNL A   1      50.279  25.578  31.837  1.00  0.00     0.022 A 
BRANCH  91  94
ATOM     94  S   UNL A   1      51.403  27.039  29.805  1.00  0.00     0.127 S 
ATOM     95  O   UNL A   1      50.877  26.830  28.457  1.00  0.00    -0.237 OA
ATOM     96  O   UNL A   1      51.563  28.443  30.186  1.00  0.00    -0.237 OA
ATOM     97  O   UNL A   1      52.519  26.183  30.185  1.00  0.00    -0.744 OA
ENDBRANCH  91  94
ENDBRANCH  64  87
ENDBRANCH  38  39
ENDBRANCH  30  33
ENDBRANCH  28  29
ENDBRANCH  27  28
ENDBRANCH   1  27
TORSDOF 18
ENDMDL
