MODEL 1
REMARK VINA RESULT:     -12.0      0.000      0.000
REMARK SMILES Cn1cccc1/C=C1/SC(=S)N([C@@H](CCC(N)=O)C(=O)NCCCNC(=O)c2ccc(-c3c4nc(c(-c5cccc(S(=O)(=O)[O-])c5F)c5ccc([nH]5)c(-c5cccc(S(=O)(=O)[O-])c5F)c5nc(c(-c6cccc(S(=O)(=O)[O-])c6F)c6ccc3[nH]6)C=C5)C=C4)cc2)C1=O
REMARK SMILES IDX 23 1 22 2 21 3 19 4 20 5 13 7 12 8 7 9 8 10 9 11 91 12 10 13
REMARK SMILES IDX 92 14 11 15 6 16 1 17 2 18 3 19 4 20 5 21 14 22 15 23 16 24
REMARK SMILES IDX 17 25 18 26 24 29 25 30 26 31 27 33 28 34 29 35 90 36 30 37
REMARK SMILES IDX 89 38 31 39 32 40 33 41 83 42 34 43 88 44 82 45 84 46 35 47
REMARK SMILES IDX 87 48 81 49 80 50 36 52 68 53 48 54 67 55 49 56 52 57 66 58
REMARK SMILES IDX 85 59 50 60 51 61 65 63 86 64 53 65 37 66 38 67 46 68 39 69
REMARK SMILES IDX 41 70 47 71 40 72 42 73 43 74 44 75 45 76 69 77 70 78 78 79
REMARK SMILES IDX 71 80 73 81 79 82 72 83 74 84 75 85 76 86 77 87 54 88 55 89
REMARK SMILES IDX 63 90 56 91 58 92 64 93 57 94 59 95 60 96 61 97 62 98
REMARK H PARENT 21 6 17 27 17 28 25 32 84 51 52 62
REMARK Flexibility Score: inf
ROOT
ATOM      1  C   UNL A   1      31.765  29.131  26.851  1.00  0.00     0.042 C 
ENDROOT
BRANCH   1   2
ATOM      2  C   UNL A   1      32.166  27.679  26.719  1.00  0.00     0.117 C 
BRANCH   2   3
ATOM      3  N   UNL A   1      31.084  26.750  26.911  1.00  0.00    -0.354 N 
ATOM      4  C   UNL A   1      30.295  26.135  25.994  1.00  0.00     0.243 C 
ATOM      5  O   UNL A   1      29.635  25.170  26.397  1.00  0.00    -0.273 OA
ATOM      6  H   UNL A   1      30.886  26.528  27.850  1.00  0.00     0.163 HD
BRANCH   4   7
ATOM      7  C   UNL A   1      30.140  26.620  24.532  1.00  0.00     0.181 C 
BRANCH   7   8
ATOM      8  N   UNL A   1      31.226  26.095  23.652  1.00  0.00    -0.280 N 
ATOM      9  C   UNL A   1      33.433  23.343  22.661  1.00  0.00     0.047 C 
ATOM     10  C   UNL A   1      32.713  24.475  22.746  1.00  0.00     0.082 C 
ATOM     11  S   UNL A   1      33.254  25.950  22.041  1.00  0.00    -0.054 SA
ATOM     12  C   UNL A   1      31.447  24.747  23.481  1.00  0.00     0.266 C 
ATOM     13  C   UNL A   1      32.103  26.917  22.956  1.00  0.00     0.149 C 
ATOM     14  O   UNL A   1      30.660  23.864  23.804  1.00  0.00    -0.268 OA
ATOM     15  S   UNL A   1      32.159  28.586  22.879  1.00  0.00    -0.052 S 
BRANCH   9  16
ATOM     16  C   UNL A   1      33.195  22.161  23.410  1.00  0.00     0.042 A 
ATOM     17  C   UNL A   1      34.421  22.824  25.541  1.00  0.00     0.149 C 
ATOM     18  N   UNL A   1      33.701  21.921  24.669  1.00  0.00    -0.351 N 
ATOM     19  C   UNL A   1      33.357  20.648  25.065  1.00  0.00     0.086 A 
ATOM     20  C   UNL A   1      32.497  20.127  24.128  1.00  0.00     0.020 A 
ATOM     21  C   UNL A   1      32.369  21.089  23.103  1.00  0.00     0.028 A 
ENDBRANCH   9  16
ENDBRANCH   7   8
BRANCH   7  22
ATOM     22  C   UNL A   1      28.721  26.857  23.945  1.00  0.00     0.045 C 
BRANCH  22  23
ATOM     23  C   UNL A   1      28.383  27.854  22.833  1.00  0.00     0.102 C 
BRANCH  23  24
ATOM     24  C   UNL A   1      27.291  28.850  23.153  1.00  0.00     0.217 C 
ATOM     25  N   UNL A   1      27.674  30.158  23.044  1.00  0.00    -0.370 N 
ATOM     26  O   UNL A   1      26.157  28.546  23.498  1.00  0.00    -0.275 OA
ATOM     27  H   UNL A   1      28.592  30.380  22.764  1.00  0.00     0.159 HD
ATOM     28  H   UNL A   1      27.033  30.877  23.245  1.00  0.00     0.159 HD
ENDBRANCH  23  24
ENDBRANCH  22  23
ENDBRANCH   7  22
ENDBRANCH   4   7
ENDBRANCH   2   3
ENDBRANCH   1   2
BRANCH   1  29
ATOM     29  C   UNL A   1      32.686  30.069  26.095  1.00  0.00     0.118 C 
BRANCH  29  30
ATOM     30  N   UNL A   1      32.567  31.460  26.536  1.00  0.00    -0.352 N 
ATOM     31  C   UNL A   1      33.338  32.181  27.417  1.00  0.00     0.251 C 
ATOM     32  H   UNL A   1      31.816  31.958  26.138  1.00  0.00     0.163 HD
ATOM     33  O   UNL A   1      32.974  33.301  27.766  1.00  0.00    -0.269 OA
BRANCH  31  34
ATOM     34  C   UNL A   1      34.581  31.594  27.961  1.00  0.00     0.039 A 
ATOM     35  C   UNL A   1      35.710  32.403  28.125  1.00  0.00     0.014 A 
ATOM     36  C   UNL A   1      34.622  30.254  28.342  1.00  0.00     0.014 A 
ATOM     37  C   UNL A   1      36.841  31.892  28.767  1.00  0.00     0.010 A 
ATOM     38  C   UNL A   1      35.697  29.782  29.078  1.00  0.00     0.010 A 
ATOM     39  C   UNL A   1      36.824  30.590  29.288  1.00  0.00    -0.014 A 
BRANCH  39  40
ATOM     40  C   UNL A   1      37.972  30.006  30.025  1.00  0.00     0.031 A 
ATOM     41  C   UNL A   1      38.254  30.479  31.426  1.00  0.00     0.074 A 
ATOM     42  C   UNL A   1      38.829  29.177  29.398  1.00  0.00     0.049 A 
ATOM     43  N   UNL A   1      39.292  30.247  32.183  1.00  0.00    -0.248 NA
ATOM     44  C   UNL A   1      37.257  31.377  32.036  1.00  0.00     0.031 C 
ATOM     45  C   UNL A   1      38.706  28.713  28.014  1.00  0.00     0.029 A 
ATOM     46  N   UNL A   1      40.000  28.609  29.835  1.00  0.00    -0.354 N 
ATOM     47  C   UNL A   1      39.102  31.015  33.326  1.00  0.00     0.074 A 
ATOM     48  C   UNL A   1      37.874  31.752  33.145  1.00  0.00     0.031 C 
ATOM     49  C   UNL A   1      39.758  27.933  27.717  1.00  0.00     0.029 A 
ATOM     50  C   UNL A   1      40.645  27.866  28.873  1.00  0.00     0.049 A 
ATOM     51  H   UNL A   1      40.345  28.724  30.750  1.00  0.00     0.167 HD
ATOM     52  C   UNL A   1      39.864  31.075  34.443  1.00  0.00     0.034 A 
ATOM     53  C   UNL A   1      41.825  27.215  28.922  1.00  0.00     0.034 A 
ATOM     54  C   UNL A   1      41.041  30.279  34.647  1.00  0.00     0.049 A 
ATOM     55  C   UNL A   1      42.614  27.235  30.204  1.00  0.00     0.074 A 
ATOM     56  C   UNL A   1      41.829  30.181  35.779  1.00  0.00     0.029 A 
ATOM     57  N   UNL A   1      41.596  29.436  33.696  1.00  0.00    -0.354 N 
ATOM     58  N   UNL A   1      42.343  27.847  31.331  1.00  0.00    -0.248 NA
ATOM     59  C   UNL A   1      43.855  26.446  30.234  1.00  0.00     0.031 C 
ATOM     60  C   UNL A   1      42.866  29.283  35.509  1.00  0.00     0.029 A 
ATOM     61  C   UNL A   1      42.713  28.810  34.215  1.00  0.00     0.049 A 
ATOM     62  H   UNL A   1      41.245  29.304  32.786  1.00  0.00     0.167 HD
ATOM     63  C   UNL A   1      43.351  27.483  32.217  1.00  0.00     0.074 A 
ATOM     64  C   UNL A   1      44.234  26.588  31.498  1.00  0.00     0.031 C 
ATOM     65  C   UNL A   1      43.537  27.866  33.504  1.00  0.00     0.034 A 
BRANCH  52  66
ATOM     66  C   UNL A   1      39.400  31.981  35.554  1.00  0.00     0.023 A 
ATOM     67  C   UNL A   1      38.499  31.489  36.521  1.00  0.00     0.012 A 
ATOM     68  C   UNL A   1      39.871  33.304  35.658  1.00  0.00     0.148 A 
ATOM     69  C   UNL A   1      38.037  32.311  37.548  1.00  0.00     0.002 A 
ATOM     70  C   UNL A   1      39.443  34.103  36.713  1.00  0.00     0.091 A 
ATOM     71  F   UNL A   1      40.707  33.764  34.717  1.00  0.00    -0.205 F 
ATOM     72  C   UNL A   1      38.517  33.614  37.648  1.00  0.00     0.022 A 
BRANCH  70  73
ATOM     73  S   UNL A   1      40.064  35.768  36.976  1.00  0.00     0.127 S 
ATOM     74  O   UNL A   1      41.502  35.532  37.089  1.00  0.00    -0.237 OA
ATOM     75  O   UNL A   1      39.653  36.449  35.747  1.00  0.00    -0.237 OA
ATOM     76  O   UNL A   1      39.410  36.253  38.183  1.00  0.00    -0.744 OA
ENDBRANCH  70  73
ENDBRANCH  52  66
BRANCH  53  77
ATOM     77  C   UNL A   1      42.283  26.415  27.749  1.00  0.00     0.023 A 
ATOM     78  C   UNL A   1      43.163  27.006  26.822  1.00  0.00     0.012 A 
ATOM     79  C   UNL A   1      41.888  25.076  27.564  1.00  0.00     0.148 A 
ATOM     80  C   UNL A   1      43.615  26.291  25.712  1.00  0.00     0.002 A 
ATOM     81  C   UNL A   1      42.384  24.352  26.484  1.00  0.00     0.091 A 
ATOM     82  F   UNL A   1      41.044  24.533  28.452  1.00  0.00    -0.205 F 
ATOM     83  C   UNL A   1      43.234  24.962  25.548  1.00  0.00     0.022 A 
BRANCH  81  84
ATOM     84  S   UNL A   1      42.048  22.601  26.261  1.00  0.00     0.127 S 
ATOM     85  O   UNL A   1      42.726  22.325  24.997  1.00  0.00    -0.237 OA
ATOM     86  O   UNL A   1      42.685  22.017  27.442  1.00  0.00    -0.237 OA
ATOM     87  O   UNL A   1      40.597  22.479  26.243  1.00  0.00    -0.744 OA
ENDBRANCH  81  84
ENDBRANCH  53  77
BRANCH  65  88
ATOM     88  C   UNL A   1      44.708  27.284  34.249  1.00  0.00     0.023 A 
ATOM     89  C   UNL A   1      45.960  27.927  34.199  1.00  0.00     0.012 A 
ATOM     90  C   UNL A   1      44.535  26.164  35.086  1.00  0.00     0.148 A 
ATOM     91  C   UNL A   1      47.030  27.450  34.955  1.00  0.00     0.002 A 
ATOM     92  C   UNL A   1      45.591  25.724  35.873  1.00  0.00     0.091 A 
ATOM     93  F   UNL A   1      43.339  25.557  35.104  1.00  0.00    -0.205 F 
ATOM     94  C   UNL A   1      46.842  26.359  35.801  1.00  0.00     0.022 A 
BRANCH  92  95
ATOM     95  S   UNL A   1      45.413  24.391  37.065  1.00  0.00     0.127 S 
ATOM     96  O   UNL A   1      45.127  23.251  36.196  1.00  0.00    -0.237 OA
ATOM     97  O   UNL A   1      46.733  24.361  37.696  1.00  0.00    -0.237 OA
ATOM     98  O   UNL A   1      44.328  24.790  37.951  1.00  0.00    -0.744 OA
ENDBRANCH  92  95
ENDBRANCH  65  88
ENDBRANCH  39  40
ENDBRANCH  31  34
ENDBRANCH  29  30
ENDBRANCH   1  29
TORSDOF 18
ENDMDL
MODEL 2
REMARK VINA RESULT:     -11.9      2.063      2.734
REMARK SMILES Cn1cccc1/C=C1/SC(=S)N([C@@H](CCC(N)=O)C(=O)NCCCNC(=O)c2ccc(-c3c4nc(c(-c5cccc(S(=O)(=O)[O-])c5F)c5ccc([nH]5)c(-c5cccc(S(=O)(=O)[O-])c5F)c5nc(c(-c6cccc(S(=O)(=O)[O-])c6F)c6ccc3[nH]6)C=C5)C=C4)cc2)C1=O
REMARK SMILES IDX 23 1 22 2 21 3 19 4 20 5 13 7 12 8 7 9 8 10 9 11 91 12 10 13
REMARK SMILES IDX 92 14 11 15 6 16 1 17 2 18 3 19 4 20 5 21 14 22 15 23 16 24
REMARK SMILES IDX 17 25 18 26 24 29 25 30 26 31 27 33 28 34 29 35 90 36 30 37
REMARK SMILES IDX 89 38 31 39 32 40 33 41 83 42 34 43 88 44 82 45 84 46 35 47
REMARK SMILES IDX 87 48 81 49 80 50 36 52 68 53 48 54 67 55 49 56 52 57 66 58
REMARK SMILES IDX 85 59 50 60 51 61 65 63 86 64 53 65 37 66 38 67 46 68 39 69
REMARK SMILES IDX 41 70 47 71 40 72 42 73 43 74 44 75 45 76 69 77 70 78 78 79
REMARK SMILES IDX 71 80 73 81 79 82 72 83 74 84 75 85 76 86 77 87 54 88 55 89
REMARK SMILES IDX 63 90 56 91 58 92 64 93 57 94 59 95 60 96 61 97 62 98
REMARK H PARENT 21 6 17 27 17 28 25 32 84 51 52 62
REMARK Flexibility Score: inf
ROOT
ATOM      1  C   UNL A   1      33.402  27.444  26.215  1.00  0.00     0.042 C 
ENDROOT
BRANCH   1   2
ATOM      2  C   UNL A   1      32.077  27.980  26.711  1.00  0.00     0.117 C 
BRANCH   2   3
ATOM      3  N   UNL A   1      31.056  26.978  26.858  1.00  0.00    -0.354 N 
ATOM      4  C   UNL A   1      30.332  26.333  25.909  1.00  0.00     0.243 C 
ATOM      5  O   UNL A   1      29.728  25.317  26.276  1.00  0.00    -0.273 OA
ATOM      6  H   UNL A   1      30.851  26.723  27.786  1.00  0.00     0.163 HD
BRANCH   4   7
ATOM      7  C   UNL A   1      30.179  26.838  24.454  1.00  0.00     0.181 C 
BRANCH   7   8
ATOM      8  N   UNL A   1      31.246  26.299  23.561  1.00  0.00    -0.280 N 
ATOM      9  C   UNL A   1      33.337  23.490  22.480  1.00  0.00     0.047 C 
ATOM     10  C   UNL A   1      32.668  24.649  22.603  1.00  0.00     0.082 C 
ATOM     11  S   UNL A   1      33.277  26.124  21.956  1.00  0.00    -0.054 SA
ATOM     12  C   UNL A   1      31.409  24.949  23.341  1.00  0.00     0.266 C 
ATOM     13  C   UNL A   1      32.163  27.107  22.900  1.00  0.00     0.149 C 
ATOM     14  O   UNL A   1      30.582  24.091  23.627  1.00  0.00    -0.268 OA
ATOM     15  S   UNL A   1      32.293  28.772  22.886  1.00  0.00    -0.052 S 
BRANCH   9  16
ATOM     16  C   UNL A   1      33.042  22.293  23.183  1.00  0.00     0.042 A 
ATOM     17  C   UNL A   1      34.028  22.941  25.440  1.00  0.00     0.149 C 
ATOM     18  N   UNL A   1      33.418  22.042  24.485  1.00  0.00    -0.351 N 
ATOM     19  C   UNL A   1      33.057  20.757  24.824  1.00  0.00     0.086 A 
ATOM     20  C   UNL A   1      32.308  20.237  23.795  1.00  0.00     0.020 A 
ATOM     21  C   UNL A   1      32.272  21.213  22.776  1.00  0.00     0.028 A 
ENDBRANCH   9  16
ENDBRANCH   7   8
BRANCH   7  22
ATOM     22  C   UNL A   1      28.762  27.115  23.879  1.00  0.00     0.045 C 
BRANCH  22  23
ATOM     23  C   UNL A   1      28.444  28.113  22.762  1.00  0.00     0.102 C 
BRANCH  23  24
ATOM     24  C   UNL A   1      28.008  29.489  23.215  1.00  0.00     0.217 C 
ATOM     25  N   UNL A   1      29.035  30.371  23.400  1.00  0.00    -0.370 N 
ATOM     26  O   UNL A   1      26.847  29.812  23.424  1.00  0.00    -0.275 OA
ATOM     27  H   UNL A   1      29.963  30.090  23.225  1.00  0.00     0.159 HD
ATOM     28  H   UNL A   1      28.849  31.288  23.706  1.00  0.00     0.159 HD
ENDBRANCH  23  24
ENDBRANCH  22  23
ENDBRANCH   7  22
ENDBRANCH   4   7
ENDBRANCH   2   3
ENDBRANCH   1   2
BRANCH   1  29
ATOM     29  C   UNL A   1      34.447  28.529  26.037  1.00  0.00     0.118 C 
BRANCH  29  30
ATOM     30  N   UNL A   1      34.020  29.823  26.571  1.00  0.00    -0.352 N 
ATOM     31  C   UNL A   1      34.562  30.592  27.573  1.00  0.00     0.251 C 
ATOM     32  H   UNL A   1      33.217  30.202  26.145  1.00  0.00     0.163 HD
ATOM     33  O   UNL A   1      33.957  31.584  27.972  1.00  0.00    -0.269 OA
BRANCH  31  34
ATOM     34  C   UNL A   1      35.853  30.208  28.182  1.00  0.00     0.039 A 
ATOM     35  C   UNL A   1      35.867  29.602  29.442  1.00  0.00     0.014 A 
ATOM     36  C   UNL A   1      37.047  30.411  27.493  1.00  0.00     0.014 A 
ATOM     37  C   UNL A   1      37.067  29.109  29.962  1.00  0.00     0.010 A 
ATOM     38  C   UNL A   1      38.215  29.823  27.954  1.00  0.00     0.010 A 
ATOM     39  C   UNL A   1      38.242  29.178  29.198  1.00  0.00    -0.014 A 
BRANCH  39  40
ATOM     40  C   UNL A   1      39.537  28.627  29.669  1.00  0.00     0.031 A 
ATOM     41  C   UNL A   1      40.278  29.343  30.766  1.00  0.00     0.074 A 
ATOM     42  C   UNL A   1      40.105  27.589  29.025  1.00  0.00     0.049 A 
ATOM     43  N   UNL A   1      41.492  29.150  31.206  1.00  0.00    -0.248 NA
ATOM     44  C   UNL A   1      39.574  30.461  31.420  1.00  0.00     0.031 C 
ATOM     45  C   UNL A   1      39.521  26.866  27.893  1.00  0.00     0.029 A 
ATOM     46  N   UNL A   1      41.326  26.988  29.208  1.00  0.00    -0.354 N 
ATOM     47  C   UNL A   1      41.718  30.156  32.138  1.00  0.00     0.074 A 
ATOM     48  C   UNL A   1      40.533  30.982  32.170  1.00  0.00     0.031 C 
ATOM     49  C   UNL A   1      40.383  25.921  27.483  1.00  0.00     0.029 A 
ATOM     50  C   UNL A   1      41.591  25.990  28.298  1.00  0.00     0.049 A 
ATOM     51  H   UNL A   1      41.953  27.248  29.921  1.00  0.00     0.167 HD
ATOM     52  C   UNL A   1      42.800  30.354  32.926  1.00  0.00     0.034 A 
ATOM     53  C   UNL A   1      42.690  25.225  28.139  1.00  0.00     0.034 A 
ATOM     54  C   UNL A   1      43.941  29.483  32.944  1.00  0.00     0.049 A 
ATOM     55  C   UNL A   1      43.851  25.417  29.079  1.00  0.00     0.074 A 
ATOM     56  C   UNL A   1      45.046  29.528  33.774  1.00  0.00     0.029 A 
ATOM     57  N   UNL A   1      44.119  28.401  32.096  1.00  0.00    -0.354 N 
ATOM     58  N   UNL A   1      43.987  26.277  30.059  1.00  0.00    -0.248 NA
ATOM     59  C   UNL A   1      44.996  24.508  28.917  1.00  0.00     0.031 C 
ATOM     60  C   UNL A   1      45.897  28.476  33.421  1.00  0.00     0.029 A 
ATOM     61  C   UNL A   1      45.312  27.767  32.383  1.00  0.00     0.049 A 
ATOM     62  H   UNL A   1      43.488  28.125  31.393  1.00  0.00     0.167 HD
ATOM     63  C   UNL A   1      45.208  25.987  30.657  1.00  0.00     0.074 A 
ATOM     64  C   UNL A   1      45.769  24.863  29.936  1.00  0.00     0.031 C 
ATOM     65  C   UNL A   1      45.817  26.604  31.699  1.00  0.00     0.034 A 
BRANCH  52  66
ATOM     66  C   UNL A   1      42.763  31.521  33.879  1.00  0.00     0.023 A 
ATOM     67  C   UNL A   1      43.299  32.762  33.478  1.00  0.00     0.012 A 
ATOM     68  C   UNL A   1      42.180  31.400  35.155  1.00  0.00     0.148 A 
ATOM     69  C   UNL A   1      43.297  33.853  34.346  1.00  0.00     0.002 A 
ATOM     70  C   UNL A   1      42.138  32.506  35.997  1.00  0.00     0.091 A 
ATOM     71  F   UNL A   1      41.697  30.207  35.530  1.00  0.00    -0.205 F 
ATOM     72  C   UNL A   1      42.708  33.726  35.601  1.00  0.00     0.022 A 
BRANCH  70  73
ATOM     73  S   UNL A   1      41.329  32.467  37.601  1.00  0.00     0.127 S 
ATOM     74  O   UNL A   1      42.185  31.540  38.340  1.00  0.00    -0.237 OA
ATOM     75  O   UNL A   1      41.428  33.862  38.030  1.00  0.00    -0.237 OA
ATOM     76  O   UNL A   1      39.971  32.006  37.352  1.00  0.00    -0.744 OA
ENDBRANCH  70  73
ENDBRANCH  52  66
BRANCH  53  77
ATOM     77  C   UNL A   1      42.707  24.150  27.105  1.00  0.00     0.023 A 
ATOM     78  C   UNL A   1      43.385  24.381  25.892  1.00  0.00     0.012 A 
ATOM     79  C   UNL A   1      42.095  22.901  27.324  1.00  0.00     0.148 A 
ATOM     80  C   UNL A   1      43.426  23.400  24.900  1.00  0.00     0.002 A 
ATOM     81  C   UNL A   1      42.183  21.909  26.352  1.00  0.00     0.091 A 
ATOM     82  F   UNL A   1      41.448  22.703  28.480  1.00  0.00    -0.205 F 
ATOM     83  C   UNL A   1      42.833  22.162  25.133  1.00  0.00     0.022 A 
BRANCH  81  84
ATOM     84  S   UNL A   1      41.560  20.244  26.613  1.00  0.00     0.127 S 
ATOM     85  O   UNL A   1      42.006  19.564  25.400  1.00  0.00    -0.237 OA
ATOM     86  O   UNL A   1      42.259  19.847  27.835  1.00  0.00    -0.237 OA
ATOM     87  O   UNL A   1      40.119  20.385  26.768  1.00  0.00    -0.744 OA
ENDBRANCH  81  84
ENDBRANCH  53  77
BRANCH  65  88
ATOM     88  C   UNL A   1      47.136  26.053  32.170  1.00  0.00     0.023 A 
ATOM     89  C   UNL A   1      48.335  26.528  31.605  1.00  0.00     0.012 A 
ATOM     90  C   UNL A   1      47.187  25.147  33.248  1.00  0.00     0.148 A 
ATOM     91  C   UNL A   1      49.567  26.093  32.093  1.00  0.00     0.002 A 
ATOM     92  C   UNL A   1      48.417  24.755  33.759  1.00  0.00     0.091 A 
ATOM     93  F   UNL A   1      46.032  24.694  33.758  1.00  0.00    -0.205 F 
ATOM     94  C   UNL A   1      49.608  25.219  33.177  1.00  0.00     0.022 A 
BRANCH  92  95
ATOM     95  S   UNL A   1      48.565  23.713  35.216  1.00  0.00     0.127 S 
ATOM     96  O   UNL A   1      47.968  22.463  34.750  1.00  0.00    -0.237 OA
ATOM     97  O   UNL A   1      50.015  23.660  35.413  1.00  0.00    -0.237 OA
ATOM     98  O   UNL A   1      47.837  24.398  36.274  1.00  0.00    -0.744 OA
ENDBRANCH  92  95
ENDBRANCH  65  88
ENDBRANCH  39  40
ENDBRANCH  31  34
ENDBRANCH  29  30
ENDBRANCH   1  29
TORSDOF 18
ENDMDL
MODEL 3
REMARK VINA RESULT:     -11.8      5.128     10.339
REMARK SMILES Cn1cccc1/C=C1/SC(=S)N([C@@H](CCC(N)=O)C(=O)NCCCNC(=O)c2ccc(-c3c4nc(c(-c5cccc(S(=O)(=O)[O-])c5F)c5ccc([nH]5)c(-c5cccc(S(=O)(=O)[O-])c5F)c5nc(c(-c6cccc(S(=O)(=O)[O-])c6F)c6ccc3[nH]6)C=C5)C=C4)cc2)C1=O
REMARK SMILES IDX 23 1 22 2 21 3 19 4 20 5 13 7 12 8 7 9 8 10 9 11 91 12 10 13
REMARK SMILES IDX 92 14 11 15 6 16 1 17 2 18 3 19 4 20 5 21 14 22 15 23 16 24
REMARK SMILES IDX 17 25 18 26 24 29 25 30 26 31 27 33 28 34 29 35 90 36 30 37
REMARK SMILES IDX 89 38 31 39 32 40 33 41 83 42 34 43 88 44 82 45 84 46 35 47
REMARK SMILES IDX 87 48 81 49 80 50 36 52 68 53 48 54 67 55 49 56 52 57 66 58
REMARK SMILES IDX 85 59 50 60 51 61 65 63 86 64 53 65 37 66 38 67 46 68 39 69
REMARK SMILES IDX 41 70 47 71 40 72 42 73 43 74 44 75 45 76 69 77 70 78 78 79
REMARK SMILES IDX 71 80 73 81 79 82 72 83 74 84 75 85 76 86 77 87 54 88 55 89
REMARK SMILES IDX 63 90 56 91 58 92 64 93 57 94 59 95 60 96 61 97 62 98
REMARK H PARENT 21 6 17 27 17 28 25 32 84 51 52 62
REMARK Flexibility Score: inf
ROOT
ATOM      1  C   UNL A   1      36.885  21.978  24.249  1.00  0.00     0.042 C 
ENDROOT
BRANCH   1   2
ATOM      2  C   UNL A   1      36.007  23.197  24.072  1.00  0.00     0.117 C 
BRANCH   2   3
ATOM      3  N   UNL A   1      35.280  23.223  22.832  1.00  0.00    -0.354 N 
ATOM      4  C   UNL A   1      33.979  22.925  22.583  1.00  0.00     0.243 C 
ATOM      5  O   UNL A   1      33.529  23.303  21.494  1.00  0.00    -0.273 OA
ATOM      6  H   UNL A   1      35.805  23.497  22.045  1.00  0.00     0.163 HD
BRANCH   4   7
ATOM      7  C   UNL A   1      33.089  22.100  23.542  1.00  0.00     0.181 C 
BRANCH   7   8
ATOM      8  N   UNL A   1      32.458  22.954  24.591  1.00  0.00    -0.280 N 
ATOM      9  C   UNL A   1      30.893  26.122  25.563  1.00  0.00     0.047 C 
ATOM     10  C   UNL A   1      31.343  24.858  25.480  1.00  0.00     0.082 C 
ATOM     11  S   UNL A   1      31.753  23.946  26.883  1.00  0.00    -0.054 SA
ATOM     12  C   UNL A   1      31.668  24.039  24.280  1.00  0.00     0.266 C 
ATOM     13  C   UNL A   1      32.629  22.735  25.952  1.00  0.00     0.149 C 
ATOM     14  O   UNL A   1      31.200  24.266  23.170  1.00  0.00    -0.268 OA
ATOM     15  S   UNL A   1      33.483  21.531  26.734  1.00  0.00    -0.052 S 
BRANCH   9  16
ATOM     16  C   UNL A   1      30.770  27.022  24.473  1.00  0.00     0.042 A 
ATOM     17  C   UNL A   1      28.328  26.573  23.902  1.00  0.00     0.149 C 
ATOM     18  N   UNL A   1      29.635  27.161  23.702  1.00  0.00    -0.351 N 
ATOM     19  C   UNL A   1      29.886  28.046  22.677  1.00  0.00     0.086 A 
ATOM     20  C   UNL A   1      31.128  28.597  22.881  1.00  0.00     0.020 A 
ATOM     21  C   UNL A   1      31.672  27.978  24.027  1.00  0.00     0.028 A 
ENDBRANCH   9  16
ENDBRANCH   7   8
BRANCH   7  22
ATOM     22  C   UNL A   1      32.332  20.851  23.009  1.00  0.00     0.045 C 
BRANCH  22  23
ATOM     23  C   UNL A   1      32.418  19.446  23.611  1.00  0.00     0.102 C 
BRANCH  23  24
ATOM     24  C   UNL A   1      32.503  18.309  22.617  1.00  0.00     0.217 C 
ATOM     25  N   UNL A   1      32.117  18.642  21.348  1.00  0.00    -0.370 N 
ATOM     26  O   UNL A   1      32.866  17.175  22.894  1.00  0.00    -0.275 OA
ATOM     27  H   UNL A   1      31.829  19.562  21.147  1.00  0.00     0.159 HD
ATOM     28  H   UNL A   1      32.128  17.963  20.636  1.00  0.00     0.159 HD
ENDBRANCH  23  24
ENDBRANCH  22  23
ENDBRANCH   7  22
ENDBRANCH   4   7
ENDBRANCH   2   3
ENDBRANCH   1   2
BRANCH   1  29
ATOM     29  C   UNL A   1      37.158  21.654  25.705  1.00  0.00     0.118 C 
BRANCH  29  30
ATOM     30  N   UNL A   1      38.290  20.742  25.881  1.00  0.00    -0.352 N 
ATOM     31  C   UNL A   1      39.586  20.999  26.263  1.00  0.00     0.251 C 
ATOM     32  H   UNL A   1      38.093  19.795  25.696  1.00  0.00     0.163 HD
ATOM     33  O   UNL A   1      40.425  20.105  26.203  1.00  0.00    -0.269 OA
BRANCH  31  34
ATOM     34  C   UNL A   1      39.966  22.355  26.716  1.00  0.00     0.039 A 
ATOM     35  C   UNL A   1      40.930  22.500  27.719  1.00  0.00     0.014 A 
ATOM     36  C   UNL A   1      39.398  23.482  26.125  1.00  0.00     0.014 A 
ATOM     37  C   UNL A   1      41.396  23.775  28.052  1.00  0.00     0.010 A 
ATOM     38  C   UNL A   1      39.939  24.733  26.373  1.00  0.00     0.010 A 
ATOM     39  C   UNL A   1      40.934  24.897  27.348  1.00  0.00    -0.014 A 
BRANCH  39  40
ATOM     40  C   UNL A   1      41.426  26.271  27.617  1.00  0.00     0.031 A 
ATOM     41  C   UNL A   1      42.839  26.626  27.236  1.00  0.00     0.074 A 
ATOM     42  C   UNL A   1      40.670  27.136  28.320  1.00  0.00     0.049 A 
ATOM     43  N   UNL A   1      43.532  27.692  27.534  1.00  0.00    -0.248 NA
ATOM     44  C   UNL A   1      43.588  25.621  26.460  1.00  0.00     0.031 C 
ATOM     45  C   UNL A   1      39.317  26.876  28.816  1.00  0.00     0.029 A 
ATOM     46  N   UNL A   1      40.952  28.400  28.775  1.00  0.00    -0.354 N 
ATOM     47  C   UNL A   1      44.809  27.459  27.038  1.00  0.00     0.074 A 
ATOM     48  C   UNL A   1      44.807  26.136  26.459  1.00  0.00     0.031 C 
ATOM     49  C   UNL A   1      38.888  27.945  29.506  1.00  0.00     0.029 A 
ATOM     50  C   UNL A   1      39.943  28.953  29.530  1.00  0.00     0.049 A 
ATOM     51  H   UNL A   1      41.798  28.866  28.581  1.00  0.00     0.167 HD
ATOM     52  C   UNL A   1      45.880  28.287  27.031  1.00  0.00     0.034 A 
ATOM     53  C   UNL A   1      39.884  30.136  30.173  1.00  0.00     0.034 A 
ATOM     54  C   UNL A   1      45.850  29.630  27.538  1.00  0.00     0.049 A 
ATOM     55  C   UNL A   1      41.062  31.071  30.085  1.00  0.00     0.074 A 
ATOM     56  C   UNL A   1      46.842  30.592  27.488  1.00  0.00     0.029 A 
ATOM     57  N   UNL A   1      44.764  30.204  28.182  1.00  0.00    -0.354 N 
ATOM     58  N   UNL A   1      42.211  30.895  29.479  1.00  0.00    -0.248 NA
ATOM     59  C   UNL A   1      40.922  32.382  30.736  1.00  0.00     0.031 C 
ATOM     60  C   UNL A   1      46.358  31.746  28.111  1.00  0.00     0.029 A 
ATOM     61  C   UNL A   1      45.059  31.508  28.532  1.00  0.00     0.049 A 
ATOM     62  H   UNL A   1      43.910  29.750  28.363  1.00  0.00     0.167 HD
ATOM     63  C   UNL A   1      42.913  32.085  29.639  1.00  0.00     0.074 A 
ATOM     64  C   UNL A   1      42.055  32.979  30.388  1.00  0.00     0.031 C 
ATOM     65  C   UNL A   1      44.161  32.404  29.215  1.00  0.00     0.034 A 
BRANCH  52  66
ATOM     66  C   UNL A   1      47.147  27.782  26.392  1.00  0.00     0.023 A 
ATOM     67  C   UNL A   1      48.142  27.189  27.197  1.00  0.00     0.012 A 
ATOM     68  C   UNL A   1      47.344  27.867  25.000  1.00  0.00     0.148 A 
ATOM     69  C   UNL A   1      49.333  26.731  26.635  1.00  0.00     0.002 A 
ATOM     70  C   UNL A   1      48.515  27.364  24.441  1.00  0.00     0.091 A 
ATOM     71  F   UNL A   1      46.400  28.455  24.252  1.00  0.00    -0.205 F 
ATOM     72  C   UNL A   1      49.514  26.810  25.258  1.00  0.00     0.022 A 
BRANCH  70  73
ATOM     73  S   UNL A   1      48.807  27.345  22.669  1.00  0.00     0.127 S 
ATOM     74  O   UNL A   1      47.964  28.451  22.219  1.00  0.00    -0.237 OA
ATOM     75  O   UNL A   1      50.245  27.603  22.591  1.00  0.00    -0.237 OA
ATOM     76  O   UNL A   1      48.406  26.022  22.212  1.00  0.00    -0.744 OA
ENDBRANCH  70  73
ENDBRANCH  52  66
BRANCH  53  77
ATOM     77  C   UNL A   1      38.634  30.540  30.879  1.00  0.00     0.023 A 
ATOM     78  C   UNL A   1      38.495  30.236  32.247  1.00  0.00     0.012 A 
ATOM     79  C   UNL A   1      37.606  31.246  30.224  1.00  0.00     0.148 A 
ATOM     80  C   UNL A   1      37.342  30.597  32.944  1.00  0.00     0.002 A 
ATOM     81  C   UNL A   1      36.482  31.648  30.937  1.00  0.00     0.091 A 
ATOM     82  F   UNL A   1      37.753  31.518  28.920  1.00  0.00    -0.205 F 
ATOM     83  C   UNL A   1      36.339  31.311  32.293  1.00  0.00     0.022 A 
BRANCH  81  84
ATOM     84  S   UNL A   1      35.199  32.678  30.214  1.00  0.00     0.127 S 
ATOM     85  O   UNL A   1      35.952  33.870  29.832  1.00  0.00    -0.237 OA
ATOM     86  O   UNL A   1      34.742  31.853  29.095  1.00  0.00    -0.237 OA
ATOM     87  O   UNL A   1      34.206  32.864  31.264  1.00  0.00    -0.744 OA
ENDBRANCH  81  84
ENDBRANCH  53  77
BRANCH  65  88
ATOM     88  C   UNL A   1      44.666  33.794  29.498  1.00  0.00     0.023 A 
ATOM     89  C   UNL A   1      45.422  34.041  30.659  1.00  0.00     0.012 A 
ATOM     90  C   UNL A   1      44.485  34.824  28.554  1.00  0.00     0.148 A 
ATOM     91  C   UNL A   1      45.972  35.302  30.889  1.00  0.00     0.002 A 
ATOM     92  C   UNL A   1      45.075  36.063  28.766  1.00  0.00     0.091 A 
ATOM     93  F   UNL A   1      43.746  34.570  27.463  1.00  0.00    -0.205 F 
ATOM     94  C   UNL A   1      45.811  36.306  29.938  1.00  0.00     0.022 A 
BRANCH  92  95
ATOM     95  S   UNL A   1      45.006  37.383  27.549  1.00  0.00     0.127 S 
ATOM     96  O   UNL A   1      45.362  38.549  28.355  1.00  0.00    -0.237 OA
ATOM     97  O   UNL A   1      46.029  36.971  26.586  1.00  0.00    -0.237 OA
ATOM     98  O   UNL A   1      43.647  37.374  27.026  1.00  0.00    -0.744 OA
ENDBRANCH  92  95
ENDBRANCH  65  88
ENDBRANCH  39  40
ENDBRANCH  31  34
ENDBRANCH  29  30
ENDBRANCH   1  29
TORSDOF 18
ENDMDL
