MODEL 1
REMARK VINA RESULT:     -14.4      0.000      0.000
REMARK SMILES Cc1ccc([C@@H](C)Nc2ccc(N)cc2C(=O)NCCCNC(=O)c2ccc(-c3c4nc(c(-c5cccc(S(=O)(=O)[O-])c5F)c5ccc([nH]5)c(-c5cccc(S(=O)(=O)[O-])c5F)c5nc(c(-c6cccc(S(=O)(=O)[O-])c6F)c6ccc3[nH]6)C=C5)C=C4)cc2)cc1F
REMARK SMILES IDX 20 1 19 2 18 3 16 4 17 5 15 7 9 8 10 9 11 10 14 11 12 12
REMARK SMILES IDX 8 13 6 15 7 16 5 17 1 18 2 19 3 20 89 21 4 22 88 23 90 24
REMARK SMILES IDX 13 25 21 28 22 29 23 30 24 32 25 33 26 34 87 35 27 36 86 37
REMARK SMILES IDX 28 38 29 39 30 40 80 41 31 42 85 43 79 44 81 45 32 46 84 47
REMARK SMILES IDX 78 48 77 49 33 51 65 52 45 53 64 54 46 55 49 56 63 57 82 58
REMARK SMILES IDX 47 59 48 60 62 62 83 63 50 64 34 65 35 66 43 67 36 68 38 69
REMARK SMILES IDX 44 70 37 71 39 72 40 73 41 74 42 75 66 76 67 77 75 78 68 79
REMARK SMILES IDX 70 80 76 81 69 82 71 83 72 84 73 85 74 86 51 87 52 88 60 89
REMARK SMILES IDX 53 90 55 91 61 92 54 93 56 94 57 95 58 96 59 97
REMARK H PARENT 18 6 8 14 13 26 13 27 22 31 81 50 49 61
REMARK Flexibility Score: inf
ROOT
ATOM      1  C   UNL A   1      33.522  28.228  25.925  1.00  0.00     0.042 C 
ENDROOT
BRANCH   1   2
ATOM      2  C   UNL A   1      33.585  26.652  25.260  1.00  0.00     0.118 C 
BRANCH   2   3
ATOM      3  N   UNL A   1      33.332  25.490  26.103  1.00  0.00    -0.352 N 
ATOM      4  C   UNL A   1      34.044  24.322  26.211  1.00  0.00     0.253 C 
ATOM      5  O   UNL A   1      33.777  23.522  27.106  1.00  0.00    -0.269 OA
ATOM      6  H   UNL A   1      32.534  25.552  26.677  1.00  0.00     0.163 HD
BRANCH   4   7
ATOM      7  C   UNL A   1      34.977  23.938  25.130  1.00  0.00     0.065 A 
ATOM      8  C   UNL A   1      34.622  23.457  23.863  1.00  0.00     0.048 A 
ATOM      9  C   UNL A   1      35.568  22.604  23.263  1.00  0.00     0.028 A 
ATOM     10  C   UNL A   1      36.836  22.378  23.816  1.00  0.00     0.027 A 
ATOM     11  C   UNL A   1      36.300  23.832  25.609  1.00  0.00     0.041 A 
ATOM     12  C   UNL A   1      37.251  23.082  24.936  1.00  0.00     0.032 A 
BRANCH   8  13
ATOM     13  N   UNL A   1      33.474  23.707  23.137  1.00  0.00    -0.378 N 
ATOM     14  H   UNL A   1      33.593  24.361  22.412  1.00  0.00     0.161 HD
BRANCH  13  15
ATOM     15  C   UNL A   1      32.116  23.181  23.247  1.00  0.00     0.106 C 
ATOM     16  C   UNL A   1      31.164  24.026  24.076  1.00  0.00     0.036 C 
BRANCH  15  17
ATOM     17  C   UNL A   1      32.195  21.690  23.467  1.00  0.00    -0.023 A 
ATOM     18  C   UNL A   1      32.986  16.746  24.500  1.00  0.00     0.047 C 
ATOM     19  C   UNL A   1      32.708  18.184  24.208  1.00  0.00    -0.015 A 
ATOM     20  C   UNL A   1      32.882  19.404  25.510  1.00  0.00     0.007 A 
ATOM     21  C   UNL A   1      32.323  18.716  22.521  1.00  0.00     0.126 A 
ATOM     22  C   UNL A   1      32.557  21.157  25.163  1.00  0.00     0.006 A 
ATOM     23  C   UNL A   1      32.051  20.446  22.145  1.00  0.00     0.045 A 
ATOM     24  F   UNL A   1      32.182  17.797  21.558  1.00  0.00    -0.207 F 
ENDBRANCH  15  17
ENDBRANCH  13  15
ENDBRANCH   8  13
BRANCH  12  25
ATOM     25  N   UNL A   1      38.507  22.886  25.488  1.00  0.00    -0.399 N 
ATOM     26  H   UNL A   1      38.607  22.792  26.463  1.00  0.00     0.156 HD
ATOM     27  H   UNL A   1      39.300  22.843  24.905  1.00  0.00     0.156 HD
ENDBRANCH  12  25
ENDBRANCH   4   7
ENDBRANCH   2   3
ENDBRANCH   1   2
BRANCH   1  28
ATOM     28  C   UNL A   1      34.468  29.310  27.577  1.00  0.00     0.118 C 
BRANCH  28  29
ATOM     29  N   UNL A   1      34.322  30.844  28.136  1.00  0.00    -0.352 N 
ATOM     30  C   UNL A   1      35.098  31.482  29.099  1.00  0.00     0.251 C 
ATOM     31  H   UNL A   1      33.596  31.381  27.742  1.00  0.00     0.163 HD
ATOM     32  O   UNL A   1      34.719  32.471  29.709  1.00  0.00    -0.269 OA
BRANCH  30  33
ATOM     33  C   UNL A   1      36.418  30.888  29.349  1.00  0.00     0.039 A 
ATOM     34  C   UNL A   1      36.685  30.035  30.426  1.00  0.00     0.014 A 
ATOM     35  C   UNL A   1      37.326  31.065  28.314  1.00  0.00     0.014 A 
ATOM     36  C   UNL A   1      37.870  29.302  30.409  1.00  0.00     0.010 A 
ATOM     37  C   UNL A   1      38.266  30.103  28.139  1.00  0.00     0.010 A 
ATOM     38  C   UNL A   1      38.638  29.336  29.242  1.00  0.00    -0.014 A 
BRANCH  38  39
ATOM     39  C   UNL A   1      39.972  28.786  29.078  1.00  0.00     0.031 A 
ATOM     40  C   UNL A   1      40.162  27.377  28.750  1.00  0.00     0.074 A 
ATOM     41  C   UNL A   1      40.952  29.720  29.145  1.00  0.00     0.049 A 
ATOM     42  N   UNL A   1      41.077  26.630  29.255  1.00  0.00    -0.248 NA
ATOM     43  C   UNL A   1      39.265  26.647  27.854  1.00  0.00     0.031 C 
ATOM     44  C   UNL A   1      42.348  29.701  28.765  1.00  0.00     0.029 A 
ATOM     45  N   UNL A   1      40.796  30.985  29.715  1.00  0.00    -0.354 N 
ATOM     46  C   UNL A   1      41.170  25.546  28.408  1.00  0.00     0.074 A 
ATOM     47  C   UNL A   1      39.890  25.467  27.745  1.00  0.00     0.031 C 
ATOM     48  C   UNL A   1      42.964  30.753  29.350  1.00  0.00     0.029 A 
ATOM     49  C   UNL A   1      42.008  31.415  30.234  1.00  0.00     0.049 A 
ATOM     50  H   UNL A   1      39.954  31.495  29.745  1.00  0.00     0.167 HD
ATOM     51  C   UNL A   1      42.402  25.035  28.109  1.00  0.00     0.034 A 
ATOM     52  C   UNL A   1      42.056  31.535  31.596  1.00  0.00     0.034 A 
ATOM     53  C   UNL A   1      43.446  25.884  28.685  1.00  0.00     0.049 A 
ATOM     54  C   UNL A   1      42.836  30.386  32.198  1.00  0.00     0.074 A 
ATOM     55  C   UNL A   1      44.320  26.813  28.142  1.00  0.00     0.029 A 
ATOM     56  N   UNL A   1      43.463  26.107  30.046  1.00  0.00    -0.354 N 
ATOM     57  N   UNL A   1      43.236  29.350  31.513  1.00  0.00    -0.248 NA
ATOM     58  C   UNL A   1      43.184  30.275  33.609  1.00  0.00     0.031 C 
ATOM     59  C   UNL A   1      44.893  27.564  29.209  1.00  0.00     0.029 A 
ATOM     60  C   UNL A   1      44.359  27.096  30.392  1.00  0.00     0.049 A 
ATOM     61  H   UNL A   1      42.905  25.618  30.693  1.00  0.00     0.167 HD
ATOM     62  C   UNL A   1      43.931  28.494  32.310  1.00  0.00     0.074 A 
ATOM     63  C   UNL A   1      43.816  29.087  33.633  1.00  0.00     0.031 C 
ATOM     64  C   UNL A   1      44.536  27.377  31.806  1.00  0.00     0.034 A 
BRANCH  51  65
ATOM     65  C   UNL A   1      42.686  23.971  27.068  1.00  0.00     0.023 A 
ATOM     66  C   UNL A   1      43.472  24.210  25.920  1.00  0.00     0.012 A 
ATOM     67  C   UNL A   1      42.120  22.678  27.168  1.00  0.00     0.148 A 
ATOM     68  C   UNL A   1      43.764  23.203  24.985  1.00  0.00     0.002 A 
ATOM     69  C   UNL A   1      42.390  21.686  26.225  1.00  0.00     0.091 A 
ATOM     70  F   UNL A   1      41.285  22.379  28.170  1.00  0.00    -0.205 F 
ATOM     71  C   UNL A   1      43.227  21.934  25.140  1.00  0.00     0.022 A 
BRANCH  69  72
ATOM     72  S   UNL A   1      41.616  20.077  26.420  1.00  0.00     0.127 S 
ATOM     73  O   UNL A   1      42.075  19.654  27.740  1.00  0.00    -0.237 OA
ATOM     74  O   UNL A   1      40.195  20.374  26.277  1.00  0.00    -0.237 OA
ATOM     75  O   UNL A   1      42.177  19.301  25.312  1.00  0.00    -0.744 OA
ENDBRANCH  69  72
ENDBRANCH  51  65
BRANCH  52  76
ATOM     76  C   UNL A   1      40.772  32.128  32.143  1.00  0.00     0.023 A 
ATOM     77  C   UNL A   1      40.636  33.514  32.347  1.00  0.00     0.012 A 
ATOM     78  C   UNL A   1      39.927  31.263  32.888  1.00  0.00     0.148 A 
ATOM     79  C   UNL A   1      39.759  34.009  33.328  1.00  0.00     0.002 A 
ATOM     80  C   UNL A   1      39.132  31.756  33.924  1.00  0.00     0.091 A 
ATOM     81  F   UNL A   1      40.005  29.942  32.658  1.00  0.00    -0.205 F 
ATOM     82  C   UNL A   1      39.043  33.133  34.147  1.00  0.00     0.022 A 
BRANCH  80  83
ATOM     83  S   UNL A   1      38.475  30.621  35.164  1.00  0.00     0.127 S 
ATOM     84  O   UNL A   1      37.652  31.497  35.992  1.00  0.00    -0.237 OA
ATOM     85  O   UNL A   1      37.768  29.611  34.383  1.00  0.00    -0.237 OA
ATOM     86  O   UNL A   1      39.673  30.098  35.823  1.00  0.00    -0.744 OA
ENDBRANCH  80  83
ENDBRANCH  52  76
BRANCH  64  87
ATOM     87  C   UNL A   1      45.282  26.363  32.627  1.00  0.00     0.023 A 
ATOM     88  C   UNL A   1      46.692  26.259  32.499  1.00  0.00     0.012 A 
ATOM     89  C   UNL A   1      44.672  25.517  33.550  1.00  0.00     0.148 A 
ATOM     90  C   UNL A   1      47.435  25.279  33.149  1.00  0.00     0.002 A 
ATOM     91  C   UNL A   1      45.399  24.487  34.140  1.00  0.00     0.091 A 
ATOM     92  F   UNL A   1      43.395  25.722  33.904  1.00  0.00    -0.205 F 
ATOM     93  C   UNL A   1      46.777  24.357  33.943  1.00  0.00     0.022 A 
BRANCH  91  94
ATOM     94  S   UNL A   1      44.495  23.235  35.038  1.00  0.00     0.127 S 
ATOM     95  O   UNL A   1      45.481  22.178  35.233  1.00  0.00    -0.237 OA
ATOM     96  O   UNL A   1      44.071  23.956  36.237  1.00  0.00    -0.237 OA
ATOM     97  O   UNL A   1      43.403  22.888  34.129  1.00  0.00    -0.744 OA
ENDBRANCH  91  94
ENDBRANCH  64  87
ENDBRANCH  38  39
ENDBRANCH  30  33
ENDBRANCH  28  29
ENDBRANCH   1  28
TORSDOF 17
ENDMDL
MODEL 2
REMARK VINA RESULT:     -14.4      4.279      9.490
REMARK SMILES Cc1ccc([C@@H](C)Nc2ccc(N)cc2C(=O)NCCCNC(=O)c2ccc(-c3c4nc(c(-c5cccc(S(=O)(=O)[O-])c5F)c5ccc([nH]5)c(-c5cccc(S(=O)(=O)[O-])c5F)c5nc(c(-c6cccc(S(=O)(=O)[O-])c6F)c6ccc3[nH]6)C=C5)C=C4)cc2)cc1F
REMARK SMILES IDX 20 1 19 2 18 3 16 4 17 5 15 7 9 8 10 9 11 10 14 11 12 12
REMARK SMILES IDX 8 13 6 15 7 16 5 17 1 18 2 19 3 20 89 21 4 22 88 23 90 24
REMARK SMILES IDX 13 25 21 28 22 29 23 30 24 32 25 33 26 34 87 35 27 36 86 37
REMARK SMILES IDX 28 38 29 39 30 40 80 41 31 42 85 43 79 44 81 45 32 46 84 47
REMARK SMILES IDX 78 48 77 49 33 51 65 52 45 53 64 54 46 55 49 56 63 57 82 58
REMARK SMILES IDX 47 59 48 60 62 62 83 63 50 64 34 65 35 66 43 67 36 68 38 69
REMARK SMILES IDX 44 70 37 71 39 72 40 73 41 74 42 75 66 76 67 77 75 78 68 79
REMARK SMILES IDX 70 80 76 81 69 82 71 83 72 84 73 85 74 86 51 87 52 88 60 89
REMARK SMILES IDX 53 90 55 91 61 92 54 93 56 94 57 95 58 96 59 97
REMARK H PARENT 18 6 8 14 13 26 13 27 22 31 81 50 49 61
REMARK Flexibility Score: inf
ROOT
ATOM      1  C   UNL A   1      35.942  23.189  25.593  1.00  0.00     0.042 C 
ENDROOT
BRANCH   1   2
ATOM      2  C   UNL A   1      34.484  24.080  25.491  1.00  0.00     0.118 C 
BRANCH   2   3
ATOM      3  N   UNL A   1      34.295  25.059  24.428  1.00  0.00    -0.352 N 
ATOM      4  C   UNL A   1      33.861  26.358  24.509  1.00  0.00     0.253 C 
ATOM      5  O   UNL A   1      33.930  27.089  23.522  1.00  0.00    -0.269 OA
ATOM      6  H   UNL A   1      34.509  24.741  23.521  1.00  0.00     0.163 HD
BRANCH   4   7
ATOM      7  C   UNL A   1      33.120  26.803  25.708  1.00  0.00     0.065 A 
ATOM      8  C   UNL A   1      31.766  26.565  25.981  1.00  0.00     0.048 A 
ATOM      9  C   UNL A   1      31.140  27.538  26.782  1.00  0.00     0.028 A 
ATOM     10  C   UNL A   1      31.849  28.582  27.393  1.00  0.00     0.027 A 
ATOM     11  C   UNL A   1      33.857  27.759  26.439  1.00  0.00     0.041 A 
ATOM     12  C   UNL A   1      33.233  28.632  27.317  1.00  0.00     0.032 A 
BRANCH   8  13
ATOM     13  N   UNL A   1      30.977  25.512  25.565  1.00  0.00    -0.378 N 
ATOM     14  H   UNL A   1      30.888  24.791  26.230  1.00  0.00     0.161 HD
BRANCH  13  15
ATOM     15  C   UNL A   1      30.249  25.267  24.323  1.00  0.00     0.106 C 
ATOM     16  C   UNL A   1      30.884  24.244  23.396  1.00  0.00     0.036 C 
BRANCH  15  17
ATOM     17  C   UNL A   1      29.773  26.591  23.777  1.00  0.00    -0.023 A 
ATOM     18  C   UNL A   1      27.713  30.764  21.661  1.00  0.00     0.047 C 
ATOM     19  C   UNL A   1      28.324  29.571  22.319  1.00  0.00    -0.015 A 
ATOM     20  C   UNL A   1      27.278  28.412  23.201  1.00  0.00     0.007 A 
ATOM     21  C   UNL A   1      30.089  29.222  22.122  1.00  0.00     0.126 A 
ATOM     22  C   UNL A   1      28.008  26.951  23.996  1.00  0.00     0.006 A 
ATOM     23  C   UNL A   1      30.821  27.759  22.852  1.00  0.00     0.045 A 
ATOM     24  F   UNL A   1      30.865  30.099  21.474  1.00  0.00    -0.207 F 
ENDBRANCH  15  17
ENDBRANCH  13  15
ENDBRANCH   8  13
BRANCH  12  25
ATOM     25  N   UNL A   1      33.955  29.645  27.928  1.00  0.00    -0.399 N 
ATOM     26  H   UNL A   1      33.575  30.551  27.991  1.00  0.00     0.156 HD
ATOM     27  H   UNL A   1      34.847  29.458  28.299  1.00  0.00     0.156 HD
ENDBRANCH  12  25
ENDBRANCH   4   7
ENDBRANCH   2   3
ENDBRANCH   1   2
BRANCH   1  28
ATOM     28  C   UNL A   1      38.039  23.596  26.075  1.00  0.00     0.118 C 
BRANCH  28  29
ATOM     29  N   UNL A   1      39.392  22.670  26.042  1.00  0.00    -0.352 N 
ATOM     30  C   UNL A   1      40.713  23.082  26.183  1.00  0.00     0.251 C 
ATOM     31  H   UNL A   1      39.253  21.705  25.906  1.00  0.00     0.163 HD
ATOM     32  O   UNL A   1      41.662  22.413  25.797  1.00  0.00    -0.269 OA
BRANCH  30  33
ATOM     33  C   UNL A   1      40.910  24.388  26.826  1.00  0.00     0.039 A 
ATOM     34  C   UNL A   1      41.169  25.564  26.114  1.00  0.00     0.014 A 
ATOM     35  C   UNL A   1      40.605  24.404  28.181  1.00  0.00     0.014 A 
ATOM     36  C   UNL A   1      41.047  26.780  26.783  1.00  0.00     0.010 A 
ATOM     37  C   UNL A   1      40.149  25.571  28.702  1.00  0.00     0.010 A 
ATOM     38  C   UNL A   1      40.514  26.761  28.075  1.00  0.00    -0.014 A 
BRANCH  38  39
ATOM     39  C   UNL A   1      40.461  27.882  28.996  1.00  0.00     0.031 A 
ATOM     40  C   UNL A   1      39.461  28.933  28.834  1.00  0.00     0.074 A 
ATOM     41  C   UNL A   1      41.327  27.769  30.033  1.00  0.00     0.049 A 
ATOM     42  N   UNL A   1      39.690  30.186  29.004  1.00  0.00    -0.248 NA
ATOM     43  C   UNL A   1      38.097  28.662  28.381  1.00  0.00     0.031 C 
ATOM     44  C   UNL A   1      41.426  28.457  31.302  1.00  0.00     0.029 A 
ATOM     45  N   UNL A   1      42.440  26.927  30.041  1.00  0.00    -0.354 N 
ATOM     46  C   UNL A   1      38.448  30.763  29.161  1.00  0.00     0.074 A 
ATOM     47  C   UNL A   1      37.522  29.864  28.512  1.00  0.00     0.031 C 
ATOM     48  C   UNL A   1      42.654  28.222  31.820  1.00  0.00     0.029 A 
ATOM     49  C   UNL A   1      43.435  27.476  30.836  1.00  0.00     0.049 A 
ATOM     50  H   UNL A   1      42.510  26.073  29.555  1.00  0.00     0.167 HD
ATOM     51  C   UNL A   1      38.283  31.751  30.091  1.00  0.00     0.034 A 
ATOM     52  C   UNL A   1      44.566  27.872  30.176  1.00  0.00     0.034 A 
ATOM     53  C   UNL A   1      39.511  31.910  30.871  1.00  0.00     0.049 A 
ATOM     54  C   UNL A   1      44.601  29.380  30.051  1.00  0.00     0.074 A 
ATOM     55  C   UNL A   1      39.874  31.536  32.155  1.00  0.00     0.029 A 
ATOM     56  N   UNL A   1      40.691  32.211  30.223  1.00  0.00    -0.354 N 
ATOM     57  N   UNL A   1      43.600  30.152  30.372  1.00  0.00    -0.248 NA
ATOM     58  C   UNL A   1      45.725  30.137  29.514  1.00  0.00     0.031 C 
ATOM     59  C   UNL A   1      41.289  31.663  32.275  1.00  0.00     0.029 A 
ATOM     60  C   UNL A   1      41.778  32.103  31.063  1.00  0.00     0.049 A 
ATOM     61  H   UNL A   1      40.750  32.474  29.276  1.00  0.00     0.167 HD
ATOM     62  C   UNL A   1      43.927  31.459  30.177  1.00  0.00     0.074 A 
ATOM     63  C   UNL A   1      45.250  31.395  29.576  1.00  0.00     0.031 C 
ATOM     64  C   UNL A   1      43.079  32.471  30.528  1.00  0.00     0.034 A 
BRANCH  51  65
ATOM     65  C   UNL A   1      36.958  32.359  30.506  1.00  0.00     0.023 A 
ATOM     66  C   UNL A   1      36.504  32.371  31.843  1.00  0.00     0.012 A 
ATOM     67  C   UNL A   1      36.069  32.904  29.549  1.00  0.00     0.148 A 
ATOM     68  C   UNL A   1      35.294  32.976  32.221  1.00  0.00     0.002 A 
ATOM     69  C   UNL A   1      34.856  33.482  29.923  1.00  0.00     0.091 A 
ATOM     70  F   UNL A   1      36.365  32.856  28.245  1.00  0.00    -0.205 F 
ATOM     71  C   UNL A   1      34.469  33.539  31.259  1.00  0.00     0.022 A 
BRANCH  69  72
ATOM     72  S   UNL A   1      33.780  34.134  28.641  1.00  0.00     0.127 S 
ATOM     73  O   UNL A   1      33.488  32.954  27.832  1.00  0.00    -0.237 OA
ATOM     74  O   UNL A   1      32.673  34.708  29.399  1.00  0.00    -0.237 OA
ATOM     75  O   UNL A   1      34.623  35.127  27.972  1.00  0.00    -0.744 OA
ENDBRANCH  69  72
ENDBRANCH  51  65
BRANCH  52  76
ATOM     76  C   UNL A   1      44.953  26.876  29.099  1.00  0.00     0.023 A 
ATOM     77  C   UNL A   1      45.914  25.876  29.341  1.00  0.00     0.012 A 
ATOM     78  C   UNL A   1      44.719  27.258  27.752  1.00  0.00     0.148 A 
ATOM     79  C   UNL A   1      46.679  25.350  28.285  1.00  0.00     0.002 A 
ATOM     80  C   UNL A   1      45.548  26.802  26.724  1.00  0.00     0.091 A 
ATOM     81  F   UNL A   1      43.763  28.167  27.504  1.00  0.00    -0.205 F 
ATOM     82  C   UNL A   1      46.530  25.844  26.987  1.00  0.00     0.022 A 
BRANCH  80  83
ATOM     83  S   UNL A   1      45.566  27.669  25.141  1.00  0.00     0.127 S 
ATOM     84  O   UNL A   1      46.471  26.850  24.341  1.00  0.00    -0.237 OA
ATOM     85  O   UNL A   1      44.167  27.684  24.728  1.00  0.00    -0.237 OA
ATOM     86  O   UNL A   1      46.076  28.998  25.480  1.00  0.00    -0.744 OA
ENDBRANCH  80  83
ENDBRANCH  52  76
BRANCH  64  87
ATOM     87  C   UNL A   1      43.349  33.932  30.306  1.00  0.00     0.023 A 
ATOM     88  C   UNL A   1      43.581  34.779  31.421  1.00  0.00     0.012 A 
ATOM     89  C   UNL A   1      43.421  34.521  29.046  1.00  0.00     0.148 A 
ATOM     90  C   UNL A   1      43.737  36.156  31.299  1.00  0.00     0.002 A 
ATOM     91  C   UNL A   1      43.497  35.905  28.925  1.00  0.00     0.091 A 
ATOM     92  F   UNL A   1      43.459  33.751  27.948  1.00  0.00    -0.205 F 
ATOM     93  C   UNL A   1      43.651  36.730  30.043  1.00  0.00     0.022 A 
BRANCH  91  94
ATOM     94  S   UNL A   1      43.238  36.618  27.307  1.00  0.00     0.127 S 
ATOM     95  O   UNL A   1      42.037  35.944  26.828  1.00  0.00    -0.237 OA
ATOM     96  O   UNL A   1      43.107  38.042  27.612  1.00  0.00    -0.237 OA
ATOM     97  O   UNL A   1      44.460  36.270  26.584  1.00  0.00    -0.744 OA
ENDBRANCH  91  94
ENDBRANCH  64  87
ENDBRANCH  38  39
ENDBRANCH  30  33
ENDBRANCH  28  29
ENDBRANCH   1  28
TORSDOF 17
ENDMDL
MODEL 3
REMARK VINA RESULT:     -14.2      1.952      3.442
REMARK SMILES Cc1ccc([C@@H](C)Nc2ccc(N)cc2C(=O)NCCCNC(=O)c2ccc(-c3c4nc(c(-c5cccc(S(=O)(=O)[O-])c5F)c5ccc([nH]5)c(-c5cccc(S(=O)(=O)[O-])c5F)c5nc(c(-c6cccc(S(=O)(=O)[O-])c6F)c6ccc3[nH]6)C=C5)C=C4)cc2)cc1F
REMARK SMILES IDX 20 1 19 2 18 3 16 4 17 5 15 7 9 8 10 9 11 10 14 11 12 12
REMARK SMILES IDX 8 13 6 15 7 16 5 17 1 18 2 19 3 20 89 21 4 22 88 23 90 24
REMARK SMILES IDX 13 25 21 28 22 29 23 30 24 32 25 33 26 34 87 35 27 36 86 37
REMARK SMILES IDX 28 38 29 39 30 40 80 41 31 42 85 43 79 44 81 45 32 46 84 47
REMARK SMILES IDX 78 48 77 49 33 51 65 52 45 53 64 54 46 55 49 56 63 57 82 58
REMARK SMILES IDX 47 59 48 60 62 62 83 63 50 64 34 65 35 66 43 67 36 68 38 69
REMARK SMILES IDX 44 70 37 71 39 72 40 73 41 74 42 75 66 76 67 77 75 78 68 79
REMARK SMILES IDX 70 80 76 81 69 82 71 83 72 84 73 85 74 86 51 87 52 88 60 89
REMARK SMILES IDX 53 90 55 91 61 92 54 93 56 94 57 95 58 96 59 97
REMARK H PARENT 18 6 8 14 13 26 13 27 22 31 81 50 49 61
REMARK Flexibility Score: inf
ROOT
ATOM      1  C   UNL A   1      33.769  28.673  25.793  1.00  0.00     0.042 C 
ENDROOT
BRANCH   1   2
ATOM      2  C   UNL A   1      34.077  28.885  24.122  1.00  0.00     0.118 C 
BRANCH   2   3
ATOM      3  N   UNL A   1      33.783  27.813  23.181  1.00  0.00    -0.352 N 
ATOM      4  C   UNL A   1      32.622  27.550  22.496  1.00  0.00     0.253 C 
ATOM      5  O   UNL A   1      32.614  26.698  21.609  1.00  0.00    -0.269 OA
ATOM      6  H   UNL A   1      34.523  27.186  23.012  1.00  0.00     0.163 HD
BRANCH   4   7
ATOM      7  C   UNL A   1      31.351  28.134  22.973  1.00  0.00     0.065 A 
ATOM      8  C   UNL A   1      30.474  27.561  23.904  1.00  0.00     0.048 A 
ATOM      9  C   UNL A   1      29.123  27.923  23.752  1.00  0.00     0.028 A 
ATOM     10  C   UNL A   1      28.703  28.904  22.841  1.00  0.00     0.027 A 
ATOM     11  C   UNL A   1      30.953  29.222  22.167  1.00  0.00     0.041 A 
ATOM     12  C   UNL A   1      29.633  29.640  22.123  1.00  0.00     0.032 A 
BRANCH   8  13
ATOM     13  N   UNL A   1      30.763  26.693  24.938  1.00  0.00    -0.378 N 
ATOM     14  H   UNL A   1      30.977  27.140  25.789  1.00  0.00     0.161 HD
BRANCH  13  15
ATOM     15  C   UNL A   1      30.812  25.235  25.005  1.00  0.00     0.106 C 
ATOM     16  C   UNL A   1      30.115  24.623  26.208  1.00  0.00     0.036 C 
BRANCH  15  17
ATOM     17  C   UNL A   1      32.199  24.783  24.621  1.00  0.00    -0.023 A 
ATOM     18  C   UNL A   1      36.660  22.700  23.243  1.00  0.00     0.047 C 
ATOM     19  C   UNL A   1      35.369  23.348  23.620  1.00  0.00    -0.015 A 
ATOM     20  C   UNL A   1      33.906  23.055  22.627  1.00  0.00     0.007 A 
ATOM     21  C   UNL A   1      35.245  24.320  25.143  1.00  0.00     0.126 A 
ATOM     22  C   UNL A   1      32.327  23.829  23.083  1.00  0.00     0.006 A 
ATOM     23  C   UNL A   1      33.686  25.048  25.640  1.00  0.00     0.045 A 
ATOM     24  F   UNL A   1      36.345  24.544  25.871  1.00  0.00    -0.207 F 
ENDBRANCH  15  17
ENDBRANCH  13  15
ENDBRANCH   8  13
BRANCH  12  25
ATOM     25  N   UNL A   1      29.240  30.626  21.231  1.00  0.00    -0.399 N 
ATOM     26  H   UNL A   1      29.701  31.496  21.225  1.00  0.00     0.156 HD
ATOM     27  H   UNL A   1      28.500  30.456  20.604  1.00  0.00     0.156 HD
ENDBRANCH  12  25
ENDBRANCH   4   7
ENDBRANCH   2   3
ENDBRANCH   1   2
BRANCH   1  28
ATOM     28  C   UNL A   1      34.481  29.535  27.676  1.00  0.00     0.118 C 
BRANCH  28  29
ATOM     29  N   UNL A   1      34.350  31.028  28.341  1.00  0.00    -0.352 N 
ATOM     30  C   UNL A   1      35.126  31.586  29.351  1.00  0.00     0.251 C 
ATOM     31  H   UNL A   1      33.634  31.601  27.981  1.00  0.00     0.163 HD
ATOM     32  O   UNL A   1      34.756  32.535  30.027  1.00  0.00    -0.269 OA
BRANCH  30  33
ATOM     33  C   UNL A   1      36.437  30.958  29.568  1.00  0.00     0.039 A 
ATOM     34  C   UNL A   1      36.678  30.005  30.564  1.00  0.00     0.014 A 
ATOM     35  C   UNL A   1      37.365  31.225  28.570  1.00  0.00     0.014 A 
ATOM     36  C   UNL A   1      37.856  29.266  30.498  1.00  0.00     0.010 A 
ATOM     37  C   UNL A   1      38.302  30.274  28.322  1.00  0.00     0.010 A 
ATOM     38  C   UNL A   1      38.647  29.403  29.354  1.00  0.00    -0.014 A 
BRANCH  38  39
ATOM     39  C   UNL A   1      39.979  28.858  29.163  1.00  0.00     0.031 A 
ATOM     40  C   UNL A   1      40.167  27.454  28.815  1.00  0.00     0.074 A 
ATOM     41  C   UNL A   1      40.958  29.794  29.226  1.00  0.00     0.049 A 
ATOM     42  N   UNL A   1      41.092  26.703  29.297  1.00  0.00    -0.248 NA
ATOM     43  C   UNL A   1      39.258  26.732  27.925  1.00  0.00     0.031 C 
ATOM     44  C   UNL A   1      42.348  29.783  28.823  1.00  0.00     0.029 A 
ATOM     45  N   UNL A   1      40.808  31.052  29.813  1.00  0.00    -0.354 N 
ATOM     46  C   UNL A   1      41.175  25.630  28.436  1.00  0.00     0.074 A 
ATOM     47  C   UNL A   1      39.884  25.555  27.792  1.00  0.00     0.031 C 
ATOM     48  C   UNL A   1      42.971  30.830  29.411  1.00  0.00     0.029 A 
ATOM     49  C   UNL A   1      42.027  31.479  30.317  1.00  0.00     0.049 A 
ATOM     50  H   UNL A   1      39.966  31.559  29.862  1.00  0.00     0.167 HD
ATOM     51  C   UNL A   1      42.402  25.126  28.112  1.00  0.00     0.034 A 
ATOM     52  C   UNL A   1      42.096  31.583  31.680  1.00  0.00     0.034 A 
ATOM     53  C   UNL A   1      43.453  25.970  28.681  1.00  0.00     0.049 A 
ATOM     54  C   UNL A   1      42.888  30.429  32.256  1.00  0.00     0.074 A 
ATOM     55  C   UNL A   1      44.317  26.907  28.136  1.00  0.00     0.029 A 
ATOM     56  N   UNL A   1      43.492  26.177  30.045  1.00  0.00    -0.354 N 
ATOM     57  N   UNL A   1      43.280  29.402  31.552  1.00  0.00    -0.248 NA
ATOM     58  C   UNL A   1      43.258  30.303  33.660  1.00  0.00     0.031 C 
ATOM     59  C   UNL A   1      44.905  27.648  29.202  1.00  0.00     0.029 A 
ATOM     60  C   UNL A   1      44.390  27.164  30.388  1.00  0.00     0.049 A 
ATOM     61  H   UNL A   1      42.945  25.679  30.694  1.00  0.00     0.167 HD
ATOM     62  C   UNL A   1      43.990  28.538  32.329  1.00  0.00     0.074 A 
ATOM     63  C   UNL A   1      43.893  29.116  33.660  1.00  0.00     0.031 C 
ATOM     64  C   UNL A   1      44.589  27.429  31.802  1.00  0.00     0.034 A 
BRANCH  51  65
ATOM     65  C   UNL A   1      42.673  24.074  27.054  1.00  0.00     0.023 A 
ATOM     66  C   UNL A   1      43.424  24.334  25.887  1.00  0.00     0.012 A 
ATOM     67  C   UNL A   1      42.128  22.772  27.158  1.00  0.00     0.148 A 
ATOM     68  C   UNL A   1      43.704  23.340  24.935  1.00  0.00     0.002 A 
ATOM     69  C   UNL A   1      42.386  21.792  26.199  1.00  0.00     0.091 A 
ATOM     70  F   UNL A   1      41.325  22.454  28.179  1.00  0.00    -0.205 F 
ATOM     71  C   UNL A   1      43.189  22.061  25.094  1.00  0.00     0.022 A 
BRANCH  69  72
ATOM     72  S   UNL A   1      41.640  20.171  26.401  1.00  0.00     0.127 S 
ATOM     73  O   UNL A   1      40.211  20.459  26.316  1.00  0.00    -0.237 OA
ATOM     74  O   UNL A   1      42.225  19.399  25.310  1.00  0.00    -0.237 OA
ATOM     75  O   UNL A   1      42.091  19.760  27.731  1.00  0.00    -0.744 OA
ENDBRANCH  69  72
ENDBRANCH  51  65
BRANCH  52  76
ATOM     76  C   UNL A   1      40.819  32.166  32.254  1.00  0.00     0.023 A 
ATOM     77  C   UNL A   1      40.692  33.547  32.499  1.00  0.00     0.012 A 
ATOM     78  C   UNL A   1      39.975  31.284  32.980  1.00  0.00     0.148 A 
ATOM     79  C   UNL A   1      39.825  34.017  33.501  1.00  0.00     0.002 A 
ATOM     80  C   UNL A   1      39.191  31.751  34.036  1.00  0.00     0.091 A 
ATOM     81  F   UNL A   1      40.045  29.970  32.712  1.00  0.00    -0.205 F 
ATOM     82  C   UNL A   1      39.111  33.121  34.300  1.00  0.00     0.022 A 
BRANCH  80  83
ATOM     83  S   UNL A   1      38.538  30.584  35.249  1.00  0.00     0.127 S 
ATOM     84  O   UNL A   1      37.805  29.637  34.415  1.00  0.00    -0.237 OA
ATOM     85  O   UNL A   1      39.725  30.072  35.925  1.00  0.00    -0.237 OA
ATOM     86  O   UNL A   1      37.702  31.417  36.115  1.00  0.00    -0.744 OA
ENDBRANCH  80  83
ENDBRANCH  52  76
BRANCH  64  87
ATOM     87  C   UNL A   1      45.350  26.407  32.599  1.00  0.00     0.023 A 
ATOM     88  C   UNL A   1      46.767  26.367  32.515  1.00  0.00     0.012 A 
ATOM     89  C   UNL A   1      44.747  25.493  33.460  1.00  0.00     0.148 A 
ATOM     90  C   UNL A   1      47.529  25.387  33.142  1.00  0.00     0.002 A 
ATOM     91  C   UNL A   1      45.497  24.466  34.025  1.00  0.00     0.091 A 
ATOM     92  F   UNL A   1      43.452  25.629  33.780  1.00  0.00    -0.205 F 
ATOM     93  C   UNL A   1      46.885  24.402  33.869  1.00  0.00     0.022 A 
BRANCH  91  94
ATOM     94  S   UNL A   1      44.618  23.136  34.832  1.00  0.00     0.127 S 
ATOM     95  O   UNL A   1      43.996  23.787  35.979  1.00  0.00    -0.237 OA
ATOM     96  O   UNL A   1      43.715  22.676  33.778  1.00  0.00    -0.237 OA
ATOM     97  O   UNL A   1      45.677  22.187  35.170  1.00  0.00    -0.744 OA
ENDBRANCH  91  94
ENDBRANCH  64  87
ENDBRANCH  38  39
ENDBRANCH  30  33
ENDBRANCH  28  29
ENDBRANCH   1  28
TORSDOF 17
ENDMDL
