MODEL 1
REMARK VINA RESULT:     -12.7      0.000      0.000
REMARK SMILES O=C(NCCCNC(=O)[C@@H]1CC[C@H](CNc2c(F)c(F)c(F)c(F)c2F)O1)c1ccc(-c2c3nc(c(-c4cccc(S(=O)(=O)[O-])c4F)c4ccc([nH]4)c(-c4cccc(S(=O)(=O)[O-])c4F)c4nc(c(-c5cccc(S(=O)(=O)[O-])c5F)c5ccc2[nH]5)C=C4)C=C3)cc1
REMARK SMILES IDX 5 1 4 2 3 3 1 4 2 5 28 7 29 8 90 9 30 10 89 11 31 12 32 13
REMARK SMILES IDX 33 14 83 15 34 16 88 17 82 18 84 19 35 20 87 21 81 22 80 23
REMARK SMILES IDX 36 25 68 26 48 27 67 28 49 29 52 30 66 31 85 32 50 33 51 34
REMARK SMILES IDX 65 36 86 37 53 38 37 39 38 40 46 41 39 42 41 43 47 44 40 45
REMARK SMILES IDX 42 46 43 47 44 48 45 49 69 50 70 51 78 52 71 53 73 54 79 55
REMARK SMILES IDX 72 56 74 57 75 58 76 59 77 60 54 61 55 62 63 63 56 64 58 65
REMARK SMILES IDX 64 66 57 67 59 68 60 69 61 70 62 71 6 72 7 73 8 74 9 76
REMARK SMILES IDX 10 77 11 78 27 79 12 80 13 81 14 82 15 83 16 85 17 86 25 87
REMARK SMILES IDX 18 88 19 89 23 90 26 91 20 92 21 93 24 94 22 95
REMARK H PARENT 3 6 84 24 52 35 7 75 15 84
REMARK Flexibility Score: inf
ROOT
ATOM      1  C   UNL A   1      31.327  29.784  25.264  1.00  0.00     0.042 C 
ENDROOT
BRANCH   1   2
ATOM      2  C   UNL A   1      32.236  30.242  26.403  1.00  0.00     0.118 C 
BRANCH   2   3
ATOM      3  N   UNL A   1      32.146  31.672  26.668  1.00  0.00    -0.352 N 
ATOM      4  O   UNL A   1      32.624  33.658  27.600  1.00  0.00    -0.269 OA
ATOM      5  C   UNL A   1      32.977  32.500  27.387  1.00  0.00     0.251 C 
ATOM      6  H   UNL A   1      31.365  32.117  26.267  1.00  0.00     0.163 HD
BRANCH   5   7
ATOM      7  C   UNL A   1      34.261  32.003  27.930  1.00  0.00     0.039 A 
ATOM      8  C   UNL A   1      34.412  30.678  28.340  1.00  0.00     0.014 A 
ATOM      9  C   UNL A   1      35.347  32.881  28.012  1.00  0.00     0.014 A 
ATOM     10  C   UNL A   1      35.578  30.280  28.988  1.00  0.00     0.010 A 
ATOM     11  C   UNL A   1      36.551  32.454  28.585  1.00  0.00     0.010 A 
ATOM     12  C   UNL A   1      36.660  31.165  29.127  1.00  0.00    -0.014 A 
BRANCH  12  13
ATOM     13  C   UNL A   1      37.893  30.709  29.823  1.00  0.00     0.031 A 
ATOM     14  C   UNL A   1      38.182  31.114  31.245  1.00  0.00     0.074 A 
ATOM     15  C   UNL A   1      38.749  29.895  29.173  1.00  0.00     0.049 A 
ATOM     16  N   UNL A   1      39.161  30.732  32.026  1.00  0.00    -0.248 NA
ATOM     17  C   UNL A   1      37.263  32.078  31.873  1.00  0.00     0.031 C 
ATOM     18  C   UNL A   1      38.614  29.473  27.778  1.00  0.00     0.029 A 
ATOM     19  N   UNL A   1      39.894  29.270  29.599  1.00  0.00    -0.354 N 
ATOM     20  C   UNL A   1      39.004  31.435  33.214  1.00  0.00     0.074 A 
ATOM     21  C   UNL A   1      37.840  32.278  33.052  1.00  0.00     0.031 C 
ATOM     22  C   UNL A   1      39.611  28.630  27.473  1.00  0.00     0.029 A 
ATOM     23  C   UNL A   1      40.478  28.477  28.637  1.00  0.00     0.049 A 
ATOM     24  H   UNL A   1      40.263  29.377  30.505  1.00  0.00     0.167 HD
ATOM     25  C   UNL A   1      39.747  31.372  34.346  1.00  0.00     0.034 A 
ATOM     26  C   UNL A   1      41.582  27.707  28.686  1.00  0.00     0.034 A 
ATOM     27  C   UNL A   1      40.873  30.494  34.528  1.00  0.00     0.049 A 
ATOM     28  C   UNL A   1      42.350  27.610  29.974  1.00  0.00     0.074 A 
ATOM     29  C   UNL A   1      41.638  30.301  35.665  1.00  0.00     0.029 A 
ATOM     30  N   UNL A   1      41.396  29.663  33.550  1.00  0.00    -0.354 N 
ATOM     31  N   UNL A   1      42.093  28.168  31.132  1.00  0.00    -0.248 NA
ATOM     32  C   UNL A   1      43.541  26.748  29.973  1.00  0.00     0.031 C 
ATOM     33  C   UNL A   1      42.632  29.362  35.371  1.00  0.00     0.029 A 
ATOM     34  C   UNL A   1      42.477  28.959  34.055  1.00  0.00     0.049 A 
ATOM     35  H   UNL A   1      41.051  29.585  32.631  1.00  0.00     0.167 HD
ATOM     36  C   UNL A   1      43.071  27.704  32.003  1.00  0.00     0.074 A 
ATOM     37  C   UNL A   1      43.910  26.797  31.245  1.00  0.00     0.031 C 
ATOM     38  C   UNL A   1      43.267  28.015  33.308  1.00  0.00     0.034 A 
BRANCH  25  39
ATOM     39  C   UNL A   1      39.337  32.241  35.507  1.00  0.00     0.023 A 
ATOM     40  C   UNL A   1      38.506  31.709  36.513  1.00  0.00     0.012 A 
ATOM     41  C   UNL A   1      39.828  33.555  35.640  1.00  0.00     0.148 A 
ATOM     42  C   UNL A   1      38.149  32.477  37.621  1.00  0.00     0.002 A 
ATOM     43  C   UNL A   1      39.499  34.303  36.766  1.00  0.00     0.091 A 
ATOM     44  F   UNL A   1      40.597  34.054  34.662  1.00  0.00    -0.205 F 
ATOM     45  C   UNL A   1      38.653  33.768  37.752  1.00  0.00     0.022 A 
BRANCH  43  46
ATOM     46  S   UNL A   1      40.161  35.948  37.058  1.00  0.00     0.127 S 
ATOM     47  O   UNL A   1      39.472  36.328  38.290  1.00  0.00    -0.237 OA
ATOM     48  O   UNL A   1      41.592  35.684  37.217  1.00  0.00    -0.237 OA
ATOM     49  O   UNL A   1      39.819  36.727  35.876  1.00  0.00    -0.744 OA
ENDBRANCH  43  46
ENDBRANCH  25  39
BRANCH  26  50
ATOM     50  C   UNL A   1      41.973  26.902  27.496  1.00  0.00     0.023 A 
ATOM     51  C   UNL A   1      42.642  27.530  26.427  1.00  0.00     0.012 A 
ATOM     52  C   UNL A   1      41.732  25.516  27.435  1.00  0.00     0.148 A 
ATOM     53  C   UNL A   1      43.044  26.798  25.311  1.00  0.00     0.002 A 
ATOM     54  C   UNL A   1      42.185  24.782  26.346  1.00  0.00     0.091 A 
ATOM     55  F   UNL A   1      41.075  24.940  28.452  1.00  0.00    -0.205 F 
ATOM     56  C   UNL A   1      42.828  25.422  25.275  1.00  0.00     0.022 A 
BRANCH  54  57
ATOM     57  S   UNL A   1      42.072  22.990  26.292  1.00  0.00     0.127 S 
ATOM     58  O   UNL A   1      40.628  22.780  26.357  1.00  0.00    -0.237 OA
ATOM     59  O   UNL A   1      42.682  22.683  24.997  1.00  0.00    -0.237 OA
ATOM     60  O   UNL A   1      42.840  22.520  27.438  1.00  0.00    -0.744 OA
ENDBRANCH  54  57
ENDBRANCH  26  50
BRANCH  38  61
ATOM     61  C   UNL A   1      44.419  27.350  34.015  1.00  0.00     0.023 A 
ATOM     62  C   UNL A   1      45.700  27.930  33.956  1.00  0.00     0.012 A 
ATOM     63  C   UNL A   1      44.219  26.189  34.786  1.00  0.00     0.148 A 
ATOM     64  C   UNL A   1      46.774  27.347  34.628  1.00  0.00     0.002 A 
ATOM     65  C   UNL A   1      45.285  25.638  35.489  1.00  0.00     0.091 A 
ATOM     66  F   UNL A   1      42.997  25.637  34.811  1.00  0.00    -0.205 F 
ATOM     67  C   UNL A   1      46.564  26.208  35.403  1.00  0.00     0.022 A 
BRANCH  65  68
ATOM     68  S   UNL A   1      45.072  24.226  36.580  1.00  0.00     0.127 S 
ATOM     69  O   UNL A   1      44.415  23.263  35.698  1.00  0.00    -0.237 OA
ATOM     70  O   UNL A   1      46.451  23.886  36.931  1.00  0.00    -0.237 OA
ATOM     71  O   UNL A   1      44.272  24.710  37.696  1.00  0.00    -0.744 OA
ENDBRANCH  65  68
ENDBRANCH  38  61
ENDBRANCH  12  13
ENDBRANCH   5   7
ENDBRANCH   2   3
ENDBRANCH   1   2
BRANCH   1  72
ATOM     72  C   UNL A   1      31.855  28.586  24.482  1.00  0.00     0.117 C 
BRANCH  72  73
ATOM     73  N   UNL A   1      30.830  27.580  24.268  1.00  0.00    -0.354 N 
ATOM     74  C   UNL A   1      30.753  26.316  24.788  1.00  0.00     0.249 C 
ATOM     75  H   UNL A   1      30.092  27.841  23.671  1.00  0.00     0.163 HD
ATOM     76  O   UNL A   1      29.817  25.596  24.441  1.00  0.00    -0.272 OA
BRANCH  74  77
ATOM     77  C   UNL A   1      31.838  25.860  25.773  1.00  0.00     0.207 C 
ATOM     78  C   UNL A   1      32.975  25.100  25.107  1.00  0.00     0.045 C 
ATOM     79  O   UNL A   1      31.276  24.974  26.761  1.00  0.00    -0.363 OA
ATOM     80  C   UNL A   1      33.426  24.173  26.206  1.00  0.00     0.037 C 
ATOM     81  C   UNL A   1      32.117  23.814  26.892  1.00  0.00     0.138 C 
BRANCH  81  82
ATOM     82  C   UNL A   1      31.407  22.576  26.298  1.00  0.00     0.145 C 
BRANCH  82  83
ATOM     83  N   UNL A   1      32.377  21.523  26.021  1.00  0.00    -0.378 N 
ATOM     84  H   UNL A   1      33.079  21.365  26.694  1.00  0.00     0.160 HD
BRANCH  83  85
ATOM     85  C   UNL A   1      32.390  20.727  24.886  1.00  0.00     0.113 A 
ATOM     86  C   UNL A   1      32.174  21.184  23.577  1.00  0.00     0.188 A 
ATOM     87  C   UNL A   1      32.584  19.341  25.048  1.00  0.00     0.188 A 
ATOM     88  F   UNL A   1      32.021  22.495  23.333  1.00  0.00    -0.201 F 
ATOM     89  C   UNL A   1      32.148  20.303  22.496  1.00  0.00     0.199 A 
ATOM     90  C   UNL A   1      32.547  18.460  23.974  1.00  0.00     0.199 A 
ATOM     91  F   UNL A   1      32.789  18.855  26.284  1.00  0.00    -0.201 F 
ATOM     92  F   UNL A   1      31.953  20.773  21.255  1.00  0.00    -0.200 F 
ATOM     93  C   UNL A   1      32.327  18.943  22.696  1.00  0.00     0.200 A 
ATOM     94  F   UNL A   1      32.715  17.145  24.179  1.00  0.00    -0.200 F 
ATOM     95  F   UNL A   1      32.289  18.098  21.656  1.00  0.00    -0.200 F 
ENDBRANCH  83  85
ENDBRANCH  82  83
ENDBRANCH  81  82
ENDBRANCH  74  77
ENDBRANCH  72  73
ENDBRANCH   1  72
TORSDOF 16
ENDMDL
MODEL 2
REMARK VINA RESULT:     -12.6      1.285      1.832
REMARK SMILES O=C(NCCCNC(=O)[C@@H]1CC[C@H](CNc2c(F)c(F)c(F)c(F)c2F)O1)c1ccc(-c2c3nc(c(-c4cccc(S(=O)(=O)[O-])c4F)c4ccc([nH]4)c(-c4cccc(S(=O)(=O)[O-])c4F)c4nc(c(-c5cccc(S(=O)(=O)[O-])c5F)c5ccc2[nH]5)C=C4)C=C3)cc1
REMARK SMILES IDX 5 1 4 2 3 3 1 4 2 5 28 7 29 8 90 9 30 10 89 11 31 12 32 13
REMARK SMILES IDX 33 14 83 15 34 16 88 17 82 18 84 19 35 20 87 21 81 22 80 23
REMARK SMILES IDX 36 25 68 26 48 27 67 28 49 29 52 30 66 31 85 32 50 33 51 34
REMARK SMILES IDX 65 36 86 37 53 38 37 39 38 40 46 41 39 42 41 43 47 44 40 45
REMARK SMILES IDX 42 46 43 47 44 48 45 49 69 50 70 51 78 52 71 53 73 54 79 55
REMARK SMILES IDX 72 56 74 57 75 58 76 59 77 60 54 61 55 62 63 63 56 64 58 65
REMARK SMILES IDX 64 66 57 67 59 68 60 69 61 70 62 71 6 72 7 73 8 74 9 76
REMARK SMILES IDX 10 77 11 78 27 79 12 80 13 81 14 82 15 83 16 85 17 86 25 87
REMARK SMILES IDX 18 88 19 89 23 90 26 91 20 92 21 93 24 94 22 95
REMARK H PARENT 3 6 84 24 52 35 7 75 15 84
REMARK Flexibility Score: inf
ROOT
ATOM      1  C   UNL A   1      32.550  29.605  24.843  1.00  0.00     0.042 C 
ENDROOT
BRANCH   1   2
ATOM      2  C   UNL A   1      32.502  29.954  26.329  1.00  0.00     0.118 C 
BRANCH   2   3
ATOM      3  N   UNL A   1      32.389  31.385  26.578  1.00  0.00    -0.352 N 
ATOM      4  O   UNL A   1      32.826  33.387  27.496  1.00  0.00    -0.269 OA
ATOM      5  C   UNL A   1      33.198  32.232  27.300  1.00  0.00     0.251 C 
ATOM      6  H   UNL A   1      31.608  31.816  26.162  1.00  0.00     0.163 HD
BRANCH   5   7
ATOM      7  C   UNL A   1      34.481  31.758  27.866  1.00  0.00     0.039 A 
ATOM      8  C   UNL A   1      34.642  30.440  28.297  1.00  0.00     0.014 A 
ATOM      9  C   UNL A   1      35.556  32.650  27.950  1.00  0.00     0.014 A 
ATOM     10  C   UNL A   1      35.805  30.066  28.965  1.00  0.00     0.010 A 
ATOM     11  C   UNL A   1      36.757  32.245  28.543  1.00  0.00     0.010 A 
ATOM     12  C   UNL A   1      36.875  30.966  29.105  1.00  0.00    -0.014 A 
BRANCH  12  13
ATOM     13  C   UNL A   1      38.104  30.533  29.823  1.00  0.00     0.031 A 
ATOM     14  C   UNL A   1      38.386  30.989  31.231  1.00  0.00     0.074 A 
ATOM     15  C   UNL A   1      38.963  29.697  29.206  1.00  0.00     0.049 A 
ATOM     16  N   UNL A   1      39.362  30.635  32.029  1.00  0.00    -0.248 NA
ATOM     17  C   UNL A   1      37.465  31.976  31.820  1.00  0.00     0.031 C 
ATOM     18  C   UNL A   1      38.833  29.225  27.826  1.00  0.00     0.029 A 
ATOM     19  N   UNL A   1      40.105  29.086  29.660  1.00  0.00    -0.354 N 
ATOM     20  C   UNL A   1      39.200  31.381  33.191  1.00  0.00     0.074 A 
ATOM     21  C   UNL A   1      38.036  32.218  32.993  1.00  0.00     0.031 C 
ATOM     22  C   UNL A   1      39.832  28.371  27.557  1.00  0.00     0.029 A 
ATOM     23  C   UNL A   1      40.692  28.260  28.730  1.00  0.00     0.049 A 
ATOM     24  H   UNL A   1      40.470  29.226  30.563  1.00  0.00     0.167 HD
ATOM     25  C   UNL A   1      39.937  31.357  34.328  1.00  0.00     0.034 A 
ATOM     26  C   UNL A   1      41.795  27.491  28.812  1.00  0.00     0.034 A 
ATOM     27  C   UNL A   1      41.061  30.486  34.546  1.00  0.00     0.049 A 
ATOM     28  C   UNL A   1      42.557  27.440  30.106  1.00  0.00     0.074 A 
ATOM     29  C   UNL A   1      41.821  30.334  35.693  1.00  0.00     0.029 A 
ATOM     30  N   UNL A   1      41.589  29.620  33.601  1.00  0.00    -0.354 N 
ATOM     31  N   UNL A   1      42.296  28.039  31.242  1.00  0.00    -0.248 NA
ATOM     32  C   UNL A   1      43.748  26.578  30.141  1.00  0.00     0.031 C 
ATOM     33  C   UNL A   1      42.816  29.384  35.438  1.00  0.00     0.029 A 
ATOM     34  C   UNL A   1      42.667  28.935  34.136  1.00  0.00     0.049 A 
ATOM     35  H   UNL A   1      41.247  29.509  32.684  1.00  0.00     0.167 HD
ATOM     36  C   UNL A   1      43.269  27.606  32.134  1.00  0.00     0.074 A 
ATOM     37  C   UNL A   1      44.111  26.673  31.412  1.00  0.00     0.031 C 
ATOM     38  C   UNL A   1      43.459  27.963  33.427  1.00  0.00     0.034 A 
BRANCH  25  39
ATOM     39  C   UNL A   1      39.522  32.268  35.455  1.00  0.00     0.023 A 
ATOM     40  C   UNL A   1      38.729  31.759  36.502  1.00  0.00     0.012 A 
ATOM     41  C   UNL A   1      39.973  33.601  35.516  1.00  0.00     0.148 A 
ATOM     42  C   UNL A   1      38.369  32.568  37.580  1.00  0.00     0.002 A 
ATOM     43  C   UNL A   1      39.643  34.391  36.612  1.00  0.00     0.091 A 
ATOM     44  F   UNL A   1      40.707  34.077  34.499  1.00  0.00    -0.205 F 
ATOM     45  C   UNL A   1      38.833  33.879  37.640  1.00  0.00     0.022 A 
BRANCH  43  46
ATOM     46  S   UNL A   1      40.257  36.068  36.812  1.00  0.00     0.127 S 
ATOM     47  O   UNL A   1      39.562  36.494  38.026  1.00  0.00    -0.237 OA
ATOM     48  O   UNL A   1      41.696  35.855  36.976  1.00  0.00    -0.237 OA
ATOM     49  O   UNL A   1      39.888  36.773  35.593  1.00  0.00    -0.744 OA
ENDBRANCH  43  46
ENDBRANCH  25  39
BRANCH  26  50
ATOM     50  C   UNL A   1      42.192  26.644  27.653  1.00  0.00     0.023 A 
ATOM     51  C   UNL A   1      43.048  27.177  26.669  1.00  0.00     0.012 A 
ATOM     52  C   UNL A   1      41.769  25.305  27.543  1.00  0.00     0.148 A 
ATOM     53  C   UNL A   1      43.456  26.399  25.586  1.00  0.00     0.002 A 
ATOM     54  C   UNL A   1      42.226  24.519  26.492  1.00  0.00     0.091 A 
ATOM     55  F   UNL A   1      40.938  24.822  28.478  1.00  0.00    -0.205 F 
ATOM     56  C   UNL A   1      43.057  25.067  25.504  1.00  0.00     0.022 A 
BRANCH  54  57
ATOM     57  S   UNL A   1      41.872  22.760  26.395  1.00  0.00     0.127 S 
ATOM     58  O   UNL A   1      42.569  22.382  25.169  1.00  0.00    -0.237 OA
ATOM     59  O   UNL A   1      42.478  22.257  27.629  1.00  0.00    -0.237 OA
ATOM     60  O   UNL A   1      40.419  22.661  26.363  1.00  0.00    -0.744 OA
ENDBRANCH  54  57
ENDBRANCH  26  50
BRANCH  38  61
ATOM     61  C   UNL A   1      44.607  27.324  34.163  1.00  0.00     0.023 A 
ATOM     62  C   UNL A   1      45.876  27.934  34.139  1.00  0.00     0.012 A 
ATOM     63  C   UNL A   1      44.415  26.157  34.926  1.00  0.00     0.148 A 
ATOM     64  C   UNL A   1      46.945  27.374  34.838  1.00  0.00     0.002 A 
ATOM     65  C   UNL A   1      45.475  25.628  35.655  1.00  0.00     0.091 A 
ATOM     66  F   UNL A   1      43.206  25.575  34.917  1.00  0.00    -0.205 F 
ATOM     67  C   UNL A   1      46.741  26.229  35.604  1.00  0.00     0.022 A 
BRANCH  65  68
ATOM     68  S   UNL A   1      45.266  24.208  36.737  1.00  0.00     0.127 S 
ATOM     69  O   UNL A   1      46.627  24.003  37.227  1.00  0.00    -0.237 OA
ATOM     70  O   UNL A   1      44.327  24.711  37.741  1.00  0.00    -0.237 OA
ATOM     71  O   UNL A   1      44.730  23.148  35.894  1.00  0.00    -0.744 OA
ENDBRANCH  65  68
ENDBRANCH  38  61
ENDBRANCH  12  13
ENDBRANCH   5   7
ENDBRANCH   2   3
ENDBRANCH   1   2
BRANCH   1  72
ATOM     72  C   UNL A   1      31.454  28.648  24.387  1.00  0.00     0.117 C 
BRANCH  72  73
ATOM     73  N   UNL A   1      30.910  27.877  25.490  1.00  0.00    -0.354 N 
ATOM     74  C   UNL A   1      30.785  26.519  25.602  1.00  0.00     0.249 C 
ATOM     75  H   UNL A   1      30.587  28.400  26.259  1.00  0.00     0.163 HD
ATOM     76  O   UNL A   1      30.247  26.061  26.611  1.00  0.00    -0.272 OA
BRANCH  74  77
ATOM     77  C   UNL A   1      31.320  25.636  24.467  1.00  0.00     0.207 C 
ATOM     78  C   UNL A   1      30.225  24.899  23.711  1.00  0.00     0.045 C 
ATOM     79  O   UNL A   1      32.205  24.627  24.992  1.00  0.00    -0.363 OA
ATOM     80  C   UNL A   1      30.934  23.648  23.261  1.00  0.00     0.037 C 
ATOM     81  C   UNL A   1      31.851  23.348  24.436  1.00  0.00     0.138 C 
BRANCH  81  82
ATOM     82  C   UNL A   1      31.215  22.456  25.528  1.00  0.00     0.145 C 
BRANCH  82  83
ATOM     83  N   UNL A   1      32.254  21.858  26.358  1.00  0.00    -0.378 N 
ATOM     84  H   UNL A   1      32.123  21.879  27.333  1.00  0.00     0.160 HD
BRANCH  83  85
ATOM     85  C   UNL A   1      33.412  21.262  25.882  1.00  0.00     0.113 A 
ATOM     86  C   UNL A   1      33.470  20.031  25.212  1.00  0.00     0.188 A 
ATOM     87  C   UNL A   1      34.641  21.907  26.127  1.00  0.00     0.188 A 
ATOM     88  F   UNL A   1      32.342  19.372  24.905  1.00  0.00    -0.201 F 
ATOM     89  C   UNL A   1      34.687  19.476  24.816  1.00  0.00     0.199 A 
ATOM     90  C   UNL A   1      35.856  21.351  25.745  1.00  0.00     0.199 A 
ATOM     91  F   UNL A   1      34.637  23.087  26.772  1.00  0.00    -0.201 F 
ATOM     92  F   UNL A   1      34.708  18.304  24.165  1.00  0.00    -0.200 F 
ATOM     93  C   UNL A   1      35.878  20.133  25.089  1.00  0.00     0.200 A 
ATOM     94  F   UNL A   1      37.002  21.991  26.018  1.00  0.00    -0.200 F 
ATOM     95  F   UNL A   1      37.046  19.591  24.717  1.00  0.00    -0.200 F 
ENDBRANCH  83  85
ENDBRANCH  82  83
ENDBRANCH  81  82
ENDBRANCH  74  77
ENDBRANCH  72  73
ENDBRANCH   1  72
TORSDOF 16
ENDMDL
MODEL 3
REMARK VINA RESULT:     -12.5      1.551      1.912
REMARK SMILES O=C(NCCCNC(=O)[C@@H]1CC[C@H](CNc2c(F)c(F)c(F)c(F)c2F)O1)c1ccc(-c2c3nc(c(-c4cccc(S(=O)(=O)[O-])c4F)c4ccc([nH]4)c(-c4cccc(S(=O)(=O)[O-])c4F)c4nc(c(-c5cccc(S(=O)(=O)[O-])c5F)c5ccc2[nH]5)C=C4)C=C3)cc1
REMARK SMILES IDX 5 1 4 2 3 3 1 4 2 5 28 7 29 8 90 9 30 10 89 11 31 12 32 13
REMARK SMILES IDX 33 14 83 15 34 16 88 17 82 18 84 19 35 20 87 21 81 22 80 23
REMARK SMILES IDX 36 25 68 26 48 27 67 28 49 29 52 30 66 31 85 32 50 33 51 34
REMARK SMILES IDX 65 36 86 37 53 38 37 39 38 40 46 41 39 42 41 43 47 44 40 45
REMARK SMILES IDX 42 46 43 47 44 48 45 49 69 50 70 51 78 52 71 53 73 54 79 55
REMARK SMILES IDX 72 56 74 57 75 58 76 59 77 60 54 61 55 62 63 63 56 64 58 65
REMARK SMILES IDX 64 66 57 67 59 68 60 69 61 70 62 71 6 72 7 73 8 74 9 76
REMARK SMILES IDX 10 77 11 78 27 79 12 80 13 81 14 82 15 83 16 85 17 86 25 87
REMARK SMILES IDX 18 88 19 89 23 90 26 91 20 92 21 93 24 94 22 95
REMARK H PARENT 3 6 84 24 52 35 7 75 15 84
REMARK Flexibility Score: inf
ROOT
ATOM      1  C   UNL A   1      33.626  29.309  23.916  1.00  0.00     0.042 C 
ENDROOT
BRANCH   1   2
ATOM      2  C   UNL A   1      32.963  29.170  25.285  1.00  0.00     0.118 C 
BRANCH   2   3
ATOM      3  N   UNL A   1      32.524  30.443  25.841  1.00  0.00    -0.352 N 
ATOM      4  O   UNL A   1      32.443  32.194  27.245  1.00  0.00    -0.269 OA
ATOM      5  C   UNL A   1      33.070  31.218  26.838  1.00  0.00     0.251 C 
ATOM      6  H   UNL A   1      31.704  30.809  25.437  1.00  0.00     0.163 HD
BRANCH   5   7
ATOM      7  C   UNL A   1      34.376  30.869  27.441  1.00  0.00     0.039 A 
ATOM      8  C   UNL A   1      34.705  29.548  27.748  1.00  0.00     0.014 A 
ATOM      9  C   UNL A   1      35.302  31.888  27.690  1.00  0.00     0.014 A 
ATOM     10  C   UNL A   1      35.871  29.269  28.454  1.00  0.00     0.010 A 
ATOM     11  C   UNL A   1      36.515  31.593  28.322  1.00  0.00     0.010 A 
ATOM     12  C   UNL A   1      36.788  30.288  28.759  1.00  0.00    -0.014 A 
BRANCH  12  13
ATOM     13  C   UNL A   1      38.026  29.956  29.514  1.00  0.00     0.031 A 
ATOM     14  C   UNL A   1      38.236  30.447  30.923  1.00  0.00     0.074 A 
ATOM     15  C   UNL A   1      38.960  29.179  28.931  1.00  0.00     0.049 A 
ATOM     16  N   UNL A   1      39.213  30.175  31.751  1.00  0.00    -0.248 NA
ATOM     17  C   UNL A   1      37.230  31.369  31.475  1.00  0.00     0.031 C 
ATOM     18  C   UNL A   1      38.903  28.684  27.554  1.00  0.00     0.029 A 
ATOM     19  N   UNL A   1      40.132  28.660  29.422  1.00  0.00    -0.354 N 
ATOM     20  C   UNL A   1      38.966  30.919  32.898  1.00  0.00     0.074 A 
ATOM     21  C   UNL A   1      37.750  31.666  32.659  1.00  0.00     0.031 C 
ATOM     22  C   UNL A   1      39.969  27.903  27.322  1.00  0.00     0.029 A 
ATOM     23  C   UNL A   1      40.804  27.869  28.519  1.00  0.00     0.049 A 
ATOM     24  H   UNL A   1      40.461  28.836  30.333  1.00  0.00     0.167 HD
ATOM     25  C   UNL A   1      39.672  30.963  34.054  1.00  0.00     0.034 A 
ATOM     26  C   UNL A   1      41.958  27.185  28.639  1.00  0.00     0.034 A 
ATOM     27  C   UNL A   1      40.851  30.180  34.313  1.00  0.00     0.049 A 
ATOM     28  C   UNL A   1      42.686  27.204  29.953  1.00  0.00     0.074 A 
ATOM     29  C   UNL A   1      41.589  30.097  35.481  1.00  0.00     0.029 A 
ATOM     30  N   UNL A   1      41.466  29.345  33.393  1.00  0.00    -0.354 N 
ATOM     31  N   UNL A   1      42.351  27.795  31.073  1.00  0.00    -0.248 NA
ATOM     32  C   UNL A   1      43.936  26.433  30.030  1.00  0.00     0.031 C 
ATOM     33  C   UNL A   1      42.658  29.221  35.264  1.00  0.00     0.029 A 
ATOM     34  C   UNL A   1      42.577  28.747  33.965  1.00  0.00     0.049 A 
ATOM     35  H   UNL A   1      41.159  29.199  32.469  1.00  0.00     0.167 HD
ATOM     36  C   UNL A   1      43.329  27.445  31.996  1.00  0.00     0.074 A 
ATOM     37  C   UNL A   1      44.257  26.568  31.309  1.00  0.00     0.031 C 
ATOM     38  C   UNL A   1      43.458  27.830  33.289  1.00  0.00     0.034 A 
BRANCH  25  39
ATOM     39  C   UNL A   1      39.161  31.853  35.158  1.00  0.00     0.023 A 
ATOM     40  C   UNL A   1      38.198  31.357  36.059  1.00  0.00     0.012 A 
ATOM     41  C   UNL A   1      39.682  33.148  35.348  1.00  0.00     0.148 A 
ATOM     42  C   UNL A   1      37.743  32.143  37.117  1.00  0.00     0.002 A 
ATOM     43  C   UNL A   1      39.251  33.913  36.426  1.00  0.00     0.091 A 
ATOM     44  F   UNL A   1      40.579  33.613  34.467  1.00  0.00    -0.205 F 
ATOM     45  C   UNL A   1      38.275  33.415  37.306  1.00  0.00     0.022 A 
BRANCH  43  46
ATOM     46  S   UNL A   1      39.935  35.534  36.794  1.00  0.00     0.127 S 
ATOM     47  O   UNL A   1      39.266  35.858  38.052  1.00  0.00    -0.237 OA
ATOM     48  O   UNL A   1      41.365  35.246  36.920  1.00  0.00    -0.237 OA
ATOM     49  O   UNL A   1      39.588  36.376  35.658  1.00  0.00    -0.744 OA
ENDBRANCH  43  46
ENDBRANCH  25  39
BRANCH  26  50
ATOM     50  C   UNL A   1      42.446  26.356  27.501  1.00  0.00     0.023 A 
ATOM     51  C   UNL A   1      43.361  26.912  26.585  1.00  0.00     0.012 A 
ATOM     52  C   UNL A   1      42.052  25.013  27.349  1.00  0.00     0.148 A 
ATOM     53  C   UNL A   1      43.855  26.153  25.526  1.00  0.00     0.002 A 
ATOM     54  C   UNL A   1      42.593  24.245  26.324  1.00  0.00     0.091 A 
ATOM     55  F   UNL A   1      41.166  24.508  28.218  1.00  0.00    -0.205 F 
ATOM     56  C   UNL A   1      43.483  24.817  25.402  1.00  0.00     0.022 A 
BRANCH  54  57
ATOM     57  S   UNL A   1      42.273  22.483  26.185  1.00  0.00     0.127 S 
ATOM     58  O   UNL A   1      40.816  22.451  26.084  1.00  0.00    -0.237 OA
ATOM     59  O   UNL A   1      42.984  22.139  24.952  1.00  0.00    -0.237 OA
ATOM     60  O   UNL A   1      42.845  21.891  27.387  1.00  0.00    -0.744 OA
ENDBRANCH  54  57
ENDBRANCH  26  50
BRANCH  38  61
ATOM     61  C   UNL A   1      44.630  27.285  34.063  1.00  0.00     0.023 A 
ATOM     62  C   UNL A   1      45.851  27.986  34.062  1.00  0.00     0.012 A 
ATOM     63  C   UNL A   1      44.503  26.117  34.838  1.00  0.00     0.148 A 
ATOM     64  C   UNL A   1      46.940  27.514  34.796  1.00  0.00     0.002 A 
ATOM     65  C   UNL A   1      45.578  25.676  35.601  1.00  0.00     0.091 A 
ATOM     66  F   UNL A   1      43.339  25.449  34.808  1.00  0.00    -0.205 F 
ATOM     67  C   UNL A   1      46.799  26.367  35.573  1.00  0.00     0.022 A 
BRANCH  65  68
ATOM     68  S   UNL A   1      45.445  24.259  36.699  1.00  0.00     0.127 S 
ATOM     69  O   UNL A   1      44.843  24.857  37.888  1.00  0.00    -0.237 OA
ATOM     70  O   UNL A   1      44.559  23.364  35.953  1.00  0.00    -0.237 OA
ATOM     71  O   UNL A   1      46.803  23.759  36.860  1.00  0.00    -0.744 OA
ENDBRANCH  65  68
ENDBRANCH  38  61
ENDBRANCH  12  13
ENDBRANCH   5   7
ENDBRANCH   2   3
ENDBRANCH   1   2
BRANCH   1  72
ATOM     72  C   UNL A   1      32.762  28.842  22.750  1.00  0.00     0.117 C 
BRANCH  72  73
ATOM     73  N   UNL A   1      33.320  27.675  22.090  1.00  0.00    -0.354 N 
ATOM     74  C   UNL A   1      32.994  26.358  22.267  1.00  0.00     0.249 C 
ATOM     75  H   UNL A   1      34.026  27.855  21.428  1.00  0.00     0.163 HD
ATOM     76  O   UNL A   1      33.626  25.508  21.637  1.00  0.00    -0.272 OA
BRANCH  74  77
ATOM     77  C   UNL A   1      31.862  26.005  23.241  1.00  0.00     0.207 C 
ATOM     78  C   UNL A   1      32.358  25.594  24.618  1.00  0.00     0.045 C 
ATOM     79  O   UNL A   1      31.094  24.896  22.734  1.00  0.00    -0.363 OA
ATOM     80  C   UNL A   1      31.286  24.639  25.073  1.00  0.00     0.037 C 
ATOM     81  C   UNL A   1      30.909  23.928  23.782  1.00  0.00     0.138 C 
BRANCH  81  82
ATOM     82  C   UNL A   1      31.748  22.663  23.487  1.00  0.00     0.145 C 
BRANCH  82  83
ATOM     83  N   UNL A   1      32.238  22.081  24.732  1.00  0.00    -0.378 N 
ATOM     84  H   UNL A   1      31.661  22.157  25.525  1.00  0.00     0.160 HD
BRANCH  83  85
ATOM     85  C   UNL A   1      33.451  21.428  24.885  1.00  0.00     0.113 A 
ATOM     86  C   UNL A   1      34.647  22.034  25.299  1.00  0.00     0.188 A 
ATOM     87  C   UNL A   1      33.517  20.061  24.554  1.00  0.00     0.188 A 
ATOM     88  F   UNL A   1      34.661  23.324  25.671  1.00  0.00    -0.201 F 
ATOM     89  C   UNL A   1      35.839  21.313  25.373  1.00  0.00     0.199 A 
ATOM     90  C   UNL A   1      34.706  19.343  24.614  1.00  0.00     0.199 A 
ATOM     91  F   UNL A   1      32.399  19.437  24.145  1.00  0.00    -0.201 F 
ATOM     92  F   UNL A   1      36.962  21.918  25.786  1.00  0.00    -0.200 F 
ATOM     93  C   UNL A   1      35.868  19.972  25.023  1.00  0.00     0.200 A 
ATOM     94  F   UNL A   1      34.725  18.047  24.269  1.00  0.00    -0.200 F 
ATOM     95  F   UNL A   1      37.018  19.285  25.084  1.00  0.00    -0.200 F 
ENDBRANCH  83  85
ENDBRANCH  82  83
ENDBRANCH  81  82
ENDBRANCH  74  77
ENDBRANCH  72  73
ENDBRANCH   1  72
TORSDOF 16
ENDMDL
