MODEL 1
REMARK VINA RESULT:     -11.0      0.000      0.000
REMARK SMILES CC[C@@H](C)[C@@H](C(=O)NCCCNC(=O)c1ccc(-c2c3nc(c(-c4cccc(S(=O)(=O)[O-])c4F)c4ccc([nH]4)c(-c4cccc(S(=O)(=O)[O-])c4F)c4nc(c(-c5cccc(S(=O)(=O)[O-])c5F)c5ccc2[nH]5)C=C4)C=C3)cc1)S(=O)(=O)c1ccc(OC)cc1
REMARK SMILES IDX 10 1 9 2 8 3 6 4 7 5 5 7 3 8 4 9 2 10 1 11 78 12 79 13 80 14
REMARK SMILES IDX 81 15 82 16 88 17 83 18 87 19 84 20 85 21 86 22 11 23 12 24
REMARK SMILES IDX 13 25 14 27 15 28 16 29 77 30 17 31 76 32 18 33 19 34 20 35
REMARK SMILES IDX 70 36 21 37 75 38 69 39 71 40 22 41 74 42 68 43 67 44 23 46
REMARK SMILES IDX 55 47 35 48 54 49 36 50 39 51 53 52 72 53 37 54 38 55 52 57
REMARK SMILES IDX 73 58 40 59 24 60 25 61 33 62 26 63 28 64 34 65 27 66 29 67
REMARK SMILES IDX 30 68 31 69 32 70 56 71 57 72 65 73 58 74 60 75 66 76 59 77
REMARK SMILES IDX 61 78 62 79 63 80 64 81 41 82 42 83 50 84 43 85 45 86 51 87
REMARK SMILES IDX 44 88 46 89 47 90 48 91 49 92
REMARK H PARENT 8 6 12 26 71 45 39 56
REMARK Flexibility Score: inf
ROOT
ATOM      1  C   UNL A   1      37.636  19.423  25.001  1.00  0.00     0.042 C 
ENDROOT
BRANCH   1   2
ATOM      2  C   UNL A   1      36.415  20.279  24.637  1.00  0.00     0.117 C 
BRANCH   2   3
ATOM      3  N   UNL A   1      35.710  20.736  25.821  1.00  0.00    -0.355 N 
ATOM      4  C   UNL A   1      34.736  21.646  26.070  1.00  0.00     0.239 C 
ATOM      5  O   UNL A   1      34.564  21.838  27.276  1.00  0.00    -0.274 OA
ATOM      6  H   UNL A   1      36.012  20.277  26.638  1.00  0.00     0.163 HD
BRANCH   4   7
ATOM      7  C   UNL A   1      33.902  22.346  24.982  1.00  0.00     0.205 C 
BRANCH   7   8
ATOM      8  C   UNL A   1      33.116  21.488  23.926  1.00  0.00     0.014 C 
ATOM      9  C   UNL A   1      32.042  22.324  23.201  1.00  0.00     0.009 C 
BRANCH   8  10
ATOM     10  C   UNL A   1      32.476  20.236  24.536  1.00  0.00     0.002 C 
ATOM     11  C   UNL A   1      32.970  18.899  24.002  1.00  0.00     0.004 C 
ENDBRANCH   8  10
ENDBRANCH   7   8
BRANCH   7  12
ATOM     12  S   UNL A   1      35.038  23.528  24.176  1.00  0.00     0.190 S 
ATOM     13  O   UNL A   1      36.168  23.756  25.070  1.00  0.00    -0.223 OA
ATOM     14  O   UNL A   1      35.328  23.058  22.837  1.00  0.00    -0.223 OA
BRANCH  12  15
ATOM     15  C   UNL A   1      34.255  25.133  24.014  1.00  0.00     0.068 A 
ATOM     16  C   UNL A   1      34.154  25.921  25.164  1.00  0.00     0.024 A 
ATOM     17  C   UNL A   1      33.741  25.618  22.807  1.00  0.00     0.024 A 
ATOM     18  C   UNL A   1      33.548  27.180  25.094  1.00  0.00     0.048 A 
ATOM     19  C   UNL A   1      33.142  26.878  22.744  1.00  0.00     0.048 A 
ATOM     20  C   UNL A   1      33.039  27.666  23.886  1.00  0.00     0.118 A 
BRANCH  20  21
ATOM     21  O   UNL A   1      32.474  28.910  23.938  1.00  0.00    -0.497 OA
ATOM     22  C   UNL A   1      31.254  29.019  24.666  1.00  0.00     0.278 C 
ENDBRANCH  20  21
ENDBRANCH  12  15
ENDBRANCH   7  12
ENDBRANCH   4   7
ENDBRANCH   2   3
ENDBRANCH   1   2
BRANCH   1  23
ATOM     23  C   UNL A   1      38.841  20.202  25.532  1.00  0.00     0.118 C 
BRANCH  23  24
ATOM     24  N   UNL A   1      39.884  19.320  26.024  1.00  0.00    -0.352 N 
ATOM     25  C   UNL A   1      41.155  19.622  26.450  1.00  0.00     0.251 C 
ATOM     26  H   UNL A   1      39.645  18.365  26.058  1.00  0.00     0.163 HD
ATOM     27  O   UNL A   1      41.968  18.710  26.585  1.00  0.00    -0.269 OA
BRANCH  25  28
ATOM     28  C   UNL A   1      41.564  21.021  26.739  1.00  0.00     0.039 A 
ATOM     29  C   UNL A   1      41.461  21.973  25.720  1.00  0.00     0.014 A 
ATOM     30  C   UNL A   1      42.116  21.390  27.969  1.00  0.00     0.014 A 
ATOM     31  C   UNL A   1      41.880  23.292  25.942  1.00  0.00     0.010 A 
ATOM     32  C   UNL A   1      42.464  22.721  28.213  1.00  0.00     0.010 A 
ATOM     33  C   UNL A   1      42.372  23.684  27.197  1.00  0.00    -0.014 A 
BRANCH  33  34
ATOM     34  C   UNL A   1      42.824  25.080  27.449  1.00  0.00     0.031 A 
ATOM     35  C   UNL A   1      41.896  26.077  28.097  1.00  0.00     0.074 A 
ATOM     36  C   UNL A   1      44.046  25.479  27.039  1.00  0.00     0.049 A 
ATOM     37  N   UNL A   1      42.092  27.347  28.349  1.00  0.00    -0.248 NA
ATOM     38  C   UNL A   1      40.563  25.590  28.490  1.00  0.00     0.031 C 
ATOM     39  C   UNL A   1      45.018  24.640  26.336  1.00  0.00     0.029 A 
ATOM     40  N   UNL A   1      44.669  26.700  27.131  1.00  0.00    -0.354 N 
ATOM     41  C   UNL A   1      40.899  27.818  28.887  1.00  0.00     0.074 A 
ATOM     42  C   UNL A   1      39.974  26.707  28.896  1.00  0.00     0.031 C 
ATOM     43  C   UNL A   1      46.112  25.369  26.062  1.00  0.00     0.029 A 
ATOM     44  C   UNL A   1      45.914  26.732  26.547  1.00  0.00     0.049 A 
ATOM     45  H   UNL A   1      44.262  27.480  27.574  1.00  0.00     0.167 HD
ATOM     46  C   UNL A   1      40.606  29.054  29.360  1.00  0.00     0.034 A 
ATOM     47  C   UNL A   1      46.797  27.741  26.415  1.00  0.00     0.034 A 
ATOM     48  C   UNL A   1      41.544  30.143  29.412  1.00  0.00     0.049 A 
ATOM     49  C   UNL A   1      46.470  29.089  27.002  1.00  0.00     0.074 A 
ATOM     50  C   UNL A   1      41.370  31.402  29.960  1.00  0.00     0.029 A 
ATOM     51  N   UNL A   1      42.831  30.104  28.901  1.00  0.00    -0.354 N 
ATOM     52  N   UNL A   1      45.394  29.467  27.649  1.00  0.00    -0.248 NA
ATOM     53  C   UNL A   1      47.495  30.137  26.879  1.00  0.00     0.031 C 
ATOM     54  C   UNL A   1      42.549  32.129  29.769  1.00  0.00     0.029 A 
ATOM     55  C   UNL A   1      43.462  31.317  29.117  1.00  0.00     0.049 A 
ATOM     56  H   UNL A   1      43.236  29.329  28.451  1.00  0.00     0.167 HD
ATOM     57  C   UNL A   1      45.626  30.782  28.040  1.00  0.00     0.074 A 
ATOM     58  C   UNL A   1      46.953  31.128  27.575  1.00  0.00     0.031 C 
ATOM     59  C   UNL A   1      44.806  31.631  28.706  1.00  0.00     0.034 A 
BRANCH  46  60
ATOM     60  C   UNL A   1      39.227  29.279  29.926  1.00  0.00     0.023 A 
ATOM     61  C   UNL A   1      38.923  28.804  31.218  1.00  0.00     0.012 A 
ATOM     62  C   UNL A   1      38.256  30.008  29.212  1.00  0.00     0.148 A 
ATOM     63  C   UNL A   1      37.665  29.020  31.778  1.00  0.00     0.002 A 
ATOM     64  C   UNL A   1      37.017  30.256  29.795  1.00  0.00     0.091 A 
ATOM     65  F   UNL A   1      38.554  30.434  27.977  1.00  0.00    -0.205 F 
ATOM     66  C   UNL A   1      36.717  29.755  31.072  1.00  0.00     0.022 A 
BRANCH  64  67
ATOM     67  S   UNL A   1      35.757  31.258  28.997  1.00  0.00     0.127 S 
ATOM     68  O   UNL A   1      34.946  31.677  30.139  1.00  0.00    -0.237 OA
ATOM     69  O   UNL A   1      36.549  32.326  28.386  1.00  0.00    -0.237 OA
ATOM     70  O   UNL A   1      35.091  30.378  28.045  1.00  0.00    -0.744 OA
ENDBRANCH  64  67
ENDBRANCH  46  60
BRANCH  47  71
ATOM     71  C   UNL A   1      48.114  27.496  25.758  1.00  0.00     0.023 A 
ATOM     72  C   UNL A   1      49.213  27.098  26.543  1.00  0.00     0.012 A 
ATOM     73  C   UNL A   1      48.275  27.624  24.365  1.00  0.00     0.148 A 
ATOM     74  C   UNL A   1      50.456  26.859  25.958  1.00  0.00     0.002 A 
ATOM     75  C   UNL A   1      49.503  27.330  23.781  1.00  0.00     0.091 A 
ATOM     76  F   UNL A   1      47.223  28.020  23.635  1.00  0.00    -0.205 F 
ATOM     77  C   UNL A   1      50.599  26.964  24.578  1.00  0.00     0.022 A 
BRANCH  75  78
ATOM     78  S   UNL A   1      49.735  27.308  22.000  1.00  0.00     0.127 S 
ATOM     79  O   UNL A   1      49.505  28.707  21.649  1.00  0.00    -0.237 OA
ATOM     80  O   UNL A   1      51.123  26.862  21.879  1.00  0.00    -0.237 OA
ATOM     81  O   UNL A   1      48.757  26.354  21.492  1.00  0.00    -0.744 OA
ENDBRANCH  75  78
ENDBRANCH  47  71
BRANCH  59  82
ATOM     82  C   UNL A   1      45.323  33.011  29.012  1.00  0.00     0.023 A 
ATOM     83  C   UNL A   1      46.033  33.242  30.207  1.00  0.00     0.012 A 
ATOM     84  C   UNL A   1      45.178  34.058  28.080  1.00  0.00     0.148 A 
ATOM     85  C   UNL A   1      46.567  34.500  30.482  1.00  0.00     0.002 A 
ATOM     86  C   UNL A   1      45.752  35.298  28.342  1.00  0.00     0.091 A 
ATOM     87  F   UNL A   1      44.482  33.826  26.958  1.00  0.00    -0.205 F 
ATOM     88  C   UNL A   1      46.437  35.523  29.546  1.00  0.00     0.022 A 
BRANCH  86  89
ATOM     89  S   UNL A   1      45.714  36.643  27.150  1.00  0.00     0.127 S 
ATOM     90  O   UNL A   1      46.337  36.023  25.983  1.00  0.00    -0.237 OA
ATOM     91  O   UNL A   1      44.279  36.897  27.012  1.00  0.00    -0.237 OA
ATOM     92  O   UNL A   1      46.462  37.735  27.758  1.00  0.00    -0.744 OA
ENDBRANCH  86  89
ENDBRANCH  59  82
ENDBRANCH  33  34
ENDBRANCH  25  28
ENDBRANCH  23  24
ENDBRANCH   1  23
TORSDOF 18
ENDMDL
MODEL 2
REMARK VINA RESULT:     -10.9      5.080      8.813
REMARK SMILES CC[C@@H](C)[C@@H](C(=O)NCCCNC(=O)c1ccc(-c2c3nc(c(-c4cccc(S(=O)(=O)[O-])c4F)c4ccc([nH]4)c(-c4cccc(S(=O)(=O)[O-])c4F)c4nc(c(-c5cccc(S(=O)(=O)[O-])c5F)c5ccc2[nH]5)C=C4)C=C3)cc1)S(=O)(=O)c1ccc(OC)cc1
REMARK SMILES IDX 10 1 9 2 8 3 6 4 7 5 5 7 3 8 4 9 2 10 1 11 78 12 79 13 80 14
REMARK SMILES IDX 81 15 82 16 88 17 83 18 87 19 84 20 85 21 86 22 11 23 12 24
REMARK SMILES IDX 13 25 14 27 15 28 16 29 77 30 17 31 76 32 18 33 19 34 20 35
REMARK SMILES IDX 70 36 21 37 75 38 69 39 71 40 22 41 74 42 68 43 67 44 23 46
REMARK SMILES IDX 55 47 35 48 54 49 36 50 39 51 53 52 72 53 37 54 38 55 52 57
REMARK SMILES IDX 73 58 40 59 24 60 25 61 33 62 26 63 28 64 34 65 27 66 29 67
REMARK SMILES IDX 30 68 31 69 32 70 56 71 57 72 65 73 58 74 60 75 66 76 59 77
REMARK SMILES IDX 61 78 62 79 63 80 64 81 41 82 42 83 50 84 43 85 45 86 51 87
REMARK SMILES IDX 44 88 46 89 47 90 48 91 49 92
REMARK H PARENT 8 6 12 26 71 45 39 56
REMARK Flexibility Score: inf
ROOT
ATOM      1  C   UNL A   1      33.450  28.804  24.748  1.00  0.00     0.042 C 
ENDROOT
BRANCH   1   2
ATOM      2  C   UNL A   1      33.948  27.562  23.994  1.00  0.00     0.117 C 
BRANCH   2   3
ATOM      3  N   UNL A   1      32.881  26.933  23.236  1.00  0.00    -0.355 N 
ATOM      4  C   UNL A   1      32.264  25.725  23.262  1.00  0.00     0.239 C 
ATOM      5  O   UNL A   1      31.517  25.554  22.296  1.00  0.00    -0.274 OA
ATOM      6  H   UNL A   1      32.520  27.524  22.535  1.00  0.00     0.163 HD
BRANCH   4   7
ATOM      7  C   UNL A   1      32.439  24.685  24.383  1.00  0.00     0.205 C 
BRANCH   7   8
ATOM      8  C   UNL A   1      32.301  25.123  25.886  1.00  0.00     0.014 C 
ATOM      9  C   UNL A   1      32.100  23.910  26.816  1.00  0.00     0.009 C 
BRANCH   8  10
ATOM     10  C   UNL A   1      31.174  26.139  26.107  1.00  0.00     0.002 C 
ATOM     11  C   UNL A   1      29.757  25.635  25.872  1.00  0.00     0.004 C 
ENDBRANCH   8  10
ENDBRANCH   7   8
BRANCH   7  12
ATOM     12  S   UNL A   1      34.047  23.880  24.062  1.00  0.00     0.190 S 
ATOM     13  O   UNL A   1      34.401  24.111  22.666  1.00  0.00    -0.223 OA
ATOM     14  O   UNL A   1      34.993  24.308  25.072  1.00  0.00    -0.223 OA
BRANCH  12  15
ATOM     15  C   UNL A   1      33.892  22.100  24.205  1.00  0.00     0.068 A 
ATOM     16  C   UNL A   1      34.987  21.396  24.715  1.00  0.00     0.024 A 
ATOM     17  C   UNL A   1      32.746  21.395  23.824  1.00  0.00     0.024 A 
ATOM     18  C   UNL A   1      34.921  20.004  24.844  1.00  0.00     0.048 A 
ATOM     19  C   UNL A   1      32.686  20.007  23.960  1.00  0.00     0.048 A 
ATOM     20  C   UNL A   1      33.772  19.302  24.468  1.00  0.00     0.118 A 
BRANCH  20  21
ATOM     21  O   UNL A   1      33.822  17.947  24.644  1.00  0.00    -0.497 OA
ATOM     22  C   UNL A   1      33.434  17.151  23.526  1.00  0.00     0.278 C 
ENDBRANCH  20  21
ENDBRANCH  12  15
ENDBRANCH   7  12
ENDBRANCH   4   7
ENDBRANCH   2   3
ENDBRANCH   1   2
BRANCH   1  23
ATOM     23  C   UNL A   1      34.015  28.977  26.159  1.00  0.00     0.118 C 
BRANCH  23  24
ATOM     24  N   UNL A   1      33.873  30.340  26.637  1.00  0.00    -0.352 N 
ATOM     25  C   UNL A   1      34.558  30.993  27.633  1.00  0.00     0.251 C 
ATOM     26  H   UNL A   1      33.183  30.875  26.182  1.00  0.00     0.163 HD
ATOM     27  O   UNL A   1      34.116  32.058  28.058  1.00  0.00    -0.269 OA
BRANCH  25  28
ATOM     28  C   UNL A   1      35.810  30.435  28.206  1.00  0.00     0.039 A 
ATOM     29  C   UNL A   1      37.003  30.591  27.492  1.00  0.00     0.014 A 
ATOM     30  C   UNL A   1      35.814  29.696  29.393  1.00  0.00     0.014 A 
ATOM     31  C   UNL A   1      38.194  30.039  27.980  1.00  0.00     0.010 A 
ATOM     32  C   UNL A   1      37.015  29.210  29.915  1.00  0.00     0.010 A 
ATOM     33  C   UNL A   1      38.216  29.354  29.206  1.00  0.00    -0.014 A 
BRANCH  33  34
ATOM     34  C   UNL A   1      39.473  28.758  29.737  1.00  0.00     0.031 A 
ATOM     35  C   UNL A   1      40.137  29.343  30.959  1.00  0.00     0.074 A 
ATOM     36  C   UNL A   1      40.059  27.730  29.089  1.00  0.00     0.049 A 
ATOM     37  N   UNL A   1      41.259  28.995  31.536  1.00  0.00    -0.248 NA
ATOM     38  C   UNL A   1      39.467  30.486  31.600  1.00  0.00     0.031 C 
ATOM     39  C   UNL A   1      39.565  27.114  27.857  1.00  0.00     0.029 A 
ATOM     40  N   UNL A   1      41.216  27.041  29.363  1.00  0.00    -0.354 N 
ATOM     41  C   UNL A   1      41.451  29.898  32.576  1.00  0.00     0.074 A 
ATOM     42  C   UNL A   1      40.345  30.830  32.532  1.00  0.00     0.031 C 
ATOM     43  C   UNL A   1      40.408  26.139  27.484  1.00  0.00     0.029 A 
ATOM     44  C   UNL A   1      41.516  26.073  28.432  1.00  0.00     0.049 A 
ATOM     45  H   UNL A   1      41.777  27.221  30.152  1.00  0.00     0.167 HD
ATOM     46  C   UNL A   1      42.437  29.933  33.505  1.00  0.00     0.034 A 
ATOM     47  C   UNL A   1      42.565  25.230  28.349  1.00  0.00     0.034 A 
ATOM     48  C   UNL A   1      43.501  28.970  33.591  1.00  0.00     0.049 A 
ATOM     49  C   UNL A   1      43.616  25.251  29.426  1.00  0.00     0.074 A 
ATOM     50  C   UNL A   1      44.492  28.867  34.552  1.00  0.00     0.029 A 
ATOM     51  N   UNL A   1      43.714  27.943  32.685  1.00  0.00    -0.354 N 
ATOM     52  N   UNL A   1      43.690  26.013  30.491  1.00  0.00    -0.248 NA
ATOM     53  C   UNL A   1      44.706  24.269  29.315  1.00  0.00     0.031 C 
ATOM     54  C   UNL A   1      45.312  27.784  34.221  1.00  0.00     0.029 A 
ATOM     55  C   UNL A   1      44.822  27.203  33.062  1.00  0.00     0.049 A 
ATOM     56  H   UNL A   1      43.160  27.766  31.892  1.00  0.00     0.167 HD
ATOM     57  C   UNL A   1      44.810  25.580  31.192  1.00  0.00     0.074 A 
ATOM     58  C   UNL A   1      45.372  24.476  30.443  1.00  0.00     0.031 C 
ATOM     59  C   UNL A   1      45.336  26.067  32.343  1.00  0.00     0.034 A 
BRANCH  46  60
ATOM     60  C   UNL A   1      42.375  31.016  34.552  1.00  0.00     0.023 A 
ATOM     61  C   UNL A   1      41.737  30.755  35.782  1.00  0.00     0.012 A 
ATOM     62  C   UNL A   1      42.996  32.264  34.347  1.00  0.00     0.148 A 
ATOM     63  C   UNL A   1      41.688  31.728  36.778  1.00  0.00     0.002 A 
ATOM     64  C   UNL A   1      42.979  33.215  35.363  1.00  0.00     0.091 A 
ATOM     65  F   UNL A   1      43.580  32.504  33.165  1.00  0.00    -0.205 F 
ATOM     66  C   UNL A   1      42.317  32.952  36.574  1.00  0.00     0.022 A 
BRANCH  64  67
ATOM     67  S   UNL A   1      43.827  34.793  35.225  1.00  0.00     0.127 S 
ATOM     68  O   UNL A   1      45.204  34.367  34.977  1.00  0.00    -0.237 OA
ATOM     69  O   UNL A   1      43.161  35.403  34.074  1.00  0.00    -0.237 OA
ATOM     70  O   UNL A   1      43.601  35.480  36.490  1.00  0.00    -0.744 OA
ENDBRANCH  64  67
ENDBRANCH  46  60
BRANCH  47  71
ATOM     71  C   UNL A   1      42.634  24.238  27.237  1.00  0.00     0.023 A 
ATOM     72  C   UNL A   1      43.335  24.568  26.061  1.00  0.00     0.012 A 
ATOM     73  C   UNL A   1      42.040  22.966  27.348  1.00  0.00     0.148 A 
ATOM     74  C   UNL A   1      43.419  23.661  25.004  1.00  0.00     0.002 A 
ATOM     75  C   UNL A   1      42.175  22.046  26.313  1.00  0.00     0.091 A 
ATOM     76  F   UNL A   1      41.363  22.675  28.468  1.00  0.00    -0.205 F 
ATOM     77  C   UNL A   1      42.849  22.398  25.133  1.00  0.00     0.022 A 
BRANCH  75  78
ATOM     78  S   UNL A   1      41.591  20.353  26.455  1.00  0.00     0.127 S 
ATOM     79  O   UNL A   1      42.048  19.989  27.794  1.00  0.00    -0.237 OA
ATOM     80  O   UNL A   1      40.144  20.517  26.320  1.00  0.00    -0.237 OA
ATOM     81  O   UNL A   1      42.215  19.633  25.352  1.00  0.00    -0.744 OA
ENDBRANCH  75  78
ENDBRANCH  47  71
BRANCH  59  82
ATOM     82  C   UNL A   1      46.564  25.392  32.894  1.00  0.00     0.023 A 
ATOM     83  C   UNL A   1      47.841  25.879  32.553  1.00  0.00     0.012 A 
ATOM     84  C   UNL A   1      46.452  24.329  33.812  1.00  0.00     0.148 A 
ATOM     85  C   UNL A   1      48.989  25.302  33.096  1.00  0.00     0.002 A 
ATOM     86  C   UNL A   1      47.599  23.787  34.384  1.00  0.00     0.091 A 
ATOM     87  F   UNL A   1      45.230  23.864  34.108  1.00  0.00    -0.205 F 
ATOM     88  C   UNL A   1      48.867  24.266  34.019  1.00  0.00     0.022 A 
BRANCH  86  89
ATOM     89  S   UNL A   1      47.530  22.515  35.650  1.00  0.00     0.127 S 
ATOM     90  O   UNL A   1      48.943  22.350  35.983  1.00  0.00    -0.237 OA
ATOM     91  O   UNL A   1      46.730  23.157  36.695  1.00  0.00    -0.237 OA
ATOM     92  O   UNL A   1      46.892  21.365  35.026  1.00  0.00    -0.744 OA
ENDBRANCH  86  89
ENDBRANCH  59  82
ENDBRANCH  33  34
ENDBRANCH  25  28
ENDBRANCH  23  24
ENDBRANCH   1  23
TORSDOF 18
ENDMDL
MODEL 3
REMARK VINA RESULT:     -10.9      1.566      8.324
REMARK SMILES CC[C@@H](C)[C@@H](C(=O)NCCCNC(=O)c1ccc(-c2c3nc(c(-c4cccc(S(=O)(=O)[O-])c4F)c4ccc([nH]4)c(-c4cccc(S(=O)(=O)[O-])c4F)c4nc(c(-c5cccc(S(=O)(=O)[O-])c5F)c5ccc2[nH]5)C=C4)C=C3)cc1)S(=O)(=O)c1ccc(OC)cc1
REMARK SMILES IDX 10 1 9 2 8 3 6 4 7 5 5 7 3 8 4 9 2 10 1 11 78 12 79 13 80 14
REMARK SMILES IDX 81 15 82 16 88 17 83 18 87 19 84 20 85 21 86 22 11 23 12 24
REMARK SMILES IDX 13 25 14 27 15 28 16 29 77 30 17 31 76 32 18 33 19 34 20 35
REMARK SMILES IDX 70 36 21 37 75 38 69 39 71 40 22 41 74 42 68 43 67 44 23 46
REMARK SMILES IDX 55 47 35 48 54 49 36 50 39 51 53 52 72 53 37 54 38 55 52 57
REMARK SMILES IDX 73 58 40 59 24 60 25 61 33 62 26 63 28 64 34 65 27 66 29 67
REMARK SMILES IDX 30 68 31 69 32 70 56 71 57 72 65 73 58 74 60 75 66 76 59 77
REMARK SMILES IDX 61 78 62 79 63 80 64 81 41 82 42 83 50 84 43 85 45 86 51 87
REMARK SMILES IDX 44 88 46 89 47 90 48 91 49 92
REMARK H PARENT 8 6 12 26 71 45 39 56
REMARK Flexibility Score: inf
ROOT
ATOM      1  C   UNL A   1      38.162  19.513  25.002  1.00  0.00     0.042 C 
ENDROOT
BRANCH   1   2
ATOM      2  C   UNL A   1      37.038  20.397  24.444  1.00  0.00     0.117 C 
BRANCH   2   3
ATOM      3  N   UNL A   1      35.959  20.559  25.401  1.00  0.00    -0.355 N 
ATOM      4  C   UNL A   1      34.726  21.124  25.376  1.00  0.00     0.239 C 
ATOM      5  O   UNL A   1      34.212  21.189  26.495  1.00  0.00    -0.274 OA
ATOM      6  H   UNL A   1      36.174  20.165  26.278  1.00  0.00     0.163 HD
BRANCH   4   7
ATOM      7  C   UNL A   1      34.017  21.604  24.098  1.00  0.00     0.205 C 
BRANCH   7   8
ATOM      8  C   UNL A   1      33.682  23.129  23.915  1.00  0.00     0.014 C 
ATOM      9  C   UNL A   1      33.299  23.455  22.457  1.00  0.00     0.009 C 
BRANCH   8  10
ATOM     10  C   UNL A   1      34.822  24.047  24.371  1.00  0.00     0.002 C 
ATOM     11  C   UNL A   1      34.586  24.825  25.657  1.00  0.00     0.004 C 
ENDBRANCH   8  10
ENDBRANCH   7   8
BRANCH   7  12
ATOM     12  S   UNL A   1      32.524  20.564  23.942  1.00  0.00     0.190 S 
ATOM     13  O   UNL A   1      31.609  20.915  25.022  1.00  0.00    -0.223 OA
ATOM     14  O   UNL A   1      32.027  20.661  22.585  1.00  0.00    -0.223 OA
BRANCH  12  15
ATOM     15  C   UNL A   1      32.931  18.842  24.232  1.00  0.00     0.068 A 
ATOM     16  C   UNL A   1      32.563  18.290  25.462  1.00  0.00     0.024 A 
ATOM     17  C   UNL A   1      33.599  18.043  23.299  1.00  0.00     0.024 A 
ATOM     18  C   UNL A   1      32.860  16.952  25.742  1.00  0.00     0.048 A 
ATOM     19  C   UNL A   1      33.888  16.707  23.583  1.00  0.00     0.048 A 
ATOM     20  C   UNL A   1      33.523  16.152  24.806  1.00  0.00     0.118 A 
BRANCH  20  21
ATOM     21  O   UNL A   1      33.756  14.860  25.187  1.00  0.00    -0.497 OA
ATOM     22  C   UNL A   1      32.648  14.160  25.750  1.00  0.00     0.278 C 
ENDBRANCH  20  21
ENDBRANCH  12  15
ENDBRANCH   7  12
ENDBRANCH   4   7
ENDBRANCH   2   3
ENDBRANCH   1   2
BRANCH   1  23
ATOM     23  C   UNL A   1      39.119  20.211  25.971  1.00  0.00     0.118 C 
BRANCH  23  24
ATOM     24  N   UNL A   1      40.337  19.449  26.174  1.00  0.00    -0.352 N 
ATOM     25  C   UNL A   1      41.620  19.893  26.388  1.00  0.00     0.251 C 
ATOM     26  H   UNL A   1      40.230  18.471  26.155  1.00  0.00     0.163 HD
ATOM     27  O   UNL A   1      42.550  19.097  26.279  1.00  0.00    -0.269 OA
BRANCH  25  28
ATOM     28  C   UNL A   1      41.902  21.310  26.736  1.00  0.00     0.039 A 
ATOM     29  C   UNL A   1      41.992  22.249  25.703  1.00  0.00     0.014 A 
ATOM     30  C   UNL A   1      42.154  21.712  28.051  1.00  0.00     0.014 A 
ATOM     31  C   UNL A   1      42.302  23.585  25.989  1.00  0.00     0.010 A 
ATOM     32  C   UNL A   1      42.388  23.058  28.343  1.00  0.00     0.010 A 
ATOM     33  C   UNL A   1      42.488  24.007  27.315  1.00  0.00    -0.014 A 
BRANCH  33  34
ATOM     34  C   UNL A   1      42.821  25.423  27.637  1.00  0.00     0.031 A 
ATOM     35  C   UNL A   1      44.230  25.933  27.466  1.00  0.00     0.074 A 
ATOM     36  C   UNL A   1      41.876  26.239  28.147  1.00  0.00     0.049 A 
ATOM     37  N   UNL A   1      44.721  27.114  27.744  1.00  0.00    -0.248 NA
ATOM     38  C   UNL A   1      45.224  24.983  26.939  1.00  0.00     0.031 C 
ATOM     39  C   UNL A   1      40.492  25.857  28.431  1.00  0.00     0.029 A 
ATOM     40  N   UNL A   1      41.944  27.553  28.543  1.00  0.00    -0.354 N 
ATOM     41  C   UNL A   1      46.082  27.036  27.468  1.00  0.00     0.074 A 
ATOM     42  C   UNL A   1      46.346  25.683  27.030  1.00  0.00     0.031 C 
ATOM     43  C   UNL A   1      39.843  26.911  28.952  1.00  0.00     0.029 A 
ATOM     44  C   UNL A   1      40.766  28.037  29.062  1.00  0.00     0.049 A 
ATOM     45  H   UNL A   1      42.760  28.098  28.461  1.00  0.00     0.167 HD
ATOM     46  C   UNL A   1      47.023  28.009  27.539  1.00  0.00     0.034 A 
ATOM     47  C   UNL A   1      40.462  29.247  29.572  1.00  0.00     0.034 A 
ATOM     48  C   UNL A   1      46.752  29.371  27.910  1.00  0.00     0.049 A 
ATOM     49  C   UNL A   1      41.511  30.327  29.585  1.00  0.00     0.074 A 
ATOM     50  C   UNL A   1      47.621  30.449  27.921  1.00  0.00     0.029 A 
ATOM     51  N   UNL A   1      45.522  29.846  28.336  1.00  0.00    -0.354 N 
ATOM     52  N   UNL A   1      42.753  30.274  29.169  1.00  0.00    -0.248 NA
ATOM     53  C   UNL A   1      41.106  31.644  30.098  1.00  0.00     0.031 C 
ATOM     54  C   UNL A   1      46.918  31.574  28.363  1.00  0.00     0.029 A 
ATOM     55  C   UNL A   1      45.607  31.199  28.613  1.00  0.00     0.049 A 
ATOM     56  H   UNL A   1      44.708  29.301  28.426  1.00  0.00     0.167 HD
ATOM     57  C   UNL A   1      43.266  31.556  29.337  1.00  0.00     0.074 A 
ATOM     58  C   UNL A   1      42.195  32.369  29.872  1.00  0.00     0.031 C 
ATOM     59  C   UNL A   1      44.518  32.013  29.087  1.00  0.00     0.034 A 
BRANCH  46  60
ATOM     60  C   UNL A   1      48.433  27.650  27.142  1.00  0.00     0.023 A 
ATOM     61  C   UNL A   1      49.313  27.123  28.109  1.00  0.00     0.012 A 
ATOM     62  C   UNL A   1      48.869  27.774  25.807  1.00  0.00     0.148 A 
ATOM     63  C   UNL A   1      50.613  26.758  27.765  1.00  0.00     0.002 A 
ATOM     64  C   UNL A   1      50.153  27.368  25.463  1.00  0.00     0.091 A 
ATOM     65  F   UNL A   1      48.026  28.296  24.905  1.00  0.00    -0.205 F 
ATOM     66  C   UNL A   1      51.029  26.870  26.442  1.00  0.00     0.022 A 
BRANCH  64  67
ATOM     67  S   UNL A   1      50.758  27.400  23.772  1.00  0.00     0.127 S 
ATOM     68  O   UNL A   1      52.005  26.647  23.889  1.00  0.00    -0.237 OA
ATOM     69  O   UNL A   1      49.692  26.706  23.048  1.00  0.00    -0.237 OA
ATOM     70  O   UNL A   1      50.905  28.808  23.427  1.00  0.00    -0.744 OA
ENDBRANCH  64  67
ENDBRANCH  46  60
BRANCH  47  71
ATOM     71  C   UNL A   1      39.075  29.527  30.046  1.00  0.00     0.023 A 
ATOM     72  C   UNL A   1      38.696  29.128  31.342  1.00  0.00     0.012 A 
ATOM     73  C   UNL A   1      38.146  30.208  29.238  1.00  0.00     0.148 A 
ATOM     74  C   UNL A   1      37.407  29.377  31.815  1.00  0.00     0.002 A 
ATOM     75  C   UNL A   1      36.881  30.502  29.735  1.00  0.00     0.091 A 
ATOM     76  F   UNL A   1      38.518  30.565  28.000  1.00  0.00    -0.205 F 
ATOM     77  C   UNL A   1      36.504  30.073  31.017  1.00  0.00     0.022 A 
BRANCH  75  78
ATOM     78  S   UNL A   1      35.705  31.513  28.827  1.00  0.00     0.127 S 
ATOM     79  O   UNL A   1      36.551  32.604  28.352  1.00  0.00    -0.237 OA
ATOM     80  O   UNL A   1      35.248  30.589  27.788  1.00  0.00    -0.237 OA
ATOM     81  O   UNL A   1      34.677  31.878  29.793  1.00  0.00    -0.744 OA
ENDBRANCH  75  78
ENDBRANCH  47  71
BRANCH  59  82
ATOM     82  C   UNL A   1      44.800  33.468  29.353  1.00  0.00     0.023 A 
ATOM     83  C   UNL A   1      45.271  33.868  30.619  1.00  0.00     0.012 A 
ATOM     84  C   UNL A   1      44.677  34.425  28.327  1.00  0.00     0.148 A 
ATOM     85  C   UNL A   1      45.590  35.202  30.867  1.00  0.00     0.002 A 
ATOM     86  C   UNL A   1      45.040  35.746  28.569  1.00  0.00     0.091 A 
ATOM     87  F   UNL A   1      44.207  34.030  27.135  1.00  0.00    -0.205 F 
ATOM     88  C   UNL A   1      45.486  36.138  29.841  1.00  0.00     0.022 A 
BRANCH  86  89
ATOM     89  S   UNL A   1      45.026  36.996  27.278  1.00  0.00     0.127 S 
ATOM     90  O   UNL A   1      43.620  36.999  26.881  1.00  0.00    -0.237 OA
ATOM     91  O   UNL A   1      45.457  38.195  28.000  1.00  0.00    -0.237 OA
ATOM     92  O   UNL A   1      45.965  36.535  26.266  1.00  0.00    -0.744 OA
ENDBRANCH  86  89
ENDBRANCH  59  82
ENDBRANCH  33  34
ENDBRANCH  25  28
ENDBRANCH  23  24
ENDBRANCH   1  23
TORSDOF 18
ENDMDL
