MODEL 1
REMARK VINA RESULT:     -12.0      0.000      0.000
REMARK SMILES Cn1cnnc1S[C@@H]1CCC[C@]([NH3+])(C(=O)NCCCNC(=O)c2ccc(-c3c4nc(c(-c5cccc(S(=O)(=O)[O-])c5F)c5ccc([nH]5)c(-c5cccc(S(=O)(=O)[O-])c5F)c5nc(c(-c6cccc(S(=O)(=O)[O-])c6F)c6ccc3[nH]6)C=C5)C=C4)cc2)C1
REMARK SMILES IDX 18 1 17 2 16 3 14 4 15 5 12 7 8 8 9 9 86 10 10 11 11 12 7 13
REMARK SMILES IDX 6 14 1 15 2 16 3 17 4 18 5 19 13 20 19 24 20 25 21 26 22 28
REMARK SMILES IDX 23 29 24 30 85 31 25 32 84 33 26 34 27 35 28 36 78 37 29 38
REMARK SMILES IDX 83 39 77 40 79 41 30 42 82 43 76 44 75 45 31 47 63 48 43 49
REMARK SMILES IDX 62 50 44 51 47 52 61 53 80 54 45 55 46 56 60 58 81 59 48 60
REMARK SMILES IDX 32 61 33 62 41 63 34 64 36 65 42 66 35 67 37 68 38 69 39 70
REMARK SMILES IDX 40 71 64 72 65 73 73 74 66 75 68 76 74 77 67 78 69 79 70 80
REMARK SMILES IDX 71 81 72 82 49 83 50 84 58 85 51 86 53 87 59 88 52 89 54 90
REMARK SMILES IDX 55 91 56 92 57 93
REMARK H PARENT 16 6 13 21 13 22 13 23 20 27 79 46 47 57
REMARK Flexibility Score: inf
ROOT
ATOM      1  C   UNL A   1      31.518  31.588  26.723  1.00  0.00     0.042 C 
ENDROOT
BRANCH   1   2
ATOM      2  C   UNL A   1      31.716  30.529  25.654  1.00  0.00     0.118 C 
BRANCH   2   3
ATOM      3  N   UNL A   1      30.655  30.471  24.676  1.00  0.00    -0.351 N 
ATOM      4  C   UNL A   1      30.384  29.537  23.723  1.00  0.00     0.281 C 
ATOM      5  O   UNL A   1      29.335  29.684  23.083  1.00  0.00    -0.268 OA
ATOM      6  H   UNL A   1      30.027  31.228  24.703  1.00  0.00     0.163 HD
BRANCH   4   7
ATOM      7  C   UNL A   1      31.351  28.339  23.396  1.00  0.00     0.175 C 
ATOM      8  C   UNL A   1      32.641  26.318  24.336  1.00  0.00     0.061 C 
ATOM      9  C   UNL A   1      33.904  26.764  23.585  1.00  0.00     0.015 C 
ATOM     10  C   UNL A   1      31.553  27.374  24.588  1.00  0.00     0.094 C 
ATOM     11  C   UNL A   1      33.648  27.744  22.448  1.00  0.00     0.008 C 
ATOM     12  C   UNL A   1      32.689  28.865  22.839  1.00  0.00     0.079 C 
BRANCH   8  13
ATOM     13  S   UNL A   1      33.139  25.321  25.776  1.00  0.00    -0.082 SA
BRANCH  13  14
ATOM     14  C   UNL A   1      31.983  24.103  26.196  1.00  0.00     0.191 A 
ATOM     15  C   UNL A   1      31.902  22.461  24.229  1.00  0.00     0.153 C 
ATOM     16  N   UNL A   1      31.488  23.059  25.462  1.00  0.00    -0.312 N 
ATOM     17  C   UNL A   1      30.399  22.598  26.155  1.00  0.00     0.226 A 
ATOM     18  N   UNL A   1      30.247  23.289  27.256  1.00  0.00    -0.138 NA
ATOM     19  N   UNL A   1      31.242  24.235  27.280  1.00  0.00    -0.124 NA
ENDBRANCH  13  14
ENDBRANCH   8  13
BRANCH   7  20
ATOM     20  N   UNL A   1      30.713  27.556  22.290  1.00  0.00    -0.345 N 
ATOM     21  H   UNL A   1      30.168  28.184  21.700  1.00  0.00     0.345 HD
ATOM     22  H   UNL A   1      30.099  26.845  22.687  1.00  0.00     0.345 HD
ATOM     23  H   UNL A   1      31.438  27.106  21.730  1.00  0.00     0.345 HD
ENDBRANCH   7  20
ENDBRANCH   4   7
ENDBRANCH   2   3
ENDBRANCH   1   2
BRANCH   1  24
ATOM     24  C   UNL A   1      32.798  32.305  27.113  1.00  0.00     0.118 C 
BRANCH  24  25
ATOM     25  N   UNL A   1      32.568  33.705  27.460  1.00  0.00    -0.352 N 
ATOM     26  C   UNL A   1      33.123  34.481  28.447  1.00  0.00     0.251 C 
ATOM     27  H   UNL A   1      31.909  34.167  26.894  1.00  0.00     0.163 HD
ATOM     28  O   UNL A   1      32.634  35.586  28.684  1.00  0.00    -0.269 OA
BRANCH  26  29
ATOM     29  C   UNL A   1      34.278  33.996  29.231  1.00  0.00     0.039 A 
ATOM     30  C   UNL A   1      34.049  33.194  30.353  1.00  0.00     0.014 A 
ATOM     31  C   UNL A   1      35.585  34.337  28.876  1.00  0.00     0.014 A 
ATOM     32  C   UNL A   1      35.131  32.678  31.069  1.00  0.00     0.010 A 
ATOM     33  C   UNL A   1      36.659  33.738  29.522  1.00  0.00     0.010 A 
ATOM     34  C   UNL A   1      36.445  32.912  30.633  1.00  0.00    -0.014 A 
BRANCH  34  35
ATOM     35  C   UNL A   1      37.612  32.305  31.323  1.00  0.00     0.031 A 
ATOM     36  C   UNL A   1      38.354  31.158  30.690  1.00  0.00     0.074 A 
ATOM     37  C   UNL A   1      37.944  32.726  32.560  1.00  0.00     0.049 A 
ATOM     38  N   UNL A   1      39.347  30.456  31.169  1.00  0.00    -0.248 NA
ATOM     39  C   UNL A   1      37.899  30.720  29.359  1.00  0.00     0.031 C 
ATOM     40  C   UNL A   1      37.248  33.771  33.314  1.00  0.00     0.029 A 
ATOM     41  N   UNL A   1      38.934  32.306  33.412  1.00  0.00    -0.354 N 
ATOM     42  C   UNL A   1      39.612  29.475  30.219  1.00  0.00     0.074 A 
ATOM     43  C   UNL A   1      38.646  29.645  29.157  1.00  0.00     0.031 C 
ATOM     44  C   UNL A   1      37.837  33.917  34.511  1.00  0.00     0.029 A 
ATOM     45  C   UNL A   1      38.927  32.954  34.626  1.00  0.00     0.049 A 
ATOM     46  H   UNL A   1      39.586  31.608  33.178  1.00  0.00     0.167 HD
ATOM     47  C   UNL A   1      40.590  28.539  30.215  1.00  0.00     0.034 A 
ATOM     48  C   UNL A   1      39.704  32.784  35.714  1.00  0.00     0.034 A 
ATOM     49  C   UNL A   1      41.574  28.401  31.254  1.00  0.00     0.049 A 
ATOM     50  C   UNL A   1      40.807  31.761  35.668  1.00  0.00     0.074 A 
ATOM     51  C   UNL A   1      42.657  27.544  31.305  1.00  0.00     0.029 A 
ATOM     52  N   UNL A   1      41.588  29.135  32.431  1.00  0.00    -0.354 N 
ATOM     53  N   UNL A   1      41.138  30.949  34.695  1.00  0.00    -0.248 NA
ATOM     54  C   UNL A   1      41.666  31.658  36.856  1.00  0.00     0.031 C 
ATOM     55  C   UNL A   1      43.310  27.737  32.525  1.00  0.00     0.029 A 
ATOM     56  C   UNL A   1      42.655  28.742  33.219  1.00  0.00     0.049 A 
ATOM     57  H   UNL A   1      40.935  29.832  32.670  1.00  0.00     0.167 HD
ATOM     58  C   UNL A   1      42.266  30.265  35.136  1.00  0.00     0.074 A 
ATOM     59  C   UNL A   1      42.572  30.776  36.457  1.00  0.00     0.031 C 
ATOM     60  C   UNL A   1      42.975  29.294  34.510  1.00  0.00     0.034 A 
BRANCH  47  61
ATOM     61  C   UNL A   1      40.675  27.621  29.022  1.00  0.00     0.023 A 
ATOM     62  C   UNL A   1      39.779  26.538  28.909  1.00  0.00     0.012 A 
ATOM     63  C   UNL A   1      41.601  27.860  27.988  1.00  0.00     0.148 A 
ATOM     64  C   UNL A   1      39.828  25.685  27.808  1.00  0.00     0.002 A 
ATOM     65  C   UNL A   1      41.611  27.035  26.869  1.00  0.00     0.091 A 
ATOM     66  F   UNL A   1      42.459  28.882  28.120  1.00  0.00    -0.205 F 
ATOM     67  C   UNL A   1      40.736  25.940  26.784  1.00  0.00     0.022 A 
BRANCH  65  68
ATOM     68  S   UNL A   1      42.685  27.325  25.459  1.00  0.00     0.127 S 
ATOM     69  O   UNL A   1      43.970  27.566  26.113  1.00  0.00    -0.237 OA
ATOM     70  O   UNL A   1      42.595  26.056  24.739  1.00  0.00    -0.237 OA
ATOM     71  O   UNL A   1      42.122  28.468  24.753  1.00  0.00    -0.744 OA
ENDBRANCH  65  68
ENDBRANCH  47  61
BRANCH  48  72
ATOM     72  C   UNL A   1      39.504  33.642  36.916  1.00  0.00     0.023 A 
ATOM     73  C   UNL A   1      39.964  34.972  36.905  1.00  0.00     0.012 A 
ATOM     74  C   UNL A   1      38.840  33.155  38.059  1.00  0.00     0.148 A 
ATOM     75  C   UNL A   1      39.803  35.791  38.023  1.00  0.00     0.002 A 
ATOM     76  C   UNL A   1      38.629  33.993  39.147  1.00  0.00     0.091 A 
ATOM     77  F   UNL A   1      38.415  31.884  38.053  1.00  0.00    -0.205 F 
ATOM     78  C   UNL A   1      39.127  35.306  39.139  1.00  0.00     0.022 A 
BRANCH  76  79
ATOM     79  S   UNL A   1      37.648  33.498  40.567  1.00  0.00     0.127 S 
ATOM     80  O   UNL A   1      36.419  33.025  39.934  1.00  0.00    -0.237 OA
ATOM     81  O   UNL A   1      38.481  32.449  41.158  1.00  0.00    -0.237 OA
ATOM     82  O   UNL A   1      37.518  34.692  41.391  1.00  0.00    -0.744 OA
ENDBRANCH  76  79
ENDBRANCH  48  72
BRANCH  60  83
ATOM     83  C   UNL A   1      44.185  28.746  35.222  1.00  0.00     0.023 A 
ATOM     84  C   UNL A   1      45.457  29.302  34.985  1.00  0.00     0.012 A 
ATOM     85  C   UNL A   1      44.044  27.723  36.182  1.00  0.00     0.148 A 
ATOM     86  C   UNL A   1      46.577  28.824  35.665  1.00  0.00     0.002 A 
ATOM     87  C   UNL A   1      45.156  27.289  36.893  1.00  0.00     0.091 A 
ATOM     88  F   UNL A   1      42.828  27.195  36.380  1.00  0.00    -0.205 F 
ATOM     89  C   UNL A   1      46.424  27.828  36.626  1.00  0.00     0.022 A 
BRANCH  87  90
ATOM     90  S   UNL A   1      45.039  26.084  38.220  1.00  0.00     0.127 S 
ATOM     91  O   UNL A   1      46.438  25.955  38.628  1.00  0.00    -0.237 OA
ATOM     92  O   UNL A   1      44.182  26.769  39.187  1.00  0.00    -0.237 OA
ATOM     93  O   UNL A   1      44.450  24.890  37.628  1.00  0.00    -0.744 OA
ENDBRANCH  87  90
ENDBRANCH  60  83
ENDBRANCH  34  35
ENDBRANCH  26  29
ENDBRANCH  24  25
ENDBRANCH   1  24
TORSDOF 16
ENDMDL
MODEL 2
REMARK VINA RESULT:     -11.9      6.412     11.697
REMARK SMILES Cn1cnnc1S[C@@H]1CCC[C@]([NH3+])(C(=O)NCCCNC(=O)c2ccc(-c3c4nc(c(-c5cccc(S(=O)(=O)[O-])c5F)c5ccc([nH]5)c(-c5cccc(S(=O)(=O)[O-])c5F)c5nc(c(-c6cccc(S(=O)(=O)[O-])c6F)c6ccc3[nH]6)C=C5)C=C4)cc2)C1
REMARK SMILES IDX 18 1 17 2 16 3 14 4 15 5 12 7 8 8 9 9 86 10 10 11 11 12 7 13
REMARK SMILES IDX 6 14 1 15 2 16 3 17 4 18 5 19 13 20 19 24 20 25 21 26 22 28
REMARK SMILES IDX 23 29 24 30 85 31 25 32 84 33 26 34 27 35 28 36 78 37 29 38
REMARK SMILES IDX 83 39 77 40 79 41 30 42 82 43 76 44 75 45 31 47 63 48 43 49
REMARK SMILES IDX 62 50 44 51 47 52 61 53 80 54 45 55 46 56 60 58 81 59 48 60
REMARK SMILES IDX 32 61 33 62 41 63 34 64 36 65 42 66 35 67 37 68 38 69 39 70
REMARK SMILES IDX 40 71 64 72 65 73 73 74 66 75 68 76 74 77 67 78 69 79 70 80
REMARK SMILES IDX 71 81 72 82 49 83 50 84 58 85 51 86 53 87 59 88 52 89 54 90
REMARK SMILES IDX 55 91 56 92 57 93
REMARK H PARENT 16 6 13 21 13 22 13 23 20 27 79 46 47 57
REMARK Flexibility Score: inf
ROOT
ATOM      1  C   UNL A   1      37.455  19.355  24.924  1.00  0.00     0.042 C 
ENDROOT
BRANCH   1   2
ATOM      2  C   UNL A   1      36.138  20.109  24.898  1.00  0.00     0.118 C 
BRANCH   2   3
ATOM      3  N   UNL A   1      34.971  19.260  24.964  1.00  0.00    -0.351 N 
ATOM      4  C   UNL A   1      33.666  19.573  25.195  1.00  0.00     0.281 C 
ATOM      5  O   UNL A   1      32.847  18.651  25.088  1.00  0.00    -0.268 OA
ATOM      6  H   UNL A   1      35.148  18.303  24.820  1.00  0.00     0.163 HD
BRANCH   4   7
ATOM      7  C   UNL A   1      33.189  21.012  25.616  1.00  0.00     0.175 C 
ATOM      8  C   UNL A   1      33.446  23.545  25.230  1.00  0.00     0.061 C 
ATOM      9  C   UNL A   1      33.529  23.776  26.745  1.00  0.00     0.015 C 
ATOM     10  C   UNL A   1      33.750  22.132  24.708  1.00  0.00     0.094 C 
ATOM     11  C   UNL A   1      32.999  22.625  27.589  1.00  0.00     0.008 C 
ATOM     12  C   UNL A   1      33.493  21.264  27.106  1.00  0.00     0.079 C 
BRANCH   8  13
ATOM     13  S   UNL A   1      34.299  24.913  24.382  1.00  0.00    -0.082 SA
BRANCH  13  14
ATOM     14  C   UNL A   1      33.399  25.557  23.051  1.00  0.00     0.191 A 
ATOM     15  C   UNL A   1      31.065  26.124  23.949  1.00  0.00     0.153 C 
ATOM     16  N   UNL A   1      32.081  25.917  22.961  1.00  0.00    -0.312 N 
ATOM     17  C   UNL A   1      31.827  26.076  21.624  1.00  0.00     0.226 A 
ATOM     18  N   UNL A   1      32.918  25.858  20.935  1.00  0.00    -0.138 NA
ATOM     19  N   UNL A   1      33.905  25.531  21.832  1.00  0.00    -0.124 NA
ENDBRANCH  13  14
ENDBRANCH   8  13
BRANCH   7  20
ATOM     20  N   UNL A   1      31.698  21.031  25.481  1.00  0.00    -0.345 N 
ATOM     21  H   UNL A   1      31.364  21.993  25.537  1.00  0.00     0.345 HD
ATOM     22  H   UNL A   1      31.281  20.482  26.233  1.00  0.00     0.345 HD
ATOM     23  H   UNL A   1      31.433  20.631  24.580  1.00  0.00     0.345 HD
ENDBRANCH   7  20
ENDBRANCH   4   7
ENDBRANCH   2   3
ENDBRANCH   1   2
BRANCH   1  24
ATOM     24  C   UNL A   1      38.558  20.081  25.674  1.00  0.00     0.118 C 
BRANCH  24  25
ATOM     25  N   UNL A   1      39.735  19.243  25.882  1.00  0.00    -0.352 N 
ATOM     26  C   UNL A   1      41.032  19.586  26.175  1.00  0.00     0.251 C 
ATOM     27  H   UNL A   1      39.572  18.276  25.800  1.00  0.00     0.163 HD
ATOM     28  O   UNL A   1      41.906  18.721  26.111  1.00  0.00    -0.269 OA
BRANCH  26  29
ATOM     29  C   UNL A   1      41.384  20.973  26.541  1.00  0.00     0.039 A 
ATOM     30  C   UNL A   1      42.118  21.203  27.707  1.00  0.00     0.014 A 
ATOM     31  C   UNL A   1      40.983  22.052  25.748  1.00  0.00     0.014 A 
ATOM     32  C   UNL A   1      42.510  22.502  28.036  1.00  0.00     0.010 A 
ATOM     33  C   UNL A   1      41.464  23.327  26.017  1.00  0.00     0.010 A 
ATOM     34  C   UNL A   1      42.222  23.570  27.170  1.00  0.00    -0.014 A 
BRANCH  34  35
ATOM     35  C   UNL A   1      42.701  24.947  27.449  1.00  0.00     0.031 A 
ATOM     36  C   UNL A   1      41.779  25.957  28.080  1.00  0.00     0.074 A 
ATOM     37  C   UNL A   1      43.935  25.314  27.048  1.00  0.00     0.049 A 
ATOM     38  N   UNL A   1      41.993  27.221  28.335  1.00  0.00    -0.248 NA
ATOM     39  C   UNL A   1      40.428  25.495  28.443  1.00  0.00     0.031 C 
ATOM     40  C   UNL A   1      44.890  24.452  26.349  1.00  0.00     0.029 A 
ATOM     41  N   UNL A   1      44.587  26.518  27.147  1.00  0.00    -0.354 N 
ATOM     42  C   UNL A   1      40.800  27.712  28.851  1.00  0.00     0.074 A 
ATOM     43  C   UNL A   1      39.851  26.621  28.832  1.00  0.00     0.031 C 
ATOM     44  C   UNL A   1      46.007  25.150  26.091  1.00  0.00     0.029 A 
ATOM     45  C   UNL A   1      45.836  26.517  26.571  1.00  0.00     0.049 A 
ATOM     46  H   UNL A   1      44.198  27.307  27.587  1.00  0.00     0.167 HD
ATOM     47  C   UNL A   1      40.526  28.949  29.329  1.00  0.00     0.034 A 
ATOM     48  C   UNL A   1      46.738  27.509  26.433  1.00  0.00     0.034 A 
ATOM     49  C   UNL A   1      41.485  30.019  29.383  1.00  0.00     0.049 A 
ATOM     50  C   UNL A   1      46.422  28.864  27.005  1.00  0.00     0.074 A 
ATOM     51  C   UNL A   1      41.335  31.282  29.926  1.00  0.00     0.029 A 
ATOM     52  N   UNL A   1      42.771  29.954  28.868  1.00  0.00    -0.354 N 
ATOM     53  N   UNL A   1      45.342  29.264  27.631  1.00  0.00    -0.248 NA
ATOM     54  C   UNL A   1      47.463  29.894  26.886  1.00  0.00     0.031 C 
ATOM     55  C   UNL A   1      42.520  31.992  29.712  1.00  0.00     0.029 A 
ATOM     56  C   UNL A   1      43.421  31.158  29.070  1.00  0.00     0.049 A 
ATOM     57  H   UNL A   1      43.163  29.168  28.424  1.00  0.00     0.167 HD
ATOM     58  C   UNL A   1      45.587  30.578  28.013  1.00  0.00     0.074 A 
ATOM     59  C   UNL A   1      46.928  30.898  27.566  1.00  0.00     0.031 C 
ATOM     60  C   UNL A   1      44.773  31.445  28.663  1.00  0.00     0.034 A 
BRANCH  47  61
ATOM     61  C   UNL A   1      39.144  29.197  29.878  1.00  0.00     0.023 A 
ATOM     62  C   UNL A   1      38.833  28.798  31.194  1.00  0.00     0.012 A 
ATOM     63  C   UNL A   1      38.171  29.872  29.115  1.00  0.00     0.148 A 
ATOM     64  C   UNL A   1      37.567  29.030  31.729  1.00  0.00     0.002 A 
ATOM     65  C   UNL A   1      36.927  30.144  29.671  1.00  0.00     0.091 A 
ATOM     66  F   UNL A   1      38.476  30.227  27.858  1.00  0.00    -0.205 F 
ATOM     67  C   UNL A   1      36.619  29.713  30.972  1.00  0.00     0.022 A 
BRANCH  65  68
ATOM     68  S   UNL A   1      35.665  31.088  28.811  1.00  0.00     0.127 S 
ATOM     69  O   UNL A   1      34.975  30.040  28.059  1.00  0.00    -0.237 OA
ATOM     70  O   UNL A   1      34.894  31.651  29.919  1.00  0.00    -0.237 OA
ATOM     71  O   UNL A   1      36.376  32.069  28.003  1.00  0.00    -0.744 OA
ENDBRANCH  65  68
ENDBRANCH  47  61
BRANCH  48  72
ATOM     72  C   UNL A   1      48.048  27.240  25.776  1.00  0.00     0.023 A 
ATOM     73  C   UNL A   1      49.120  26.741  26.542  1.00  0.00     0.012 A 
ATOM     74  C   UNL A   1      48.231  27.453  24.396  1.00  0.00     0.148 A 
ATOM     75  C   UNL A   1      50.362  26.497  25.954  1.00  0.00     0.002 A 
ATOM     76  C   UNL A   1      49.452  27.150  23.805  1.00  0.00     0.091 A 
ATOM     77  F   UNL A   1      47.201  27.934  23.686  1.00  0.00    -0.205 F 
ATOM     78  C   UNL A   1      50.525  26.692  24.586  1.00  0.00     0.022 A 
BRANCH  76  79
ATOM     79  S   UNL A   1      49.709  27.237  22.030  1.00  0.00     0.127 S 
ATOM     80  O   UNL A   1      49.463  28.652  21.760  1.00  0.00    -0.237 OA
ATOM     81  O   UNL A   1      51.105  26.818  21.906  1.00  0.00    -0.237 OA
ATOM     82  O   UNL A   1      48.752  26.306  21.448  1.00  0.00    -0.744 OA
ENDBRANCH  76  79
ENDBRANCH  48  72
BRANCH  60  83
ATOM     83  C   UNL A   1      45.320  32.814  28.976  1.00  0.00     0.023 A 
ATOM     84  C   UNL A   1      46.108  33.014  30.126  1.00  0.00     0.012 A 
ATOM     85  C   UNL A   1      45.107  33.887  28.087  1.00  0.00     0.148 A 
ATOM     86  C   UNL A   1      46.647  34.269  30.405  1.00  0.00     0.002 A 
ATOM     87  C   UNL A   1      45.691  35.120  28.345  1.00  0.00     0.091 A 
ATOM     88  F   UNL A   1      44.339  33.680  27.008  1.00  0.00    -0.205 F 
ATOM     89  C   UNL A   1      46.448  35.318  29.510  1.00  0.00     0.022 A 
BRANCH  87  90
ATOM     90  S   UNL A   1      45.575  36.499  27.199  1.00  0.00     0.127 S 
ATOM     91  O   UNL A   1      46.304  35.985  26.041  1.00  0.00    -0.237 OA
ATOM     92  O   UNL A   1      44.130  36.620  27.006  1.00  0.00    -0.237 OA
ATOM     93  O   UNL A   1      46.194  37.634  27.871  1.00  0.00    -0.744 OA
ENDBRANCH  87  90
ENDBRANCH  60  83
ENDBRANCH  34  35
ENDBRANCH  26  29
ENDBRANCH  24  25
ENDBRANCH   1  24
TORSDOF 16
ENDMDL
MODEL 3
REMARK VINA RESULT:     -11.9      1.548      2.659
REMARK SMILES Cn1cnnc1S[C@@H]1CCC[C@]([NH3+])(C(=O)NCCCNC(=O)c2ccc(-c3c4nc(c(-c5cccc(S(=O)(=O)[O-])c5F)c5ccc([nH]5)c(-c5cccc(S(=O)(=O)[O-])c5F)c5nc(c(-c6cccc(S(=O)(=O)[O-])c6F)c6ccc3[nH]6)C=C5)C=C4)cc2)C1
REMARK SMILES IDX 18 1 17 2 16 3 14 4 15 5 12 7 8 8 9 9 86 10 10 11 11 12 7 13
REMARK SMILES IDX 6 14 1 15 2 16 3 17 4 18 5 19 13 20 19 24 20 25 21 26 22 28
REMARK SMILES IDX 23 29 24 30 85 31 25 32 84 33 26 34 27 35 28 36 78 37 29 38
REMARK SMILES IDX 83 39 77 40 79 41 30 42 82 43 76 44 75 45 31 47 63 48 43 49
REMARK SMILES IDX 62 50 44 51 47 52 61 53 80 54 45 55 46 56 60 58 81 59 48 60
REMARK SMILES IDX 32 61 33 62 41 63 34 64 36 65 42 66 35 67 37 68 38 69 39 70
REMARK SMILES IDX 40 71 64 72 65 73 73 74 66 75 68 76 74 77 67 78 69 79 70 80
REMARK SMILES IDX 71 81 72 82 49 83 50 84 58 85 51 86 53 87 59 88 52 89 54 90
REMARK SMILES IDX 55 91 56 92 57 93
REMARK H PARENT 16 6 13 21 13 22 13 23 20 27 79 46 47 57
REMARK Flexibility Score: inf
ROOT
ATOM      1  C   UNL A   1      31.564  32.170  26.736  1.00  0.00     0.042 C 
ENDROOT
BRANCH   1   2
ATOM      2  C   UNL A   1      31.715  30.674  26.527  1.00  0.00     0.118 C 
BRANCH   2   3
ATOM      3  N   UNL A   1      32.992  30.145  26.945  1.00  0.00    -0.351 N 
ATOM      4  C   UNL A   1      33.550  28.921  26.736  1.00  0.00     0.281 C 
ATOM      5  O   UNL A   1      34.718  28.771  27.119  1.00  0.00    -0.268 OA
ATOM      6  H   UNL A   1      33.547  30.770  27.465  1.00  0.00     0.163 HD
BRANCH   4   7
ATOM      7  C   UNL A   1      32.770  27.722  26.081  1.00  0.00     0.175 C 
ATOM      8  C   UNL A   1      31.477  26.891  24.015  1.00  0.00     0.061 C 
ATOM      9  C   UNL A   1      30.366  26.341  24.920  1.00  0.00     0.015 C 
ATOM     10  C   UNL A   1      32.402  27.970  24.598  1.00  0.00     0.094 C 
ATOM     11  C   UNL A   1      30.773  26.155  26.376  1.00  0.00     0.008 C 
ATOM     12  C   UNL A   1      31.539  27.352  26.932  1.00  0.00     0.079 C 
BRANCH   8  13
ATOM     13  S   UNL A   1      30.772  27.243  22.373  1.00  0.00    -0.082 SA
BRANCH  13  14
ATOM     14  C   UNL A   1      29.789  28.668  22.343  1.00  0.00     0.191 A 
ATOM     15  C   UNL A   1      27.582  28.061  23.498  1.00  0.00     0.153 C 
ATOM     16  N   UNL A   1      28.490  28.859  22.730  1.00  0.00    -0.312 N 
ATOM     17  C   UNL A   1      28.122  30.076  22.219  1.00  0.00     0.226 A 
ATOM     18  N   UNL A   1      29.131  30.615  21.585  1.00  0.00    -0.138 NA
ATOM     19  N   UNL A   1      30.178  29.729  21.662  1.00  0.00    -0.124 NA
ENDBRANCH  13  14
ENDBRANCH   8  13
BRANCH   7  20
ATOM     20  N   UNL A   1      33.683  26.536  26.122  1.00  0.00    -0.345 N 
ATOM     21  H   UNL A   1      33.133  25.688  26.262  1.00  0.00     0.345 HD
ATOM     22  H   UNL A   1      34.345  26.643  26.891  1.00  0.00     0.345 HD
ATOM     23  H   UNL A   1      34.194  26.469  25.241  1.00  0.00     0.345 HD
ENDBRANCH   7  20
ENDBRANCH   4   7
ENDBRANCH   2   3
ENDBRANCH   1   2
BRANCH   1  24
ATOM     24  C   UNL A   1      32.824  32.842  27.253  1.00  0.00     0.118 C 
BRANCH  24  25
ATOM     25  N   UNL A   1      32.590  34.225  27.659  1.00  0.00    -0.352 N 
ATOM     26  C   UNL A   1      33.133  34.955  28.688  1.00  0.00     0.251 C 
ATOM     27  H   UNL A   1      31.939  34.713  27.106  1.00  0.00     0.163 HD
ATOM     28  O   UNL A   1      32.641  36.048  28.968  1.00  0.00    -0.269 OA
BRANCH  26  29
ATOM     29  C   UNL A   1      34.276  34.433  29.465  1.00  0.00     0.039 A 
ATOM     30  C   UNL A   1      34.030  33.702  30.630  1.00  0.00     0.014 A 
ATOM     31  C   UNL A   1      35.592  34.671  29.059  1.00  0.00     0.014 A 
ATOM     32  C   UNL A   1      35.097  33.151  31.342  1.00  0.00     0.010 A 
ATOM     33  C   UNL A   1      36.644  34.034  29.706  1.00  0.00     0.010 A 
ATOM     34  C   UNL A   1      36.410  33.277  30.861  1.00  0.00    -0.014 A 
BRANCH  34  35
ATOM     35  C   UNL A   1      37.555  32.629  31.549  1.00  0.00     0.031 A 
ATOM     36  C   UNL A   1      38.275  31.476  30.901  1.00  0.00     0.074 A 
ATOM     37  C   UNL A   1      37.887  33.018  32.797  1.00  0.00     0.049 A 
ATOM     38  N   UNL A   1      39.246  30.741  31.374  1.00  0.00    -0.248 NA
ATOM     39  C   UNL A   1      37.822  31.074  29.557  1.00  0.00     0.031 C 
ATOM     40  C   UNL A   1      37.209  34.065  33.565  1.00  0.00     0.029 A 
ATOM     41  N   UNL A   1      38.858  32.559  33.649  1.00  0.00    -0.354 N 
ATOM     42  C   UNL A   1      39.496  29.772  30.408  1.00  0.00     0.074 A 
ATOM     43  C   UNL A   1      38.544  29.986  29.342  1.00  0.00     0.031 C 
ATOM     44  C   UNL A   1      37.791  34.174  34.769  1.00  0.00     0.029 A 
ATOM     45  C   UNL A   1      38.857  33.183  34.875  1.00  0.00     0.049 A 
ATOM     46  H   UNL A   1      39.496  31.849  33.408  1.00  0.00     0.167 HD
ATOM     47  C   UNL A   1      40.451  28.813  30.394  1.00  0.00     0.034 A 
ATOM     48  C   UNL A   1      39.619  32.973  35.966  1.00  0.00     0.034 A 
ATOM     49  C   UNL A   1      41.421  28.631  31.440  1.00  0.00     0.049 A 
ATOM     50  C   UNL A   1      40.697  31.925  35.910  1.00  0.00     0.074 A 
ATOM     51  C   UNL A   1      42.483  27.746  31.483  1.00  0.00     0.029 A 
ATOM     52  N   UNL A   1      41.443  29.342  32.630  1.00  0.00    -0.354 N 
ATOM     53  N   UNL A   1      41.017  31.123  34.924  1.00  0.00    -0.248 NA
ATOM     54  C   UNL A   1      41.543  31.778  37.103  1.00  0.00     0.031 C 
ATOM     55  C   UNL A   1      43.129  27.901  32.713  1.00  0.00     0.029 A 
ATOM     56  C   UNL A   1      42.492  28.908  33.420  1.00  0.00     0.049 A 
ATOM     57  H   UNL A   1      40.805  30.050  32.877  1.00  0.00     0.167 HD
ATOM     58  C   UNL A   1      42.124  30.404  35.362  1.00  0.00     0.074 A 
ATOM     59  C   UNL A   1      42.430  30.882  36.695  1.00  0.00     0.031 C 
ATOM     60  C   UNL A   1      42.815  29.428  34.724  1.00  0.00     0.034 A 
BRANCH  47  61
ATOM     61  C   UNL A   1      40.524  27.916  29.185  1.00  0.00     0.023 A 
ATOM     62  C   UNL A   1      39.644  26.819  29.074  1.00  0.00     0.012 A 
ATOM     63  C   UNL A   1      41.421  28.188  28.134  1.00  0.00     0.148 A 
ATOM     64  C   UNL A   1      39.683  25.985  27.959  1.00  0.00     0.002 A 
ATOM     65  C   UNL A   1      41.420  27.381  27.002  1.00  0.00     0.091 A 
ATOM     66  F   UNL A   1      42.265  29.222  28.264  1.00  0.00    -0.205 F 
ATOM     67  C   UNL A   1      40.562  26.272  26.919  1.00  0.00     0.022 A 
BRANCH  65  68
ATOM     68  S   UNL A   1      42.455  27.713  25.573  1.00  0.00     0.127 S 
ATOM     69  O   UNL A   1      41.903  28.981  25.099  1.00  0.00    -0.237 OA
ATOM     70  O   UNL A   1      43.785  27.813  26.174  1.00  0.00    -0.237 OA
ATOM     71  O   UNL A   1      42.277  26.581  24.674  1.00  0.00    -0.744 OA
ENDBRANCH  65  68
ENDBRANCH  47  61
BRANCH  48  72
ATOM     72  C   UNL A   1      39.429  33.813  37.183  1.00  0.00     0.023 A 
ATOM     73  C   UNL A   1      39.899  35.140  37.191  1.00  0.00     0.012 A 
ATOM     74  C   UNL A   1      38.765  33.312  38.320  1.00  0.00     0.148 A 
ATOM     75  C   UNL A   1      39.748  35.942  38.324  1.00  0.00     0.002 A 
ATOM     76  C   UNL A   1      38.563  34.134  39.422  1.00  0.00     0.091 A 
ATOM     77  F   UNL A   1      38.330  32.044  38.294  1.00  0.00    -0.205 F 
ATOM     78  C   UNL A   1      39.072  35.443  39.434  1.00  0.00     0.022 A 
BRANCH  76  79
ATOM     79  S   UNL A   1      37.584  33.623  40.837  1.00  0.00     0.127 S 
ATOM     80  O   UNL A   1      37.396  34.888  41.545  1.00  0.00    -0.237 OA
ATOM     81  O   UNL A   1      36.382  33.090  40.196  1.00  0.00    -0.237 OA
ATOM     82  O   UNL A   1      38.386  32.623  41.529  1.00  0.00    -0.744 OA
ENDBRANCH  76  79
ENDBRANCH  48  72
BRANCH  60  83
ATOM     83  C   UNL A   1      44.004  28.836  35.436  1.00  0.00     0.023 A 
ATOM     84  C   UNL A   1      45.281  29.409  35.274  1.00  0.00     0.012 A 
ATOM     85  C   UNL A   1      43.838  27.753  36.323  1.00  0.00     0.148 A 
ATOM     86  C   UNL A   1      46.381  28.890  35.955  1.00  0.00     0.002 A 
ATOM     87  C   UNL A   1      44.929  27.276  37.038  1.00  0.00     0.091 A 
ATOM     88  F   UNL A   1      42.619  27.211  36.448  1.00  0.00    -0.205 F 
ATOM     89  C   UNL A   1      46.203  27.833  36.845  1.00  0.00     0.022 A 
BRANCH  87  90
ATOM     90  S   UNL A   1      44.777  25.987  38.279  1.00  0.00     0.127 S 
ATOM     91  O   UNL A   1      46.174  25.612  38.492  1.00  0.00    -0.237 OA
ATOM     92  O   UNL A   1      44.160  26.703  39.396  1.00  0.00    -0.237 OA
ATOM     93  O   UNL A   1      43.938  24.954  37.686  1.00  0.00    -0.744 OA
ENDBRANCH  87  90
ENDBRANCH  60  83
ENDBRANCH  34  35
ENDBRANCH  26  29
ENDBRANCH  24  25
ENDBRANCH   1  24
TORSDOF 16
ENDMDL
