MODEL 1
REMARK VINA RESULT:     -11.0      0.000      0.000
REMARK SMILES CCCC[C@H](CC)Cn1ccc(C(=O)NCCCNC(=O)c2ccc(-c3c4nc(c(-c5cccc(S(=O)(=O)[O-])c5F)c5ccc([nH]5)c(-c5cccc(S(=O)(=O)[O-])c5F)c5nc(c(-c6cccc(S(=O)(=O)[O-])c6F)c6ccc3[nH]6)C=C5)C=C4)cc2)c1
REMARK SMILES IDX 16 1 15 2 13 3 14 4 12 6 9 7 10 8 85 9 11 10 8 11 5 12 4 13
REMARK SMILES IDX 3 14 2 15 1 16 6 17 7 18 17 19 18 20 19 21 20 22 21 24 22 25
REMARK SMILES IDX 23 26 84 27 24 28 83 29 25 30 26 31 27 32 77 33 28 34 82 35
REMARK SMILES IDX 76 36 78 37 29 38 81 39 75 40 74 41 30 43 62 44 42 45 61 46
REMARK SMILES IDX 43 47 46 48 60 49 79 50 44 51 45 52 59 54 80 55 47 56 31 57
REMARK SMILES IDX 32 58 40 59 33 60 35 61 41 62 34 63 36 64 37 65 38 66 39 67
REMARK SMILES IDX 63 68 64 69 72 70 65 71 67 72 73 73 66 74 68 75 69 76 70 77
REMARK SMILES IDX 71 78 48 79 49 80 57 81 50 82 52 83 58 84 51 85 53 86 54 87
REMARK SMILES IDX 55 88 56 89
REMARK H PARENT 15 5 19 23 78 42 46 53
REMARK Flexibility Score: inf
ROOT
ATOM      1  C   UNL A   1      32.381  29.093  25.798  1.00  0.00     0.118 C 
ENDROOT
BRANCH   1   2
ATOM      2  N   UNL A   1      33.208  29.301  24.623  1.00  0.00    -0.352 N 
ATOM      3  C   UNL A   1      33.492  28.523  23.518  1.00  0.00     0.252 C 
ATOM      4  O   UNL A   1      34.234  28.991  22.668  1.00  0.00    -0.269 OA
ATOM      5  H   UNL A   1      33.658  30.177  24.611  1.00  0.00     0.163 HD
BRANCH   3   6
ATOM      6  C   UNL A   1      32.989  27.154  23.405  1.00  0.00     0.057 A 
ATOM      7  N   UNL A   1      32.869  24.981  22.969  1.00  0.00    -0.353 N 
ATOM      8  C   UNL A   1      31.581  25.432  22.899  1.00  0.00     0.086 A 
ATOM      9  C   UNL A   1      33.648  25.947  23.556  1.00  0.00     0.099 A 
ATOM     10  C   UNL A   1      31.628  26.792  23.136  1.00  0.00     0.033 A 
BRANCH   7  11
ATOM     11  C   UNL A   1      33.386  23.740  22.423  1.00  0.00     0.125 C 
BRANCH  11  12
ATOM     12  C   UNL A   1      33.990  22.739  23.450  1.00  0.00     0.008 C 
BRANCH  12  13
ATOM     13  C   UNL A   1      32.930  22.533  24.572  1.00  0.00     0.005 C 
BRANCH  13  14
ATOM     14  C   UNL A   1      32.911  21.185  25.314  1.00  0.00     0.000 C 
BRANCH  14  15
ATOM     15  C   UNL A   1      33.500  19.946  24.628  1.00  0.00    -0.003 C 
ATOM     16  C   UNL A   1      32.548  19.186  23.716  1.00  0.00     0.004 C 
ENDBRANCH  14  15
ENDBRANCH  13  14
ENDBRANCH  12  13
BRANCH  12  17
ATOM     17  C   UNL A   1      35.354  23.107  24.078  1.00  0.00     0.002 C 
ATOM     18  C   UNL A   1      36.647  22.642  23.455  1.00  0.00     0.004 C 
ENDBRANCH  12  17
ENDBRANCH  11  12
ENDBRANCH   7  11
ENDBRANCH   3   6
ENDBRANCH   1   2
BRANCH   1  19
ATOM     19  C   UNL A   1      33.106  28.428  26.972  1.00  0.00     0.042 C 
BRANCH  19  20
ATOM     20  C   UNL A   1      34.562  28.848  27.085  1.00  0.00     0.118 C 
BRANCH  20  21
ATOM     21  N   UNL A   1      34.705  30.086  27.844  1.00  0.00    -0.352 N 
ATOM     22  C   UNL A   1      35.725  30.487  28.670  1.00  0.00     0.251 C 
ATOM     23  H   UNL A   1      33.964  30.727  27.748  1.00  0.00     0.163 HD
ATOM     24  O   UNL A   1      35.546  31.451  29.412  1.00  0.00    -0.269 OA
BRANCH  22  25
ATOM     25  C   UNL A   1      37.005  29.751  28.706  1.00  0.00     0.039 A 
ATOM     26  C   UNL A   1      37.875  29.896  27.618  1.00  0.00     0.014 A 
ATOM     27  C   UNL A   1      37.339  28.909  29.771  1.00  0.00     0.014 A 
ATOM     28  C   UNL A   1      39.106  29.252  27.635  1.00  0.00     0.010 A 
ATOM     29  C   UNL A   1      38.589  28.314  29.821  1.00  0.00     0.010 A 
ATOM     30  C   UNL A   1      39.470  28.487  28.753  1.00  0.00    -0.014 A 
BRANCH  30  31
ATOM     31  C   UNL A   1      40.852  27.975  28.850  1.00  0.00     0.031 A 
ATOM     32  C   UNL A   1      40.914  26.486  28.407  1.00  0.00     0.074 A 
ATOM     33  C   UNL A   1      41.777  28.866  29.327  1.00  0.00     0.049 A 
ATOM     34  N   UNL A   1      41.560  25.468  28.903  1.00  0.00    -0.248 NA
ATOM     35  C   UNL A   1      39.981  26.043  27.331  1.00  0.00     0.031 C 
ATOM     36  C   UNL A   1      41.519  30.298  29.631  1.00  0.00     0.029 A 
ATOM     37  N   UNL A   1      43.111  28.776  29.650  1.00  0.00    -0.354 N 
ATOM     38  C   UNL A   1      41.277  24.344  28.076  1.00  0.00     0.074 A 
ATOM     39  C   UNL A   1      40.188  24.727  27.233  1.00  0.00     0.031 C 
ATOM     40  C   UNL A   1      42.613  30.895  30.154  1.00  0.00     0.029 A 
ATOM     41  C   UNL A   1      43.680  29.923  30.263  1.00  0.00     0.049 A 
ATOM     42  H   UNL A   1      43.639  27.965  29.467  1.00  0.00     0.167 HD
ATOM     43  C   UNL A   1      42.060  23.222  28.028  1.00  0.00     0.034 A 
ATOM     44  C   UNL A   1      44.893  30.043  30.892  1.00  0.00     0.034 A 
ATOM     45  C   UNL A   1      43.192  23.408  28.870  1.00  0.00     0.049 A 
ATOM     46  C   UNL A   1      45.484  28.704  30.777  1.00  0.00     0.074 A 
ATOM     47  C   UNL A   1      43.491  23.183  30.184  1.00  0.00     0.029 A 
ATOM     48  N   UNL A   1      44.216  24.114  28.292  1.00  0.00    -0.354 N 
ATOM     49  N   UNL A   1      45.978  28.195  29.691  1.00  0.00    -0.248 NA
ATOM     50  C   UNL A   1      45.335  27.800  31.918  1.00  0.00     0.031 C 
ATOM     51  C   UNL A   1      44.590  24.033  30.451  1.00  0.00     0.029 A 
ATOM     52  C   UNL A   1      44.896  24.754  29.294  1.00  0.00     0.049 A 
ATOM     53  H   UNL A   1      44.424  24.154  27.330  1.00  0.00     0.167 HD
ATOM     54  C   UNL A   1      45.893  26.843  29.923  1.00  0.00     0.074 A 
ATOM     55  C   UNL A   1      45.757  26.677  31.353  1.00  0.00     0.031 C 
ATOM     56  C   UNL A   1      45.545  25.987  28.932  1.00  0.00     0.034 A 
BRANCH  43  57
ATOM     57  C   UNL A   1      42.150  22.006  27.109  1.00  0.00     0.023 A 
ATOM     58  C   UNL A   1      41.225  20.956  27.400  1.00  0.00     0.012 A 
ATOM     59  C   UNL A   1      43.211  21.687  26.244  1.00  0.00     0.148 A 
ATOM     60  C   UNL A   1      41.421  19.636  26.997  1.00  0.00     0.002 A 
ATOM     61  C   UNL A   1      43.372  20.367  25.792  1.00  0.00     0.091 A 
ATOM     62  F   UNL A   1      44.100  22.630  25.919  1.00  0.00    -0.205 F 
ATOM     63  C   UNL A   1      42.511  19.339  26.205  1.00  0.00     0.022 A 
BRANCH  61  64
ATOM     64  S   UNL A   1      44.682  19.860  24.668  1.00  0.00     0.127 S 
ATOM     65  O   UNL A   1      44.466  20.748  23.527  1.00  0.00    -0.237 OA
ATOM     66  O   UNL A   1      45.883  20.165  25.449  1.00  0.00    -0.237 OA
ATOM     67  O   UNL A   1      44.472  18.439  24.433  1.00  0.00    -0.744 OA
ENDBRANCH  61  64
ENDBRANCH  43  57
BRANCH  44  68
ATOM     68  C   UNL A   1      45.584  31.037  31.800  1.00  0.00     0.023 A 
ATOM     69  C   UNL A   1      45.102  31.426  33.059  1.00  0.00     0.012 A 
ATOM     70  C   UNL A   1      46.850  31.587  31.426  1.00  0.00     0.148 A 
ATOM     71  C   UNL A   1      45.885  32.214  33.931  1.00  0.00     0.002 A 
ATOM     72  C   UNL A   1      47.671  32.255  32.329  1.00  0.00     0.091 A 
ATOM     73  F   UNL A   1      47.263  31.495  30.157  1.00  0.00    -0.205 F 
ATOM     74  C   UNL A   1      47.187  32.583  33.590  1.00  0.00     0.022 A 
BRANCH  72  75
ATOM     75  S   UNL A   1      49.414  32.569  31.980  1.00  0.00     0.127 S 
ATOM     76  O   UNL A   1      49.348  33.617  30.964  1.00  0.00    -0.237 OA
ATOM     77  O   UNL A   1      49.899  33.013  33.288  1.00  0.00    -0.237 OA
ATOM     78  O   UNL A   1      49.978  31.303  31.529  1.00  0.00    -0.744 OA
ENDBRANCH  72  75
ENDBRANCH  44  68
BRANCH  56  79
ATOM     79  C   UNL A   1      45.594  26.591  27.525  1.00  0.00     0.023 A 
ATOM     80  C   UNL A   1      44.372  26.970  26.947  1.00  0.00     0.012 A 
ATOM     81  C   UNL A   1      46.758  26.700  26.718  1.00  0.00     0.148 A 
ATOM     82  C   UNL A   1      44.304  27.444  25.633  1.00  0.00     0.002 A 
ATOM     83  C   UNL A   1      46.693  27.165  25.401  1.00  0.00     0.091 A 
ATOM     84  F   UNL A   1      47.931  26.355  27.244  1.00  0.00    -0.205 F 
ATOM     85  C   UNL A   1      45.459  27.545  24.862  1.00  0.00     0.022 A 
BRANCH  83  86
ATOM     86  S   UNL A   1      48.119  27.253  24.291  1.00  0.00     0.127 S 
ATOM     87  O   UNL A   1      47.525  27.769  23.056  1.00  0.00    -0.237 OA
ATOM     88  O   UNL A   1      48.984  28.206  24.982  1.00  0.00    -0.237 OA
ATOM     89  O   UNL A   1      48.644  25.896  24.177  1.00  0.00    -0.744 OA
ENDBRANCH  83  86
ENDBRANCH  56  79
ENDBRANCH  30  31
ENDBRANCH  22  25
ENDBRANCH  20  21
ENDBRANCH  19  20
ENDBRANCH   1  19
TORSDOF 19
ENDMDL
MODEL 2
REMARK VINA RESULT:     -10.9      1.548      2.015
REMARK SMILES CCCC[C@H](CC)Cn1ccc(C(=O)NCCCNC(=O)c2ccc(-c3c4nc(c(-c5cccc(S(=O)(=O)[O-])c5F)c5ccc([nH]5)c(-c5cccc(S(=O)(=O)[O-])c5F)c5nc(c(-c6cccc(S(=O)(=O)[O-])c6F)c6ccc3[nH]6)C=C5)C=C4)cc2)c1
REMARK SMILES IDX 16 1 15 2 13 3 14 4 12 6 9 7 10 8 85 9 11 10 8 11 5 12 4 13
REMARK SMILES IDX 3 14 2 15 1 16 6 17 7 18 17 19 18 20 19 21 20 22 21 24 22 25
REMARK SMILES IDX 23 26 84 27 24 28 83 29 25 30 26 31 27 32 77 33 28 34 82 35
REMARK SMILES IDX 76 36 78 37 29 38 81 39 75 40 74 41 30 43 62 44 42 45 61 46
REMARK SMILES IDX 43 47 46 48 60 49 79 50 44 51 45 52 59 54 80 55 47 56 31 57
REMARK SMILES IDX 32 58 40 59 33 60 35 61 41 62 34 63 36 64 37 65 38 66 39 67
REMARK SMILES IDX 63 68 64 69 72 70 65 71 67 72 73 73 66 74 68 75 69 76 70 77
REMARK SMILES IDX 71 78 48 79 49 80 57 81 50 82 52 83 58 84 51 85 53 86 54 87
REMARK SMILES IDX 55 88 56 89
REMARK H PARENT 15 5 19 23 78 42 46 53
REMARK Flexibility Score: inf
ROOT
ATOM      1  C   UNL A   1      32.265  28.837  26.133  1.00  0.00     0.118 C 
ENDROOT
BRANCH   1   2
ATOM      2  N   UNL A   1      32.945  29.240  24.915  1.00  0.00    -0.352 N 
ATOM      3  C   UNL A   1      33.225  28.590  23.730  1.00  0.00     0.252 C 
ATOM      4  O   UNL A   1      33.817  29.215  22.864  1.00  0.00    -0.269 OA
ATOM      5  H   UNL A   1      33.275  30.168  24.939  1.00  0.00     0.163 HD
BRANCH   3   6
ATOM      6  C   UNL A   1      32.896  27.176  23.545  1.00  0.00     0.057 A 
ATOM      7  N   UNL A   1      33.097  24.989  23.224  1.00  0.00    -0.353 N 
ATOM      8  C   UNL A   1      31.869  25.314  22.722  1.00  0.00     0.086 A 
ATOM      9  C   UNL A   1      33.566  26.042  23.969  1.00  0.00     0.099 A 
ATOM     10  C   UNL A   1      31.728  26.678  22.880  1.00  0.00     0.033 A 
BRANCH   7  11
ATOM     11  C   UNL A   1      33.860  23.787  22.945  1.00  0.00     0.125 C 
BRANCH  11  12
ATOM     12  C   UNL A   1      34.307  22.957  24.183  1.00  0.00     0.008 C 
BRANCH  12  13
ATOM     13  C   UNL A   1      35.730  22.401  23.877  1.00  0.00     0.005 C 
BRANCH  13  14
ATOM     14  C   UNL A   1      36.884  22.810  24.809  1.00  0.00     0.000 C 
BRANCH  14  15
ATOM     15  C   UNL A   1      37.938  21.765  25.199  1.00  0.00    -0.003 C 
ATOM     16  C   UNL A   1      37.581  20.322  24.873  1.00  0.00     0.004 C 
ENDBRANCH  14  15
ENDBRANCH  13  14
ENDBRANCH  12  13
BRANCH  12  17
ATOM     17  C   UNL A   1      33.380  21.806  24.636  1.00  0.00     0.002 C 
ATOM     18  C   UNL A   1      33.885  20.387  24.714  1.00  0.00     0.004 C 
ENDBRANCH  12  17
ENDBRANCH  11  12
ENDBRANCH   7  11
ENDBRANCH   3   6
ENDBRANCH   1   2
BRANCH   1  19
ATOM     19  C   UNL A   1      33.196  28.345  27.245  1.00  0.00     0.042 C 
BRANCH  19  20
ATOM     20  C   UNL A   1      34.605  28.905  27.131  1.00  0.00     0.118 C 
BRANCH  20  21
ATOM     21  N   UNL A   1      34.764  30.121  27.922  1.00  0.00    -0.352 N 
ATOM     22  C   UNL A   1      35.790  30.488  28.756  1.00  0.00     0.251 C 
ATOM     23  H   UNL A   1      34.029  30.772  27.846  1.00  0.00     0.163 HD
ATOM     24  O   UNL A   1      35.623  31.434  29.523  1.00  0.00    -0.269 OA
BRANCH  22  25
ATOM     25  C   UNL A   1      37.062  29.738  28.767  1.00  0.00     0.039 A 
ATOM     26  C   UNL A   1      37.933  29.905  27.684  1.00  0.00     0.014 A 
ATOM     27  C   UNL A   1      37.388  28.860  29.807  1.00  0.00     0.014 A 
ATOM     28  C   UNL A   1      39.156  29.247  27.680  1.00  0.00     0.010 A 
ATOM     29  C   UNL A   1      38.631  28.251  29.838  1.00  0.00     0.010 A 
ATOM     30  C   UNL A   1      39.513  28.446  28.774  1.00  0.00    -0.014 A 
BRANCH  30  31
ATOM     31  C   UNL A   1      40.889  27.916  28.854  1.00  0.00     0.031 A 
ATOM     32  C   UNL A   1      40.938  26.447  28.347  1.00  0.00     0.074 A 
ATOM     33  C   UNL A   1      41.821  28.775  29.373  1.00  0.00     0.049 A 
ATOM     34  N   UNL A   1      41.572  25.402  28.800  1.00  0.00    -0.248 NA
ATOM     35  C   UNL A   1      40.005  26.060  27.248  1.00  0.00     0.031 C 
ATOM     36  C   UNL A   1      41.576  30.196  29.738  1.00  0.00     0.029 A 
ATOM     37  N   UNL A   1      43.153  28.658  29.697  1.00  0.00    -0.354 N 
ATOM     38  C   UNL A   1      41.280  24.317  27.924  1.00  0.00     0.074 A 
ATOM     39  C   UNL A   1      40.199  24.748  27.095  1.00  0.00     0.031 C 
ATOM     40  C   UNL A   1      42.674  30.758  30.291  1.00  0.00     0.029 A 
ATOM     41  C   UNL A   1      43.731  29.771  30.361  1.00  0.00     0.049 A 
ATOM     42  H   UNL A   1      43.673  27.850  29.480  1.00  0.00     0.167 HD
ATOM     43  C   UNL A   1      42.052  23.191  27.830  1.00  0.00     0.034 A 
ATOM     44  C   UNL A   1      44.942  29.851  30.999  1.00  0.00     0.034 A 
ATOM     45  C   UNL A   1      43.183  23.328  28.684  1.00  0.00     0.049 A 
ATOM     46  C   UNL A   1      45.520  28.513  30.829  1.00  0.00     0.074 A 
ATOM     47  C   UNL A   1      43.474  23.043  29.988  1.00  0.00     0.029 A 
ATOM     48  N   UNL A   1      44.216  24.048  28.141  1.00  0.00    -0.354 N 
ATOM     49  N   UNL A   1      46.013  28.046  29.723  1.00  0.00    -0.248 NA
ATOM     50  C   UNL A   1      45.357  27.561  31.929  1.00  0.00     0.031 C 
ATOM     51  C   UNL A   1      44.580  23.869  30.296  1.00  0.00     0.029 A 
ATOM     52  C   UNL A   1      44.899  24.637  29.172  1.00  0.00     0.049 A 
ATOM     53  H   UNL A   1      44.428  24.128  27.183  1.00  0.00     0.167 HD
ATOM     54  C   UNL A   1      45.913  26.686  29.896  1.00  0.00     0.074 A 
ATOM     55  C   UNL A   1      45.770  26.459  31.317  1.00  0.00     0.031 C 
ATOM     56  C   UNL A   1      45.561  25.878  28.867  1.00  0.00     0.034 A 
BRANCH  43  57
ATOM     57  C   UNL A   1      42.134  22.015  26.859  1.00  0.00     0.023 A 
ATOM     58  C   UNL A   1      41.032  21.106  26.914  1.00  0.00     0.012 A 
ATOM     59  C   UNL A   1      43.278  21.575  26.171  1.00  0.00     0.148 A 
ATOM     60  C   UNL A   1      41.109  19.790  26.461  1.00  0.00     0.002 A 
ATOM     61  C   UNL A   1      43.330  20.267  25.664  1.00  0.00     0.091 A 
ATOM     62  F   UNL A   1      44.336  22.385  26.071  1.00  0.00    -0.205 F 
ATOM     63  C   UNL A   1      42.271  19.364  25.851  1.00  0.00     0.022 A 
BRANCH  61  64
ATOM     64  S   UNL A   1      44.736  19.615  24.751  1.00  0.00     0.127 S 
ATOM     65  O   UNL A   1      44.396  19.966  23.375  1.00  0.00    -0.237 OA
ATOM     66  O   UNL A   1      45.845  20.390  25.314  1.00  0.00    -0.237 OA
ATOM     67  O   UNL A   1      44.786  18.194  25.065  1.00  0.00    -0.744 OA
ENDBRANCH  61  64
ENDBRANCH  43  57
BRANCH  44  68
ATOM     68  C   UNL A   1      45.639  30.798  31.953  1.00  0.00     0.023 A 
ATOM     69  C   UNL A   1      46.837  31.469  31.667  1.00  0.00     0.012 A 
ATOM     70  C   UNL A   1      45.036  31.117  33.210  1.00  0.00     0.148 A 
ATOM     71  C   UNL A   1      47.334  32.475  32.524  1.00  0.00     0.002 A 
ATOM     72  C   UNL A   1      45.456  32.190  33.989  1.00  0.00     0.091 A 
ATOM     73  F   UNL A   1      44.053  30.346  33.689  1.00  0.00    -0.205 F 
ATOM     74  C   UNL A   1      46.620  32.873  33.655  1.00  0.00     0.022 A 
BRANCH  72  75
ATOM     75  S   UNL A   1      44.447  32.841  35.338  1.00  0.00     0.127 S 
ATOM     76  O   UNL A   1      43.477  33.674  34.632  1.00  0.00    -0.237 OA
ATOM     77  O   UNL A   1      43.898  31.613  35.912  1.00  0.00    -0.237 OA
ATOM     78  O   UNL A   1      45.358  33.561  36.220  1.00  0.00    -0.744 OA
ENDBRANCH  72  75
ENDBRANCH  44  68
BRANCH  56  79
ATOM     79  C   UNL A   1      45.622  26.542  27.489  1.00  0.00     0.023 A 
ATOM     80  C   UNL A   1      44.439  27.118  27.001  1.00  0.00     0.012 A 
ATOM     81  C   UNL A   1      46.746  26.529  26.619  1.00  0.00     0.148 A 
ATOM     82  C   UNL A   1      44.371  27.665  25.715  1.00  0.00     0.002 A 
ATOM     83  C   UNL A   1      46.679  27.067  25.331  1.00  0.00     0.091 A 
ATOM     84  F   UNL A   1      47.884  25.996  27.059  1.00  0.00    -0.205 F 
ATOM     85  C   UNL A   1      45.486  27.643  24.883  1.00  0.00     0.022 A 
BRANCH  83  86
ATOM     86  S   UNL A   1      48.043  27.013  24.143  1.00  0.00     0.127 S 
ATOM     87  O   UNL A   1      48.118  25.588  23.815  1.00  0.00    -0.237 OA
ATOM     88  O   UNL A   1      47.537  27.849  23.058  1.00  0.00    -0.237 OA
ATOM     89  O   UNL A   1      49.221  27.527  24.836  1.00  0.00    -0.744 OA
ENDBRANCH  83  86
ENDBRANCH  56  79
ENDBRANCH  30  31
ENDBRANCH  22  25
ENDBRANCH  20  21
ENDBRANCH  19  20
ENDBRANCH   1  19
TORSDOF 19
ENDMDL
MODEL 3
REMARK VINA RESULT:     -10.8      4.573      9.929
REMARK SMILES CCCC[C@H](CC)Cn1ccc(C(=O)NCCCNC(=O)c2ccc(-c3c4nc(c(-c5cccc(S(=O)(=O)[O-])c5F)c5ccc([nH]5)c(-c5cccc(S(=O)(=O)[O-])c5F)c5nc(c(-c6cccc(S(=O)(=O)[O-])c6F)c6ccc3[nH]6)C=C5)C=C4)cc2)c1
REMARK SMILES IDX 16 1 15 2 13 3 14 4 12 6 9 7 10 8 85 9 11 10 8 11 5 12 4 13
REMARK SMILES IDX 3 14 2 15 1 16 6 17 7 18 17 19 18 20 19 21 20 22 21 24 22 25
REMARK SMILES IDX 23 26 84 27 24 28 83 29 25 30 26 31 27 32 77 33 28 34 82 35
REMARK SMILES IDX 76 36 78 37 29 38 81 39 75 40 74 41 30 43 62 44 42 45 61 46
REMARK SMILES IDX 43 47 46 48 60 49 79 50 44 51 45 52 59 54 80 55 47 56 31 57
REMARK SMILES IDX 32 58 40 59 33 60 35 61 41 62 34 63 36 64 37 65 38 66 39 67
REMARK SMILES IDX 63 68 64 69 72 70 65 71 67 72 73 73 66 74 68 75 69 76 70 77
REMARK SMILES IDX 71 78 48 79 49 80 57 81 50 82 52 83 58 84 51 85 53 86 54 87
REMARK SMILES IDX 55 88 56 89
REMARK H PARENT 15 5 19 23 78 42 46 53
REMARK Flexibility Score: inf
ROOT
ATOM      1  C   UNL A   1      35.026  23.294  25.071  1.00  0.00     0.118 C 
ENDROOT
BRANCH   1   2
ATOM      2  N   UNL A   1      34.414  22.153  24.413  1.00  0.00    -0.352 N 
ATOM      3  C   UNL A   1      33.105  21.747  24.250  1.00  0.00     0.252 C 
ATOM      4  O   UNL A   1      32.901  20.720  23.621  1.00  0.00    -0.269 OA
ATOM      5  H   UNL A   1      35.067  21.544  23.999  1.00  0.00     0.163 HD
BRANCH   3   6
ATOM      6  C   UNL A   1      32.001  22.475  24.877  1.00  0.00     0.057 A 
ATOM      7  N   UNL A   1      30.691  24.124  25.579  1.00  0.00    -0.353 N 
ATOM      8  C   UNL A   1      30.485  23.102  26.461  1.00  0.00     0.086 A 
ATOM      9  C   UNL A   1      31.363  23.639  24.484  1.00  0.00     0.099 A 
ATOM     10  C   UNL A   1      31.313  22.069  26.068  1.00  0.00     0.033 A 
BRANCH   7  11
ATOM     11  C   UNL A   1      30.369  25.525  25.779  1.00  0.00     0.125 C 
BRANCH  11  12
ATOM     12  C   UNL A   1      31.517  26.538  25.504  1.00  0.00     0.008 C 
BRANCH  12  13
ATOM     13  C   UNL A   1      31.267  27.777  26.413  1.00  0.00     0.005 C 
BRANCH  13  14
ATOM     14  C   UNL A   1      32.261  28.052  27.554  1.00  0.00     0.000 C 
BRANCH  14  15
ATOM     15  C   UNL A   1      33.616  28.694  27.229  1.00  0.00    -0.003 C 
ATOM     16  C   UNL A   1      33.656  29.532  25.959  1.00  0.00     0.004 C 
ENDBRANCH  14  15
ENDBRANCH  13  14
ENDBRANCH  12  13
BRANCH  12  17
ATOM     17  C   UNL A   1      31.724  26.992  24.041  1.00  0.00     0.002 C 
ATOM     18  C   UNL A   1      30.550  27.187  23.114  1.00  0.00     0.004 C 
ENDBRANCH  12  17
ENDBRANCH  11  12
ENDBRANCH   7  11
ENDBRANCH   3   6
ENDBRANCH   1   2
BRANCH   1  19
ATOM     19  C   UNL A   1      36.532  23.431  24.832  1.00  0.00     0.042 C 
BRANCH  19  20
ATOM     20  C   UNL A   1      37.271  24.014  26.025  1.00  0.00     0.118 C 
BRANCH  20  21
ATOM     21  N   UNL A   1      38.585  23.402  26.194  1.00  0.00    -0.352 N 
ATOM     22  C   UNL A   1      39.746  23.954  26.673  1.00  0.00     0.251 C 
ATOM     23  H   UNL A   1      38.647  22.457  25.925  1.00  0.00     0.163 HD
ATOM     24  O   UNL A   1      40.805  23.351  26.504  1.00  0.00    -0.269 OA
BRANCH  22  25
ATOM     25  C   UNL A   1      39.740  25.268  27.346  1.00  0.00     0.039 A 
ATOM     26  C   UNL A   1      39.217  25.339  28.642  1.00  0.00     0.014 A 
ATOM     27  C   UNL A   1      40.210  26.422  26.709  1.00  0.00     0.014 A 
ATOM     28  C   UNL A   1      39.231  26.551  29.321  1.00  0.00     0.010 A 
ATOM     29  C   UNL A   1      40.283  27.618  27.403  1.00  0.00     0.010 A 
ATOM     30  C   UNL A   1      39.794  27.680  28.709  1.00  0.00    -0.014 A 
BRANCH  30  31
ATOM     31  C   UNL A   1      39.987  28.907  29.508  1.00  0.00     0.031 A 
ATOM     32  C   UNL A   1      38.811  29.897  29.280  1.00  0.00     0.074 A 
ATOM     33  C   UNL A   1      41.141  28.952  30.245  1.00  0.00     0.049 A 
ATOM     34  N   UNL A   1      38.795  31.192  29.127  1.00  0.00    -0.248 NA
ATOM     35  C   UNL A   1      37.457  29.322  29.031  1.00  0.00     0.031 C 
ATOM     36  C   UNL A   1      42.120  27.842  30.385  1.00  0.00     0.029 A 
ATOM     37  N   UNL A   1      41.735  29.913  31.031  1.00  0.00    -0.354 N 
ATOM     38  C   UNL A   1      37.433  31.584  28.984  1.00  0.00     0.074 A 
ATOM     39  C   UNL A   1      36.687  30.383  28.778  1.00  0.00     0.031 C 
ATOM     40  C   UNL A   1      43.190  28.219  31.120  1.00  0.00     0.029 A 
ATOM     41  C   UNL A   1      43.033  29.603  31.515  1.00  0.00     0.049 A 
ATOM     42  H   UNL A   1      41.287  30.763  31.243  1.00  0.00     0.167 HD
ATOM     43  C   UNL A   1      36.985  32.859  29.203  1.00  0.00     0.034 A 
ATOM     44  C   UNL A   1      43.944  30.437  32.111  1.00  0.00     0.034 A 
ATOM     45  C   UNL A   1      38.072  33.666  29.642  1.00  0.00     0.049 A 
ATOM     46  C   UNL A   1      43.263  31.736  32.147  1.00  0.00     0.074 A 
ATOM     47  C   UNL A   1      39.031  34.437  29.047  1.00  0.00     0.029 A 
ATOM     48  N   UNL A   1      38.348  33.563  30.981  1.00  0.00    -0.354 N 
ATOM     49  N   UNL A   1      42.292  32.050  32.948  1.00  0.00    -0.248 NA
ATOM     50  C   UNL A   1      43.564  32.687  31.075  1.00  0.00     0.031 C 
ATOM     51  C   UNL A   1      40.054  34.547  30.019  1.00  0.00     0.029 A 
ATOM     52  C   UNL A   1      39.682  33.819  31.152  1.00  0.00     0.049 A 
ATOM     53  H   UNL A   1      37.702  33.342  31.692  1.00  0.00     0.167 HD
ATOM     54  C   UNL A   1      41.663  33.073  32.279  1.00  0.00     0.074 A 
ATOM     55  C   UNL A   1      42.614  33.581  31.314  1.00  0.00     0.031 C 
ATOM     56  C   UNL A   1      40.312  33.175  32.275  1.00  0.00     0.034 A 
BRANCH  43  57
ATOM     57  C   UNL A   1      35.613  33.509  29.360  1.00  0.00     0.023 A 
ATOM     58  C   UNL A   1      34.982  33.897  28.137  1.00  0.00     0.012 A 
ATOM     59  C   UNL A   1      35.066  34.035  30.543  1.00  0.00     0.148 A 
ATOM     60  C   UNL A   1      33.981  34.865  28.070  1.00  0.00     0.002 A 
ATOM     61  C   UNL A   1      34.017  34.967  30.475  1.00  0.00     0.091 A 
ATOM     62  F   UNL A   1      35.600  33.698  31.720  1.00  0.00    -0.205 F 
ATOM     63  C   UNL A   1      33.511  35.415  29.245  1.00  0.00     0.022 A 
BRANCH  61  64
ATOM     64  S   UNL A   1      33.233  35.681  31.928  1.00  0.00     0.127 S 
ATOM     65  O   UNL A   1      32.806  34.491  32.661  1.00  0.00    -0.237 OA
ATOM     66  O   UNL A   1      34.349  36.401  32.547  1.00  0.00    -0.237 OA
ATOM     67  O   UNL A   1      32.177  36.546  31.423  1.00  0.00    -0.744 OA
ENDBRANCH  61  64
ENDBRANCH  43  57
BRANCH  44  68
ATOM     68  C   UNL A   1      45.415  30.408  32.466  1.00  0.00     0.023 A 
ATOM     69  C   UNL A   1      45.916  30.525  33.771  1.00  0.00     0.012 A 
ATOM     70  C   UNL A   1      46.392  30.173  31.448  1.00  0.00     0.148 A 
ATOM     71  C   UNL A   1      47.282  30.306  34.053  1.00  0.00     0.002 A 
ATOM     72  C   UNL A   1      47.709  29.835  31.740  1.00  0.00     0.091 A 
ATOM     73  F   UNL A   1      46.054  30.313  30.161  1.00  0.00    -0.205 F 
ATOM     74  C   UNL A   1      48.168  29.910  33.050  1.00  0.00     0.022 A 
BRANCH  72  75
ATOM     75  S   UNL A   1      48.813  29.137  30.493  1.00  0.00     0.127 S 
ATOM     76  O   UNL A   1      49.989  28.776  31.280  1.00  0.00    -0.237 OA
ATOM     77  O   UNL A   1      48.026  28.002  30.009  1.00  0.00    -0.237 OA
ATOM     78  O   UNL A   1      49.027  30.184  29.501  1.00  0.00    -0.744 OA
ENDBRANCH  72  75
ENDBRANCH  44  68
BRANCH  56  79
ATOM     79  C   UNL A   1      39.607  32.300  33.315  1.00  0.00     0.023 A 
ATOM     80  C   UNL A   1      39.044  31.096  32.864  1.00  0.00     0.012 A 
ATOM     81  C   UNL A   1      39.382  32.657  34.672  1.00  0.00     0.148 A 
ATOM     82  C   UNL A   1      38.299  30.275  33.719  1.00  0.00     0.002 A 
ATOM     83  C   UNL A   1      38.631  31.843  35.526  1.00  0.00     0.091 A 
ATOM     84  F   UNL A   1      39.910  33.789  35.128  1.00  0.00    -0.205 F 
ATOM     85  C   UNL A   1      38.094  30.644  35.045  1.00  0.00     0.022 A 
BRANCH  83  86
ATOM     86  S   UNL A   1      38.237  32.273  37.239  1.00  0.00     0.127 S 
ATOM     87  O   UNL A   1      37.435  31.127  37.674  1.00  0.00    -0.237 OA
ATOM     88  O   UNL A   1      39.562  32.340  37.849  1.00  0.00    -0.237 OA
ATOM     89  O   UNL A   1      37.501  33.532  37.195  1.00  0.00    -0.744 OA
ENDBRANCH  83  86
ENDBRANCH  56  79
ENDBRANCH  30  31
ENDBRANCH  22  25
ENDBRANCH  20  21
ENDBRANCH  19  20
ENDBRANCH   1  19
TORSDOF 19
ENDMDL
