MODEL 1
REMARK VINA RESULT:     -11.8      0.000      0.000
REMARK SMILES CC(C)[NH2+][C@@]1(C(=O)NCCCNC(=O)c2ccc(-c3c4nc(c(-c5cccc(S(=O)(=O)[O-])c5F)c5ccc([nH]5)c(-c5cccc(S(=O)(=O)[O-])c5F)c5nc(c(-c6cccc(S(=O)(=O)[O-])c6F)c6ccc3[nH]6)C=C5)C=C4)cc2)CC[C@@H](Sc2ccncc2)C1
REMARK SMILES IDX 10 1 9 2 8 3 6 4 7 5 5 7 78 8 88 9 79 10 80 11 4 12 2 15
REMARK SMILES IDX 1 16 3 17 81 18 82 19 83 20 87 21 84 22 86 23 85 24 11 25
REMARK SMILES IDX 12 26 13 27 14 29 15 30 16 31 77 32 17 33 76 34 18 35 19 36
REMARK SMILES IDX 20 37 70 38 21 39 75 40 69 41 71 42 22 43 74 44 68 45 67 46
REMARK SMILES IDX 23 48 55 49 35 50 54 51 36 52 39 53 53 54 72 55 37 56 38 57
REMARK SMILES IDX 52 59 73 60 40 61 24 62 25 63 33 64 26 65 28 66 34 67 27 68
REMARK SMILES IDX 29 69 30 70 31 71 32 72 56 73 57 74 65 75 58 76 60 77 66 78
REMARK SMILES IDX 59 79 61 80 62 81 63 82 64 83 41 84 42 85 50 86 43 87 45 88
REMARK SMILES IDX 51 89 44 90 46 91 47 92 48 93 49 94
REMARK H PARENT 8 6 4 13 4 14 12 28 71 47 39 58
REMARK Flexibility Score: inf
ROOT
ATOM      1  C   UNL A   1      38.182  19.686  25.007  1.00  0.00     0.042 C 
ENDROOT
BRANCH   1   2
ATOM      2  C   UNL A   1      37.184  20.777  24.650  1.00  0.00     0.118 C 
BRANCH   2   3
ATOM      3  N   UNL A   1      37.517  22.045  25.247  1.00  0.00    -0.351 N 
ATOM      4  C   UNL A   1      36.764  23.055  25.752  1.00  0.00     0.281 C 
ATOM      5  O   UNL A   1      37.436  24.000  26.191  1.00  0.00    -0.268 OA
ATOM      6  H   UNL A   1      38.486  22.212  25.300  1.00  0.00     0.163 HD
BRANCH   4   7
ATOM      7  C   UNL A   1      35.177  23.085  25.735  1.00  0.00     0.176 C 
ATOM      8  C   UNL A   1      34.444  22.790  27.051  1.00  0.00     0.080 C 
ATOM      9  C   UNL A   1      34.663  22.013  24.743  1.00  0.00     0.094 C 
ATOM     10  C   UNL A   1      33.790  21.413  26.976  1.00  0.00     0.022 C 
ATOM     11  C   UNL A   1      34.018  20.893  25.563  1.00  0.00     0.058 C 
BRANCH   7  12
ATOM     12  N   UNL A   1      34.740  24.417  25.212  1.00  0.00    -0.332 N 
ATOM     13  H   UNL A   1      35.469  25.091  25.447  1.00  0.00     0.347 HD
ATOM     14  H   UNL A   1      34.587  24.265  24.215  1.00  0.00     0.347 HD
BRANCH  12  15
ATOM     15  C   UNL A   1      33.464  24.962  25.704  1.00  0.00     0.176 C 
ATOM     16  C   UNL A   1      33.681  26.457  25.958  1.00  0.00     0.075 C 
ATOM     17  C   UNL A   1      32.309  24.797  24.710  1.00  0.00     0.075 C 
ENDBRANCH  12  15
ENDBRANCH   7  12
BRANCH  11  18
ATOM     18  S   UNL A   1      32.540  20.134  24.773  1.00  0.00    -0.122 SA
BRANCH  18  19
ATOM     19  C   UNL A   1      32.999  18.414  24.696  1.00  0.00     0.011 A 
ATOM     20  C   UNL A   1      33.687  17.900  23.603  1.00  0.00     0.035 A 
ATOM     21  C   UNL A   1      32.663  17.563  25.749  1.00  0.00     0.035 A 
ATOM     22  C   UNL A   1      33.959  16.544  23.580  1.00  0.00     0.112 A 
ATOM     23  C   UNL A   1      32.975  16.221  25.630  1.00  0.00     0.112 A 
ATOM     24  N   UNL A   1      33.602  15.687  24.560  1.00  0.00    -0.265 NA
ENDBRANCH  18  19
ENDBRANCH  11  18
ENDBRANCH   4   7
ENDBRANCH   2   3
ENDBRANCH   1   2
BRANCH   1  25
ATOM     25  C   UNL A   1      39.314  20.198  25.884  1.00  0.00     0.118 C 
BRANCH  25  26
ATOM     26  N   UNL A   1      40.371  19.200  26.041  1.00  0.00    -0.352 N 
ATOM     27  C   UNL A   1      41.729  19.356  26.135  1.00  0.00     0.251 C 
ATOM     28  H   UNL A   1      40.057  18.269  26.087  1.00  0.00     0.163 HD
ATOM     29  O   UNL A   1      42.460  18.374  26.002  1.00  0.00    -0.269 OA
BRANCH  27  30
ATOM     30  C   UNL A   1      42.308  20.687  26.392  1.00  0.00     0.039 A 
ATOM     31  C   UNL A   1      42.617  21.521  25.314  1.00  0.00     0.014 A 
ATOM     32  C   UNL A   1      42.561  21.107  27.699  1.00  0.00     0.014 A 
ATOM     33  C   UNL A   1      43.126  22.797  25.556  1.00  0.00     0.010 A 
ATOM     34  C   UNL A   1      42.955  22.413  27.941  1.00  0.00     0.010 A 
ATOM     35  C   UNL A   1      43.266  23.265  26.873  1.00  0.00    -0.014 A 
BRANCH  35  36
ATOM     36  C   UNL A   1      43.750  24.636  27.166  1.00  0.00     0.031 A 
ATOM     37  C   UNL A   1      42.794  25.673  27.692  1.00  0.00     0.074 A 
ATOM     38  C   UNL A   1      45.020  24.968  26.868  1.00  0.00     0.049 A 
ATOM     39  N   UNL A   1      43.010  26.937  27.947  1.00  0.00    -0.248 NA
ATOM     40  C   UNL A   1      41.404  25.245  27.924  1.00  0.00     0.031 C 
ATOM     41  C   UNL A   1      46.014  24.069  26.275  1.00  0.00     0.029 A 
ATOM     42  N   UNL A   1      45.687  26.159  26.999  1.00  0.00    -0.354 N 
ATOM     43  C   UNL A   1      41.778  27.462  28.323  1.00  0.00     0.074 A 
ATOM     44  C   UNL A   1      40.812  26.393  28.217  1.00  0.00     0.031 C 
ATOM     45  C   UNL A   1      47.168  24.734  26.115  1.00  0.00     0.029 A 
ATOM     46  C   UNL A   1      46.987  26.113  26.556  1.00  0.00     0.049 A 
ATOM     47  H   UNL A   1      45.274  26.968  27.377  1.00  0.00     0.167 HD
ATOM     48  C   UNL A   1      41.483  28.713  28.750  1.00  0.00     0.034 A 
ATOM     49  C   UNL A   1      47.926  27.076  26.507  1.00  0.00     0.034 A 
ATOM     50  C   UNL A   1      42.461  29.756  28.891  1.00  0.00     0.049 A 
ATOM     51  C   UNL A   1      47.586  28.448  27.021  1.00  0.00     0.074 A 
ATOM     52  C   UNL A   1      42.293  31.029  29.407  1.00  0.00     0.029 A 
ATOM     53  N   UNL A   1      43.787  29.653  28.500  1.00  0.00    -0.354 N 
ATOM     54  N   UNL A   1      46.458  28.884  27.525  1.00  0.00    -0.248 NA
ATOM     55  C   UNL A   1      48.660  29.450  26.992  1.00  0.00     0.031 C 
ATOM     56  C   UNL A   1      43.511  31.707  29.292  1.00  0.00     0.029 A 
ATOM     57  C   UNL A   1      44.448  30.845  28.745  1.00  0.00     0.049 A 
ATOM     58  H   UNL A   1      44.199  28.851  28.106  1.00  0.00     0.167 HD
ATOM     59  C   UNL A   1      46.693  30.199  27.907  1.00  0.00     0.074 A 
ATOM     60  C   UNL A   1      48.079  30.481  27.591  1.00  0.00     0.031 C 
ATOM     61  C   UNL A   1      45.839  31.095  28.461  1.00  0.00     0.034 A 
BRANCH  48  62
ATOM     62  C   UNL A   1      40.052  29.000  29.126  1.00  0.00     0.023 A 
ATOM     63  C   UNL A   1      39.094  29.234  28.117  1.00  0.00     0.012 A 
ATOM     64  C   UNL A   1      39.648  29.018  30.475  1.00  0.00     0.148 A 
ATOM     65  C   UNL A   1      37.772  29.536  28.445  1.00  0.00     0.002 A 
ATOM     66  C   UNL A   1      38.317  29.266  30.793  1.00  0.00     0.091 A 
ATOM     67  F   UNL A   1      40.574  28.816  31.424  1.00  0.00    -0.205 F 
ATOM     68  C   UNL A   1      37.383  29.541  29.782  1.00  0.00     0.022 A 
BRANCH  66  69
ATOM     69  S   UNL A   1      37.699  29.212  32.478  1.00  0.00     0.127 S 
ATOM     70  O   UNL A   1      36.327  29.685  32.304  1.00  0.00    -0.237 OA
ATOM     71  O   UNL A   1      37.817  27.789  32.802  1.00  0.00    -0.237 OA
ATOM     72  O   UNL A   1      38.570  30.083  33.253  1.00  0.00    -0.744 OA
ENDBRANCH  66  69
ENDBRANCH  48  62
BRANCH  49  73
ATOM     73  C   UNL A   1      49.297  26.749  26.024  1.00  0.00     0.023 A 
ATOM     74  C   UNL A   1      50.147  25.975  26.837  1.00  0.00     0.012 A 
ATOM     75  C   UNL A   1      49.743  27.153  24.751  1.00  0.00     0.148 A 
ATOM     76  C   UNL A   1      51.428  25.631  26.403  1.00  0.00     0.002 A 
ATOM     77  C   UNL A   1      50.999  26.761  24.302  1.00  0.00     0.091 A 
ATOM     78  F   UNL A   1      48.917  27.890  23.994  1.00  0.00    -0.205 F 
ATOM     79  C   UNL A   1      51.850  26.015  25.134  1.00  0.00     0.022 A 
BRANCH  77  80
ATOM     80  S   UNL A   1      51.580  27.096  22.636  1.00  0.00     0.127 S 
ATOM     81  O   UNL A   1      51.895  28.521  22.711  1.00  0.00    -0.237 OA
ATOM     82  O   UNL A   1      52.743  26.212  22.544  1.00  0.00    -0.237 OA
ATOM     83  O   UNL A   1      50.479  26.741  21.753  1.00  0.00    -0.744 OA
ENDBRANCH  77  80
ENDBRANCH  49  73
BRANCH  61  84
ATOM     84  C   UNL A   1      46.382  32.458  28.802  1.00  0.00     0.023 A 
ATOM     85  C   UNL A   1      46.941  32.697  30.073  1.00  0.00     0.012 A 
ATOM     86  C   UNL A   1      46.404  33.480  27.833  1.00  0.00     0.148 A 
ATOM     87  C   UNL A   1      47.482  33.943  30.386  1.00  0.00     0.002 A 
ATOM     88  C   UNL A   1      46.994  34.701  28.133  1.00  0.00     0.091 A 
ATOM     89  F   UNL A   1      45.851  33.237  26.635  1.00  0.00    -0.205 F 
ATOM     90  C   UNL A   1      47.521  34.940  29.413  1.00  0.00     0.022 A 
BRANCH  88  91
ATOM     91  S   UNL A   1      47.181  36.006  26.912  1.00  0.00     0.127 S 
ATOM     92  O   UNL A   1      45.790  36.366  26.646  1.00  0.00    -0.237 OA
ATOM     93  O   UNL A   1      47.941  37.014  27.652  1.00  0.00    -0.237 OA
ATOM     94  O   UNL A   1      47.896  35.411  25.792  1.00  0.00    -0.744 OA
ENDBRANCH  88  91
ENDBRANCH  61  84
ENDBRANCH  35  36
ENDBRANCH  27  30
ENDBRANCH  25  26
ENDBRANCH   1  25
TORSDOF 17
ENDMDL
MODEL 2
REMARK VINA RESULT:     -11.7      1.378      1.860
REMARK SMILES CC(C)[NH2+][C@@]1(C(=O)NCCCNC(=O)c2ccc(-c3c4nc(c(-c5cccc(S(=O)(=O)[O-])c5F)c5ccc([nH]5)c(-c5cccc(S(=O)(=O)[O-])c5F)c5nc(c(-c6cccc(S(=O)(=O)[O-])c6F)c6ccc3[nH]6)C=C5)C=C4)cc2)CC[C@@H](Sc2ccncc2)C1
REMARK SMILES IDX 10 1 9 2 8 3 6 4 7 5 5 7 78 8 88 9 79 10 80 11 4 12 2 15
REMARK SMILES IDX 1 16 3 17 81 18 82 19 83 20 87 21 84 22 86 23 85 24 11 25
REMARK SMILES IDX 12 26 13 27 14 29 15 30 16 31 77 32 17 33 76 34 18 35 19 36
REMARK SMILES IDX 20 37 70 38 21 39 75 40 69 41 71 42 22 43 74 44 68 45 67 46
REMARK SMILES IDX 23 48 55 49 35 50 54 51 36 52 39 53 53 54 72 55 37 56 38 57
REMARK SMILES IDX 52 59 73 60 40 61 24 62 25 63 33 64 26 65 28 66 34 67 27 68
REMARK SMILES IDX 29 69 30 70 31 71 32 72 56 73 57 74 65 75 58 76 60 77 66 78
REMARK SMILES IDX 59 79 61 80 62 81 63 82 64 83 41 84 42 85 50 86 43 87 45 88
REMARK SMILES IDX 51 89 44 90 46 91 47 92 48 93 49 94
REMARK H PARENT 8 6 4 13 4 14 12 28 71 47 39 58
REMARK Flexibility Score: inf
ROOT
ATOM      1  C   UNL A   1      38.129  19.617  24.833  1.00  0.00     0.042 C 
ENDROOT
BRANCH   1   2
ATOM      2  C   UNL A   1      37.234  20.791  24.470  1.00  0.00     0.118 C 
BRANCH   2   3
ATOM      3  N   UNL A   1      37.567  21.985  25.204  1.00  0.00    -0.351 N 
ATOM      4  C   UNL A   1      36.813  22.975  25.750  1.00  0.00     0.281 C 
ATOM      5  O   UNL A   1      37.484  23.848  26.320  1.00  0.00    -0.268 OA
ATOM      6  H   UNL A   1      38.534  22.107  25.339  1.00  0.00     0.163 HD
BRANCH   4   7
ATOM      7  C   UNL A   1      35.234  23.071  25.626  1.00  0.00     0.176 C 
ATOM      8  C   UNL A   1      34.407  22.896  26.908  1.00  0.00     0.080 C 
ATOM      9  C   UNL A   1      34.734  21.958  24.673  1.00  0.00     0.094 C 
ATOM     10  C   UNL A   1      33.696  21.546  26.877  1.00  0.00     0.022 C 
ATOM     11  C   UNL A   1      33.987  20.923  25.520  1.00  0.00     0.058 C 
BRANCH   7  12
ATOM     12  N   UNL A   1      34.894  24.383  24.992  1.00  0.00    -0.332 N 
ATOM     13  H   UNL A   1      35.542  25.078  25.361  1.00  0.00     0.347 HD
ATOM     14  H   UNL A   1      34.960  24.208  23.989  1.00  0.00     0.347 HD
BRANCH  12  15
ATOM     15  C   UNL A   1      33.532  24.906  25.187  1.00  0.00     0.176 C 
ATOM     16  C   UNL A   1      33.670  26.325  25.748  1.00  0.00     0.075 C 
ATOM     17  C   UNL A   1      32.714  24.970  23.892  1.00  0.00     0.075 C 
ENDBRANCH  12  15
ENDBRANCH   7  12
BRANCH  11  18
ATOM     18  S   UNL A   1      32.528  20.177  24.683  1.00  0.00    -0.122 SA
BRANCH  18  19
ATOM     19  C   UNL A   1      32.952  18.446  24.665  1.00  0.00     0.011 A 
ATOM     20  C   UNL A   1      32.629  17.615  25.732  1.00  0.00     0.035 A 
ATOM     21  C   UNL A   1      33.620  17.912  23.565  1.00  0.00     0.035 A 
ATOM     22  C   UNL A   1      33.041  16.295  25.681  1.00  0.00     0.112 A 
ATOM     23  C   UNL A   1      33.994  16.580  23.610  1.00  0.00     0.112 A 
ATOM     24  N   UNL A   1      33.733  15.761  24.652  1.00  0.00    -0.265 NA
ENDBRANCH  18  19
ENDBRANCH  11  18
ENDBRANCH   4   7
ENDBRANCH   2   3
ENDBRANCH   1   2
BRANCH   1  25
ATOM     25  C   UNL A   1      38.937  19.870  26.096  1.00  0.00     0.118 C 
BRANCH  25  26
ATOM     26  N   UNL A   1      40.159  19.069  26.126  1.00  0.00    -0.352 N 
ATOM     27  C   UNL A   1      41.473  19.458  26.159  1.00  0.00     0.251 C 
ATOM     28  H   UNL A   1      40.016  18.095  26.123  1.00  0.00     0.163 HD
ATOM     29  O   UNL A   1      42.354  18.631  25.919  1.00  0.00    -0.269 OA
BRANCH  27  30
ATOM     30  C   UNL A   1      41.827  20.853  26.478  1.00  0.00     0.039 A 
ATOM     31  C   UNL A   1      42.279  21.170  27.762  1.00  0.00     0.014 A 
ATOM     32  C   UNL A   1      41.696  21.853  25.513  1.00  0.00     0.014 A 
ATOM     33  C   UNL A   1      42.653  22.482  28.054  1.00  0.00     0.010 A 
ATOM     34  C   UNL A   1      42.177  23.127  25.768  1.00  0.00     0.010 A 
ATOM     35  C   UNL A   1      42.638  23.463  27.048  1.00  0.00    -0.014 A 
BRANCH  35  36
ATOM     36  C   UNL A   1      43.083  24.853  27.308  1.00  0.00     0.031 A 
ATOM     37  C   UNL A   1      42.152  25.828  27.977  1.00  0.00     0.074 A 
ATOM     38  C   UNL A   1      44.285  25.259  26.857  1.00  0.00     0.049 A 
ATOM     39  N   UNL A   1      42.332  27.097  28.233  1.00  0.00    -0.248 NA
ATOM     40  C   UNL A   1      40.828  25.320  28.377  1.00  0.00     0.031 C 
ATOM     41  C   UNL A   1      45.238  24.426  26.119  1.00  0.00     0.029 A 
ATOM     42  N   UNL A   1      44.900  26.482  26.929  1.00  0.00    -0.354 N 
ATOM     43  C   UNL A   1      41.135  27.547  28.777  1.00  0.00     0.074 A 
ATOM     44  C   UNL A   1      40.220  26.429  28.771  1.00  0.00     0.031 C 
ATOM     45  C   UNL A   1      46.326  25.155  25.827  1.00  0.00     0.029 A 
ATOM     46  C   UNL A   1      46.132  26.515  26.321  1.00  0.00     0.049 A 
ATOM     47  H   UNL A   1      44.498  27.262  27.376  1.00  0.00     0.167 HD
ATOM     48  C   UNL A   1      40.833  28.772  29.268  1.00  0.00     0.034 A 
ATOM     49  C   UNL A   1      47.006  27.529  26.173  1.00  0.00     0.034 A 
ATOM     50  C   UNL A   1      41.765  29.866  29.306  1.00  0.00     0.049 A 
ATOM     51  C   UNL A   1      46.665  28.872  26.759  1.00  0.00     0.074 A 
ATOM     52  C   UNL A   1      41.600  31.118  29.870  1.00  0.00     0.029 A 
ATOM     53  N   UNL A   1      43.033  29.842  28.745  1.00  0.00    -0.354 N 
ATOM     54  N   UNL A   1      45.590  29.236  27.415  1.00  0.00    -0.248 NA
ATOM     55  C   UNL A   1      47.671  29.931  26.616  1.00  0.00     0.031 C 
ATOM     56  C   UNL A   1      42.755  31.864  29.614  1.00  0.00     0.029 A 
ATOM     57  C   UNL A   1      43.657  31.063  28.930  1.00  0.00     0.049 A 
ATOM     58  H   UNL A   1      43.431  29.070  28.282  1.00  0.00     0.167 HD
ATOM     59  C   UNL A   1      45.804  30.555  27.795  1.00  0.00     0.074 A 
ATOM     60  C   UNL A   1      47.121  30.919  27.309  1.00  0.00     0.031 C 
ATOM     61  C   UNL A   1      44.984  31.394  28.475  1.00  0.00     0.034 A 
BRANCH  48  62
ATOM     62  C   UNL A   1      39.450  28.975  29.832  1.00  0.00     0.023 A 
ATOM     63  C   UNL A   1      39.146  28.513  31.131  1.00  0.00     0.012 A 
ATOM     64  C   UNL A   1      38.456  29.640  29.089  1.00  0.00     0.148 A 
ATOM     65  C   UNL A   1      37.863  28.660  31.657  1.00  0.00     0.002 A 
ATOM     66  C   UNL A   1      37.194  29.830  29.642  1.00  0.00     0.091 A 
ATOM     67  F   UNL A   1      38.752  30.053  27.848  1.00  0.00    -0.205 F 
ATOM     68  C   UNL A   1      36.891  29.327  30.917  1.00  0.00     0.022 A 
BRANCH  66  69
ATOM     69  S   UNL A   1      35.901  30.751  28.803  1.00  0.00     0.127 S 
ATOM     70  O   UNL A   1      35.225  29.692  28.053  1.00  0.00    -0.237 OA
ATOM     71  O   UNL A   1      35.131  31.289  29.925  1.00  0.00    -0.237 OA
ATOM     72  O   UNL A   1      36.581  31.754  27.997  1.00  0.00    -0.744 OA
ENDBRANCH  66  69
ENDBRANCH  48  62
BRANCH  49  73
ATOM     73  C   UNL A   1      48.317  27.286  25.510  1.00  0.00     0.023 A 
ATOM     74  C   UNL A   1      49.400  26.813  26.276  1.00  0.00     0.012 A 
ATOM     75  C   UNL A   1      48.484  27.468  24.123  1.00  0.00     0.148 A 
ATOM     76  C   UNL A   1      50.633  26.552  25.680  1.00  0.00     0.002 A 
ATOM     77  C   UNL A   1      49.699  27.154  23.526  1.00  0.00     0.091 A 
ATOM     78  F   UNL A   1      47.440  27.919  23.414  1.00  0.00    -0.205 F 
ATOM     79  C   UNL A   1      50.780  26.713  24.305  1.00  0.00     0.022 A 
BRANCH  77  80
ATOM     80  S   UNL A   1      49.946  27.205  21.748  1.00  0.00     0.127 S 
ATOM     81  O   UNL A   1      48.910  26.291  21.276  1.00  0.00    -0.237 OA
ATOM     82  O   UNL A   1      49.703  28.618  21.455  1.00  0.00    -0.237 OA
ATOM     83  O   UNL A   1      51.318  26.770  21.526  1.00  0.00    -0.744 OA
ENDBRANCH  77  80
ENDBRANCH  49  73
BRANCH  61  84
ATOM     84  C   UNL A   1      45.495  32.779  28.776  1.00  0.00     0.023 A 
ATOM     85  C   UNL A   1      46.286  33.006  29.919  1.00  0.00     0.012 A 
ATOM     86  C   UNL A   1      45.251  33.839  27.881  1.00  0.00     0.148 A 
ATOM     87  C   UNL A   1      46.797  34.275  30.186  1.00  0.00     0.002 A 
ATOM     88  C   UNL A   1      45.809  35.087  28.124  1.00  0.00     0.091 A 
ATOM     89  F   UNL A   1      44.481  33.605  26.808  1.00  0.00    -0.205 F 
ATOM     90  C   UNL A   1      46.570  35.312  29.283  1.00  0.00     0.022 A 
BRANCH  88  91
ATOM     91  S   UNL A   1      45.656  36.452  26.965  1.00  0.00     0.127 S 
ATOM     92  O   UNL A   1      46.305  35.907  25.775  1.00  0.00    -0.237 OA
ATOM     93  O   UNL A   1      44.204  36.600  26.854  1.00  0.00    -0.237 OA
ATOM     94  O   UNL A   1      46.334  37.583  27.583  1.00  0.00    -0.744 OA
ENDBRANCH  88  91
ENDBRANCH  61  84
ENDBRANCH  35  36
ENDBRANCH  27  30
ENDBRANCH  25  26
ENDBRANCH   1  25
TORSDOF 17
ENDMDL
MODEL 3
REMARK VINA RESULT:     -11.7      5.998      8.723
REMARK SMILES CC(C)[NH2+][C@@]1(C(=O)NCCCNC(=O)c2ccc(-c3c4nc(c(-c5cccc(S(=O)(=O)[O-])c5F)c5ccc([nH]5)c(-c5cccc(S(=O)(=O)[O-])c5F)c5nc(c(-c6cccc(S(=O)(=O)[O-])c6F)c6ccc3[nH]6)C=C5)C=C4)cc2)CC[C@@H](Sc2ccncc2)C1
REMARK SMILES IDX 10 1 9 2 8 3 6 4 7 5 5 7 78 8 88 9 79 10 80 11 4 12 2 15
REMARK SMILES IDX 1 16 3 17 81 18 82 19 83 20 87 21 84 22 86 23 85 24 11 25
REMARK SMILES IDX 12 26 13 27 14 29 15 30 16 31 77 32 17 33 76 34 18 35 19 36
REMARK SMILES IDX 20 37 70 38 21 39 75 40 69 41 71 42 22 43 74 44 68 45 67 46
REMARK SMILES IDX 23 48 55 49 35 50 54 51 36 52 39 53 53 54 72 55 37 56 38 57
REMARK SMILES IDX 52 59 73 60 40 61 24 62 25 63 33 64 26 65 28 66 34 67 27 68
REMARK SMILES IDX 29 69 30 70 31 71 32 72 56 73 57 74 65 75 58 76 60 77 66 78
REMARK SMILES IDX 59 79 61 80 62 81 63 82 64 83 41 84 42 85 50 86 43 87 45 88
REMARK SMILES IDX 51 89 44 90 46 91 47 92 48 93 49 94
REMARK H PARENT 8 6 4 13 4 14 12 28 71 47 39 58
REMARK Flexibility Score: inf
ROOT
ATOM      1  C   UNL A   1      32.912  29.306  23.711  1.00  0.00     0.042 C 
ENDROOT
BRANCH   1   2
ATOM      2  C   UNL A   1      34.025  28.623  22.932  1.00  0.00     0.118 C 
BRANCH   2   3
ATOM      3  N   UNL A   1      33.521  27.729  21.921  1.00  0.00    -0.351 N 
ATOM      4  C   UNL A   1      33.030  26.464  21.967  1.00  0.00     0.281 C 
ATOM      5  O   UNL A   1      32.685  26.028  20.858  1.00  0.00    -0.268 OA
ATOM      6  H   UNL A   1      33.535  28.113  21.014  1.00  0.00     0.163 HD
BRANCH   4   7
ATOM      7  C   UNL A   1      32.956  25.579  23.282  1.00  0.00     0.176 C 
ATOM      8  C   UNL A   1      34.271  25.286  24.019  1.00  0.00     0.080 C 
ATOM      9  C   UNL A   1      32.381  24.187  22.922  1.00  0.00     0.094 C 
ATOM     10  C   UNL A   1      34.657  23.824  23.815  1.00  0.00     0.022 C 
ATOM     11  C   UNL A   1      33.519  23.170  23.044  1.00  0.00     0.058 C 
BRANCH   7  12
ATOM     12  N   UNL A   1      31.992  26.225  24.227  1.00  0.00    -0.332 N 
ATOM     13  H   UNL A   1      32.199  25.875  25.162  1.00  0.00     0.347 HD
ATOM     14  H   UNL A   1      32.131  27.226  24.091  1.00  0.00     0.347 HD
BRANCH  12  15
ATOM     15  C   UNL A   1      30.555  26.015  23.989  1.00  0.00     0.176 C 
ATOM     16  C   UNL A   1      29.931  25.608  25.328  1.00  0.00     0.075 C 
ATOM     17  C   UNL A   1      29.834  27.266  23.474  1.00  0.00     0.075 C 
ENDBRANCH  12  15
ENDBRANCH   7  12
BRANCH  11  18
ATOM     18  S   UNL A   1      32.996  21.526  23.684  1.00  0.00    -0.122 SA
BRANCH  18  19
ATOM     19  C   UNL A   1      32.931  21.813  25.442  1.00  0.00     0.011 A 
ATOM     20  C   UNL A   1      31.882  22.523  26.017  1.00  0.00     0.035 A 
ATOM     21  C   UNL A   1      33.947  21.320  26.259  1.00  0.00     0.035 A 
ATOM     22  C   UNL A   1      31.924  22.762  27.379  1.00  0.00     0.112 A 
ATOM     23  C   UNL A   1      33.902  21.616  27.610  1.00  0.00     0.112 A 
ATOM     24  N   UNL A   1      32.920  22.341  28.188  1.00  0.00    -0.265 NA
ENDBRANCH  18  19
ENDBRANCH  11  18
ENDBRANCH   4   7
ENDBRANCH   2   3
ENDBRANCH   1   2
BRANCH   1  25
ATOM     25  C   UNL A   1      33.216  29.401  25.198  1.00  0.00     0.118 C 
BRANCH  25  26
ATOM     26  N   UNL A   1      32.804  30.689  25.754  1.00  0.00    -0.352 N 
ATOM     27  C   UNL A   1      33.233  31.347  26.876  1.00  0.00     0.251 C 
ATOM     28  H   UNL A   1      32.108  31.157  25.240  1.00  0.00     0.163 HD
ATOM     29  O   UNL A   1      32.577  32.295  27.309  1.00  0.00    -0.269 OA
BRANCH  27  30
ATOM     30  C   UNL A   1      34.469  30.923  27.559  1.00  0.00     0.039 A 
ATOM     31  C   UNL A   1      35.475  31.862  27.804  1.00  0.00     0.014 A 
ATOM     32  C   UNL A   1      34.643  29.592  27.943  1.00  0.00     0.014 A 
ATOM     33  C   UNL A   1      36.628  31.472  28.487  1.00  0.00     0.010 A 
ATOM     34  C   UNL A   1      35.732  29.234  28.721  1.00  0.00     0.010 A 
ATOM     35  C   UNL A   1      36.749  30.162  28.981  1.00  0.00    -0.014 A 
BRANCH  35  36
ATOM     36  C   UNL A   1      37.934  29.730  29.760  1.00  0.00     0.031 A 
ATOM     37  C   UNL A   1      38.161  30.272  31.145  1.00  0.00     0.074 A 
ATOM     38  C   UNL A   1      38.849  28.928  29.183  1.00  0.00     0.049 A 
ATOM     39  N   UNL A   1      39.165  30.065  31.956  1.00  0.00    -0.248 NA
ATOM     40  C   UNL A   1      37.147  31.200  31.674  1.00  0.00     0.031 C 
ATOM     41  C   UNL A   1      38.778  28.409  27.814  1.00  0.00     0.029 A 
ATOM     42  N   UNL A   1      40.031  28.429  29.666  1.00  0.00    -0.354 N 
ATOM     43  C   UNL A   1      38.927  30.869  33.065  1.00  0.00     0.074 A 
ATOM     44  C   UNL A   1      37.710  31.602  32.803  1.00  0.00     0.031 C 
ATOM     45  C   UNL A   1      39.856  27.647  27.576  1.00  0.00     0.029 A 
ATOM     46  C   UNL A   1      40.714  27.655  28.757  1.00  0.00     0.049 A 
ATOM     47  H   UNL A   1      40.359  28.608  30.576  1.00  0.00     0.167 HD
ATOM     48  C   UNL A   1      39.639  30.964  34.213  1.00  0.00     0.034 A 
ATOM     49  C   UNL A   1      41.900  27.027  28.864  1.00  0.00     0.034 A 
ATOM     50  C   UNL A   1      40.827  30.199  34.478  1.00  0.00     0.049 A 
ATOM     51  C   UNL A   1      42.655  27.117  30.161  1.00  0.00     0.074 A 
ATOM     52  C   UNL A   1      41.571  30.142  35.643  1.00  0.00     0.029 A 
ATOM     53  N   UNL A   1      41.451  29.368  33.561  1.00  0.00    -0.354 N 
ATOM     54  N   UNL A   1      42.333  27.755  31.260  1.00  0.00    -0.248 NA
ATOM     55  C   UNL A   1      43.919  26.374  30.244  1.00  0.00     0.031 C 
ATOM     56  C   UNL A   1      42.668  29.305  35.415  1.00  0.00     0.029 A 
ATOM     57  C   UNL A   1      42.584  28.806  34.124  1.00  0.00     0.049 A 
ATOM     58  H   UNL A   1      41.136  29.201  32.644  1.00  0.00     0.167 HD
ATOM     59  C   UNL A   1      43.334  27.461  32.178  1.00  0.00     0.074 A 
ATOM     60  C   UNL A   1      44.263  26.573  31.509  1.00  0.00     0.031 C 
ATOM     61  C   UNL A   1      43.476  27.893  33.456  1.00  0.00     0.034 A 
BRANCH  48  62
ATOM     62  C   UNL A   1      39.127  31.905  35.273  1.00  0.00     0.023 A 
ATOM     63  C   UNL A   1      39.289  33.298  35.115  1.00  0.00     0.012 A 
ATOM     64  C   UNL A   1      38.467  31.416  36.417  1.00  0.00     0.148 A 
ATOM     65  C   UNL A   1      38.853  34.183  36.101  1.00  0.00     0.002 A 
ATOM     66  C   UNL A   1      37.987  32.307  37.370  1.00  0.00     0.091 A 
ATOM     67  F   UNL A   1      38.340  30.089  36.565  1.00  0.00    -0.205 F 
ATOM     68  C   UNL A   1      38.193  33.688  37.222  1.00  0.00     0.022 A 
BRANCH  66  69
ATOM     69  S   UNL A   1      37.050  31.775  38.806  1.00  0.00     0.127 S 
ATOM     70  O   UNL A   1      35.860  32.619  38.711  1.00  0.00    -0.237 OA
ATOM     71  O   UNL A   1      36.818  30.359  38.514  1.00  0.00    -0.237 OA
ATOM     72  O   UNL A   1      37.905  32.023  39.957  1.00  0.00    -0.744 OA
ENDBRANCH  66  69
ENDBRANCH  48  62
BRANCH  49  73
ATOM     73  C   UNL A   1      42.400  26.195  27.734  1.00  0.00     0.023 A 
ATOM     74  C   UNL A   1      43.356  26.734  26.852  1.00  0.00     0.012 A 
ATOM     75  C   UNL A   1      41.976  24.863  27.559  1.00  0.00     0.148 A 
ATOM     76  C   UNL A   1      43.862  25.972  25.799  1.00  0.00     0.002 A 
ATOM     77  C   UNL A   1      42.525  24.091  26.541  1.00  0.00     0.091 A 
ATOM     78  F   UNL A   1      41.065  24.371  28.410  1.00  0.00    -0.205 F 
ATOM     79  C   UNL A   1      43.454  24.649  25.649  1.00  0.00     0.022 A 
BRANCH  77  80
ATOM     80  S   UNL A   1      42.160  22.344  26.347  1.00  0.00     0.127 S 
ATOM     81  O   UNL A   1      40.713  22.360  26.152  1.00  0.00    -0.237 OA
ATOM     82  O   UNL A   1      42.940  22.008  25.155  1.00  0.00    -0.237 OA
ATOM     83  O   UNL A   1      42.622  21.704  27.571  1.00  0.00    -0.744 OA
ENDBRANCH  77  80
ENDBRANCH  49  73
BRANCH  61  84
ATOM     84  C   UNL A   1      44.660  27.383  34.237  1.00  0.00     0.023 A 
ATOM     85  C   UNL A   1      45.869  28.105  34.238  1.00  0.00     0.012 A 
ATOM     86  C   UNL A   1      44.544  26.224  35.030  1.00  0.00     0.148 A 
ATOM     87  C   UNL A   1      46.957  27.663  34.988  1.00  0.00     0.002 A 
ATOM     88  C   UNL A   1      45.614  25.820  35.818  1.00  0.00     0.091 A 
ATOM     89  F   UNL A   1      43.390  25.542  35.001  1.00  0.00    -0.205 F 
ATOM     90  C   UNL A   1      46.826  26.529  35.788  1.00  0.00     0.022 A 
BRANCH  88  91
ATOM     91  S   UNL A   1      45.502  24.434  36.956  1.00  0.00     0.127 S 
ATOM     92  O   UNL A   1      44.385  24.837  37.808  1.00  0.00    -0.237 OA
ATOM     93  O   UNL A   1      45.210  23.319  36.055  1.00  0.00    -0.237 OA
ATOM     94  O   UNL A   1      46.795  24.352  37.620  1.00  0.00    -0.744 OA
ENDBRANCH  88  91
ENDBRANCH  61  84
ENDBRANCH  35  36
ENDBRANCH  27  30
ENDBRANCH  25  26
ENDBRANCH   1  25
TORSDOF 17
ENDMDL
