MODEL 1
REMARK VINA RESULT:     -12.4      0.000      0.000
REMARK SMILES C[C@@H](NC(=O)[C@@H]1CC[C@@H]2CCCC[C@@H]2[NH2+]1)C(=O)NCCCNC(=O)c1ccc(-c2c3nc(c(-c4cccc(S(=O)(=O)[O-])c4F)c4ccc([nH]4)c(-c4cccc(S(=O)(=O)[O-])c4F)c4nc(c(-c5cccc(S(=O)(=O)[O-])c5F)c5ccc2[nH]5)C=C4)C=C3)cc1
REMARK SMILES IDX 20 1 19 2 18 3 16 4 17 5 2 7 1 8 3 9 4 10 5 12 6 13 7 14
REMARK SMILES IDX 15 15 8 16 14 17 9 20 13 21 10 22 12 23 11 24 21 25 22 26
REMARK SMILES IDX 23 27 24 29 25 30 26 31 87 32 27 33 86 34 28 35 29 36 30 37
REMARK SMILES IDX 80 38 31 39 85 40 79 41 81 42 32 43 84 44 78 45 77 46 33 48
REMARK SMILES IDX 65 49 45 50 64 51 46 52 49 53 63 54 82 55 47 56 48 57 62 59
REMARK SMILES IDX 83 60 50 61 34 62 35 63 43 64 36 65 38 66 44 67 37 68 39 69
REMARK SMILES IDX 40 70 41 71 42 72 66 73 67 74 75 75 68 76 70 77 76 78 69 79
REMARK SMILES IDX 71 80 72 81 73 82 74 83 51 84 52 85 60 86 53 87 55 88 61 89
REMARK SMILES IDX 54 90 56 91 57 92 58 93 59 94
REMARK H PARENT 18 6 3 11 15 18 15 19 22 28 81 47 49 58
REMARK Flexibility Score: inf
ROOT
ATOM      1  C   UNL A   1      34.790  22.415  27.111  1.00  0.00     0.042 C 
ENDROOT
BRANCH   1   2
ATOM      2  C   UNL A   1      33.491  21.673  26.736  1.00  0.00     0.117 C 
BRANCH   2   3
ATOM      3  N   UNL A   1      32.278  22.212  27.323  1.00  0.00    -0.354 N 
ATOM      4  C   UNL A   1      31.368  23.084  26.797  1.00  0.00     0.242 C 
ATOM      5  O   UNL A   1      30.314  23.254  27.416  1.00  0.00    -0.273 OA
ATOM      6  H   UNL A   1      32.082  21.903  28.237  1.00  0.00     0.163 HD
BRANCH   4   7
ATOM      7  C   UNL A   1      31.648  23.893  25.508  1.00  0.00     0.168 C 
ATOM      8  C   UNL A   1      31.115  23.089  24.312  1.00  0.00     0.041 C 
BRANCH   7   9
ATOM      9  N   UNL A   1      31.221  25.300  25.388  1.00  0.00    -0.339 N 
ATOM     10  C   UNL A   1      31.063  25.965  24.198  1.00  0.00     0.278 C 
ATOM     11  H   UNL A   1      31.038  25.795  26.218  1.00  0.00     0.164 HD
ATOM     12  O   UNL A   1      29.906  26.146  23.797  1.00  0.00    -0.268 OA
BRANCH  10  13
ATOM     13  C   UNL A   1      32.273  26.598  23.451  1.00  0.00     0.272 C 
ATOM     14  C   UNL A   1      33.646  26.225  23.977  1.00  0.00     0.076 C 
ATOM     15  N   UNL A   1      32.141  28.093  23.414  1.00  0.00    -0.333 N 
ATOM     16  C   UNL A   1      33.850  26.846  25.348  1.00  0.00     0.016 C 
ATOM     17  C   UNL A   1      32.605  28.845  24.612  1.00  0.00     0.186 C 
ATOM     18  H   UNL A   1      31.154  28.310  23.278  1.00  0.00     0.347 HD
ATOM     19  H   UNL A   1      32.758  28.393  22.660  1.00  0.00     0.347 HD
ATOM     20  C   UNL A   1      33.950  28.347  25.154  1.00  0.00     0.048 C 
ATOM     21  C   UNL A   1      31.509  28.939  25.694  1.00  0.00     0.065 C 
ATOM     22  C   UNL A   1      34.361  29.045  26.448  1.00  0.00     0.010 C 
ATOM     23  C   UNL A   1      31.950  29.309  27.116  1.00  0.00     0.006 C 
ATOM     24  C   UNL A   1      33.334  28.841  27.545  1.00  0.00     0.001 C 
ENDBRANCH  10  13
ENDBRANCH   7   9
ENDBRANCH   4   7
ENDBRANCH   2   3
ENDBRANCH   1   2
BRANCH   1  25
ATOM     25  C   UNL A   1      35.824  22.706  26.009  1.00  0.00     0.118 C 
BRANCH  25  26
ATOM     26  N   UNL A   1      36.819  21.664  25.750  1.00  0.00    -0.352 N 
ATOM     27  C   UNL A   1      38.190  21.653  25.821  1.00  0.00     0.251 C 
ATOM     28  H   UNL A   1      36.429  20.804  25.470  1.00  0.00     0.163 HD
ATOM     29  O   UNL A   1      38.826  20.708  25.346  1.00  0.00    -0.269 OA
BRANCH  27  30
ATOM     30  C   UNL A   1      38.907  22.751  26.480  1.00  0.00     0.039 A 
ATOM     31  C   UNL A   1      39.984  22.489  27.333  1.00  0.00     0.014 A 
ATOM     32  C   UNL A   1      38.476  24.057  26.272  1.00  0.00     0.014 A 
ATOM     33  C   UNL A   1      40.690  23.557  27.892  1.00  0.00     0.010 A 
ATOM     34  C   UNL A   1      39.244  25.111  26.728  1.00  0.00     0.010 A 
ATOM     35  C   UNL A   1      40.356  24.875  27.546  1.00  0.00    -0.014 A 
BRANCH  35  36
ATOM     36  C   UNL A   1      41.143  26.051  27.988  1.00  0.00     0.031 A 
ATOM     37  C   UNL A   1      40.459  27.156  28.746  1.00  0.00     0.074 A 
ATOM     38  C   UNL A   1      42.406  26.198  27.544  1.00  0.00     0.049 A 
ATOM     39  N   UNL A   1      40.893  28.354  29.027  1.00  0.00    -0.248 NA
ATOM     40  C   UNL A   1      39.080  26.895  29.201  1.00  0.00     0.031 C 
ATOM     41  C   UNL A   1      43.137  25.226  26.725  1.00  0.00     0.029 A 
ATOM     42  N   UNL A   1      43.281  27.246  27.672  1.00  0.00    -0.354 N 
ATOM     43  C   UNL A   1      39.829  29.008  29.639  1.00  0.00     0.074 A 
ATOM     44  C   UNL A   1      38.716  28.085  29.655  1.00  0.00     0.031 C 
ATOM     45  C   UNL A   1      44.344  25.726  26.421  1.00  0.00     0.029 A 
ATOM     46  C   UNL A   1      44.455  27.068  26.979  1.00  0.00     0.049 A 
ATOM     47  H   UNL A   1      43.088  28.048  28.209  1.00  0.00     0.167 HD
ATOM     48  C   UNL A   1      39.790  30.256  30.162  1.00  0.00     0.034 A 
ATOM     49  C   UNL A   1      45.494  27.905  26.789  1.00  0.00     0.034 A 
ATOM     50  C   UNL A   1      40.922  31.143  30.180  1.00  0.00     0.049 A 
ATOM     51  C   UNL A   1      45.445  29.267  27.423  1.00  0.00     0.074 A 
ATOM     52  C   UNL A   1      41.032  32.386  30.777  1.00  0.00     0.029 A 
ATOM     53  N   UNL A   1      42.138  30.884  29.565  1.00  0.00    -0.354 N 
ATOM     54  N   UNL A   1      44.488  29.812  28.135  1.00  0.00    -0.248 NA
ATOM     55  C   UNL A   1      46.630  30.119  27.255  1.00  0.00     0.031 C 
ATOM     56  C   UNL A   1      42.305  32.891  30.495  1.00  0.00     0.029 A 
ATOM     57  C   UNL A   1      43.000  31.948  29.754  1.00  0.00     0.049 A 
ATOM     58  H   UNL A   1      42.355  30.062  29.067  1.00  0.00     0.167 HD
ATOM     59  C   UNL A   1      44.966  31.057  28.526  1.00  0.00     0.074 A 
ATOM     60  C   UNL A   1      46.308  31.173  27.993  1.00  0.00     0.031 C 
ATOM     61  C   UNL A   1      44.347  32.025  29.248  1.00  0.00     0.034 A 
BRANCH  48  62
ATOM     62  C   UNL A   1      38.503  30.715  30.798  1.00  0.00     0.023 A 
ATOM     63  C   UNL A   1      38.290  30.507  32.176  1.00  0.00     0.012 A 
ATOM     64  C   UNL A   1      37.525  31.394  30.044  1.00  0.00     0.148 A 
ATOM     65  C   UNL A   1      37.110  30.930  32.787  1.00  0.00     0.002 A 
ATOM     66  C   UNL A   1      36.373  31.857  30.670  1.00  0.00     0.091 A 
ATOM     67  F   UNL A   1      37.733  31.564  28.731  1.00  0.00    -0.205 F 
ATOM     68  C   UNL A   1      36.158  31.614  32.037  1.00  0.00     0.022 A 
BRANCH  66  69
ATOM     69  S   UNL A   1      35.123  32.820  29.814  1.00  0.00     0.127 S 
ATOM     70  O   UNL A   1      34.608  31.848  28.851  1.00  0.00    -0.237 OA
ATOM     71  O   UNL A   1      34.197  33.153  30.898  1.00  0.00    -0.237 OA
ATOM     72  O   UNL A   1      35.819  33.961  29.236  1.00  0.00    -0.744 OA
ENDBRANCH  66  69
ENDBRANCH  48  62
BRANCH  49  73
ATOM     73  C   UNL A   1      46.684  27.454  26.014  1.00  0.00     0.023 A 
ATOM     74  C   UNL A   1      46.750  27.726  24.634  1.00  0.00     0.012 A 
ATOM     75  C   UNL A   1      47.763  26.796  26.636  1.00  0.00     0.148 A 
ATOM     76  C   UNL A   1      47.852  27.322  23.880  1.00  0.00     0.002 A 
ATOM     77  C   UNL A   1      48.883  26.447  25.891  1.00  0.00     0.091 A 
ATOM     78  F   UNL A   1      47.680  26.542  27.950  1.00  0.00    -0.205 F 
ATOM     79  C   UNL A   1      48.922  26.692  24.509  1.00  0.00     0.022 A 
BRANCH  77  80
ATOM     80  S   UNL A   1      50.364  25.758  26.640  1.00  0.00     0.127 S 
ATOM     81  O   UNL A   1      51.255  25.642  25.489  1.00  0.00    -0.237 OA
ATOM     82  O   UNL A   1      50.728  26.799  27.601  1.00  0.00    -0.237 OA
ATOM     83  O   UNL A   1      49.950  24.500  27.249  1.00  0.00    -0.744 OA
ENDBRANCH  77  80
ENDBRANCH  49  73
BRANCH  61  84
ATOM     84  C   UNL A   1      45.124  33.282  29.529  1.00  0.00     0.023 A 
ATOM     85  C   UNL A   1      45.932  33.366  30.680  1.00  0.00     0.012 A 
ATOM     86  C   UNL A   1      45.108  34.353  28.614  1.00  0.00     0.148 A 
ATOM     87  C   UNL A   1      46.684  34.511  30.935  1.00  0.00     0.002 A 
ATOM     88  C   UNL A   1      45.902  35.468  28.845  1.00  0.00     0.091 A 
ATOM     89  F   UNL A   1      44.319  34.257  27.533  1.00  0.00    -0.205 F 
ATOM     90  C   UNL A   1      46.679  35.556  30.013  1.00  0.00     0.022 A 
BRANCH  88  91
ATOM     91  S   UNL A   1      46.036  36.817  27.668  1.00  0.00     0.127 S 
ATOM     92  O   UNL A   1      46.645  36.149  26.518  1.00  0.00    -0.237 OA
ATOM     93  O   UNL A   1      44.638  37.202  27.479  1.00  0.00    -0.237 OA
ATOM     94  O   UNL A   1      46.862  37.830  28.309  1.00  0.00    -0.744 OA
ENDBRANCH  88  91
ENDBRANCH  61  84
ENDBRANCH  35  36
ENDBRANCH  27  30
ENDBRANCH  25  26
ENDBRANCH   1  25
TORSDOF 15
ENDMDL
MODEL 2
REMARK VINA RESULT:     -12.2      4.816      9.838
REMARK SMILES C[C@@H](NC(=O)[C@@H]1CC[C@@H]2CCCC[C@@H]2[NH2+]1)C(=O)NCCCNC(=O)c1ccc(-c2c3nc(c(-c4cccc(S(=O)(=O)[O-])c4F)c4ccc([nH]4)c(-c4cccc(S(=O)(=O)[O-])c4F)c4nc(c(-c5cccc(S(=O)(=O)[O-])c5F)c5ccc2[nH]5)C=C4)C=C3)cc1
REMARK SMILES IDX 20 1 19 2 18 3 16 4 17 5 2 7 1 8 3 9 4 10 5 12 6 13 7 14
REMARK SMILES IDX 15 15 8 16 14 17 9 20 13 21 10 22 12 23 11 24 21 25 22 26
REMARK SMILES IDX 23 27 24 29 25 30 26 31 87 32 27 33 86 34 28 35 29 36 30 37
REMARK SMILES IDX 80 38 31 39 85 40 79 41 81 42 32 43 84 44 78 45 77 46 33 48
REMARK SMILES IDX 65 49 45 50 64 51 46 52 49 53 63 54 82 55 47 56 48 57 62 59
REMARK SMILES IDX 83 60 50 61 34 62 35 63 43 64 36 65 38 66 44 67 37 68 39 69
REMARK SMILES IDX 40 70 41 71 42 72 66 73 67 74 75 75 68 76 70 77 76 78 69 79
REMARK SMILES IDX 71 80 72 81 73 82 74 83 51 84 52 85 60 86 53 87 55 88 61 89
REMARK SMILES IDX 54 90 56 91 57 92 58 93 59 94
REMARK H PARENT 18 6 3 11 15 18 15 19 22 28 81 47 49 58
REMARK Flexibility Score: inf
ROOT
ATOM      1  C   UNL A   1      33.078  28.925  24.228  1.00  0.00     0.042 C 
ENDROOT
BRANCH   1   2
ATOM      2  C   UNL A   1      33.514  27.533  23.728  1.00  0.00     0.117 C 
BRANCH   2   3
ATOM      3  N   UNL A   1      32.856  27.075  22.518  1.00  0.00    -0.354 N 
ATOM      4  C   UNL A   1      31.639  26.473  22.363  1.00  0.00     0.242 C 
ATOM      5  O   UNL A   1      31.209  26.342  21.214  1.00  0.00    -0.273 OA
ATOM      6  H   UNL A   1      33.362  27.218  21.685  1.00  0.00     0.163 HD
BRANCH   4   7
ATOM      7  C   UNL A   1      30.837  25.910  23.560  1.00  0.00     0.168 C 
ATOM      8  C   UNL A   1      29.710  26.900  23.891  1.00  0.00     0.041 C 
BRANCH   7   9
ATOM      9  N   UNL A   1      30.297  24.538  23.531  1.00  0.00    -0.339 N 
ATOM     10  C   UNL A   1      31.000  23.419  23.903  1.00  0.00     0.278 C 
ATOM     11  H   UNL A   1      29.371  24.416  23.223  1.00  0.00     0.164 HD
ATOM     12  O   UNL A   1      30.735  22.920  25.003  1.00  0.00    -0.268 OA
BRANCH  10  13
ATOM     13  C   UNL A   1      31.986  22.714  22.926  1.00  0.00     0.272 C 
ATOM     14  C   UNL A   1      32.197  21.229  23.153  1.00  0.00     0.076 C 
ATOM     15  N   UNL A   1      33.315  23.413  22.930  1.00  0.00    -0.333 N 
ATOM     16  C   UNL A   1      32.946  21.016  24.457  1.00  0.00     0.016 C 
ATOM     17  C   UNL A   1      34.271  23.050  24.011  1.00  0.00     0.186 C 
ATOM     18  H   UNL A   1      33.134  24.415  23.003  1.00  0.00     0.347 HD
ATOM     19  H   UNL A   1      33.770  23.118  22.066  1.00  0.00     0.347 HD
ATOM     20  C   UNL A   1      34.356  21.539  24.258  1.00  0.00     0.048 C 
ATOM     21  C   UNL A   1      34.023  23.864  25.298  1.00  0.00     0.065 C 
ATOM     22  C   UNL A   1      35.249  21.183  25.445  1.00  0.00     0.010 C 
ATOM     23  C   UNL A   1      34.633  23.331  26.600  1.00  0.00     0.006 C 
ATOM     24  C   UNL A   1      34.753  21.819  26.730  1.00  0.00     0.001 C 
ENDBRANCH  10  13
ENDBRANCH   7   9
ENDBRANCH   4   7
ENDBRANCH   2   3
ENDBRANCH   1   2
BRANCH   1  25
ATOM     25  C   UNL A   1      33.000  29.178  25.744  1.00  0.00     0.118 C 
BRANCH  25  26
ATOM     26  N   UNL A   1      32.621  30.527  26.167  1.00  0.00    -0.352 N 
ATOM     27  C   UNL A   1      33.168  31.404  27.069  1.00  0.00     0.251 C 
ATOM     28  H   UNL A   1      31.816  30.873  25.715  1.00  0.00     0.163 HD
ATOM     29  O   UNL A   1      32.541  32.412  27.412  1.00  0.00    -0.269 OA
BRANCH  27  30
ATOM     30  C   UNL A   1      34.508  31.164  27.618  1.00  0.00     0.039 A 
ATOM     31  C   UNL A   1      35.444  32.201  27.693  1.00  0.00     0.014 A 
ATOM     32  C   UNL A   1      34.846  29.879  28.029  1.00  0.00     0.014 A 
ATOM     33  C   UNL A   1      36.687  31.959  28.283  1.00  0.00     0.010 A 
ATOM     34  C   UNL A   1      36.026  29.670  28.717  1.00  0.00     0.010 A 
ATOM     35  C   UNL A   1      36.962  30.704  28.848  1.00  0.00    -0.014 A 
BRANCH  35  36
ATOM     36  C   UNL A   1      38.200  30.414  29.609  1.00  0.00     0.031 A 
ATOM     37  C   UNL A   1      39.181  29.407  29.071  1.00  0.00     0.074 A 
ATOM     38  C   UNL A   1      38.336  30.913  30.853  1.00  0.00     0.049 A 
ATOM     39  N   UNL A   1      40.197  28.846  29.668  1.00  0.00    -0.248 NA
ATOM     40  C   UNL A   1      38.954  28.930  27.694  1.00  0.00     0.031 C 
ATOM     41  C   UNL A   1      37.397  31.828  31.507  1.00  0.00     0.029 A 
ATOM     42  N   UNL A   1      39.290  30.677  31.810  1.00  0.00    -0.354 N 
ATOM     43  C   UNL A   1      40.695  27.912  28.766  1.00  0.00     0.074 A 
ATOM     44  C   UNL A   1      39.847  27.957  27.596  1.00  0.00     0.031 C 
ATOM     45  C   UNL A   1      37.818  32.071  32.758  1.00  0.00     0.029 A 
ATOM     46  C   UNL A   1      39.025  31.293  33.011  1.00  0.00     0.049 A 
ATOM     47  H   UNL A   1      40.086  30.120  31.653  1.00  0.00     0.167 HD
ATOM     48  C   UNL A   1      41.776  27.107  28.892  1.00  0.00     0.034 A 
ATOM     49  C   UNL A   1      39.668  31.218  34.192  1.00  0.00     0.034 A 
ATOM     50  C   UNL A   1      42.636  27.110  30.045  1.00  0.00     0.049 A 
ATOM     51  C   UNL A   1      40.895  30.354  34.290  1.00  0.00     0.074 A 
ATOM     52  C   UNL A   1      43.818  26.419  30.238  1.00  0.00     0.029 A 
ATOM     53  N   UNL A   1      42.401  27.835  31.203  1.00  0.00    -0.354 N 
ATOM     54  N   UNL A   1      41.444  29.596  33.373  1.00  0.00    -0.248 NA
ATOM     55  C   UNL A   1      41.609  30.360  35.574  1.00  0.00     0.031 C 
ATOM     56  C   UNL A   1      44.281  26.702  31.527  1.00  0.00     0.029 A 
ATOM     57  C   UNL A   1      43.406  27.599  32.123  1.00  0.00     0.049 A 
ATOM     58  H   UNL A   1      41.631  28.433  31.349  1.00  0.00     0.167 HD
ATOM     59  C   UNL A   1      42.584  29.057  33.957  1.00  0.00     0.074 A 
ATOM     60  C   UNL A   1      42.659  29.598  35.298  1.00  0.00     0.031 C 
ATOM     61  C   UNL A   1      43.482  28.181  33.438  1.00  0.00     0.034 A 
BRANCH  48  62
ATOM     62  C   UNL A   1      42.116  26.196  27.741  1.00  0.00     0.023 A 
ATOM     63  C   UNL A   1      42.949  26.660  26.702  1.00  0.00     0.012 A 
ATOM     64  C   UNL A   1      41.652  24.866  27.709  1.00  0.00     0.148 A 
ATOM     65  C   UNL A   1      43.282  25.832  25.631  1.00  0.00     0.002 A 
ATOM     66  C   UNL A   1      42.028  24.030  26.663  1.00  0.00     0.091 A 
ATOM     67  F   UNL A   1      40.843  24.446  28.692  1.00  0.00    -0.205 F 
ATOM     68  C   UNL A   1      42.831  24.515  25.617  1.00  0.00     0.022 A 
BRANCH  66  69
ATOM     69  S   UNL A   1      41.571  22.295  26.592  1.00  0.00     0.127 S 
ATOM     70  O   UNL A   1      42.256  21.859  25.376  1.00  0.00    -0.237 OA
ATOM     71  O   UNL A   1      42.146  21.776  27.834  1.00  0.00    -0.237 OA
ATOM     72  O   UNL A   1      40.117  22.264  26.534  1.00  0.00    -0.744 OA
ENDBRANCH  66  69
ENDBRANCH  48  62
BRANCH  49  73
ATOM     73  C   UNL A   1      39.195  32.025  35.352  1.00  0.00     0.023 A 
ATOM     74  C   UNL A   1      38.272  31.460  36.253  1.00  0.00     0.012 A 
ATOM     75  C   UNL A   1      39.679  33.326  35.592  1.00  0.00     0.148 A 
ATOM     76  C   UNL A   1      37.812  32.186  37.352  1.00  0.00     0.002 A 
ATOM     77  C   UNL A   1      39.261  34.023  36.720  1.00  0.00     0.091 A 
ATOM     78  F   UNL A   1      40.554  33.848  34.722  1.00  0.00    -0.205 F 
ATOM     79  C   UNL A   1      38.313  33.462  37.591  1.00  0.00     0.022 A 
BRANCH  77  80
ATOM     80  S   UNL A   1      39.956  35.613  37.183  1.00  0.00     0.127 S 
ATOM     81  O   UNL A   1      39.624  36.435  36.023  1.00  0.00    -0.237 OA
ATOM     82  O   UNL A   1      39.204  35.928  38.398  1.00  0.00    -0.237 OA
ATOM     83  O   UNL A   1      41.376  35.374  37.405  1.00  0.00    -0.744 OA
ENDBRANCH  77  80
ENDBRANCH  49  73
BRANCH  61  84
ATOM     84  C   UNL A   1      44.638  27.776  34.312  1.00  0.00     0.023 A 
ATOM     85  C   UNL A   1      45.831  28.524  34.289  1.00  0.00     0.012 A 
ATOM     86  C   UNL A   1      44.513  26.696  35.208  1.00  0.00     0.148 A 
ATOM     87  C   UNL A   1      46.898  28.181  35.118  1.00  0.00     0.002 A 
ATOM     88  C   UNL A   1      45.559  26.394  36.070  1.00  0.00     0.091 A 
ATOM     89  F   UNL A   1      43.374  25.988  35.201  1.00  0.00    -0.205 F 
ATOM     90  C   UNL A   1      46.757  27.125  36.016  1.00  0.00     0.022 A 
BRANCH  88  91
ATOM     91  S   UNL A   1      45.434  25.117  37.327  1.00  0.00     0.127 S 
ATOM     92  O   UNL A   1      46.732  25.225  37.990  1.00  0.00    -0.237 OA
ATOM     93  O   UNL A   1      44.300  25.583  38.127  1.00  0.00    -0.237 OA
ATOM     94  O   UNL A   1      45.200  23.870  36.613  1.00  0.00    -0.744 OA
ENDBRANCH  88  91
ENDBRANCH  61  84
ENDBRANCH  35  36
ENDBRANCH  27  30
ENDBRANCH  25  26
ENDBRANCH   1  25
TORSDOF 15
ENDMDL
MODEL 3
REMARK VINA RESULT:     -12.2      5.664     10.607
REMARK SMILES C[C@@H](NC(=O)[C@@H]1CC[C@@H]2CCCC[C@@H]2[NH2+]1)C(=O)NCCCNC(=O)c1ccc(-c2c3nc(c(-c4cccc(S(=O)(=O)[O-])c4F)c4ccc([nH]4)c(-c4cccc(S(=O)(=O)[O-])c4F)c4nc(c(-c5cccc(S(=O)(=O)[O-])c5F)c5ccc2[nH]5)C=C4)C=C3)cc1
REMARK SMILES IDX 20 1 19 2 18 3 16 4 17 5 2 7 1 8 3 9 4 10 5 12 6 13 7 14
REMARK SMILES IDX 15 15 8 16 14 17 9 20 13 21 10 22 12 23 11 24 21 25 22 26
REMARK SMILES IDX 23 27 24 29 25 30 26 31 87 32 27 33 86 34 28 35 29 36 30 37
REMARK SMILES IDX 80 38 31 39 85 40 79 41 81 42 32 43 84 44 78 45 77 46 33 48
REMARK SMILES IDX 65 49 45 50 64 51 46 52 49 53 63 54 82 55 47 56 48 57 62 59
REMARK SMILES IDX 83 60 50 61 34 62 35 63 43 64 36 65 38 66 44 67 37 68 39 69
REMARK SMILES IDX 40 70 41 71 42 72 66 73 67 74 75 75 68 76 70 77 76 78 69 79
REMARK SMILES IDX 71 80 72 81 73 82 74 83 51 84 52 85 60 86 53 87 55 88 61 89
REMARK SMILES IDX 54 90 56 91 57 92 58 93 59 94
REMARK H PARENT 18 6 3 11 15 18 15 19 22 28 81 47 49 58
REMARK Flexibility Score: inf
ROOT
ATOM      1  C   UNL A   1      31.748  31.391  26.728  1.00  0.00     0.042 C 
ENDROOT
BRANCH   1   2
ATOM      2  C   UNL A   1      31.964  29.911  26.354  1.00  0.00     0.117 C 
BRANCH   2   3
ATOM      3  N   UNL A   1      32.404  29.673  24.992  1.00  0.00    -0.354 N 
ATOM      4  C   UNL A   1      31.777  29.004  23.979  1.00  0.00     0.242 C 
ATOM      5  O   UNL A   1      32.265  29.092  22.848  1.00  0.00    -0.273 OA
ATOM      6  H   UNL A   1      33.285  30.049  24.764  1.00  0.00     0.163 HD
BRANCH   4   7
ATOM      7  C   UNL A   1      30.538  28.110  24.220  1.00  0.00     0.168 C 
ATOM      8  C   UNL A   1      29.495  28.434  23.141  1.00  0.00     0.041 C 
BRANCH   7   9
ATOM      9  N   UNL A   1      30.674  26.648  24.354  1.00  0.00    -0.339 N 
ATOM     10  C   UNL A   1      30.955  25.998  25.531  1.00  0.00     0.278 C 
ATOM     11  H   UNL A   1      30.556  26.100  23.545  1.00  0.00     0.164 HD
ATOM     12  O   UNL A   1      30.021  25.420  26.098  1.00  0.00    -0.268 OA
BRANCH  10  13
ATOM     13  C   UNL A   1      32.413  25.866  26.060  1.00  0.00     0.272 C 
ATOM     14  C   UNL A   1      33.502  26.390  25.143  1.00  0.00     0.076 C 
ATOM     15  N   UNL A   1      32.709  24.439  26.423  1.00  0.00    -0.333 N 
ATOM     16  C   UNL A   1      33.603  25.501  23.916  1.00  0.00     0.016 C 
ATOM     17  C   UNL A   1      33.125  23.530  25.321  1.00  0.00     0.186 C 
ATOM     18  H   UNL A   1      31.866  24.049  26.843  1.00  0.00     0.347 HD
ATOM     19  H   UNL A   1      33.519  24.489  27.042  1.00  0.00     0.347 HD
ATOM     20  C   UNL A   1      34.150  24.162  24.371  1.00  0.00     0.048 C 
ATOM     21  C   UNL A   1      31.911  22.920  24.589  1.00  0.00     0.065 C 
ATOM     22  C   UNL A   1      34.482  23.267  23.179  1.00  0.00     0.010 C 
ATOM     23  C   UNL A   1      32.157  22.307  23.204  1.00  0.00     0.006 C 
ATOM     24  C   UNL A   1      33.247  22.948  22.357  1.00  0.00     0.001 C 
ENDBRANCH  10  13
ENDBRANCH   7   9
ENDBRANCH   4   7
ENDBRANCH   2   3
ENDBRANCH   1   2
BRANCH   1  25
ATOM     25  C   UNL A   1      32.943  32.207  27.251  1.00  0.00     0.118 C 
BRANCH  25  26
ATOM     26  N   UNL A   1      32.689  33.613  27.572  1.00  0.00    -0.352 N 
ATOM     27  C   UNL A   1      33.157  34.437  28.565  1.00  0.00     0.251 C 
ATOM     28  H   UNL A   1      32.060  34.054  26.955  1.00  0.00     0.163 HD
ATOM     29  O   UNL A   1      32.630  35.537  28.757  1.00  0.00    -0.269 OA
BRANCH  27  30
ATOM     30  C   UNL A   1      34.298  34.026  29.392  1.00  0.00     0.039 A 
ATOM     31  C   UNL A   1      34.124  33.138  30.458  1.00  0.00     0.014 A 
ATOM     32  C   UNL A   1      35.553  34.564  29.122  1.00  0.00     0.014 A 
ATOM     33  C   UNL A   1      35.239  32.713  31.185  1.00  0.00     0.010 A 
ATOM     34  C   UNL A   1      36.667  34.054  29.762  1.00  0.00     0.010 A 
ATOM     35  C   UNL A   1      36.524  33.127  30.802  1.00  0.00    -0.014 A 
BRANCH  35  36
ATOM     36  C   UNL A   1      37.761  32.612  31.435  1.00  0.00     0.031 A 
ATOM     37  C   UNL A   1      38.501  31.471  30.791  1.00  0.00     0.074 A 
ATOM     38  C   UNL A   1      38.098  33.046  32.664  1.00  0.00     0.049 A 
ATOM     39  N   UNL A   1      39.459  30.730  31.278  1.00  0.00    -0.248 NA
ATOM     40  C   UNL A   1      38.067  31.077  29.437  1.00  0.00     0.031 C 
ATOM     41  C   UNL A   1      37.395  34.088  33.419  1.00  0.00     0.029 A 
ATOM     42  N   UNL A   1      39.084  32.627  33.520  1.00  0.00    -0.354 N 
ATOM     43  C   UNL A   1      39.703  29.752  30.321  1.00  0.00     0.074 A 
ATOM     44  C   UNL A   1      38.768  29.971  29.240  1.00  0.00     0.031 C 
ATOM     45  C   UNL A   1      37.968  34.221  34.625  1.00  0.00     0.029 A 
ATOM     46  C   UNL A   1      39.044  33.245  34.748  1.00  0.00     0.049 A 
ATOM     47  H   UNL A   1      39.756  31.949  33.279  1.00  0.00     0.167 HD
ATOM     48  C   UNL A   1      40.639  28.773  30.331  1.00  0.00     0.034 A 
ATOM     49  C   UNL A   1      39.774  33.030  35.860  1.00  0.00     0.034 A 
ATOM     50  C   UNL A   1      41.593  28.600  31.393  1.00  0.00     0.049 A 
ATOM     51  C   UNL A   1      40.840  31.969  35.825  1.00  0.00     0.074 A 
ATOM     52  C   UNL A   1      42.653  27.714  31.461  1.00  0.00     0.029 A 
ATOM     53  N   UNL A   1      41.596  29.321  32.576  1.00  0.00    -0.354 N 
ATOM     54  N   UNL A   1      41.162  31.155  34.850  1.00  0.00    -0.248 NA
ATOM     55  C   UNL A   1      41.663  31.819  37.033  1.00  0.00     0.031 C 
ATOM     56  C   UNL A   1      43.277  27.880  32.701  1.00  0.00     0.029 A 
ATOM     57  C   UNL A   1      42.628  28.893  33.390  1.00  0.00     0.049 A 
ATOM     58  H   UNL A   1      40.956  30.035  32.805  1.00  0.00     0.167 HD
ATOM     59  C   UNL A   1      42.245  30.417  35.313  1.00  0.00     0.074 A 
ATOM     60  C   UNL A   1      42.537  30.900  36.647  1.00  0.00     0.031 C 
ATOM     61  C   UNL A   1      42.927  29.418  34.698  1.00  0.00     0.034 A 
BRANCH  48  62
ATOM     62  C   UNL A   1      40.707  27.851  29.141  1.00  0.00     0.023 A 
ATOM     63  C   UNL A   1      39.854  26.730  29.073  1.00  0.00     0.012 A 
ATOM     64  C   UNL A   1      41.580  28.117  28.067  1.00  0.00     0.148 A 
ATOM     65  C   UNL A   1      39.895  25.867  27.979  1.00  0.00     0.002 A 
ATOM     66  C   UNL A   1      41.580  27.281  26.957  1.00  0.00     0.091 A 
ATOM     67  F   UNL A   1      42.400  29.174  28.156  1.00  0.00    -0.205 F 
ATOM     68  C   UNL A   1      40.749  26.149  26.917  1.00  0.00     0.022 A 
BRANCH  66  69
ATOM     69  S   UNL A   1      42.581  27.599  25.500  1.00  0.00     0.127 S 
ATOM     70  O   UNL A   1      42.261  26.444  24.663  1.00  0.00    -0.237 OA
ATOM     71  O   UNL A   1      42.033  28.869  25.022  1.00  0.00    -0.237 OA
ATOM     72  O   UNL A   1      43.960  27.668  25.965  1.00  0.00    -0.744 OA
ENDBRANCH  66  69
ENDBRANCH  48  62
BRANCH  49  73
ATOM     73  C   UNL A   1      39.557  33.871  37.070  1.00  0.00     0.023 A 
ATOM     74  C   UNL A   1      39.992  35.211  37.063  1.00  0.00     0.012 A 
ATOM     75  C   UNL A   1      38.892  33.372  38.207  1.00  0.00     0.148 A 
ATOM     76  C   UNL A   1      39.801  36.028  38.178  1.00  0.00     0.002 A 
ATOM     77  C   UNL A   1      38.654  34.206  39.292  1.00  0.00     0.091 A 
ATOM     78  F   UNL A   1      38.490  32.093  38.196  1.00  0.00    -0.205 F 
ATOM     79  C   UNL A   1      39.124  35.529  39.288  1.00  0.00     0.022 A 
BRANCH  77  80
ATOM     80  S   UNL A   1      37.670  33.694  40.705  1.00  0.00     0.127 S 
ATOM     81  O   UNL A   1      36.484  33.139  40.059  1.00  0.00    -0.237 OA
ATOM     82  O   UNL A   1      38.545  32.709  41.341  1.00  0.00    -0.237 OA
ATOM     83  O   UNL A   1      37.455  34.900  41.494  1.00  0.00    -0.744 OA
ENDBRANCH  77  80
ENDBRANCH  49  73
BRANCH  61  84
ATOM     84  C   UNL A   1      44.075  28.800  35.449  1.00  0.00     0.023 A 
ATOM     85  C   UNL A   1      45.372  29.330  35.309  1.00  0.00     0.012 A 
ATOM     86  C   UNL A   1      43.853  27.738  36.348  1.00  0.00     0.148 A 
ATOM     87  C   UNL A   1      46.439  28.790  36.025  1.00  0.00     0.002 A 
ATOM     88  C   UNL A   1      44.910  27.241  37.099  1.00  0.00     0.091 A 
ATOM     89  F   UNL A   1      42.613  27.238  36.453  1.00  0.00    -0.205 F 
ATOM     90  C   UNL A   1      46.206  27.755  36.928  1.00  0.00     0.022 A 
BRANCH  88  91
ATOM     91  S   UNL A   1      44.689  25.978  38.357  1.00  0.00     0.127 S 
ATOM     92  O   UNL A   1      43.759  26.633  39.275  1.00  0.00    -0.237 OA
ATOM     93  O   UNL A   1      44.112  24.875  37.588  1.00  0.00    -0.237 OA
ATOM     94  O   UNL A   1      46.015  25.712  38.897  1.00  0.00    -0.744 OA
ENDBRANCH  88  91
ENDBRANCH  61  84
ENDBRANCH  35  36
ENDBRANCH  27  30
ENDBRANCH  25  26
ENDBRANCH   1  25
TORSDOF 15
ENDMDL
