MODEL 1
REMARK VINA RESULT:     -13.4      0.000      0.000
REMARK SMILES Cc1ccccc1NC(=O)CSc1nc(C(=O)NCCCNC(=O)c2ccc(-c3c4nc(c(-c5cccc(S(=O)(=O)[O-])c5F)c5ccc([nH]5)c(-c5cccc(S(=O)(=O)[O-])c5F)c5nc(c(-c6cccc(S(=O)(=O)[O-])c6F)c6ccc3[nH]6)C=C5)C=C4)cc2)c2ccccc2n1
REMARK SMILES IDX 19 1 18 2 16 3 17 4 15 6 13 7 14 8 94 9 93 10 88 11 92 12
REMARK SMILES IDX 89 13 91 14 90 15 12 16 11 17 9 18 8 19 10 21 7 22 1 23 2 24
REMARK SMILES IDX 3 25 4 26 6 27 5 28 20 29 21 30 22 31 23 32 24 34 25 35
REMARK SMILES IDX 26 36 87 37 27 38 86 39 28 40 29 41 30 42 80 43 31 44 85 45
REMARK SMILES IDX 79 46 81 47 32 48 84 49 78 50 77 51 33 53 65 54 45 55 64 56
REMARK SMILES IDX 46 57 49 58 63 59 82 60 47 61 48 62 62 64 83 65 50 66 34 67
REMARK SMILES IDX 35 68 43 69 36 70 38 71 44 72 37 73 39 74 40 75 41 76 42 77
REMARK SMILES IDX 66 78 67 79 75 80 68 81 70 82 76 83 69 84 71 85 72 86 73 87
REMARK SMILES IDX 74 88 51 89 52 90 60 91 53 92 55 93 61 94 54 95 56 96 57 97
REMARK SMILES IDX 58 98 59 99
REMARK H PARENT 18 5 8 20 22 33 81 52 49 63
REMARK Flexibility Score: inf
ROOT
ATOM      1  C   UNL A   1      36.687  20.720  25.040  1.00  0.00     0.118 C 
ENDROOT
BRANCH   1   2
ATOM      2  N   UNL A   1      35.877  21.327  26.077  1.00  0.00    -0.351 N 
ATOM      3  C   UNL A   1      34.526  21.383  26.337  1.00  0.00     0.270 C 
ATOM      4  O   UNL A   1      34.197  21.685  27.487  1.00  0.00    -0.267 OA
ATOM      5  H   UNL A   1      36.414  21.810  26.746  1.00  0.00     0.163 HD
BRANCH   3   6
ATOM      6  C   UNL A   1      33.456  21.292  25.284  1.00  0.00     0.140 A 
ATOM      7  C   UNL A   1      32.252  22.629  23.880  1.00  0.00     0.189 A 
ATOM      8  N   UNL A   1      33.024  22.531  24.950  1.00  0.00    -0.217 NA
ATOM      9  N   UNL A   1      31.987  21.624  23.040  1.00  0.00    -0.222 NA
ATOM     10  C   UNL A   1      32.395  20.405  23.398  1.00  0.00     0.076 A 
ATOM     11  C   UNL A   1      33.032  20.141  24.613  1.00  0.00     0.032 A 
ATOM     12  C   UNL A   1      32.192  19.355  22.512  1.00  0.00     0.029 A 
ATOM     13  C   UNL A   1      33.175  18.791  25.018  1.00  0.00     0.013 A 
ATOM     14  C   UNL A   1      32.539  18.042  22.832  1.00  0.00     0.002 A 
ATOM     15  C   UNL A   1      32.987  17.751  24.111  1.00  0.00     0.001 A 
BRANCH   7  16
ATOM     16  S   UNL A   1      31.577  24.211  23.504  1.00  0.00    -0.076 SA
BRANCH  16  17
ATOM     17  C   UNL A   1      32.704  25.260  24.478  1.00  0.00     0.178 C 
BRANCH  17  18
ATOM     18  C   UNL A   1      33.495  26.260  23.657  1.00  0.00     0.234 C 
ATOM     19  N   UNL A   1      33.744  27.553  24.009  1.00  0.00    -0.325 N 
ATOM     20  H   UNL A   1      34.234  28.041  23.308  1.00  0.00     0.169 HD
ATOM     21  O   UNL A   1      33.944  25.925  22.550  1.00  0.00    -0.274 OA
BRANCH  19  22
ATOM     22  C   UNL A   1      33.471  28.360  25.129  1.00  0.00     0.044 A 
ATOM     23  C   UNL A   1      31.187  29.068  24.120  1.00  0.00     0.046 C 
ATOM     24  C   UNL A   1      32.294  29.145  25.141  1.00  0.00    -0.027 A 
ATOM     25  C   UNL A   1      32.109  30.094  26.169  1.00  0.00     0.005 A 
ATOM     26  C   UNL A   1      33.039  30.239  27.193  1.00  0.00     0.000 A 
ATOM     27  C   UNL A   1      34.328  28.446  26.229  1.00  0.00     0.026 A 
ATOM     28  C   UNL A   1      34.134  29.393  27.238  1.00  0.00     0.002 A 
ENDBRANCH  19  22
ENDBRANCH  17  18
ENDBRANCH  16  17
ENDBRANCH   7  16
ENDBRANCH   3   6
ENDBRANCH   1   2
BRANCH   1  29
ATOM     29  C   UNL A   1      38.184  20.750  25.264  1.00  0.00     0.042 C 
BRANCH  29  30
ATOM     30  C   UNL A   1      38.608  22.108  25.803  1.00  0.00     0.118 C 
BRANCH  30  31
ATOM     31  N   UNL A   1      39.932  22.125  26.434  1.00  0.00    -0.352 N 
ATOM     32  C   UNL A   1      40.668  23.208  26.899  1.00  0.00     0.251 C 
ATOM     33  H   UNL A   1      40.361  21.245  26.543  1.00  0.00     0.163 HD
ATOM     34  O   UNL A   1      41.783  23.018  27.381  1.00  0.00    -0.269 OA
BRANCH  32  35
ATOM     35  C   UNL A   1      40.032  24.547  26.931  1.00  0.00     0.039 A 
ATOM     36  C   UNL A   1      40.671  25.579  26.232  1.00  0.00     0.014 A 
ATOM     37  C   UNL A   1      39.117  24.836  27.935  1.00  0.00     0.014 A 
ATOM     38  C   UNL A   1      40.671  26.858  26.775  1.00  0.00     0.010 A 
ATOM     39  C   UNL A   1      39.215  26.063  28.546  1.00  0.00     0.010 A 
ATOM     40  C   UNL A   1      40.072  27.034  28.014  1.00  0.00    -0.014 A 
BRANCH  40  41
ATOM     41  C   UNL A   1      40.314  28.160  28.896  1.00  0.00     0.031 A 
ATOM     42  C   UNL A   1      39.466  29.359  28.769  1.00  0.00     0.074 A 
ATOM     43  C   UNL A   1      41.092  27.955  29.987  1.00  0.00     0.049 A 
ATOM     44  N   UNL A   1      39.675  30.454  29.411  1.00  0.00    -0.248 NA
ATOM     45  C   UNL A   1      38.307  29.423  27.878  1.00  0.00     0.031 C 
ATOM     46  C   UNL A   1      41.081  28.717  31.231  1.00  0.00     0.029 A 
ATOM     47  N   UNL A   1      42.192  27.098  30.139  1.00  0.00    -0.354 N 
ATOM     48  C   UNL A   1      38.510  31.181  29.326  1.00  0.00     0.074 A 
ATOM     49  C   UNL A   1      37.777  30.596  28.235  1.00  0.00     0.031 C 
ATOM     50  C   UNL A   1      42.240  28.516  31.876  1.00  0.00     0.029 A 
ATOM     51  C   UNL A   1      43.103  27.802  30.954  1.00  0.00     0.049 A 
ATOM     52  H   UNL A   1      42.305  26.197  29.760  1.00  0.00     0.167 HD
ATOM     53  C   UNL A   1      38.225  32.064  30.319  1.00  0.00     0.034 A 
ATOM     54  C   UNL A   1      44.314  28.264  30.511  1.00  0.00     0.034 A 
ATOM     55  C   UNL A   1      39.411  32.319  31.151  1.00  0.00     0.049 A 
ATOM     56  C   UNL A   1      44.468  29.778  30.626  1.00  0.00     0.074 A 
ATOM     57  C   UNL A   1      39.771  31.975  32.441  1.00  0.00     0.029 A 
ATOM     58  N   UNL A   1      40.569  32.800  30.540  1.00  0.00    -0.354 N 
ATOM     59  N   UNL A   1      43.516  30.593  30.989  1.00  0.00    -0.248 NA
ATOM     60  C   UNL A   1      45.703  30.494  30.315  1.00  0.00     0.031 C 
ATOM     61  C   UNL A   1      41.187  32.119  32.550  1.00  0.00     0.029 A 
ATOM     62  C   UNL A   1      41.679  32.608  31.349  1.00  0.00     0.049 A 
ATOM     63  H   UNL A   1      40.595  33.221  29.650  1.00  0.00     0.167 HD
ATOM     64  C   UNL A   1      43.908  31.894  30.803  1.00  0.00     0.074 A 
ATOM     65  C   UNL A   1      45.322  31.773  30.482  1.00  0.00     0.031 C 
ATOM     66  C   UNL A   1      43.018  32.940  30.851  1.00  0.00     0.034 A 
BRANCH  53  67
ATOM     67  C   UNL A   1      36.834  32.568  30.664  1.00  0.00     0.023 A 
ATOM     68  C   UNL A   1      36.325  32.241  31.940  1.00  0.00     0.012 A 
ATOM     69  C   UNL A   1      35.937  33.245  29.795  1.00  0.00     0.148 A 
ATOM     70  C   UNL A   1      35.021  32.568  32.335  1.00  0.00     0.002 A 
ATOM     71  C   UNL A   1      34.665  33.646  30.219  1.00  0.00     0.091 A 
ATOM     72  F   UNL A   1      36.245  33.416  28.507  1.00  0.00    -0.205 F 
ATOM     73  C   UNL A   1      34.196  33.293  31.485  1.00  0.00     0.022 A 
BRANCH  71  74
ATOM     74  S   UNL A   1      33.578  34.649  29.186  1.00  0.00     0.127 S 
ATOM     75  O   UNL A   1      33.168  33.699  28.153  1.00  0.00    -0.237 OA
ATOM     76  O   UNL A   1      32.517  35.029  30.120  1.00  0.00    -0.237 OA
ATOM     77  O   UNL A   1      34.387  35.769  28.717  1.00  0.00    -0.744 OA
ENDBRANCH  71  74
ENDBRANCH  53  67
BRANCH  54  78
ATOM     78  C   UNL A   1      44.921  27.407  29.449  1.00  0.00     0.023 A 
ATOM     79  C   UNL A   1      45.170  26.055  29.792  1.00  0.00     0.012 A 
ATOM     80  C   UNL A   1      44.850  27.758  28.089  1.00  0.00     0.148 A 
ATOM     81  C   UNL A   1      45.168  25.057  28.817  1.00  0.00     0.002 A 
ATOM     82  C   UNL A   1      44.862  26.754  27.119  1.00  0.00     0.091 A 
ATOM     83  F   UNL A   1      44.698  29.049  27.765  1.00  0.00    -0.205 F 
ATOM     84  C   UNL A   1      44.967  25.402  27.486  1.00  0.00     0.022 A 
BRANCH  82  85
ATOM     85  S   UNL A   1      44.619  27.125  25.375  1.00  0.00     0.127 S 
ATOM     86  O   UNL A   1      45.788  27.947  25.084  1.00  0.00    -0.237 OA
ATOM     87  O   UNL A   1      44.634  25.796  24.765  1.00  0.00    -0.237 OA
ATOM     88  O   UNL A   1      43.327  27.793  25.314  1.00  0.00    -0.744 OA
ENDBRANCH  82  85
ENDBRANCH  54  78
BRANCH  66  89
ATOM     89  C   UNL A   1      43.311  34.370  30.400  1.00  0.00     0.023 A 
ATOM     90  C   UNL A   1      43.659  35.397  31.300  1.00  0.00     0.012 A 
ATOM     91  C   UNL A   1      43.375  34.708  29.020  1.00  0.00     0.148 A 
ATOM     92  C   UNL A   1      43.969  36.696  30.877  1.00  0.00     0.002 A 
ATOM     93  C   UNL A   1      43.805  35.968  28.598  1.00  0.00     0.091 A 
ATOM     94  F   UNL A   1      42.998  33.816  28.092  1.00  0.00    -0.205 F 
ATOM     95  C   UNL A   1      44.064  36.978  29.523  1.00  0.00     0.022 A 
BRANCH  93  96
ATOM     96  S   UNL A   1      44.195  36.287  26.870  1.00  0.00     0.127 S 
ATOM     97  O   UNL A   1      44.768  37.629  26.928  1.00  0.00    -0.237 OA
ATOM     98  O   UNL A   1      45.158  35.227  26.562  1.00  0.00    -0.237 OA
ATOM     99  O   UNL A   1      42.926  36.155  26.166  1.00  0.00    -0.744 OA
ENDBRANCH  93  96
ENDBRANCH  66  89
ENDBRANCH  40  41
ENDBRANCH  32  35
ENDBRANCH  30  31
ENDBRANCH  29  30
ENDBRANCH   1  29
TORSDOF 17
ENDMDL
MODEL 2
REMARK VINA RESULT:     -13.2      3.771      9.690
REMARK SMILES Cc1ccccc1NC(=O)CSc1nc(C(=O)NCCCNC(=O)c2ccc(-c3c4nc(c(-c5cccc(S(=O)(=O)[O-])c5F)c5ccc([nH]5)c(-c5cccc(S(=O)(=O)[O-])c5F)c5nc(c(-c6cccc(S(=O)(=O)[O-])c6F)c6ccc3[nH]6)C=C5)C=C4)cc2)c2ccccc2n1
REMARK SMILES IDX 19 1 18 2 16 3 17 4 15 6 13 7 14 8 94 9 93 10 88 11 92 12
REMARK SMILES IDX 89 13 91 14 90 15 12 16 11 17 9 18 8 19 10 21 7 22 1 23 2 24
REMARK SMILES IDX 3 25 4 26 6 27 5 28 20 29 21 30 22 31 23 32 24 34 25 35
REMARK SMILES IDX 26 36 87 37 27 38 86 39 28 40 29 41 30 42 80 43 31 44 85 45
REMARK SMILES IDX 79 46 81 47 32 48 84 49 78 50 77 51 33 53 65 54 45 55 64 56
REMARK SMILES IDX 46 57 49 58 63 59 82 60 47 61 48 62 62 64 83 65 50 66 34 67
REMARK SMILES IDX 35 68 43 69 36 70 38 71 44 72 37 73 39 74 40 75 41 76 42 77
REMARK SMILES IDX 66 78 67 79 75 80 68 81 70 82 76 83 69 84 71 85 72 86 73 87
REMARK SMILES IDX 74 88 51 89 52 90 60 91 53 92 55 93 61 94 54 95 56 96 57 97
REMARK SMILES IDX 58 98 59 99
REMARK H PARENT 18 5 8 20 22 33 81 52 49 63
REMARK Flexibility Score: inf
ROOT
ATOM      1  C   UNL A   1      31.734  30.485  25.929  1.00  0.00     0.118 C 
ENDROOT
BRANCH   1   2
ATOM      2  N   UNL A   1      32.657  29.909  24.972  1.00  0.00    -0.351 N 
ATOM      3  C   UNL A   1      32.514  29.196  23.803  1.00  0.00     0.270 C 
ATOM      4  O   UNL A   1      33.496  29.158  23.056  1.00  0.00    -0.267 OA
ATOM      5  H   UNL A   1      33.599  30.060  25.213  1.00  0.00     0.163 HD
BRANCH   3   6
ATOM      6  C   UNL A   1      31.333  28.322  23.482  1.00  0.00     0.140 A 
ATOM      7  C   UNL A   1      30.583  26.191  23.805  1.00  0.00     0.189 A 
ATOM      8  N   UNL A   1      31.600  27.037  23.814  1.00  0.00    -0.217 NA
ATOM      9  N   UNL A   1      29.306  26.541  23.629  1.00  0.00    -0.222 NA
ATOM     10  C   UNL A   1      29.062  27.804  23.275  1.00  0.00     0.076 A 
ATOM     11  C   UNL A   1      30.074  28.738  23.041  1.00  0.00     0.032 A 
ATOM     12  C   UNL A   1      27.740  28.211  23.150  1.00  0.00     0.029 A 
ATOM     13  C   UNL A   1      29.730  29.959  22.408  1.00  0.00     0.013 A 
ATOM     14  C   UNL A   1      27.401  29.498  22.731  1.00  0.00     0.002 A 
ATOM     15  C   UNL A   1      28.400  30.360  22.310  1.00  0.00     0.001 A 
BRANCH   7  16
ATOM     16  S   UNL A   1      30.933  24.492  24.110  1.00  0.00    -0.076 SA
BRANCH  16  17
ATOM     17  C   UNL A   1      32.209  24.672  25.397  1.00  0.00     0.178 C 
BRANCH  17  18
ATOM     18  C   UNL A   1      32.072  23.702  26.555  1.00  0.00     0.234 C 
ATOM     19  N   UNL A   1      32.837  22.592  26.753  1.00  0.00    -0.325 N 
ATOM     20  H   UNL A   1      32.546  22.076  27.540  1.00  0.00     0.169 HD
ATOM     21  O   UNL A   1      31.179  23.878  27.398  1.00  0.00    -0.274 OA
BRANCH  19  22
ATOM     22  C   UNL A   1      33.940  22.003  26.108  1.00  0.00     0.044 A 
ATOM     23  C   UNL A   1      32.389  20.310  24.900  1.00  0.00     0.046 C 
ATOM     24  C   UNL A   1      33.734  20.865  25.294  1.00  0.00    -0.027 A 
ATOM     25  C   UNL A   1      34.852  20.160  24.799  1.00  0.00     0.005 A 
ATOM     26  C   UNL A   1      36.149  20.589  25.059  1.00  0.00     0.000 A 
ATOM     27  C   UNL A   1      35.247  22.476  26.256  1.00  0.00     0.026 A 
ATOM     28  C   UNL A   1      36.344  21.765  25.764  1.00  0.00     0.002 A 
ENDBRANCH  19  22
ENDBRANCH  17  18
ENDBRANCH  16  17
ENDBRANCH   7  16
ENDBRANCH   3   6
ENDBRANCH   1   2
BRANCH   1  29
ATOM     29  C   UNL A   1      32.356  31.302  27.041  1.00  0.00     0.042 C 
BRANCH  29  30
ATOM     30  C   UNL A   1      33.742  30.770  27.374  1.00  0.00     0.118 C 
BRANCH  30  31
ATOM     31  N   UNL A   1      34.662  31.773  27.923  1.00  0.00    -0.352 N 
ATOM     32  C   UNL A   1      35.897  31.589  28.531  1.00  0.00     0.251 C 
ATOM     33  H   UNL A   1      34.362  32.708  27.849  1.00  0.00     0.163 HD
ATOM     34  O   UNL A   1      36.514  32.566  28.951  1.00  0.00    -0.269 OA
BRANCH  32  35
ATOM     35  C   UNL A   1      36.504  30.236  28.531  1.00  0.00     0.039 A 
ATOM     36  C   UNL A   1      36.736  29.636  29.774  1.00  0.00     0.014 A 
ATOM     37  C   UNL A   1      37.179  29.799  27.399  1.00  0.00     0.014 A 
ATOM     38  C   UNL A   1      37.882  28.871  29.947  1.00  0.00     0.010 A 
ATOM     39  C   UNL A   1      38.377  29.152  27.588  1.00  0.00     0.010 A 
ATOM     40  C   UNL A   1      38.766  28.780  28.881  1.00  0.00    -0.014 A 
BRANCH  40  41
ATOM     41  C   UNL A   1      40.156  28.381  28.991  1.00  0.00     0.031 A 
ATOM     42  C   UNL A   1      40.502  26.957  28.843  1.00  0.00     0.074 A 
ATOM     43  C   UNL A   1      41.101  29.351  28.920  1.00  0.00     0.049 A 
ATOM     44  N   UNL A   1      41.679  26.481  29.046  1.00  0.00    -0.248 NA
ATOM     45  C   UNL A   1      39.523  25.936  28.465  1.00  0.00     0.031 C 
ATOM     46  C   UNL A   1      42.493  29.194  28.511  1.00  0.00     0.029 A 
ATOM     47  N   UNL A   1      41.041  30.679  29.369  1.00  0.00    -0.354 N 
ATOM     48  C   UNL A   1      41.699  25.234  28.466  1.00  0.00     0.074 A 
ATOM     49  C   UNL A   1      40.318  24.876  28.288  1.00  0.00     0.031 C 
ATOM     50  C   UNL A   1      43.203  30.234  28.974  1.00  0.00     0.029 A 
ATOM     51  C   UNL A   1      42.327  30.960  29.874  1.00  0.00     0.049 A 
ATOM     52  H   UNL A   1      40.267  31.286  29.338  1.00  0.00     0.167 HD
ATOM     53  C   UNL A   1      42.890  24.745  28.028  1.00  0.00     0.034 A 
ATOM     54  C   UNL A   1      42.588  31.178  31.200  1.00  0.00     0.034 A 
ATOM     55  C   UNL A   1      44.011  25.525  28.572  1.00  0.00     0.049 A 
ATOM     56  C   UNL A   1      43.582  30.186  31.798  1.00  0.00     0.074 A 
ATOM     57  C   UNL A   1      44.913  26.419  28.026  1.00  0.00     0.029 A 
ATOM     58  N   UNL A   1      44.138  25.642  29.956  1.00  0.00    -0.354 N 
ATOM     59  N   UNL A   1      44.058  29.146  31.168  1.00  0.00    -0.248 NA
ATOM     60  C   UNL A   1      44.096  30.272  33.163  1.00  0.00     0.031 C 
ATOM     61  C   UNL A   1      45.478  27.175  29.097  1.00  0.00     0.029 A 
ATOM     62  C   UNL A   1      44.966  26.702  30.296  1.00  0.00     0.049 A 
ATOM     63  H   UNL A   1      43.698  25.049  30.608  1.00  0.00     0.167 HD
ATOM     64  C   UNL A   1      44.765  28.350  32.033  1.00  0.00     0.074 A 
ATOM     65  C   UNL A   1      44.846  29.158  33.239  1.00  0.00     0.031 C 
ATOM     66  C   UNL A   1      45.147  27.072  31.703  1.00  0.00     0.034 A 
BRANCH  53  67
ATOM     67  C   UNL A   1      43.051  23.673  26.962  1.00  0.00     0.023 A 
ATOM     68  C   UNL A   1      43.686  24.049  25.758  1.00  0.00     0.012 A 
ATOM     69  C   UNL A   1      42.532  22.352  27.001  1.00  0.00     0.148 A 
ATOM     70  C   UNL A   1      43.807  23.176  24.669  1.00  0.00     0.002 A 
ATOM     71  C   UNL A   1      42.727  21.454  25.946  1.00  0.00     0.091 A 
ATOM     72  F   UNL A   1      41.740  21.968  28.006  1.00  0.00    -0.205 F 
ATOM     73  C   UNL A   1      43.351  21.869  24.769  1.00  0.00     0.022 A 
BRANCH  71  74
ATOM     74  S   UNL A   1      42.219  19.725  26.047  1.00  0.00     0.127 S 
ATOM     75  O   UNL A   1      42.599  19.370  27.413  1.00  0.00    -0.237 OA
ATOM     76  O   UNL A   1      40.776  19.806  25.818  1.00  0.00    -0.237 OA
ATOM     77  O   UNL A   1      42.951  19.028  24.995  1.00  0.00    -0.744 OA
ENDBRANCH  71  74
ENDBRANCH  53  67
BRANCH  54  78
ATOM     78  C   UNL A   1      41.450  31.814  31.931  1.00  0.00     0.023 A 
ATOM     79  C   UNL A   1      41.042  33.091  31.476  1.00  0.00     0.012 A 
ATOM     80  C   UNL A   1      40.558  31.055  32.709  1.00  0.00     0.148 A 
ATOM     81  C   UNL A   1      39.724  33.521  31.636  1.00  0.00     0.002 A 
ATOM     82  C   UNL A   1      39.245  31.498  32.876  1.00  0.00     0.091 A 
ATOM     83  F   UNL A   1      40.976  29.885  33.208  1.00  0.00    -0.205 F 
ATOM     84  C   UNL A   1      38.814  32.703  32.296  1.00  0.00     0.022 A 
BRANCH  82  85
ATOM     85  S   UNL A   1      38.014  30.499  33.727  1.00  0.00     0.127 S 
ATOM     86  O   UNL A   1      36.776  30.980  33.123  1.00  0.00    -0.237 OA
ATOM     87  O   UNL A   1      38.395  29.139  33.349  1.00  0.00    -0.237 OA
ATOM     88  O   UNL A   1      38.204  30.799  35.138  1.00  0.00    -0.744 OA
ENDBRANCH  82  85
ENDBRANCH  54  78
BRANCH  66  89
ATOM     89  C   UNL A   1      45.695  26.034  32.682  1.00  0.00     0.023 A 
ATOM     90  C   UNL A   1      47.074  25.828  32.881  1.00  0.00     0.012 A 
ATOM     91  C   UNL A   1      44.829  25.307  33.544  1.00  0.00     0.148 A 
ATOM     92  C   UNL A   1      47.571  24.906  33.812  1.00  0.00     0.002 A 
ATOM     93  C   UNL A   1      45.330  24.482  34.553  1.00  0.00     0.091 A 
ATOM     94  F   UNL A   1      43.499  25.387  33.385  1.00  0.00    -0.205 F 
ATOM     95  C   UNL A   1      46.700  24.247  34.665  1.00  0.00     0.022 A 
BRANCH  93  96
ATOM     96  S   UNL A   1      44.254  23.826  35.839  1.00  0.00     0.127 S 
ATOM     97  O   UNL A   1      45.192  23.073  36.668  1.00  0.00    -0.237 OA
ATOM     98  O   UNL A   1      43.731  25.042  36.464  1.00  0.00    -0.237 OA
ATOM     99  O   UNL A   1      43.249  23.047  35.128  1.00  0.00    -0.744 OA
ENDBRANCH  93  96
ENDBRANCH  66  89
ENDBRANCH  40  41
ENDBRANCH  32  35
ENDBRANCH  30  31
ENDBRANCH  29  30
ENDBRANCH   1  29
TORSDOF 17
ENDMDL
MODEL 3
REMARK VINA RESULT:     -12.9      5.786     10.666
REMARK SMILES Cc1ccccc1NC(=O)CSc1nc(C(=O)NCCCNC(=O)c2ccc(-c3c4nc(c(-c5cccc(S(=O)(=O)[O-])c5F)c5ccc([nH]5)c(-c5cccc(S(=O)(=O)[O-])c5F)c5nc(c(-c6cccc(S(=O)(=O)[O-])c6F)c6ccc3[nH]6)C=C5)C=C4)cc2)c2ccccc2n1
REMARK SMILES IDX 19 1 18 2 16 3 17 4 15 6 13 7 14 8 94 9 93 10 88 11 92 12
REMARK SMILES IDX 89 13 91 14 90 15 12 16 11 17 9 18 8 19 10 21 7 22 1 23 2 24
REMARK SMILES IDX 3 25 4 26 6 27 5 28 20 29 21 30 22 31 23 32 24 34 25 35
REMARK SMILES IDX 26 36 87 37 27 38 86 39 28 40 29 41 30 42 80 43 31 44 85 45
REMARK SMILES IDX 79 46 81 47 32 48 84 49 78 50 77 51 33 53 65 54 45 55 64 56
REMARK SMILES IDX 46 57 49 58 63 59 82 60 47 61 48 62 62 64 83 65 50 66 34 67
REMARK SMILES IDX 35 68 43 69 36 70 38 71 44 72 37 73 39 74 40 75 41 76 42 77
REMARK SMILES IDX 66 78 67 79 75 80 68 81 70 82 76 83 69 84 71 85 72 86 73 87
REMARK SMILES IDX 74 88 51 89 52 90 60 91 53 92 55 93 61 94 54 95 56 96 57 97
REMARK SMILES IDX 58 98 59 99
REMARK H PARENT 18 5 8 20 22 33 81 52 49 63
REMARK Flexibility Score: inf
ROOT
ATOM      1  C   UNL A   1      37.173  23.888  25.903  1.00  0.00     0.118 C 
ENDROOT
BRANCH   1   2
ATOM      2  N   UNL A   1      37.314  23.255  24.606  1.00  0.00    -0.351 N 
ATOM      3  C   UNL A   1      36.508  23.143  23.495  1.00  0.00     0.270 C 
ATOM      4  O   UNL A   1      37.065  22.837  22.437  1.00  0.00    -0.267 OA
ATOM      5  H   UNL A   1      38.180  22.803  24.495  1.00  0.00     0.163 HD
BRANCH   3   6
ATOM      6  C   UNL A   1      35.005  23.178  23.531  1.00  0.00     0.140 A 
ATOM      7  C   UNL A   1      33.255  24.405  22.732  1.00  0.00     0.189 A 
ATOM      8  N   UNL A   1      34.552  24.329  22.981  1.00  0.00    -0.217 NA
ATOM      9  N   UNL A   1      32.397  23.389  22.857  1.00  0.00    -0.222 NA
ATOM     10  C   UNL A   1      32.852  22.272  23.427  1.00  0.00     0.076 A 
ATOM     11  C   UNL A   1      34.149  22.147  23.930  1.00  0.00     0.032 A 
ATOM     12  C   UNL A   1      32.000  21.178  23.509  1.00  0.00     0.029 A 
ATOM     13  C   UNL A   1      34.447  21.034  24.755  1.00  0.00     0.013 A 
ATOM     14  C   UNL A   1      32.379  19.992  24.138  1.00  0.00     0.002 A 
ATOM     15  C   UNL A   1      33.591  19.937  24.809  1.00  0.00     0.001 A 
BRANCH   7  16
ATOM     16  S   UNL A   1      32.628  25.939  22.135  1.00  0.00    -0.076 SA
BRANCH  16  17
ATOM     17  C   UNL A   1      30.897  25.791  22.684  1.00  0.00     0.178 C 
BRANCH  17  18
ATOM     18  C   UNL A   1      30.534  26.680  23.858  1.00  0.00     0.234 C 
ATOM     19  N   UNL A   1      30.664  26.347  25.173  1.00  0.00    -0.325 N 
ATOM     20  H   UNL A   1      30.323  27.052  25.770  1.00  0.00     0.169 HD
ATOM     21  O   UNL A   1      30.044  27.800  23.650  1.00  0.00    -0.274 OA
BRANCH  19  22
ATOM     22  C   UNL A   1      31.166  25.242  25.885  1.00  0.00     0.044 A 
ATOM     23  C   UNL A   1      33.534  26.302  25.952  1.00  0.00     0.046 C 
ATOM     24  C   UNL A   1      32.548  25.184  26.180  1.00  0.00    -0.027 A 
ATOM     25  C   UNL A   1      33.088  23.999  26.724  1.00  0.00     0.005 A 
ATOM     26  C   UNL A   1      32.279  22.905  27.015  1.00  0.00     0.000 A 
ATOM     27  C   UNL A   1      30.363  24.174  26.294  1.00  0.00     0.026 A 
ATOM     28  C   UNL A   1      30.911  23.005  26.827  1.00  0.00     0.002 A 
ENDBRANCH  19  22
ENDBRANCH  17  18
ENDBRANCH  16  17
ENDBRANCH   7  16
ENDBRANCH   3   6
ENDBRANCH   1   2
BRANCH   1  29
ATOM     29  C   UNL A   1      38.441  24.455  26.505  1.00  0.00     0.042 C 
BRANCH  29  30
ATOM     30  C   UNL A   1      39.304  23.335  27.066  1.00  0.00     0.118 C 
BRANCH  30  31
ATOM     31  N   UNL A   1      40.430  22.948  26.210  1.00  0.00    -0.352 N 
ATOM     32  C   UNL A   1      41.754  23.366  26.262  1.00  0.00     0.251 C 
ATOM     33  H   UNL A   1      40.219  22.302  25.498  1.00  0.00     0.163 HD
ATOM     34  O   UNL A   1      42.554  22.940  25.431  1.00  0.00    -0.269 OA
BRANCH  32  35
ATOM     35  C   UNL A   1      42.200  24.203  27.402  1.00  0.00     0.039 A 
ATOM     36  C   UNL A   1      42.568  25.525  27.123  1.00  0.00     0.014 A 
ATOM     37  C   UNL A   1      42.625  23.583  28.569  1.00  0.00     0.014 A 
ATOM     38  C   UNL A   1      43.636  26.084  27.813  1.00  0.00     0.010 A 
ATOM     39  C   UNL A   1      43.759  24.075  29.169  1.00  0.00     0.010 A 
ATOM     40  C   UNL A   1      44.314  25.278  28.717  1.00  0.00    -0.014 A 
BRANCH  40  41
ATOM     41  C   UNL A   1      45.651  25.540  29.216  1.00  0.00     0.031 A 
ATOM     42  C   UNL A   1      46.807  25.029  28.458  1.00  0.00     0.074 A 
ATOM     43  C   UNL A   1      45.795  26.488  30.175  1.00  0.00     0.049 A 
ATOM     44  N   UNL A   1      48.022  25.095  28.874  1.00  0.00    -0.248 NA
ATOM     45  C   UNL A   1      46.676  24.375  27.155  1.00  0.00     0.031 C 
ATOM     46  C   UNL A   1      46.994  27.265  30.469  1.00  0.00     0.029 A 
ATOM     47  N   UNL A   1      44.918  26.836  31.213  1.00  0.00    -0.354 N 
ATOM     48  C   UNL A   1      48.820  24.871  27.777  1.00  0.00     0.074 A 
ATOM     49  C   UNL A   1      47.960  24.260  26.799  1.00  0.00     0.031 C 
ATOM     50  C   UNL A   1      46.900  27.759  31.713  1.00  0.00     0.029 A 
ATOM     51  C   UNL A   1      45.744  27.124  32.319  1.00  0.00     0.049 A 
ATOM     52  H   UNL A   1      43.935  26.873  31.177  1.00  0.00     0.167 HD
ATOM     53  C   UNL A   1      50.067  25.413  27.764  1.00  0.00     0.034 A 
ATOM     54  C   UNL A   1      45.787  26.356  33.451  1.00  0.00     0.034 A 
ATOM     55  C   UNL A   1      50.454  25.872  29.107  1.00  0.00     0.049 A 
ATOM     56  C   UNL A   1      47.170  25.780  33.745  1.00  0.00     0.074 A 
ATOM     57  C   UNL A   1      50.621  27.116  29.685  1.00  0.00     0.029 A 
ATOM     58  N   UNL A   1      50.454  24.953  30.156  1.00  0.00    -0.354 N 
ATOM     59  N   UNL A   1      48.200  25.885  32.949  1.00  0.00    -0.248 NA
ATOM     60  C   UNL A   1      47.492  25.014  34.947  1.00  0.00     0.031 C 
ATOM     61  C   UNL A   1      50.576  26.947  31.102  1.00  0.00     0.029 A 
ATOM     62  C   UNL A   1      50.442  25.596  31.385  1.00  0.00     0.049 A 
ATOM     63  H   UNL A   1      50.461  23.975  30.040  1.00  0.00     0.167 HD
ATOM     64  C   UNL A   1      49.229  25.099  33.400  1.00  0.00     0.074 A 
ATOM     65  C   UNL A   1      48.768  24.663  34.708  1.00  0.00     0.031 C 
ATOM     66  C   UNL A   1      50.327  24.816  32.622  1.00  0.00     0.034 A 
BRANCH  53  67
ATOM     67  C   UNL A   1      50.878  25.701  26.512  1.00  0.00     0.023 A 
ATOM     68  C   UNL A   1      52.205  25.220  26.475  1.00  0.00     0.012 A 
ATOM     69  C   UNL A   1      50.481  26.504  25.409  1.00  0.00     0.148 A 
ATOM     70  C   UNL A   1      53.078  25.504  25.417  1.00  0.00     0.002 A 
ATOM     71  C   UNL A   1      51.324  26.717  24.313  1.00  0.00     0.091 A 
ATOM     72  F   UNL A   1      49.325  27.173  25.443  1.00  0.00    -0.205 F 
ATOM     73  C   UNL A   1      52.632  26.231  24.321  1.00  0.00     0.022 A 
BRANCH  71  74
ATOM     74  S   UNL A   1      50.778  27.593  22.834  1.00  0.00     0.127 S 
ATOM     75  O   UNL A   1      49.437  27.047  22.627  1.00  0.00    -0.237 OA
ATOM     76  O   UNL A   1      50.805  28.991  23.267  1.00  0.00    -0.237 OA
ATOM     77  O   UNL A   1      51.749  27.274  21.793  1.00  0.00    -0.744 OA
ENDBRANCH  71  74
ENDBRANCH  53  67
BRANCH  54  78
ATOM     78  C   UNL A   1      44.485  25.695  33.768  1.00  0.00     0.023 A 
ATOM     79  C   UNL A   1      44.377  24.322  33.441  1.00  0.00     0.012 A 
ATOM     80  C   UNL A   1      43.592  26.240  34.708  1.00  0.00     0.148 A 
ATOM     81  C   UNL A   1      43.528  23.479  34.159  1.00  0.00     0.002 A 
ATOM     82  C   UNL A   1      42.737  25.392  35.412  1.00  0.00     0.091 A 
ATOM     83  F   UNL A   1      43.641  27.556  34.953  1.00  0.00    -0.205 F 
ATOM     84  C   UNL A   1      42.742  24.008  35.177  1.00  0.00     0.022 A 
BRANCH  82  85
ATOM     85  S   UNL A   1      41.682  26.005  36.736  1.00  0.00     0.127 S 
ATOM     86  O   UNL A   1      41.024  27.135  36.088  1.00  0.00    -0.237 OA
ATOM     87  O   UNL A   1      40.814  24.860  37.004  1.00  0.00    -0.237 OA
ATOM     88  O   UNL A   1      42.597  26.325  37.822  1.00  0.00    -0.744 OA
ENDBRANCH  82  85
ENDBRANCH  54  78
BRANCH  66  89
ATOM     89  C   UNL A   1      51.379  23.753  32.933  1.00  0.00     0.023 A 
ATOM     90  C   UNL A   1      52.762  24.020  32.911  1.00  0.00     0.012 A 
ATOM     91  C   UNL A   1      51.005  22.459  33.391  1.00  0.00     0.148 A 
ATOM     92  C   UNL A   1      53.721  23.052  33.240  1.00  0.00     0.002 A 
ATOM     93  C   UNL A   1      51.957  21.540  33.834  1.00  0.00     0.091 A 
ATOM     94  F   UNL A   1      49.715  22.091  33.383  1.00  0.00    -0.205 F 
ATOM     95  C   UNL A   1      53.319  21.817  33.723  1.00  0.00     0.022 A 
BRANCH  93  96
ATOM     96  S   UNL A   1      51.470  20.045  34.711  1.00  0.00     0.127 S 
ATOM     97  O   UNL A   1      52.620  19.172  34.490  1.00  0.00    -0.237 OA
ATOM     98  O   UNL A   1      51.321  20.520  36.088  1.00  0.00    -0.237 OA
ATOM     99  O   UNL A   1      50.218  19.634  34.088  1.00  0.00    -0.744 OA
ENDBRANCH  93  96
ENDBRANCH  66  89
ENDBRANCH  40  41
ENDBRANCH  32  35
ENDBRANCH  30  31
ENDBRANCH  29  30
ENDBRANCH   1  29
TORSDOF 17
ENDMDL
