MODEL 1
REMARK VINA RESULT:     -13.7      0.000      0.000
REMARK SMILES Cc1c(C(=O)Nc2ccc(C(=O)Nc3ccccc3C(=O)NCCCNC(=O)c3ccc(-c4c5nc(c(-c6cccc(S(=O)(=O)[O-])c6F)c6ccc([nH]6)c(-c6cccc(S(=O)(=O)[O-])c6F)c6nc(c(-c7cccc(S(=O)(=O)[O-])c7F)c7ccc4[nH]7)C=C6)C=C5)cc3)cc2)cccc1[N+](=O)[O-]
REMARK SMILES IDX 23 1 22 2 20 3 21 4 19 6 14 7 15 8 16 9 18 10 17 11 13 12
REMARK SMILES IDX 11 13 12 14 10 16 7 17 8 18 93 19 9 20 92 21 6 22 4 23 5 24
REMARK SMILES IDX 3 26 1 27 2 28 97 29 94 30 96 31 95 32 98 33 99 34 100 35
REMARK SMILES IDX 24 36 25 37 26 38 27 39 28 41 29 42 30 43 91 44 31 45 90 46
REMARK SMILES IDX 32 47 33 48 34 49 84 50 35 51 89 52 83 53 85 54 36 55 88 56
REMARK SMILES IDX 82 57 81 58 37 60 69 61 49 62 68 63 50 64 53 65 67 66 86 67
REMARK SMILES IDX 51 68 52 69 66 71 87 72 54 73 38 74 39 75 47 76 40 77 42 78
REMARK SMILES IDX 48 79 41 80 43 81 44 82 45 83 46 84 70 85 71 86 79 87 72 88
REMARK SMILES IDX 74 89 80 90 73 91 75 92 76 93 77 94 78 95 55 96 56 97 64 98
REMARK SMILES IDX 57 99 59 100 65 101 58 102 60 103 61 104 62 105 63 106
REMARK H PARENT 22 5 13 15 6 25 26 40 85 59 53 70
REMARK Flexibility Score: inf
ROOT
ATOM      1  C   UNL A   1      37.095  20.964  24.998  1.00  0.00     0.118 C 
ENDROOT
BRANCH   1   2
ATOM      2  N   UNL A   1      35.943  21.196  25.864  1.00  0.00    -0.352 N 
ATOM      3  C   UNL A   1      34.719  20.593  26.062  1.00  0.00     0.253 C 
ATOM      4  O   UNL A   1      34.088  20.935  27.061  1.00  0.00    -0.269 OA
ATOM      5  H   UNL A   1      36.071  21.976  26.450  1.00  0.00     0.163 HD
BRANCH   3   6
ATOM      6  C   UNL A   1      34.105  19.603  25.126  1.00  0.00     0.063 A 
ATOM      7  C   UNL A   1      32.715  19.614  24.836  1.00  0.00     0.054 A 
ATOM      8  C   UNL A   1      32.175  18.637  23.976  1.00  0.00     0.027 A 
ATOM      9  C   UNL A   1      32.990  17.701  23.348  1.00  0.00     0.002 A 
ATOM     10  C   UNL A   1      34.876  18.570  24.574  1.00  0.00     0.016 A 
ATOM     11  C   UNL A   1      34.341  17.660  23.657  1.00  0.00     0.001 A 
BRANCH   7  12
ATOM     12  N   UNL A   1      31.757  20.544  25.289  1.00  0.00    -0.321 N 
ATOM     13  C   UNL A   1      31.703  21.922  25.290  1.00  0.00     0.255 C 
ATOM     14  O   UNL A   1      30.778  22.456  25.911  1.00  0.00    -0.269 OA
ATOM     15  H   UNL A   1      30.963  20.122  25.688  1.00  0.00     0.170 HD
BRANCH  13  16
ATOM     16  C   UNL A   1      32.552  22.772  24.403  1.00  0.00     0.040 A 
ATOM     17  C   UNL A   1      33.814  24.770  22.869  1.00  0.00     0.041 A 
ATOM     18  C   UNL A   1      33.019  23.815  22.264  1.00  0.00     0.027 A 
ATOM     19  C   UNL A   1      34.143  24.616  24.218  1.00  0.00     0.027 A 
ATOM     20  C   UNL A   1      32.324  22.893  23.035  1.00  0.00     0.016 A 
ATOM     21  C   UNL A   1      33.509  23.619  24.983  1.00  0.00     0.016 A 
BRANCH  17  22
ATOM     22  N   UNL A   1      34.177  25.950  22.201  1.00  0.00    -0.322 N 
ATOM     23  C   UNL A   1      33.568  27.196  22.184  1.00  0.00     0.256 C 
ATOM     24  O   UNL A   1      33.971  28.059  21.406  1.00  0.00    -0.269 OA
ATOM     25  H   UNL A   1      34.996  25.882  21.657  1.00  0.00     0.170 HD
BRANCH  23  26
ATOM     26  C   UNL A   1      32.416  27.559  23.075  1.00  0.00     0.049 A 
ATOM     27  C   UNL A   1      33.839  28.387  25.019  1.00  0.00     0.053 C 
ATOM     28  C   UNL A   1      32.521  27.950  24.432  1.00  0.00     0.039 A 
ATOM     29  C   UNL A   1      31.331  27.951  25.198  1.00  0.00     0.273 A 
ATOM     30  C   UNL A   1      31.146  27.472  22.472  1.00  0.00     0.014 A 
ATOM     31  C   UNL A   1      30.069  27.843  24.589  1.00  0.00     0.086 A 
ATOM     32  C   UNL A   1      29.981  27.660  23.214  1.00  0.00     0.008 A 
BRANCH  29  33
ATOM     33  N   UNL A   1      31.358  27.952  26.669  1.00  0.00     0.063 N 
ATOM     34  O   UNL A   1      31.268  26.857  27.244  1.00  0.00    -0.258 OA
ATOM     35  O   UNL A   1      31.546  29.031  27.246  1.00  0.00    -0.258 OA
ENDBRANCH  29  33
ENDBRANCH  23  26
ENDBRANCH  17  22
ENDBRANCH  13  16
ENDBRANCH   7  12
ENDBRANCH   3   6
ENDBRANCH   1   2
BRANCH   1  36
ATOM     36  C   UNL A   1      38.446  21.037  25.688  1.00  0.00     0.042 C 
BRANCH  36  37
ATOM     37  C   UNL A   1      38.891  22.464  25.977  1.00  0.00     0.118 C 
BRANCH  37  38
ATOM     38  N   UNL A   1      39.819  22.500  27.101  1.00  0.00    -0.352 N 
ATOM     39  C   UNL A   1      40.487  23.562  27.672  1.00  0.00     0.251 C 
ATOM     40  H   UNL A   1      39.998  21.626  27.518  1.00  0.00     0.163 HD
ATOM     41  O   UNL A   1      41.529  23.339  28.284  1.00  0.00    -0.269 OA
BRANCH  39  42
ATOM     42  C   UNL A   1      39.824  24.884  27.739  1.00  0.00     0.039 A 
ATOM     43  C   UNL A   1      40.317  25.863  26.863  1.00  0.00     0.014 A 
ATOM     44  C   UNL A   1      39.029  25.243  28.821  1.00  0.00     0.014 A 
ATOM     45  C   UNL A   1      40.261  27.200  27.232  1.00  0.00     0.010 A 
ATOM     46  C   UNL A   1      39.032  26.555  29.227  1.00  0.00     0.010 A 
ATOM     47  C   UNL A   1      39.727  27.508  28.477  1.00  0.00    -0.014 A 
BRANCH  47  48
ATOM     48  C   UNL A   1      39.843  28.801  29.119  1.00  0.00     0.031 A 
ATOM     49  C   UNL A   1      38.891  29.861  28.767  1.00  0.00     0.074 A 
ATOM     50  C   UNL A   1      40.688  28.913  30.168  1.00  0.00     0.049 A 
ATOM     51  N   UNL A   1      39.038  31.102  29.070  1.00  0.00    -0.248 NA
ATOM     52  C   UNL A   1      37.681  29.581  28.006  1.00  0.00     0.031 C 
ATOM     53  C   UNL A   1      40.701  29.943  31.196  1.00  0.00     0.029 A 
ATOM     54  N   UNL A   1      41.865  28.190  30.397  1.00  0.00    -0.354 N 
ATOM     55  C   UNL A   1      37.830  31.723  28.828  1.00  0.00     0.074 A 
ATOM     56  C   UNL A   1      37.064  30.763  28.070  1.00  0.00     0.031 C 
ATOM     57  C   UNL A   1      41.927  29.978  31.748  1.00  0.00     0.029 A 
ATOM     58  C   UNL A   1      42.771  29.123  30.930  1.00  0.00     0.049 A 
ATOM     59  H   UNL A   1      42.024  27.234  30.223  1.00  0.00     0.167 HD
ATOM     60  C   UNL A   1      37.570  32.906  29.455  1.00  0.00     0.034 A 
ATOM     61  C   UNL A   1      43.893  29.537  30.264  1.00  0.00     0.034 A 
ATOM     62  C   UNL A   1      38.765  33.375  30.179  1.00  0.00     0.049 A 
ATOM     63  C   UNL A   1      43.942  31.044  30.051  1.00  0.00     0.074 A 
ATOM     64  C   UNL A   1      39.155  33.304  31.509  1.00  0.00     0.029 A 
ATOM     65  N   UNL A   1      39.902  33.733  29.461  1.00  0.00    -0.354 N 
ATOM     66  N   UNL A   1      42.935  31.854  30.233  1.00  0.00    -0.248 NA
ATOM     67  C   UNL A   1      45.134  31.747  29.592  1.00  0.00     0.031 C 
ATOM     68  C   UNL A   1      40.557  33.544  31.570  1.00  0.00     0.029 A 
ATOM     69  C   UNL A   1      41.015  33.796  30.288  1.00  0.00     0.049 A 
ATOM     70  H   UNL A   1      39.915  33.917  28.494  1.00  0.00     0.167 HD
ATOM     71  C   UNL A   1      43.266  33.122  29.825  1.00  0.00     0.074 A 
ATOM     72  C   UNL A   1      44.683  33.012  29.512  1.00  0.00     0.031 C 
ATOM     73  C   UNL A   1      42.328  34.121  29.729  1.00  0.00     0.034 A 
BRANCH  60  74
ATOM     74  C   UNL A   1      36.175  33.471  29.703  1.00  0.00     0.023 A 
ATOM     75  C   UNL A   1      35.508  34.048  28.597  1.00  0.00     0.012 A 
ATOM     76  C   UNL A   1      35.492  33.564  30.939  1.00  0.00     0.148 A 
ATOM     77  C   UNL A   1      34.310  34.764  28.723  1.00  0.00     0.002 A 
ATOM     78  C   UNL A   1      34.331  34.332  31.082  1.00  0.00     0.091 A 
ATOM     79  F   UNL A   1      35.898  32.838  31.981  1.00  0.00    -0.205 F 
ATOM     80  C   UNL A   1      33.739  34.939  29.974  1.00  0.00     0.022 A 
BRANCH  78  81
ATOM     81  S   UNL A   1      33.574  34.657  32.688  1.00  0.00     0.127 S 
ATOM     82  O   UNL A   1      33.322  33.304  33.189  1.00  0.00    -0.237 OA
ATOM     83  O   UNL A   1      34.631  35.379  33.393  1.00  0.00    -0.237 OA
ATOM     84  O   UNL A   1      32.363  35.424  32.418  1.00  0.00    -0.744 OA
ENDBRANCH  78  81
ENDBRANCH  60  74
BRANCH  61  85
ATOM     85  C   UNL A   1      44.437  28.523  29.306  1.00  0.00     0.023 A 
ATOM     86  C   UNL A   1      44.856  27.281  29.845  1.00  0.00     0.012 A 
ATOM     87  C   UNL A   1      44.189  28.608  27.925  1.00  0.00     0.148 A 
ATOM     88  C   UNL A   1      44.857  26.123  29.065  1.00  0.00     0.002 A 
ATOM     89  C   UNL A   1      44.208  27.448  27.149  1.00  0.00     0.091 A 
ATOM     90  F   UNL A   1      43.881  29.798  27.396  1.00  0.00    -0.205 F 
ATOM     91  C   UNL A   1      44.492  26.201  27.726  1.00  0.00     0.022 A 
BRANCH  89  92
ATOM     92  S   UNL A   1      43.762  27.490  25.408  1.00  0.00     0.127 S 
ATOM     93  O   UNL A   1      45.031  27.859  24.788  1.00  0.00    -0.237 OA
ATOM     94  O   UNL A   1      43.332  26.115  25.153  1.00  0.00    -0.237 OA
ATOM     95  O   UNL A   1      42.688  28.470  25.329  1.00  0.00    -0.744 OA
ENDBRANCH  89  92
ENDBRANCH  61  85
BRANCH  73  96
ATOM     96  C   UNL A   1      42.525  35.497  29.091  1.00  0.00     0.023 A 
ATOM     97  C   UNL A   1      41.897  35.885  27.893  1.00  0.00     0.012 A 
ATOM     98  C   UNL A   1      43.272  36.514  29.753  1.00  0.00     0.148 A 
ATOM     99  C   UNL A   1      42.033  37.171  27.354  1.00  0.00     0.002 A 
ATOM    100  C   UNL A   1      43.307  37.824  29.275  1.00  0.00     0.091 A 
ATOM    101  F   UNL A   1      43.991  36.218  30.845  1.00  0.00    -0.205 F 
ATOM    102  C   UNL A   1      42.714  38.150  28.058  1.00  0.00     0.022 A 
BRANCH 100 103
ATOM    103  S   UNL A   1      43.980  39.166  30.269  1.00  0.00     0.127 S 
ATOM    104  O   UNL A   1      43.837  38.640  31.625  1.00  0.00    -0.237 OA
ATOM    105  O   UNL A   1      45.362  39.246  29.790  1.00  0.00    -0.237 OA
ATOM    106  O   UNL A   1      43.168  40.329  29.940  1.00  0.00    -0.744 OA
ENDBRANCH 100 103
ENDBRANCH  73  96
ENDBRANCH  47  48
ENDBRANCH  39  42
ENDBRANCH  37  38
ENDBRANCH  36  37
ENDBRANCH   1  36
TORSDOF 18
ENDMDL
MODEL 2
REMARK VINA RESULT:     -13.5      4.058     10.038
REMARK SMILES Cc1c(C(=O)Nc2ccc(C(=O)Nc3ccccc3C(=O)NCCCNC(=O)c3ccc(-c4c5nc(c(-c6cccc(S(=O)(=O)[O-])c6F)c6ccc([nH]6)c(-c6cccc(S(=O)(=O)[O-])c6F)c6nc(c(-c7cccc(S(=O)(=O)[O-])c7F)c7ccc4[nH]7)C=C6)C=C5)cc3)cc2)cccc1[N+](=O)[O-]
REMARK SMILES IDX 23 1 22 2 20 3 21 4 19 6 14 7 15 8 16 9 18 10 17 11 13 12
REMARK SMILES IDX 11 13 12 14 10 16 7 17 8 18 93 19 9 20 92 21 6 22 4 23 5 24
REMARK SMILES IDX 3 26 1 27 2 28 97 29 94 30 96 31 95 32 98 33 99 34 100 35
REMARK SMILES IDX 24 36 25 37 26 38 27 39 28 41 29 42 30 43 91 44 31 45 90 46
REMARK SMILES IDX 32 47 33 48 34 49 84 50 35 51 89 52 83 53 85 54 36 55 88 56
REMARK SMILES IDX 82 57 81 58 37 60 69 61 49 62 68 63 50 64 53 65 67 66 86 67
REMARK SMILES IDX 51 68 52 69 66 71 87 72 54 73 38 74 39 75 47 76 40 77 42 78
REMARK SMILES IDX 48 79 41 80 43 81 44 82 45 83 46 84 70 85 71 86 79 87 72 88
REMARK SMILES IDX 74 89 80 90 73 91 75 92 76 93 77 94 78 95 55 96 56 97 64 98
REMARK SMILES IDX 57 99 59 100 65 101 58 102 60 103 61 104 62 105 63 106
REMARK H PARENT 22 5 13 15 6 25 26 40 85 59 53 70
REMARK Flexibility Score: inf
ROOT
ATOM      1  C   UNL A   1      31.727  30.419  26.422  1.00  0.00     0.118 C 
ENDROOT
BRANCH   1   2
ATOM      2  N   UNL A   1      32.284  29.934  25.162  1.00  0.00    -0.352 N 
ATOM      3  C   UNL A   1      31.817  29.763  23.877  1.00  0.00     0.253 C 
ATOM      4  O   UNL A   1      32.658  29.542  23.006  1.00  0.00    -0.269 OA
ATOM      5  H   UNL A   1      33.225  29.661  25.255  1.00  0.00     0.163 HD
BRANCH   3   6
ATOM      6  C   UNL A   1      30.372  29.781  23.494  1.00  0.00     0.063 A 
ATOM      7  C   UNL A   1      29.839  28.861  22.553  1.00  0.00     0.054 A 
ATOM      8  C   UNL A   1      28.478  28.941  22.196  1.00  0.00     0.027 A 
ATOM      9  C   UNL A   1      27.628  29.861  22.801  1.00  0.00     0.002 A 
ATOM     10  C   UNL A   1      29.515  30.773  23.991  1.00  0.00     0.016 A 
ATOM     11  C   UNL A   1      28.150  30.786  23.692  1.00  0.00     0.001 A 
BRANCH   7  12
ATOM     12  N   UNL A   1      30.517  27.800  21.921  1.00  0.00    -0.321 N 
ATOM     13  C   UNL A   1      31.288  26.757  22.389  1.00  0.00     0.255 C 
ATOM     14  O   UNL A   1      31.881  26.066  21.554  1.00  0.00    -0.269 OA
ATOM     15  H   UNL A   1      30.419  27.804  20.941  1.00  0.00     0.170 HD
BRANCH  13  16
ATOM     16  C   UNL A   1      31.252  26.290  23.808  1.00  0.00     0.040 A 
ATOM     17  C   UNL A   1      31.487  25.001  26.301  1.00  0.00     0.041 A 
ATOM     18  C   UNL A   1      30.312  24.924  25.577  1.00  0.00     0.027 A 
ATOM     19  C   UNL A   1      32.483  25.884  25.878  1.00  0.00     0.027 A 
ATOM     20  C   UNL A   1      30.236  25.480  24.308  1.00  0.00     0.016 A 
ATOM     21  C   UNL A   1      32.365  26.525  24.631  1.00  0.00     0.016 A 
BRANCH  17  22
ATOM     22  N   UNL A   1      31.753  24.118  27.360  1.00  0.00    -0.322 N 
ATOM     23  C   UNL A   1      32.320  22.852  27.352  1.00  0.00     0.256 C 
ATOM     24  O   UNL A   1      32.325  22.182  28.384  1.00  0.00    -0.269 OA
ATOM     25  H   UNL A   1      31.496  24.450  28.251  1.00  0.00     0.170 HD
BRANCH  23  26
ATOM     26  C   UNL A   1      32.935  22.235  26.130  1.00  0.00     0.049 A 
ATOM     27  C   UNL A   1      35.213  23.345  26.395  1.00  0.00     0.053 C 
ATOM     28  C   UNL A   1      34.198  22.575  25.588  1.00  0.00     0.039 A 
ATOM     29  C   UNL A   1      34.480  22.126  24.275  1.00  0.00     0.273 A 
ATOM     30  C   UNL A   1      32.147  21.254  25.496  1.00  0.00     0.014 A 
ATOM     31  C   UNL A   1      33.675  21.163  23.643  1.00  0.00     0.086 A 
ATOM     32  C   UNL A   1      32.538  20.688  24.284  1.00  0.00     0.008 A 
BRANCH  29  33
ATOM     33  N   UNL A   1      35.555  22.724  23.468  1.00  0.00     0.063 N 
ATOM     34  O   UNL A   1      35.279  23.732  22.802  1.00  0.00    -0.258 OA
ATOM     35  O   UNL A   1      36.689  22.236  23.559  1.00  0.00    -0.258 OA
ENDBRANCH  29  33
ENDBRANCH  23  26
ENDBRANCH  17  22
ENDBRANCH  13  16
ENDBRANCH   7  12
ENDBRANCH   3   6
ENDBRANCH   1   2
BRANCH   1  36
ATOM     36  C   UNL A   1      32.726  31.069  27.362  1.00  0.00     0.042 C 
BRANCH  36  37
ATOM     37  C   UNL A   1      34.161  30.626  27.106  1.00  0.00     0.118 C 
BRANCH  37  38
ATOM     38  N   UNL A   1      35.107  31.617  27.606  1.00  0.00    -0.352 N 
ATOM     39  C   UNL A   1      36.185  31.473  28.452  1.00  0.00     0.251 C 
ATOM     40  H   UNL A   1      34.949  32.535  27.288  1.00  0.00     0.163 HD
ATOM     41  O   UNL A   1      36.562  32.452  29.093  1.00  0.00    -0.269 OA
BRANCH  39  42
ATOM     42  C   UNL A   1      36.993  30.235  28.392  1.00  0.00     0.039 A 
ATOM     43  C   UNL A   1      37.240  29.602  29.621  1.00  0.00     0.014 A 
ATOM     44  C   UNL A   1      37.751  29.916  27.271  1.00  0.00     0.014 A 
ATOM     45  C   UNL A   1      38.416  28.884  29.795  1.00  0.00     0.010 A 
ATOM     46  C   UNL A   1      38.948  29.268  27.455  1.00  0.00     0.010 A 
ATOM     47  C   UNL A   1      39.312  28.839  28.735  1.00  0.00    -0.014 A 
BRANCH  47  48
ATOM     48  C   UNL A   1      40.680  28.375  28.839  1.00  0.00     0.031 A 
ATOM     49  C   UNL A   1      40.961  26.942  28.681  1.00  0.00     0.074 A 
ATOM     50  C   UNL A   1      41.662  29.302  28.866  1.00  0.00     0.049 A 
ATOM     51  N   UNL A   1      42.074  26.381  28.996  1.00  0.00    -0.248 NA
ATOM     52  C   UNL A   1      39.963  26.020  28.160  1.00  0.00     0.031 C 
ATOM     53  C   UNL A   1      43.077  29.111  28.582  1.00  0.00     0.029 A 
ATOM     54  N   UNL A   1      41.591  30.607  29.369  1.00  0.00    -0.354 N 
ATOM     55  C   UNL A   1      42.057  25.115  28.446  1.00  0.00     0.074 A 
ATOM     56  C   UNL A   1      40.690  24.906  28.037  1.00  0.00     0.031 C 
ATOM     57  C   UNL A   1      43.767  30.107  29.164  1.00  0.00     0.029 A 
ATOM     58  C   UNL A   1      42.824  30.822  30.008  1.00  0.00     0.049 A 
ATOM     59  H   UNL A   1      40.840  31.238  29.291  1.00  0.00     0.167 HD
ATOM     60  C   UNL A   1      43.246  24.477  28.249  1.00  0.00     0.034 A 
ATOM     61  C   UNL A   1      42.946  30.972  31.363  1.00  0.00     0.034 A 
ATOM     62  C   UNL A   1      44.350  25.254  28.841  1.00  0.00     0.049 A 
ATOM     63  C   UNL A   1      43.878  29.950  31.999  1.00  0.00     0.074 A 
ATOM     64  C   UNL A   1      45.280  26.135  28.308  1.00  0.00     0.029 A 
ATOM     65  N   UNL A   1      44.400  25.426  30.221  1.00  0.00    -0.354 N 
ATOM     66  N   UNL A   1      44.326  28.880  31.402  1.00  0.00    -0.248 NA
ATOM     67  C   UNL A   1      44.359  30.053  33.372  1.00  0.00     0.031 C 
ATOM     68  C   UNL A   1      45.831  26.895  29.379  1.00  0.00     0.029 A 
ATOM     69  C   UNL A   1      45.265  26.456  30.564  1.00  0.00     0.049 A 
ATOM     70  H   UNL A   1      43.889  24.888  30.869  1.00  0.00     0.167 HD
ATOM     71  C   UNL A   1      45.029  28.101  32.288  1.00  0.00     0.074 A 
ATOM     72  C   UNL A   1      45.088  28.928  33.484  1.00  0.00     0.031 C 
ATOM     73  C   UNL A   1      45.442  26.831  31.967  1.00  0.00     0.034 A 
BRANCH  60  74
ATOM     74  C   UNL A   1      43.471  23.346  27.250  1.00  0.00     0.023 A 
ATOM     75  C   UNL A   1      44.243  23.643  26.103  1.00  0.00     0.012 A 
ATOM     76  C   UNL A   1      42.925  22.041  27.292  1.00  0.00     0.148 A 
ATOM     77  C   UNL A   1      44.371  22.758  25.024  1.00  0.00     0.002 A 
ATOM     78  C   UNL A   1      42.994  21.179  26.191  1.00  0.00     0.091 A 
ATOM     79  F   UNL A   1      42.407  21.571  28.427  1.00  0.00    -0.205 F 
ATOM     80  C   UNL A   1      43.713  21.538  25.052  1.00  0.00     0.022 A 
BRANCH  78  81
ATOM     81  S   UNL A   1      42.109  19.608  26.132  1.00  0.00     0.127 S 
ATOM     82  O   UNL A   1      42.671  18.982  24.933  1.00  0.00    -0.237 OA
ATOM     83  O   UNL A   1      42.506  18.976  27.389  1.00  0.00    -0.237 OA
ATOM     84  O   UNL A   1      40.695  19.943  26.018  1.00  0.00    -0.744 OA
ENDBRANCH  78  81
ENDBRANCH  60  74
BRANCH  61  85
ATOM     85  C   UNL A   1      41.724  31.536  32.021  1.00  0.00     0.023 A 
ATOM     86  C   UNL A   1      41.312  32.832  31.621  1.00  0.00     0.012 A 
ATOM     87  C   UNL A   1      40.803  30.714  32.691  1.00  0.00     0.148 A 
ATOM     88  C   UNL A   1      39.976  33.224  31.726  1.00  0.00     0.002 A 
ATOM     89  C   UNL A   1      39.473  31.121  32.808  1.00  0.00     0.091 A 
ATOM     90  F   UNL A   1      41.212  29.526  33.152  1.00  0.00    -0.205 F 
ATOM     91  C   UNL A   1      39.048  32.351  32.282  1.00  0.00     0.022 A 
BRANCH  89  92
ATOM     92  S   UNL A   1      38.232  30.041  33.533  1.00  0.00     0.127 S 
ATOM     93  O   UNL A   1      38.393  30.323  34.956  1.00  0.00    -0.237 OA
ATOM     94  O   UNL A   1      36.989  30.540  32.946  1.00  0.00    -0.237 OA
ATOM     95  O   UNL A   1      38.603  28.706  33.086  1.00  0.00    -0.744 OA
ENDBRANCH  89  92
ENDBRANCH  61  85
BRANCH  73  96
ATOM     96  C   UNL A   1      46.036  25.797  32.926  1.00  0.00     0.023 A 
ATOM     97  C   UNL A   1      47.405  25.742  33.245  1.00  0.00     0.012 A 
ATOM     98  C   UNL A   1      45.197  24.902  33.650  1.00  0.00     0.148 A 
ATOM     99  C   UNL A   1      47.926  24.834  34.176  1.00  0.00     0.002 A 
ATOM    100  C   UNL A   1      45.703  24.082  34.660  1.00  0.00     0.091 A 
ATOM    101  F   UNL A   1      43.895  24.803  33.347  1.00  0.00    -0.205 F 
ATOM    102  C   UNL A   1      47.072  24.022  34.905  1.00  0.00     0.022 A 
BRANCH 100 103
ATOM    103  S   UNL A   1      44.609  23.191  35.778  1.00  0.00     0.127 S 
ATOM    104  O   UNL A   1      43.735  24.258  36.262  1.00  0.00    -0.237 OA
ATOM    105  O   UNL A   1      43.959  22.233  34.882  1.00  0.00    -0.237 OA
ATOM    106  O   UNL A   1      45.487  22.580  36.766  1.00  0.00    -0.744 OA
ENDBRANCH 100 103
ENDBRANCH  73  96
ENDBRANCH  47  48
ENDBRANCH  39  42
ENDBRANCH  37  38
ENDBRANCH  36  37
ENDBRANCH   1  36
TORSDOF 18
ENDMDL
MODEL 3
REMARK VINA RESULT:     -13.4      3.947     10.441
REMARK SMILES Cc1c(C(=O)Nc2ccc(C(=O)Nc3ccccc3C(=O)NCCCNC(=O)c3ccc(-c4c5nc(c(-c6cccc(S(=O)(=O)[O-])c6F)c6ccc([nH]6)c(-c6cccc(S(=O)(=O)[O-])c6F)c6nc(c(-c7cccc(S(=O)(=O)[O-])c7F)c7ccc4[nH]7)C=C6)C=C5)cc3)cc2)cccc1[N+](=O)[O-]
REMARK SMILES IDX 23 1 22 2 20 3 21 4 19 6 14 7 15 8 16 9 18 10 17 11 13 12
REMARK SMILES IDX 11 13 12 14 10 16 7 17 8 18 93 19 9 20 92 21 6 22 4 23 5 24
REMARK SMILES IDX 3 26 1 27 2 28 97 29 94 30 96 31 95 32 98 33 99 34 100 35
REMARK SMILES IDX 24 36 25 37 26 38 27 39 28 41 29 42 30 43 91 44 31 45 90 46
REMARK SMILES IDX 32 47 33 48 34 49 84 50 35 51 89 52 83 53 85 54 36 55 88 56
REMARK SMILES IDX 82 57 81 58 37 60 69 61 49 62 68 63 50 64 53 65 67 66 86 67
REMARK SMILES IDX 51 68 52 69 66 71 87 72 54 73 38 74 39 75 47 76 40 77 42 78
REMARK SMILES IDX 48 79 41 80 43 81 44 82 45 83 46 84 70 85 71 86 79 87 72 88
REMARK SMILES IDX 74 89 80 90 73 91 75 92 76 93 77 94 78 95 55 96 56 97 64 98
REMARK SMILES IDX 57 99 59 100 65 101 58 102 60 103 61 104 62 105 63 106
REMARK H PARENT 22 5 13 15 6 25 26 40 85 59 53 70
REMARK Flexibility Score: inf
ROOT
ATOM      1  C   UNL A   1      33.733  34.299  28.310  1.00  0.00     0.118 C 
ENDROOT
BRANCH   1   2
ATOM      2  N   UNL A   1      32.549  33.760  27.648  1.00  0.00    -0.352 N 
ATOM      3  C   UNL A   1      32.138  32.518  27.216  1.00  0.00     0.253 C 
ATOM      4  O   UNL A   1      30.954  32.403  26.902  1.00  0.00    -0.269 OA
ATOM      5  H   UNL A   1      31.879  34.457  27.463  1.00  0.00     0.163 HD
BRANCH   3   6
ATOM      6  C   UNL A   1      33.041  31.336  27.063  1.00  0.00     0.063 A 
ATOM      7  C   UNL A   1      32.815  30.349  26.067  1.00  0.00     0.054 A 
ATOM      8  C   UNL A   1      33.672  29.234  25.985  1.00  0.00     0.027 A 
ATOM      9  C   UNL A   1      34.780  29.115  26.818  1.00  0.00     0.002 A 
ATOM     10  C   UNL A   1      34.094  31.121  27.964  1.00  0.00     0.016 A 
ATOM     11  C   UNL A   1      34.985  30.055  27.817  1.00  0.00     0.001 A 
BRANCH   7  12
ATOM     12  N   UNL A   1      31.816  30.355  25.073  1.00  0.00    -0.321 N 
ATOM     13  C   UNL A   1      31.177  29.357  24.368  1.00  0.00     0.255 C 
ATOM     14  O   UNL A   1      30.441  29.699  23.437  1.00  0.00    -0.269 OA
ATOM     15  H   UNL A   1      31.511  31.260  24.833  1.00  0.00     0.170 HD
BRANCH  13  16
ATOM     16  C   UNL A   1      31.149  27.933  24.815  1.00  0.00     0.040 A 
ATOM     17  C   UNL A   1      30.560  25.294  25.607  1.00  0.00     0.041 A 
ATOM     18  C   UNL A   1      30.915  26.247  26.543  1.00  0.00     0.027 A 
ATOM     19  C   UNL A   1      30.689  25.601  24.250  1.00  0.00     0.027 A 
ATOM     20  C   UNL A   1      31.109  27.566  26.158  1.00  0.00     0.016 A 
ATOM     21  C   UNL A   1      30.980  26.920  23.857  1.00  0.00     0.016 A 
BRANCH  17  22
ATOM     22  N   UNL A   1      29.949  24.089  25.986  1.00  0.00    -0.322 N 
ATOM     23  C   UNL A   1      30.506  22.853  26.281  1.00  0.00     0.256 C 
ATOM     24  O   UNL A   1      29.772  21.880  26.448  1.00  0.00    -0.269 OA
ATOM     25  H   UNL A   1      28.966  24.126  26.054  1.00  0.00     0.170 HD
BRANCH  23  26
ATOM     26  C   UNL A   1      31.984  22.628  26.406  1.00  0.00     0.049 A 
ATOM     27  C   UNL A   1      32.405  22.266  23.920  1.00  0.00     0.053 C 
ATOM     28  C   UNL A   1      32.838  22.198  25.362  1.00  0.00     0.039 A 
ATOM     29  C   UNL A   1      34.128  21.742  25.729  1.00  0.00     0.273 A 
ATOM     30  C   UNL A   1      32.516  22.860  27.690  1.00  0.00     0.014 A 
ATOM     31  C   UNL A   1      34.642  21.960  27.019  1.00  0.00     0.086 A 
ATOM     32  C   UNL A   1      33.849  22.572  27.982  1.00  0.00     0.008 A 
BRANCH  29  33
ATOM     33  N   UNL A   1      34.945  20.922  24.821  1.00  0.00     0.063 N 
ATOM     34  O   UNL A   1      34.580  19.755  24.617  1.00  0.00    -0.258 OA
ATOM     35  O   UNL A   1      35.902  21.464  24.253  1.00  0.00    -0.258 OA
ENDBRANCH  29  33
ENDBRANCH  23  26
ENDBRANCH  17  22
ENDBRANCH  13  16
ENDBRANCH   7  12
ENDBRANCH   3   6
ENDBRANCH   1   2
BRANCH   1  36
ATOM     36  C   UNL A   1      33.557  35.675  28.929  1.00  0.00     0.042 C 
BRANCH  36  37
ATOM     37  C   UNL A   1      32.932  35.628  30.317  1.00  0.00     0.118 C 
BRANCH  37  38
ATOM     38  N   UNL A   1      33.833  36.200  31.310  1.00  0.00    -0.352 N 
ATOM     39  C   UNL A   1      34.561  35.589  32.309  1.00  0.00     0.251 C 
ATOM     40  H   UNL A   1      33.938  37.177  31.260  1.00  0.00     0.163 HD
ATOM     41  O   UNL A   1      34.885  36.256  33.290  1.00  0.00    -0.269 OA
BRANCH  39  42
ATOM     42  C   UNL A   1      35.128  34.243  32.074  1.00  0.00     0.039 A 
ATOM     43  C   UNL A   1      35.361  33.465  33.219  1.00  0.00     0.014 A 
ATOM     44  C   UNL A   1      35.720  33.907  30.861  1.00  0.00     0.014 A 
ATOM     45  C   UNL A   1      36.400  32.545  33.219  1.00  0.00     0.010 A 
ATOM     46  C   UNL A   1      36.794  33.050  30.875  1.00  0.00     0.010 A 
ATOM     47  C   UNL A   1      37.182  32.448  32.075  1.00  0.00    -0.014 A 
BRANCH  47  48
ATOM     48  C   UNL A   1      38.449  31.749  32.007  1.00  0.00     0.031 A 
ATOM     49  C   UNL A   1      38.505  30.433  31.359  1.00  0.00     0.074 A 
ATOM     50  C   UNL A   1      39.564  32.428  32.353  1.00  0.00     0.049 A 
ATOM     51  N   UNL A   1      39.493  29.616  31.455  1.00  0.00    -0.248 NA
ATOM     52  C   UNL A   1      37.402  29.930  30.552  1.00  0.00     0.031 C 
ATOM     53  C   UNL A   1      40.944  32.109  32.016  1.00  0.00     0.029 A 
ATOM     54  N   UNL A   1      39.676  33.473  33.280  1.00  0.00    -0.354 N 
ATOM     55  C   UNL A   1      39.304  28.640  30.499  1.00  0.00     0.074 A 
ATOM     56  C   UNL A   1      37.946  28.821  30.046  1.00  0.00     0.031 C 
ATOM     57  C   UNL A   1      41.752  32.710  32.907  1.00  0.00     0.029 A 
ATOM     58  C   UNL A   1      40.889  33.240  33.950  1.00  0.00     0.049 A 
ATOM     59  H   UNL A   1      39.041  34.210  33.429  1.00  0.00     0.167 HD
ATOM     60  C   UNL A   1      40.384  27.915  30.088  1.00  0.00     0.034 A 
ATOM     61  C   UNL A   1      40.956  32.892  35.272  1.00  0.00     0.034 A 
ATOM     62  C   UNL A   1      41.563  28.241  30.911  1.00  0.00     0.049 A 
ATOM     63  C   UNL A   1      41.674  31.571  35.509  1.00  0.00     0.074 A 
ATOM     64  C   UNL A   1      42.651  29.078  30.716  1.00  0.00     0.029 A 
ATOM     65  N   UNL A   1      41.561  27.916  32.264  1.00  0.00    -0.354 N 
ATOM     66  N   UNL A   1      41.977  30.712  34.575  1.00  0.00    -0.248 NA
ATOM     67  C   UNL A   1      42.086  31.111  36.830  1.00  0.00     0.031 C 
ATOM     68  C   UNL A   1      43.255  29.318  31.982  1.00  0.00     0.029 A 
ATOM     69  C   UNL A   1      42.560  28.601  32.941  1.00  0.00     0.049 A 
ATOM     70  H   UNL A   1      40.935  27.284  32.685  1.00  0.00     0.167 HD
ATOM     71  C   UNL A   1      42.494  29.568  35.132  1.00  0.00     0.074 A 
ATOM     72  C   UNL A   1      42.617  29.910  36.541  1.00  0.00     0.031 C 
ATOM     73  C   UNL A   1      42.715  28.435  34.387  1.00  0.00     0.034 A 
BRANCH  60  74
ATOM     74  C   UNL A   1      40.480  27.176  28.756  1.00  0.00     0.023 A 
ATOM     75  C   UNL A   1      39.656  26.038  28.591  1.00  0.00     0.012 A 
ATOM     76  C   UNL A   1      41.365  27.446  27.686  1.00  0.00     0.148 A 
ATOM     77  C   UNL A   1      39.778  25.166  27.500  1.00  0.00     0.002 A 
ATOM     78  C   UNL A   1      41.536  26.544  26.628  1.00  0.00     0.091 A 
ATOM     79  F   UNL A   1      41.993  28.620  27.619  1.00  0.00    -0.205 F 
ATOM     80  C   UNL A   1      40.746  25.399  26.536  1.00  0.00     0.022 A 
BRANCH  78  81
ATOM     81  S   UNL A   1      42.820  26.749  25.377  1.00  0.00     0.127 S 
ATOM     82  O   UNL A   1      42.295  27.856  24.575  1.00  0.00    -0.237 OA
ATOM     83  O   UNL A   1      43.993  27.085  26.182  1.00  0.00    -0.237 OA
ATOM     84  O   UNL A   1      42.894  25.482  24.660  1.00  0.00    -0.744 OA
ENDBRANCH  78  81
ENDBRANCH  60  74
BRANCH  61  85
ATOM     85  C   UNL A   1      39.806  33.395  36.089  1.00  0.00     0.023 A 
ATOM     86  C   UNL A   1      38.701  32.523  36.260  1.00  0.00     0.012 A 
ATOM     87  C   UNL A   1      39.947  34.482  36.969  1.00  0.00     0.148 A 
ATOM     88  C   UNL A   1      37.869  32.629  37.376  1.00  0.00     0.002 A 
ATOM     89  C   UNL A   1      39.100  34.590  38.073  1.00  0.00     0.091 A 
ATOM     90  F   UNL A   1      40.935  35.360  36.758  1.00  0.00    -0.205 F 
ATOM     91  C   UNL A   1      38.095  33.638  38.304  1.00  0.00     0.022 A 
BRANCH  89  92
ATOM     92  S   UNL A   1      39.334  35.885  39.299  1.00  0.00     0.127 S 
ATOM     93  O   UNL A   1      40.702  35.628  39.739  1.00  0.00    -0.237 OA
ATOM     94  O   UNL A   1      39.162  37.106  38.513  1.00  0.00    -0.237 OA
ATOM     95  O   UNL A   1      38.280  35.656  40.277  1.00  0.00    -0.744 OA
ENDBRANCH  89  92
ENDBRANCH  61  85
BRANCH  73  96
ATOM     96  C   UNL A   1      43.079  27.049  34.924  1.00  0.00     0.023 A 
ATOM     97  C   UNL A   1      42.138  26.180  35.507  1.00  0.00     0.012 A 
ATOM     98  C   UNL A   1      44.386  26.513  34.746  1.00  0.00     0.148 A 
ATOM     99  C   UNL A   1      42.470  24.888  35.934  1.00  0.00     0.002 A 
ATOM    100  C   UNL A   1      44.682  25.187  35.064  1.00  0.00     0.091 A 
ATOM    101  F   UNL A   1      45.379  27.293  34.296  1.00  0.00    -0.205 F 
ATOM    102  C   UNL A   1      43.735  24.380  35.687  1.00  0.00     0.022 A 
BRANCH 100 103
ATOM    103  S   UNL A   1      46.231  24.425  34.552  1.00  0.00     0.127 S 
ATOM    104  O   UNL A   1      46.217  24.651  33.108  1.00  0.00    -0.237 OA
ATOM    105  O   UNL A   1      47.224  25.215  35.282  1.00  0.00    -0.237 OA
ATOM    106  O   UNL A   1      46.137  23.038  34.988  1.00  0.00    -0.744 OA
ENDBRANCH 100 103
ENDBRANCH  73  96
ENDBRANCH  47  48
ENDBRANCH  39  42
ENDBRANCH  37  38
ENDBRANCH  36  37
ENDBRANCH   1  36
TORSDOF 18
ENDMDL
