MODEL 1
REMARK VINA RESULT:     -11.7      0.000      0.000
REMARK SMILES O=C(NCCCNC(=O)[C@H]1CCC[N@@H+]1Cc1ccccc1[N+](=O)[O-])c1ccc(-c2c3nc(c(-c4cccc(S(=O)(=O)[O-])c4F)c4ccc([nH]4)c(-c4cccc(S(=O)(=O)[O-])c4F)c4nc(c(-c5cccc(S(=O)(=O)[O-])c5F)c5ccc2[nH]5)C=C4)C=C3)cc1
REMARK SMILES IDX 5 1 4 2 3 3 1 4 2 5 25 7 26 8 87 9 27 10 86 11 28 12 29 13
REMARK SMILES IDX 30 14 80 15 31 16 85 17 79 18 81 19 32 20 84 21 78 22 77 23
REMARK SMILES IDX 33 25 65 26 45 27 64 28 46 29 49 30 63 31 82 32 47 33 48 34
REMARK SMILES IDX 62 36 83 37 50 38 34 39 35 40 43 41 36 42 38 43 44 44 37 45
REMARK SMILES IDX 39 46 40 47 41 48 42 49 66 50 67 51 75 52 68 53 70 54 76 55
REMARK SMILES IDX 69 56 71 57 72 58 73 59 74 60 51 61 52 62 60 63 53 64 55 65
REMARK SMILES IDX 61 66 54 67 56 68 57 69 58 70 59 71 6 72 7 73 8 74 9 76
REMARK SMILES IDX 10 77 11 78 14 79 12 80 13 81 15 83 16 84 17 85 21 86 18 87
REMARK SMILES IDX 20 88 19 89 22 90 23 91 24 92
REMARK H PARENT 3 6 81 24 49 35 7 75 14 82
REMARK Flexibility Score: inf
ROOT
ATOM      1  C   UNL A   1      37.832  19.547  24.984  1.00  0.00     0.042 C 
ENDROOT
BRANCH   1   2
ATOM      2  C   UNL A   1      38.954  20.146  25.825  1.00  0.00     0.118 C 
BRANCH   2   3
ATOM      3  N   UNL A   1      40.089  19.245  25.984  1.00  0.00    -0.352 N 
ATOM      4  O   UNL A   1      42.241  18.617  26.121  1.00  0.00    -0.269 OA
ATOM      5  C   UNL A   1      41.415  19.523  26.203  1.00  0.00     0.251 C 
ATOM      6  H   UNL A   1      39.869  18.286  25.926  1.00  0.00     0.163 HD
BRANCH   5   7
ATOM      7  C   UNL A   1      41.847  20.904  26.511  1.00  0.00     0.039 A 
ATOM      8  C   UNL A   1      42.214  21.267  27.807  1.00  0.00     0.014 A 
ATOM      9  C   UNL A   1      41.908  21.845  25.477  1.00  0.00     0.014 A 
ATOM     10  C   UNL A   1      42.495  22.597  28.104  1.00  0.00     0.010 A 
ATOM     11  C   UNL A   1      42.278  23.162  25.761  1.00  0.00     0.010 A 
ATOM     12  C   UNL A   1      42.544  23.557  27.081  1.00  0.00    -0.014 A 
BRANCH  12  13
ATOM     13  C   UNL A   1      42.954  24.948  27.400  1.00  0.00     0.031 A 
ATOM     14  C   UNL A   1      42.003  25.913  28.049  1.00  0.00     0.074 A 
ATOM     15  C   UNL A   1      44.198  25.344  27.068  1.00  0.00     0.049 A 
ATOM     16  N   UNL A   1      42.201  27.165  28.376  1.00  0.00    -0.248 NA
ATOM     17  C   UNL A   1      40.655  25.418  28.363  1.00  0.00     0.031 C 
ATOM     18  C   UNL A   1      45.190  24.510  26.384  1.00  0.00     0.029 A 
ATOM     19  N   UNL A   1      44.834  26.547  27.236  1.00  0.00    -0.354 N 
ATOM     20  C   UNL A   1      40.994  27.621  28.892  1.00  0.00     0.074 A 
ATOM     21  C   UNL A   1      40.065  26.512  28.829  1.00  0.00     0.031 C 
ATOM     22  C   UNL A   1      46.306  25.224  26.191  1.00  0.00     0.029 A 
ATOM     23  C   UNL A   1      46.092  26.579  26.685  1.00  0.00     0.049 A 
ATOM     24  H   UNL A   1      44.429  27.312  27.705  1.00  0.00     0.167 HD
ATOM     25  C   UNL A   1      40.693  28.847  29.384  1.00  0.00     0.034 A 
ATOM     26  C   UNL A   1      46.971  27.593  26.558  1.00  0.00     0.034 A 
ATOM     27  C   UNL A   1      41.631  29.936  29.467  1.00  0.00     0.049 A 
ATOM     28  C   UNL A   1      46.621  28.934  27.129  1.00  0.00     0.074 A 
ATOM     29  C   UNL A   1      41.448  31.188  30.029  1.00  0.00     0.029 A 
ATOM     30  N   UNL A   1      42.921  29.913  28.958  1.00  0.00    -0.354 N 
ATOM     31  N   UNL A   1      45.527  29.304  27.750  1.00  0.00    -0.248 NA
ATOM     32  C   UNL A   1      47.634  29.991  27.013  1.00  0.00     0.031 C 
ATOM     33  C   UNL A   1      42.616  31.933  29.828  1.00  0.00     0.029 A 
ATOM     34  C   UNL A   1      43.540  31.134  29.172  1.00  0.00     0.049 A 
ATOM     35  H   UNL A   1      43.338  29.141  28.511  1.00  0.00     0.167 HD
ATOM     36  C   UNL A   1      45.727  30.627  28.119  1.00  0.00     0.074 A 
ATOM     37  C   UNL A   1      47.058  30.987  27.672  1.00  0.00     0.031 C 
ATOM     38  C   UNL A   1      44.879  31.470  28.758  1.00  0.00     0.034 A 
BRANCH  25  39
ATOM     39  C   UNL A   1      39.291  29.074  29.893  1.00  0.00     0.023 A 
ATOM     40  C   UNL A   1      38.947  28.676  31.201  1.00  0.00     0.012 A 
ATOM     41  C   UNL A   1      38.329  29.728  29.097  1.00  0.00     0.148 A 
ATOM     42  C   UNL A   1      37.661  28.889  31.695  1.00  0.00     0.002 A 
ATOM     43  C   UNL A   1      37.062  29.977  29.611  1.00  0.00     0.091 A 
ATOM     44  F   UNL A   1      38.664  30.083  27.848  1.00  0.00    -0.205 F 
ATOM     45  C   UNL A   1      36.722  29.546  30.904  1.00  0.00     0.022 A 
BRANCH  43  46
ATOM     46  S   UNL A   1      35.811  30.885  28.697  1.00  0.00     0.127 S 
ATOM     47  O   UNL A   1      35.045  31.503  29.778  1.00  0.00    -0.237 OA
ATOM     48  O   UNL A   1      36.618  31.820  27.911  1.00  0.00    -0.237 OA
ATOM     49  O   UNL A   1      35.097  29.893  27.906  1.00  0.00    -0.744 OA
ENDBRANCH  43  46
ENDBRANCH  25  39
BRANCH  26  50
ATOM     50  C   UNL A   1      48.269  27.345  25.873  1.00  0.00     0.023 A 
ATOM     51  C   UNL A   1      49.346  26.797  26.594  1.00  0.00     0.012 A 
ATOM     52  C   UNL A   1      48.409  27.573  24.490  1.00  0.00     0.148 A 
ATOM     53  C   UNL A   1      50.547  26.495  25.952  1.00  0.00     0.002 A 
ATOM     54  C   UNL A   1      49.586  27.215  23.845  1.00  0.00     0.091 A 
ATOM     55  F   UNL A   1      47.371  28.103  23.826  1.00  0.00    -0.205 F 
ATOM     56  C   UNL A   1      50.662  26.691  24.577  1.00  0.00     0.022 A 
BRANCH  54  57
ATOM     57  S   UNL A   1      49.767  27.291  22.060  1.00  0.00     0.127 S 
ATOM     58  O   UNL A   1      51.108  26.742  21.872  1.00  0.00    -0.237 OA
ATOM     59  O   UNL A   1      48.677  26.422  21.611  1.00  0.00    -0.237 OA
ATOM     60  O   UNL A   1      49.602  28.693  21.705  1.00  0.00    -0.744 OA
ENDBRANCH  54  57
ENDBRANCH  26  50
BRANCH  38  61
ATOM     61  C   UNL A   1      45.367  32.866  29.041  1.00  0.00     0.023 A 
ATOM     62  C   UNL A   1      46.060  33.138  30.236  1.00  0.00     0.012 A 
ATOM     63  C   UNL A   1      45.209  33.890  28.085  1.00  0.00     0.148 A 
ATOM     64  C   UNL A   1      46.566  34.413  30.488  1.00  0.00     0.002 A 
ATOM     65  C   UNL A   1      45.757  35.143  28.320  1.00  0.00     0.091 A 
ATOM     66  F   UNL A   1      44.528  33.614  26.962  1.00  0.00    -0.205 F 
ATOM     67  C   UNL A   1      46.426  35.410  29.526  1.00  0.00     0.022 A 
BRANCH  65  68
ATOM     68  S   UNL A   1      45.710  36.461  27.101  1.00  0.00     0.127 S 
ATOM     69  O   UNL A   1      46.379  35.836  25.960  1.00  0.00    -0.237 OA
ATOM     70  O   UNL A   1      44.272  36.668  26.925  1.00  0.00    -0.237 OA
ATOM     71  O   UNL A   1      46.415  37.587  27.696  1.00  0.00    -0.744 OA
ENDBRANCH  65  68
ENDBRANCH  38  61
ENDBRANCH  12  13
ENDBRANCH   5   7
ENDBRANCH   2   3
ENDBRANCH   1   2
BRANCH   1  72
ATOM     72  C   UNL A   1      36.681  20.503  24.699  1.00  0.00     0.118 C 
BRANCH  72  73
ATOM     73  N   UNL A   1      35.409  19.975  25.146  1.00  0.00    -0.351 N 
ATOM     74  C   UNL A   1      34.151  20.465  24.958  1.00  0.00     0.278 C 
ATOM     75  H   UNL A   1      35.460  19.138  25.663  1.00  0.00     0.163 HD
ATOM     76  O   UNL A   1      33.219  19.845  25.477  1.00  0.00    -0.268 OA
BRANCH  74  77
ATOM     77  C   UNL A   1      33.941  21.740  24.104  1.00  0.00     0.274 C 
ATOM     78  C   UNL A   1      32.498  21.795  23.607  1.00  0.00     0.081 C 
ATOM     79  N   UNL A   1      34.086  22.935  24.962  1.00  0.00    -0.321 N 
ATOM     80  C   UNL A   1      31.735  22.518  24.709  1.00  0.00     0.068 C 
ATOM     81  C   UNL A   1      32.796  23.101  25.635  1.00  0.00     0.263 C 
ATOM     82  H   UNL A   1      34.833  22.774  25.638  1.00  0.00     0.349 HD
BRANCH  79  83
ATOM     83  C   UNL A   1      34.635  24.146  24.335  1.00  0.00     0.307 C 
BRANCH  83  84
ATOM     84  C   UNL A   1      33.923  25.464  24.583  1.00  0.00     0.084 A 
ATOM     85  C   UNL A   1      34.077  26.075  25.844  1.00  0.00     0.017 A 
ATOM     86  C   UNL A   1      33.154  26.158  23.629  1.00  0.00     0.278 A 
ATOM     87  C   UNL A   1      33.552  27.345  26.110  1.00  0.00     0.001 A 
ATOM     88  C   UNL A   1      32.648  27.445  23.881  1.00  0.00     0.086 A 
ATOM     89  C   UNL A   1      32.860  28.040  25.123  1.00  0.00     0.007 A 
BRANCH  86  90
ATOM     90  N   UNL A   1      32.803  25.566  22.346  1.00  0.00     0.063 N 
ATOM     91  O   UNL A   1      33.593  25.742  21.407  1.00  0.00    -0.258 OA
ATOM     92  O   UNL A   1      31.718  24.978  22.265  1.00  0.00    -0.258 OA
ENDBRANCH  86  90
ENDBRANCH  83  84
ENDBRANCH  79  83
ENDBRANCH  74  77
ENDBRANCH  72  73
ENDBRANCH   1  72
TORSDOF 16
ENDMDL
MODEL 2
REMARK VINA RESULT:     -11.6      6.247     11.536
REMARK SMILES O=C(NCCCNC(=O)[C@H]1CCC[N@@H+]1Cc1ccccc1[N+](=O)[O-])c1ccc(-c2c3nc(c(-c4cccc(S(=O)(=O)[O-])c4F)c4ccc([nH]4)c(-c4cccc(S(=O)(=O)[O-])c4F)c4nc(c(-c5cccc(S(=O)(=O)[O-])c5F)c5ccc2[nH]5)C=C4)C=C3)cc1
REMARK SMILES IDX 5 1 4 2 3 3 1 4 2 5 25 7 26 8 87 9 27 10 86 11 28 12 29 13
REMARK SMILES IDX 30 14 80 15 31 16 85 17 79 18 81 19 32 20 84 21 78 22 77 23
REMARK SMILES IDX 33 25 65 26 45 27 64 28 46 29 49 30 63 31 82 32 47 33 48 34
REMARK SMILES IDX 62 36 83 37 50 38 34 39 35 40 43 41 36 42 38 43 44 44 37 45
REMARK SMILES IDX 39 46 40 47 41 48 42 49 66 50 67 51 75 52 68 53 70 54 76 55
REMARK SMILES IDX 69 56 71 57 72 58 73 59 74 60 51 61 52 62 60 63 53 64 55 65
REMARK SMILES IDX 61 66 54 67 56 68 57 69 58 70 59 71 6 72 7 73 8 74 9 76
REMARK SMILES IDX 10 77 11 78 14 79 12 80 13 81 15 83 16 84 17 85 21 86 18 87
REMARK SMILES IDX 20 88 19 89 22 90 23 91 24 92
REMARK H PARENT 3 6 81 24 49 35 7 75 14 82
REMARK Flexibility Score: inf
ROOT
ATOM      1  C   UNL A   1      31.393  32.003  26.489  1.00  0.00     0.042 C 
ENDROOT
BRANCH   1   2
ATOM      2  C   UNL A   1      32.632  32.508  27.221  1.00  0.00     0.118 C 
BRANCH   2   3
ATOM      3  N   UNL A   1      32.525  33.904  27.626  1.00  0.00    -0.352 N 
ATOM      4  O   UNL A   1      32.831  35.728  28.901  1.00  0.00    -0.269 OA
ATOM      5  C   UNL A   1      33.207  34.599  28.594  1.00  0.00     0.251 C 
ATOM      6  H   UNL A   1      31.860  34.431  27.126  1.00  0.00     0.163 HD
BRANCH   5   7
ATOM      7  C   UNL A   1      34.366  33.985  29.277  1.00  0.00     0.039 A 
ATOM      8  C   UNL A   1      35.666  34.205  28.818  1.00  0.00     0.014 A 
ATOM      9  C   UNL A   1      34.150  33.195  30.411  1.00  0.00     0.014 A 
ATOM     10  C   UNL A   1      36.731  33.520  29.392  1.00  0.00     0.010 A 
ATOM     11  C   UNL A   1      35.232  32.579  31.043  1.00  0.00     0.010 A 
ATOM     12  C   UNL A   1      36.529  32.710  30.520  1.00  0.00    -0.014 A 
BRANCH  12  13
ATOM     13  C   UNL A   1      37.694  32.076  31.187  1.00  0.00     0.031 A 
ATOM     14  C   UNL A   1      38.446  30.948  30.539  1.00  0.00     0.074 A 
ATOM     15  C   UNL A   1      38.053  32.514  32.409  1.00  0.00     0.049 A 
ATOM     16  N   UNL A   1      39.472  30.277  30.997  1.00  0.00    -0.248 NA
ATOM     17  C   UNL A   1      37.984  30.507  29.215  1.00  0.00     0.031 C 
ATOM     18  C   UNL A   1      37.363  33.566  33.160  1.00  0.00     0.029 A 
ATOM     19  N   UNL A   1      39.066  32.119  33.245  1.00  0.00    -0.354 N 
ATOM     20  C   UNL A   1      39.752  29.307  30.041  1.00  0.00     0.074 A 
ATOM     21  C   UNL A   1      38.782  29.473  28.979  1.00  0.00     0.031 C 
ATOM     22  C   UNL A   1      37.969  33.733  34.342  1.00  0.00     0.029 A 
ATOM     23  C   UNL A   1      39.054  32.766  34.457  1.00  0.00     0.049 A 
ATOM     24  H   UNL A   1      39.735  31.440  33.000  1.00  0.00     0.167 HD
ATOM     25  C   UNL A   1      40.735  28.374  30.044  1.00  0.00     0.034 A 
ATOM     26  C   UNL A   1      39.810  32.583  35.558  1.00  0.00     0.034 A 
ATOM     27  C   UNL A   1      41.712  28.234  31.092  1.00  0.00     0.049 A 
ATOM     28  C   UNL A   1      40.904  31.558  35.527  1.00  0.00     0.074 A 
ATOM     29  C   UNL A   1      42.798  27.379  31.148  1.00  0.00     0.029 A 
ATOM     30  N   UNL A   1      41.711  28.952  32.280  1.00  0.00    -0.354 N 
ATOM     31  N   UNL A   1      41.249  30.752  34.553  1.00  0.00    -0.248 NA
ATOM     32  C   UNL A   1      41.734  31.435  36.733  1.00  0.00     0.031 C 
ATOM     33  C   UNL A   1      43.433  27.556  32.382  1.00  0.00     0.029 A 
ATOM     34  C   UNL A   1      42.763  28.546  33.083  1.00  0.00     0.049 A 
ATOM     35  H   UNL A   1      41.057  29.650  32.517  1.00  0.00     0.167 HD
ATOM     36  C   UNL A   1      42.349  30.043  35.016  1.00  0.00     0.074 A 
ATOM     37  C   UNL A   1      42.626  30.532  36.352  1.00  0.00     0.031 C 
ATOM     38  C   UNL A   1      43.054  29.066  34.396  1.00  0.00     0.034 A 
BRANCH  25  39
ATOM     39  C   UNL A   1      40.818  27.440  28.863  1.00  0.00     0.023 A 
ATOM     40  C   UNL A   1      39.911  26.366  28.752  1.00  0.00     0.012 A 
ATOM     41  C   UNL A   1      41.760  27.654  27.837  1.00  0.00     0.148 A 
ATOM     42  C   UNL A   1      39.964  25.499  27.662  1.00  0.00     0.002 A 
ATOM     43  C   UNL A   1      41.779  26.812  26.730  1.00  0.00     0.091 A 
ATOM     44  F   UNL A   1      42.630  28.666  27.965  1.00  0.00    -0.205 F 
ATOM     45  C   UNL A   1      40.891  25.726  26.648  1.00  0.00     0.022 A 
BRANCH  43  46
ATOM     46  S   UNL A   1      42.883  27.072  25.338  1.00  0.00     0.127 S 
ATOM     47  O   UNL A   1      42.764  25.801  24.626  1.00  0.00    -0.237 OA
ATOM     48  O   UNL A   1      42.265  28.211  24.659  1.00  0.00    -0.237 OA
ATOM     49  O   UNL A   1      44.191  27.351  25.915  1.00  0.00    -0.744 OA
ENDBRANCH  43  46
ENDBRANCH  25  39
BRANCH  26  50
ATOM     50  C   UNL A   1      39.549  33.418  36.762  1.00  0.00     0.023 A 
ATOM     51  C   UNL A   1      39.905  34.779  36.760  1.00  0.00     0.012 A 
ATOM     52  C   UNL A   1      38.871  32.884  37.876  1.00  0.00     0.148 A 
ATOM     53  C   UNL A   1      39.606  35.591  37.854  1.00  0.00     0.002 A 
ATOM     54  C   UNL A   1      38.523  33.711  38.936  1.00  0.00     0.091 A 
ATOM     55  F   UNL A   1      38.549  31.582  37.859  1.00  0.00    -0.205 F 
ATOM     56  C   UNL A   1      38.904  35.062  38.934  1.00  0.00     0.022 A 
BRANCH  54  57
ATOM     57  S   UNL A   1      37.492  33.151  40.295  1.00  0.00     0.127 S 
ATOM     58  O   UNL A   1      38.295  32.066  40.853  1.00  0.00    -0.237 OA
ATOM     59  O   UNL A   1      37.415  34.352  41.129  1.00  0.00    -0.237 OA
ATOM     60  O   UNL A   1      36.226  32.756  39.694  1.00  0.00    -0.744 OA
ENDBRANCH  54  57
ENDBRANCH  26  50
BRANCH  38  61
ATOM     61  C   UNL A   1      44.219  28.469  35.139  1.00  0.00     0.023 A 
ATOM     62  C   UNL A   1      45.521  28.959  34.915  1.00  0.00     0.012 A 
ATOM     63  C   UNL A   1      44.013  27.478  36.121  1.00  0.00     0.148 A 
ATOM     64  C   UNL A   1      46.603  28.454  35.635  1.00  0.00     0.002 A 
ATOM     65  C   UNL A   1      45.088  27.015  36.868  1.00  0.00     0.091 A 
ATOM     66  F   UNL A   1      42.769  27.012  36.305  1.00  0.00    -0.205 F 
ATOM     67  C   UNL A   1      46.384  27.494  36.619  1.00  0.00     0.022 A 
BRANCH  65  68
ATOM     68  S   UNL A   1      44.890  25.850  38.220  1.00  0.00     0.127 S 
ATOM     69  O   UNL A   1      46.270  25.423  38.451  1.00  0.00    -0.237 OA
ATOM     70  O   UNL A   1      44.328  26.694  39.276  1.00  0.00    -0.237 OA
ATOM     71  O   UNL A   1      43.991  24.814  37.733  1.00  0.00    -0.744 OA
ENDBRANCH  65  68
ENDBRANCH  38  61
ENDBRANCH  12  13
ENDBRANCH   5   7
ENDBRANCH   2   3
ENDBRANCH   1   2
BRANCH   1  72
ATOM     72  C   UNL A   1      31.538  30.608  25.896  1.00  0.00     0.118 C 
BRANCH  72  73
ATOM     73  N   UNL A   1      31.712  29.596  26.917  1.00  0.00    -0.351 N 
ATOM     74  C   UNL A   1      31.657  28.239  26.812  1.00  0.00     0.278 C 
ATOM     75  H   UNL A   1      31.896  29.940  27.821  1.00  0.00     0.163 HD
ATOM     76  O   UNL A   1      31.804  27.585  27.848  1.00  0.00    -0.268 OA
BRANCH  74  77
ATOM     77  C   UNL A   1      31.439  27.581  25.426  1.00  0.00     0.274 C 
ATOM     78  C   UNL A   1      32.546  28.016  24.469  1.00  0.00     0.081 C 
ATOM     79  N   UNL A   1      31.603  26.117  25.547  1.00  0.00    -0.321 N 
ATOM     80  C   UNL A   1      33.660  26.998  24.675  1.00  0.00     0.068 C 
ATOM     81  C   UNL A   1      33.047  25.873  25.501  1.00  0.00     0.263 C 
ATOM     82  H   UNL A   1      31.208  25.807  26.435  1.00  0.00     0.349 HD
BRANCH  79  83
ATOM     83  C   UNL A   1      30.789  25.277  24.656  1.00  0.00     0.307 C 
BRANCH  83  84
ATOM     84  C   UNL A   1      31.207  23.831  24.459  1.00  0.00     0.084 A 
ATOM     85  C   UNL A   1      31.642  23.434  23.178  1.00  0.00     0.017 A 
ATOM     86  C   UNL A   1      31.245  22.856  25.473  1.00  0.00     0.278 A 
ATOM     87  C   UNL A   1      32.155  22.153  22.943  1.00  0.00     0.001 A 
ATOM     88  C   UNL A   1      31.785  21.576  25.251  1.00  0.00     0.086 A 
ATOM     89  C   UNL A   1      32.250  21.234  23.984  1.00  0.00     0.007 A 
BRANCH  86  90
ATOM     90  N   UNL A   1      30.688  23.100  26.796  1.00  0.00     0.063 N 
ATOM     91  O   UNL A   1      31.400  23.715  27.605  1.00  0.00    -0.258 OA
ATOM     92  O   UNL A   1      29.570  22.632  27.042  1.00  0.00    -0.258 OA
ENDBRANCH  86  90
ENDBRANCH  83  84
ENDBRANCH  79  83
ENDBRANCH  74  77
ENDBRANCH  72  73
ENDBRANCH   1  72
TORSDOF 16
ENDMDL
MODEL 3
REMARK VINA RESULT:     -11.5      3.984     10.082
REMARK SMILES O=C(NCCCNC(=O)[C@H]1CCC[N@@H+]1Cc1ccccc1[N+](=O)[O-])c1ccc(-c2c3nc(c(-c4cccc(S(=O)(=O)[O-])c4F)c4ccc([nH]4)c(-c4cccc(S(=O)(=O)[O-])c4F)c4nc(c(-c5cccc(S(=O)(=O)[O-])c5F)c5ccc2[nH]5)C=C4)C=C3)cc1
REMARK SMILES IDX 5 1 4 2 3 3 1 4 2 5 25 7 26 8 87 9 27 10 86 11 28 12 29 13
REMARK SMILES IDX 30 14 80 15 31 16 85 17 79 18 81 19 32 20 84 21 78 22 77 23
REMARK SMILES IDX 33 25 65 26 45 27 64 28 46 29 49 30 63 31 82 32 47 33 48 34
REMARK SMILES IDX 62 36 83 37 50 38 34 39 35 40 43 41 36 42 38 43 44 44 37 45
REMARK SMILES IDX 39 46 40 47 41 48 42 49 66 50 67 51 75 52 68 53 70 54 76 55
REMARK SMILES IDX 69 56 71 57 72 58 73 59 74 60 51 61 52 62 60 63 53 64 55 65
REMARK SMILES IDX 61 66 54 67 56 68 57 69 58 70 59 71 6 72 7 73 8 74 9 76
REMARK SMILES IDX 10 77 11 78 14 79 12 80 13 81 15 83 16 84 17 85 21 86 18 87
REMARK SMILES IDX 20 88 19 89 22 90 23 91 24 92
REMARK H PARENT 3 6 81 24 49 35 7 75 14 82
REMARK Flexibility Score: inf
ROOT
ATOM      1  C   UNL A   1      40.834  20.017  27.039  1.00  0.00     0.042 C 
ENDROOT
BRANCH   1   2
ATOM      2  C   UNL A   1      40.634  21.503  26.759  1.00  0.00     0.118 C 
BRANCH   2   3
ATOM      3  N   UNL A   1      39.373  21.791  26.088  1.00  0.00    -0.352 N 
ATOM      4  O   UNL A   1      37.481  22.902  25.607  1.00  0.00    -0.269 OA
ATOM      5  C   UNL A   1      38.609  22.932  26.093  1.00  0.00     0.251 C 
ATOM      6  H   UNL A   1      39.013  21.052  25.545  1.00  0.00     0.163 HD
BRANCH   5   7
ATOM      7  C   UNL A   1      39.131  24.177  26.698  1.00  0.00     0.039 A 
ATOM      8  C   UNL A   1      38.904  24.468  28.044  1.00  0.00     0.014 A 
ATOM      9  C   UNL A   1      39.880  25.056  25.909  1.00  0.00     0.014 A 
ATOM     10  C   UNL A   1      39.291  25.699  28.563  1.00  0.00     0.010 A 
ATOM     11  C   UNL A   1      40.346  26.253  26.457  1.00  0.00     0.010 A 
ATOM     12  C   UNL A   1      40.029  26.599  27.780  1.00  0.00    -0.014 A 
BRANCH  12  13
ATOM     13  C   UNL A   1      40.528  27.860  28.386  1.00  0.00     0.031 A 
ATOM     14  C   UNL A   1      41.998  28.106  28.578  1.00  0.00     0.074 A 
ATOM     15  C   UNL A   1      39.630  28.778  28.793  1.00  0.00     0.049 A 
ATOM     16  N   UNL A   1      42.594  29.144  29.106  1.00  0.00    -0.248 NA
ATOM     17  C   UNL A   1      42.919  27.050  28.132  1.00  0.00     0.031 C 
ATOM     18  C   UNL A   1      38.176  28.625  28.708  1.00  0.00     0.029 A 
ATOM     19  N   UNL A   1      39.802  30.006  29.377  1.00  0.00    -0.354 N 
ATOM     20  C   UNL A   1      43.953  28.852  29.098  1.00  0.00     0.074 A 
ATOM     21  C   UNL A   1      44.093  27.533  28.517  1.00  0.00     0.031 C 
ATOM     22  C   UNL A   1      37.588  29.714  29.220  1.00  0.00     0.029 A 
ATOM     23  C   UNL A   1      38.619  30.616  29.718  1.00  0.00     0.049 A 
ATOM     24  H   UNL A   1      40.685  30.412  29.535  1.00  0.00     0.167 HD
ATOM     25  C   UNL A   1      44.986  29.617  29.524  1.00  0.00     0.034 A 
ATOM     26  C   UNL A   1      38.381  31.761  30.389  1.00  0.00     0.034 A 
ATOM     27  C   UNL A   1      44.839  30.938  30.075  1.00  0.00     0.049 A 
ATOM     28  C   UNL A   1      39.543  32.599  30.831  1.00  0.00     0.074 A 
ATOM     29  C   UNL A   1      45.828  31.828  30.455  1.00  0.00     0.029 A 
ATOM     30  N   UNL A   1      43.625  31.554  30.347  1.00  0.00    -0.354 N 
ATOM     31  N   UNL A   1      40.825  32.374  30.678  1.00  0.00    -0.248 NA
ATOM     32  C   UNL A   1      39.230  33.864  31.510  1.00  0.00     0.031 C 
ATOM     33  C   UNL A   1      45.213  32.967  30.988  1.00  0.00     0.029 A 
ATOM     34  C   UNL A   1      43.839  32.802  30.909  1.00  0.00     0.049 A 
ATOM     35  H   UNL A   1      42.740  31.161  30.167  1.00  0.00     0.167 HD
ATOM     36  C   UNL A   1      41.474  33.476  31.219  1.00  0.00     0.074 A 
ATOM     37  C   UNL A   1      40.439  34.380  31.683  1.00  0.00     0.031 C 
ATOM     38  C   UNL A   1      42.803  33.711  31.332  1.00  0.00     0.034 A 
BRANCH  25  39
ATOM     39  C   UNL A   1      46.379  29.053  29.390  1.00  0.00     0.023 A 
ATOM     40  C   UNL A   1      46.919  28.264  30.426  1.00  0.00     0.012 A 
ATOM     41  C   UNL A   1      47.133  29.258  28.217  1.00  0.00     0.148 A 
ATOM     42  C   UNL A   1      48.199  27.723  30.316  1.00  0.00     0.002 A 
ATOM     43  C   UNL A   1      48.391  28.679  28.095  1.00  0.00     0.091 A 
ATOM     44  F   UNL A   1      46.615  30.026  27.248  1.00  0.00    -0.205 F 
ATOM     45  C   UNL A   1      48.931  27.923  29.148  1.00  0.00     0.022 A 
BRANCH  43  46
ATOM     46  S   UNL A   1      49.375  28.816  26.598  1.00  0.00     0.127 S 
ATOM     47  O   UNL A   1      48.470  28.252  25.598  1.00  0.00    -0.237 OA
ATOM     48  O   UNL A   1      49.578  30.261  26.491  1.00  0.00    -0.237 OA
ATOM     49  O   UNL A   1      50.590  28.054  26.851  1.00  0.00    -0.744 OA
ENDBRANCH  43  46
ENDBRANCH  25  39
BRANCH  26  50
ATOM     50  C   UNL A   1      36.974  32.167  30.653  1.00  0.00     0.023 A 
ATOM     51  C   UNL A   1      36.439  32.033  31.948  1.00  0.00     0.012 A 
ATOM     52  C   UNL A   1      36.194  32.765  29.643  1.00  0.00     0.148 A 
ATOM     53  C   UNL A   1      35.145  32.472  32.228  1.00  0.00     0.002 A 
ATOM     54  C   UNL A   1      34.930  33.254  29.943  1.00  0.00     0.091 A 
ATOM     55  F   UNL A   1      36.723  32.874  28.415  1.00  0.00    -0.205 F 
ATOM     56  C   UNL A   1      34.397  33.094  31.231  1.00  0.00     0.022 A 
BRANCH  54  57
ATOM     57  S   UNL A   1      33.960  34.200  28.765  1.00  0.00     0.127 S 
ATOM     58  O   UNL A   1      34.897  35.256  28.386  1.00  0.00    -0.237 OA
ATOM     59  O   UNL A   1      33.698  33.206  27.723  1.00  0.00    -0.237 OA
ATOM     60  O   UNL A   1      32.774  34.637  29.489  1.00  0.00    -0.744 OA
ENDBRANCH  54  57
ENDBRANCH  26  50
BRANCH  38  61
ATOM     61  C   UNL A   1      43.230  35.010  31.963  1.00  0.00     0.023 A 
ATOM     62  C   UNL A   1      43.562  36.109  31.147  1.00  0.00     0.012 A 
ATOM     63  C   UNL A   1      43.224  35.164  33.364  1.00  0.00     0.148 A 
ATOM     64  C   UNL A   1      43.907  37.335  31.716  1.00  0.00     0.002 A 
ATOM     65  C   UNL A   1      43.520  36.401  33.922  1.00  0.00     0.091 A 
ATOM     66  F   UNL A   1      42.923  34.099  34.121  1.00  0.00    -0.205 F 
ATOM     67  C   UNL A   1      43.873  37.484  33.100  1.00  0.00     0.022 A 
BRANCH  65  68
ATOM     68  S   UNL A   1      43.410  36.713  35.687  1.00  0.00     0.127 S 
ATOM     69  O   UNL A   1      44.401  35.778  36.218  1.00  0.00    -0.237 OA
ATOM     70  O   UNL A   1      43.793  38.123  35.776  1.00  0.00    -0.237 OA
ATOM     71  O   UNL A   1      42.030  36.437  36.060  1.00  0.00    -0.744 OA
ENDBRANCH  65  68
ENDBRANCH  38  61
ENDBRANCH  12  13
ENDBRANCH   5   7
ENDBRANCH   2   3
ENDBRANCH   1   2
BRANCH   1  72
ATOM     72  C   UNL A   1      42.288  19.601  27.217  1.00  0.00     0.118 C 
BRANCH  72  73
ATOM     73  N   UNL A   1      42.900  19.203  25.966  1.00  0.00    -0.351 N 
ATOM     74  C   UNL A   1      43.794  19.872  25.186  1.00  0.00     0.278 C 
ATOM     75  H   UNL A   1      42.628  18.319  25.628  1.00  0.00     0.163 HD
ATOM     76  O   UNL A   1      44.142  19.332  24.133  1.00  0.00    -0.268 OA
BRANCH  74  77
ATOM     77  C   UNL A   1      44.344  21.245  25.649  1.00  0.00     0.274 C 
ATOM     78  C   UNL A   1      45.843  21.322  25.365  1.00  0.00     0.081 C 
ATOM     79  N   UNL A   1      43.751  22.315  24.819  1.00  0.00    -0.321 N 
ATOM     80  C   UNL A   1      45.942  21.863  23.945  1.00  0.00     0.068 C 
ATOM     81  C   UNL A   1      44.542  22.348  23.586  1.00  0.00     0.263 C 
ATOM     82  H   UNL A   1      42.777  22.087  24.622  1.00  0.00     0.349 HD
BRANCH  79  83
ATOM     83  C   UNL A   1      43.531  23.618  25.465  1.00  0.00     0.307 C 
BRANCH  83  84
ATOM     84  C   UNL A   1      43.783  23.726  26.958  1.00  0.00     0.084 A 
ATOM     85  C   UNL A   1      42.740  23.366  27.836  1.00  0.00     0.017 A 
ATOM     86  C   UNL A   1      45.002  24.113  27.546  1.00  0.00     0.278 A 
ATOM     87  C   UNL A   1      42.930  23.324  29.221  1.00  0.00     0.001 A 
ATOM     88  C   UNL A   1      45.209  24.047  28.935  1.00  0.00     0.086 A 
ATOM     89  C   UNL A   1      44.171  23.639  29.769  1.00  0.00     0.007 A 
BRANCH  86  90
ATOM     90  N   UNL A   1      46.103  24.645  26.754  1.00  0.00     0.063 N 
ATOM     91  O   UNL A   1      47.146  23.975  26.715  1.00  0.00    -0.258 OA
ATOM     92  O   UNL A   1      45.943  25.749  26.222  1.00  0.00    -0.258 OA
ENDBRANCH  86  90
ENDBRANCH  83  84
ENDBRANCH  79  83
ENDBRANCH  74  77
ENDBRANCH  72  73
ENDBRANCH   1  72
TORSDOF 16
ENDMDL
