MODEL 1
REMARK VINA RESULT:     -11.7      0.000      0.000
REMARK SMILES N#Cc1cnc2cc(C(=O)NCCCNC(=O)c3ccc(-c4c5nc(c(-c6cccc(S(=O)(=O)[O-])c6F)c6ccc([nH]6)c(-c6cccc(S(=O)(=O)[O-])c6F)c6nc(c(-c7cccc(S(=O)(=O)[O-])c7F)c7ccc4[nH]7)C=C6)C=C5)cc3)[nH]c2c1
REMARK SMILES IDX 14 1 13 2 12 3 11 4 9 5 10 6 8 8 3 9 4 10 83 11 5 12 82 13
REMARK SMILES IDX 6 14 81 15 7 16 2 18 1 19 15 20 16 21 17 23 18 24 19 25
REMARK SMILES IDX 80 26 20 27 79 28 21 29 22 30 23 31 73 32 24 33 78 34 72 35
REMARK SMILES IDX 74 36 25 37 77 38 71 39 70 40 26 42 58 43 38 44 57 45 39 46
REMARK SMILES IDX 42 47 56 48 75 49 40 50 41 51 55 53 76 54 43 55 27 56 28 57
REMARK SMILES IDX 36 58 29 59 31 60 37 61 30 62 32 63 33 64 34 65 35 66 59 67
REMARK SMILES IDX 60 68 68 69 61 70 63 71 69 72 62 73 64 74 65 75 66 76 67 77
REMARK SMILES IDX 44 78 45 79 53 80 46 81 48 82 54 83 47 84 49 85 50 86 51 87
REMARK SMILES IDX 52 88
REMARK H PARENT 11 7 81 17 15 22 74 41 42 52
REMARK Flexibility Score: inf
ROOT
ATOM      1  C   UNL A   1      35.252  33.870  27.973  1.00  0.00     0.118 C 
ENDROOT
BRANCH   1   2
ATOM      2  C   UNL A   1      34.554  35.211  28.132  1.00  0.00     0.042 C 
BRANCH   2   3
ATOM      3  C   UNL A   1      33.191  35.033  28.809  1.00  0.00     0.118 C 
BRANCH   3   4
ATOM      4  N   UNL A   1      32.838  36.131  29.690  1.00  0.00    -0.351 N 
ATOM      5  C   UNL A   1      33.241  36.450  30.958  1.00  0.00     0.267 C 
ATOM      6  O   UNL A   1      32.896  37.545  31.399  1.00  0.00    -0.268 OA
ATOM      7  H   UNL A   1      32.189  36.764  29.303  1.00  0.00     0.163 HD
BRANCH   5   8
ATOM      8  C   UNL A   1      34.016  35.542  31.774  1.00  0.00     0.107 A 
ATOM      9  C   UNL A   1      37.551  33.485  33.816  1.00  0.00     0.072 A 
ATOM     10  C   UNL A   1      36.493  33.149  34.653  1.00  0.00     0.131 A 
ATOM     11  C   UNL A   1      37.300  34.213  32.650  1.00  0.00     0.049 A 
ATOM     12  N   UNL A   1      35.196  33.465  34.446  1.00  0.00    -0.253 NA
ATOM     13  C   UNL A   1      35.969  34.583  32.447  1.00  0.00     0.066 A 
ATOM     14  C   UNL A   1      34.972  34.209  33.338  1.00  0.00     0.089 A 
ATOM     15  N   UNL A   1      35.358  35.338  31.478  1.00  0.00    -0.349 N 
ATOM     16  C   UNL A   1      33.761  34.780  32.901  1.00  0.00     0.062 A 
ATOM     17  H   UNL A   1      35.811  35.690  30.677  1.00  0.00     0.167 HD
BRANCH   9  18
ATOM     18  C   UNL A   1      38.883  33.089  34.172  1.00  0.00     0.101 C 
ATOM     19  N   UNL A   1      39.959  32.794  34.451  1.00  0.00    -0.192 NA
ENDBRANCH   9  18
ENDBRANCH   5   8
ENDBRANCH   3   4
ENDBRANCH   2   3
ENDBRANCH   1   2
BRANCH   1  20
ATOM     20  N   UNL A   1      34.319  32.731  28.006  1.00  0.00    -0.352 N 
ATOM     21  C   UNL A   1      34.597  31.374  27.980  1.00  0.00     0.251 C 
ATOM     22  H   UNL A   1      33.364  32.966  28.054  1.00  0.00     0.163 HD
ATOM     23  O   UNL A   1      33.713  30.566  27.714  1.00  0.00    -0.269 OA
BRANCH  21  24
ATOM     24  C   UNL A   1      35.965  30.920  28.301  1.00  0.00     0.039 A 
ATOM     25  C   UNL A   1      36.820  31.618  29.153  1.00  0.00     0.014 A 
ATOM     26  C   UNL A   1      36.375  29.719  27.734  1.00  0.00     0.014 A 
ATOM     27  C   UNL A   1      38.078  31.072  29.411  1.00  0.00     0.010 A 
ATOM     28  C   UNL A   1      37.441  29.048  28.249  1.00  0.00     0.010 A 
ATOM     29  C   UNL A   1      38.377  29.777  28.942  1.00  0.00    -0.014 A 
BRANCH  29  30
ATOM     30  C   UNL A   1      39.591  29.061  29.296  1.00  0.00     0.031 A 
ATOM     31  C   UNL A   1      39.846  29.153  30.748  1.00  0.00     0.074 A 
ATOM     32  C   UNL A   1      40.300  28.274  28.449  1.00  0.00     0.049 A 
ATOM     33  N   UNL A   1      40.623  30.015  31.308  1.00  0.00    -0.248 NA
ATOM     34  C   UNL A   1      38.963  28.449  31.690  1.00  0.00     0.031 C 
ATOM     35  C   UNL A   1      39.991  27.871  27.069  1.00  0.00     0.029 A 
ATOM     36  N   UNL A   1      41.459  27.598  28.682  1.00  0.00    -0.354 N 
ATOM     37  C   UNL A   1      40.570  29.728  32.663  1.00  0.00     0.074 A 
ATOM     38  C   UNL A   1      39.362  28.973  32.852  1.00  0.00     0.031 C 
ATOM     39  C   UNL A   1      40.813  26.860  26.686  1.00  0.00     0.029 A 
ATOM     40  C   UNL A   1      41.814  26.652  27.718  1.00  0.00     0.049 A 
ATOM     41  H   UNL A   1      42.012  27.766  29.479  1.00  0.00     0.167 HD
ATOM     42  C   UNL A   1      41.693  29.873  33.417  1.00  0.00     0.034 A 
ATOM     43  C   UNL A   1      42.869  25.789  27.761  1.00  0.00     0.034 A 
ATOM     44  C   UNL A   1      42.695  30.615  32.676  1.00  0.00     0.049 A 
ATOM     45  C   UNL A   1      43.851  26.386  28.694  1.00  0.00     0.074 A 
ATOM     46  C   UNL A   1      42.769  31.874  32.115  1.00  0.00     0.029 A 
ATOM     47  N   UNL A   1      43.646  29.853  32.038  1.00  0.00    -0.354 N 
ATOM     48  N   UNL A   1      44.472  27.503  28.449  1.00  0.00    -0.248 NA
ATOM     49  C   UNL A   1      43.758  25.998  30.090  1.00  0.00     0.031 C 
ATOM     50  C   UNL A   1      43.452  31.688  30.875  1.00  0.00     0.029 A 
ATOM     51  C   UNL A   1      43.854  30.353  30.782  1.00  0.00     0.049 A 
ATOM     52  H   UNL A   1      44.104  29.072  32.424  1.00  0.00     0.167 HD
ATOM     53  C   UNL A   1      44.396  28.192  29.651  1.00  0.00     0.074 A 
ATOM     54  C   UNL A   1      44.028  27.182  30.647  1.00  0.00     0.031 C 
ATOM     55  C   UNL A   1      44.327  29.556  29.670  1.00  0.00     0.034 A 
BRANCH  42  56
ATOM     56  C   UNL A   1      42.085  28.997  34.589  1.00  0.00     0.023 A 
ATOM     57  C   UNL A   1      42.705  29.656  35.677  1.00  0.00     0.012 A 
ATOM     58  C   UNL A   1      42.138  27.584  34.590  1.00  0.00     0.148 A 
ATOM     59  C   UNL A   1      43.409  28.957  36.661  1.00  0.00     0.002 A 
ATOM     60  C   UNL A   1      42.783  26.888  35.607  1.00  0.00     0.091 A 
ATOM     61  F   UNL A   1      41.662  26.887  33.558  1.00  0.00    -0.205 F 
ATOM     62  C   UNL A   1      43.448  27.571  36.626  1.00  0.00     0.022 A 
BRANCH  60  63
ATOM     63  S   UNL A   1      42.838  25.089  35.649  1.00  0.00     0.127 S 
ATOM     64  O   UNL A   1      43.606  24.849  36.867  1.00  0.00    -0.237 OA
ATOM     65  O   UNL A   1      41.415  24.756  35.736  1.00  0.00    -0.237 OA
ATOM     66  O   UNL A   1      43.476  24.678  34.406  1.00  0.00    -0.744 OA
ENDBRANCH  60  63
ENDBRANCH  42  56
BRANCH  43  67
ATOM     67  C   UNL A   1      42.987  24.352  27.378  1.00  0.00     0.023 A 
ATOM     68  C   UNL A   1      41.878  23.485  27.548  1.00  0.00     0.012 A 
ATOM     69  C   UNL A   1      44.024  23.923  26.526  1.00  0.00     0.148 A 
ATOM     70  C   UNL A   1      41.784  22.269  26.853  1.00  0.00     0.002 A 
ATOM     71  C   UNL A   1      43.919  22.721  25.824  1.00  0.00     0.091 A 
ATOM     72  F   UNL A   1      45.068  24.740  26.332  1.00  0.00    -0.205 F 
ATOM     73  C   UNL A   1      42.796  21.897  25.976  1.00  0.00     0.022 A 
BRANCH  71  74
ATOM     74  S   UNL A   1      45.145  22.206  24.612  1.00  0.00     0.127 S 
ATOM     75  O   UNL A   1      46.307  21.931  25.457  1.00  0.00    -0.237 OA
ATOM     76  O   UNL A   1      44.516  21.022  24.031  1.00  0.00    -0.237 OA
ATOM     77  O   UNL A   1      45.310  23.336  23.707  1.00  0.00    -0.744 OA
ENDBRANCH  71  74
ENDBRANCH  43  67
BRANCH  55  78
ATOM     78  C   UNL A   1      44.595  30.302  28.383  1.00  0.00     0.023 A 
ATOM     79  C   UNL A   1      43.579  30.703  27.489  1.00  0.00     0.012 A 
ATOM     80  C   UNL A   1      45.901  30.775  28.177  1.00  0.00     0.148 A 
ATOM     81  C   UNL A   1      43.865  31.556  26.414  1.00  0.00     0.002 A 
ATOM     82  C   UNL A   1      46.170  31.663  27.145  1.00  0.00     0.091 A 
ATOM     83  F   UNL A   1      46.856  30.376  29.031  1.00  0.00    -0.205 F 
ATOM     84  C   UNL A   1      45.158  32.050  26.253  1.00  0.00     0.022 A 
BRANCH  82  85
ATOM     85  S   UNL A   1      47.778  32.440  26.980  1.00  0.00     0.127 S 
ATOM     86  O   UNL A   1      48.021  32.927  28.336  1.00  0.00    -0.237 OA
ATOM     87  O   UNL A   1      48.625  31.319  26.569  1.00  0.00    -0.237 OA
ATOM     88  O   UNL A   1      47.625  33.474  25.964  1.00  0.00    -0.744 OA
ENDBRANCH  82  85
ENDBRANCH  55  78
ENDBRANCH  29  30
ENDBRANCH  21  24
ENDBRANCH   1  20
TORSDOF 14
ENDMDL
MODEL 2
REMARK VINA RESULT:     -11.6      4.052      8.830
REMARK SMILES N#Cc1cnc2cc(C(=O)NCCCNC(=O)c3ccc(-c4c5nc(c(-c6cccc(S(=O)(=O)[O-])c6F)c6ccc([nH]6)c(-c6cccc(S(=O)(=O)[O-])c6F)c6nc(c(-c7cccc(S(=O)(=O)[O-])c7F)c7ccc4[nH]7)C=C6)C=C5)cc3)[nH]c2c1
REMARK SMILES IDX 14 1 13 2 12 3 11 4 9 5 10 6 8 8 3 9 4 10 83 11 5 12 82 13
REMARK SMILES IDX 6 14 81 15 7 16 2 18 1 19 15 20 16 21 17 23 18 24 19 25
REMARK SMILES IDX 80 26 20 27 79 28 21 29 22 30 23 31 73 32 24 33 78 34 72 35
REMARK SMILES IDX 74 36 25 37 77 38 71 39 70 40 26 42 58 43 38 44 57 45 39 46
REMARK SMILES IDX 42 47 56 48 75 49 40 50 41 51 55 53 76 54 43 55 27 56 28 57
REMARK SMILES IDX 36 58 29 59 31 60 37 61 30 62 32 63 33 64 34 65 35 66 59 67
REMARK SMILES IDX 60 68 68 69 61 70 63 71 69 72 62 73 64 74 65 75 66 76 67 77
REMARK SMILES IDX 44 78 45 79 53 80 46 81 48 82 54 83 47 84 49 85 50 86 51 87
REMARK SMILES IDX 52 88
REMARK H PARENT 11 7 81 17 15 22 74 41 42 52
REMARK Flexibility Score: inf
ROOT
ATOM      1  C   UNL A   1      32.767  33.038  27.252  1.00  0.00     0.118 C 
ENDROOT
BRANCH   1   2
ATOM      2  C   UNL A   1      31.490  32.330  26.831  1.00  0.00     0.042 C 
BRANCH   2   3
ATOM      3  C   UNL A   1      31.773  30.861  26.497  1.00  0.00     0.118 C 
BRANCH   3   4
ATOM      4  N   UNL A   1      32.988  30.355  27.111  1.00  0.00    -0.351 N 
ATOM      5  C   UNL A   1      33.514  29.096  27.191  1.00  0.00     0.267 C 
ATOM      6  O   UNL A   1      34.656  28.989  27.636  1.00  0.00    -0.268 OA
ATOM      7  H   UNL A   1      33.534  31.048  27.550  1.00  0.00     0.163 HD
BRANCH   5   8
ATOM      8  C   UNL A   1      32.767  27.920  26.802  1.00  0.00     0.107 A 
ATOM      9  C   UNL A   1      31.737  23.610  25.678  1.00  0.00     0.072 A 
ATOM     10  C   UNL A   1      30.511  24.100  26.116  1.00  0.00     0.131 A 
ATOM     11  C   UNL A   1      32.838  24.468  25.617  1.00  0.00     0.049 A 
ATOM     12  N   UNL A   1      30.266  25.370  26.501  1.00  0.00    -0.253 NA
ATOM     13  C   UNL A   1      32.606  25.775  26.054  1.00  0.00     0.066 A 
ATOM     14  C   UNL A   1      31.349  26.181  26.481  1.00  0.00     0.089 A 
ATOM     15  N   UNL A   1      33.434  26.859  26.201  1.00  0.00    -0.349 N 
ATOM     16  C   UNL A   1      31.448  27.517  26.915  1.00  0.00     0.062 A 
ATOM     17  H   UNL A   1      34.377  26.884  25.918  1.00  0.00     0.167 HD
BRANCH   9  18
ATOM     18  C   UNL A   1      31.851  22.228  25.311  1.00  0.00     0.101 C 
ATOM     19  N   UNL A   1      31.964  21.118  25.029  1.00  0.00    -0.192 NA
ENDBRANCH   9  18
ENDBRANCH   5   8
ENDBRANCH   3   4
ENDBRANCH   2   3
ENDBRANCH   1   2
BRANCH   1  20
ATOM     20  N   UNL A   1      32.520  34.184  28.143  1.00  0.00    -0.352 N 
ATOM     21  C   UNL A   1      33.168  34.533  29.317  1.00  0.00     0.251 C 
ATOM     22  H   UNL A   1      31.793  34.787  27.866  1.00  0.00     0.163 HD
ATOM     23  O   UNL A   1      32.656  35.335  30.092  1.00  0.00    -0.269 OA
BRANCH  21  24
ATOM     24  C   UNL A   1      34.489  33.941  29.605  1.00  0.00     0.039 A 
ATOM     25  C   UNL A   1      34.687  32.943  30.560  1.00  0.00     0.014 A 
ATOM     26  C   UNL A   1      35.560  34.401  28.848  1.00  0.00     0.014 A 
ATOM     27  C   UNL A   1      35.975  32.434  30.720  1.00  0.00     0.010 A 
ATOM     28  C   UNL A   1      36.710  33.676  28.777  1.00  0.00     0.010 A 
ATOM     29  C   UNL A   1      36.986  32.819  29.815  1.00  0.00    -0.014 A 
BRANCH  29  30
ATOM     30  C   UNL A   1      38.311  32.222  29.798  1.00  0.00     0.031 A 
ATOM     31  C   UNL A   1      38.272  30.886  29.171  1.00  0.00     0.074 A 
ATOM     32  C   UNL A   1      39.453  32.863  30.149  1.00  0.00     0.049 A 
ATOM     33  N   UNL A   1      38.175  29.771  29.812  1.00  0.00    -0.248 NA
ATOM     34  C   UNL A   1      38.021  30.764  27.727  1.00  0.00     0.031 C 
ATOM     35  C   UNL A   1      39.660  34.275  30.508  1.00  0.00     0.029 A 
ATOM     36  N   UNL A   1      40.724  32.377  30.196  1.00  0.00    -0.354 N 
ATOM     37  C   UNL A   1      38.186  28.787  28.837  1.00  0.00     0.074 A 
ATOM     38  C   UNL A   1      37.820  29.448  27.614  1.00  0.00     0.031 C 
ATOM     39  C   UNL A   1      40.986  34.562  30.513  1.00  0.00     0.029 A 
ATOM     40  C   UNL A   1      41.735  33.333  30.324  1.00  0.00     0.049 A 
ATOM     41  H   UNL A   1      40.918  31.413  30.144  1.00  0.00     0.167 HD
ATOM     42  C   UNL A   1      38.810  27.605  29.094  1.00  0.00     0.034 A 
ATOM     43  C   UNL A   1      43.080  33.114  30.306  1.00  0.00     0.034 A 
ATOM     44  C   UNL A   1      39.098  27.495  30.511  1.00  0.00     0.049 A 
ATOM     45  C   UNL A   1      43.272  31.693  30.675  1.00  0.00     0.074 A 
ATOM     46  C   UNL A   1      38.345  27.483  31.668  1.00  0.00     0.029 A 
ATOM     47  N   UNL A   1      40.373  27.846  30.886  1.00  0.00    -0.354 N 
ATOM     48  N   UNL A   1      42.975  31.221  31.851  1.00  0.00    -0.248 NA
ATOM     49  C   UNL A   1      43.321  30.728  29.592  1.00  0.00     0.031 C 
ATOM     50  C   UNL A   1      39.097  28.249  32.608  1.00  0.00     0.029 A 
ATOM     51  C   UNL A   1      40.314  28.605  32.023  1.00  0.00     0.049 A 
ATOM     52  H   UNL A   1      41.198  27.591  30.412  1.00  0.00     0.167 HD
ATOM     53  C   UNL A   1      42.314  30.033  31.571  1.00  0.00     0.074 A 
ATOM     54  C   UNL A   1      42.639  29.737  30.173  1.00  0.00     0.031 C 
ATOM     55  C   UNL A   1      41.324  29.575  32.392  1.00  0.00     0.034 A 
BRANCH  42  56
ATOM     56  C   UNL A   1      39.567  26.771  28.081  1.00  0.00     0.023 A 
ATOM     57  C   UNL A   1      39.333  25.377  28.126  1.00  0.00     0.012 A 
ATOM     58  C   UNL A   1      40.659  27.206  27.296  1.00  0.00     0.148 A 
ATOM     59  C   UNL A   1      40.184  24.463  27.499  1.00  0.00     0.002 A 
ATOM     60  C   UNL A   1      41.466  26.298  26.618  1.00  0.00     0.091 A 
ATOM     61  F   UNL A   1      41.007  28.492  27.272  1.00  0.00    -0.205 F 
ATOM     62  C   UNL A   1      41.252  24.924  26.744  1.00  0.00     0.022 A 
BRANCH  60  63
ATOM     63  S   UNL A   1      42.843  26.826  25.586  1.00  0.00     0.127 S 
ATOM     64  O   UNL A   1      43.752  27.393  26.578  1.00  0.00    -0.237 OA
ATOM     65  O   UNL A   1      43.274  25.555  25.004  1.00  0.00    -0.237 OA
ATOM     66  O   UNL A   1      42.286  27.769  24.626  1.00  0.00    -0.744 OA
ENDBRANCH  60  63
ENDBRANCH  42  56
BRANCH  43  67
ATOM     67  C   UNL A   1      44.197  33.872  29.669  1.00  0.00     0.023 A 
ATOM     68  C   UNL A   1      45.270  34.344  30.465  1.00  0.00     0.012 A 
ATOM     69  C   UNL A   1      44.396  33.812  28.275  1.00  0.00     0.148 A 
ATOM     70  C   UNL A   1      46.508  34.688  29.899  1.00  0.00     0.002 A 
ATOM     71  C   UNL A   1      45.633  34.139  27.718  1.00  0.00     0.091 A 
ATOM     72  F   UNL A   1      43.403  33.343  27.509  1.00  0.00    -0.205 F 
ATOM     73  C   UNL A   1      46.695  34.567  28.527  1.00  0.00     0.022 A 
BRANCH  71  74
ATOM     74  S   UNL A   1      45.982  33.933  25.965  1.00  0.00     0.127 S 
ATOM     75  O   UNL A   1      45.641  32.526  25.754  1.00  0.00    -0.237 OA
ATOM     76  O   UNL A   1      45.055  34.885  25.358  1.00  0.00    -0.237 OA
ATOM     77  O   UNL A   1      47.397  34.243  25.801  1.00  0.00    -0.744 OA
ENDBRANCH  71  74
ENDBRANCH  43  67
BRANCH  55  78
ATOM     78  C   UNL A   1      41.143  30.246  33.734  1.00  0.00     0.023 A 
ATOM     79  C   UNL A   1      42.001  30.032  34.835  1.00  0.00     0.012 A 
ATOM     80  C   UNL A   1      40.186  31.269  33.814  1.00  0.00     0.148 A 
ATOM     81  C   UNL A   1      41.900  30.823  35.987  1.00  0.00     0.002 A 
ATOM     82  C   UNL A   1      40.125  32.087  34.934  1.00  0.00     0.091 A 
ATOM     83  F   UNL A   1      39.373  31.453  32.763  1.00  0.00    -0.205 F 
ATOM     84  C   UNL A   1      40.974  31.863  36.029  1.00  0.00     0.022 A 
BRANCH  82  85
ATOM     85  S   UNL A   1      39.055  33.526  34.980  1.00  0.00     0.127 S 
ATOM     86  O   UNL A   1      39.591  34.340  33.893  1.00  0.00    -0.237 OA
ATOM     87  O   UNL A   1      37.738  32.942  34.719  1.00  0.00    -0.237 OA
ATOM     88  O   UNL A   1      39.199  34.094  36.315  1.00  0.00    -0.744 OA
ENDBRANCH  82  85
ENDBRANCH  55  78
ENDBRANCH  29  30
ENDBRANCH  21  24
ENDBRANCH   1  20
TORSDOF 14
ENDMDL
MODEL 3
REMARK VINA RESULT:     -11.6      3.457     11.647
REMARK SMILES N#Cc1cnc2cc(C(=O)NCCCNC(=O)c3ccc(-c4c5nc(c(-c6cccc(S(=O)(=O)[O-])c6F)c6ccc([nH]6)c(-c6cccc(S(=O)(=O)[O-])c6F)c6nc(c(-c7cccc(S(=O)(=O)[O-])c7F)c7ccc4[nH]7)C=C6)C=C5)cc3)[nH]c2c1
REMARK SMILES IDX 14 1 13 2 12 3 11 4 9 5 10 6 8 8 3 9 4 10 83 11 5 12 82 13
REMARK SMILES IDX 6 14 81 15 7 16 2 18 1 19 15 20 16 21 17 23 18 24 19 25
REMARK SMILES IDX 80 26 20 27 79 28 21 29 22 30 23 31 73 32 24 33 78 34 72 35
REMARK SMILES IDX 74 36 25 37 77 38 71 39 70 40 26 42 58 43 38 44 57 45 39 46
REMARK SMILES IDX 42 47 56 48 75 49 40 50 41 51 55 53 76 54 43 55 27 56 28 57
REMARK SMILES IDX 36 58 29 59 31 60 37 61 30 62 32 63 33 64 34 65 35 66 59 67
REMARK SMILES IDX 60 68 68 69 61 70 63 71 69 72 62 73 64 74 65 75 66 76 67 77
REMARK SMILES IDX 44 78 45 79 53 80 46 81 48 82 54 83 47 84 49 85 50 86 51 87
REMARK SMILES IDX 52 88
REMARK H PARENT 11 7 81 17 15 22 74 41 42 52
REMARK Flexibility Score: inf
ROOT
ATOM      1  C   UNL A   1      41.324  22.029  27.787  1.00  0.00     0.118 C 
ENDROOT
BRANCH   1   2
ATOM      2  C   UNL A   1      40.893  20.705  27.177  1.00  0.00     0.042 C 
BRANCH   2   3
ATOM      3  C   UNL A   1      41.922  19.611  27.480  1.00  0.00     0.118 C 
BRANCH   3   4
ATOM      4  N   UNL A   1      42.366  18.896  26.297  1.00  0.00    -0.351 N 
ATOM      5  C   UNL A   1      43.360  19.155  25.394  1.00  0.00     0.267 C 
ATOM      6  O   UNL A   1      43.619  18.275  24.574  1.00  0.00    -0.268 OA
ATOM      7  H   UNL A   1      41.858  18.073  26.111  1.00  0.00     0.163 HD
BRANCH   5   8
ATOM      8  C   UNL A   1      44.071  20.414  25.366  1.00  0.00     0.107 A 
ATOM      9  C   UNL A   1      44.952  24.899  25.327  1.00  0.00     0.072 A 
ATOM     10  C   UNL A   1      46.143  24.371  25.811  1.00  0.00     0.131 A 
ATOM     11  C   UNL A   1      43.925  24.036  24.938  1.00  0.00     0.049 A 
ATOM     12  N   UNL A   1      46.421  23.057  25.949  1.00  0.00    -0.253 NA
ATOM     13  C   UNL A   1      44.185  22.675  25.116  1.00  0.00     0.066 A 
ATOM     14  C   UNL A   1      45.403  22.232  25.613  1.00  0.00     0.089 A 
ATOM     15  N   UNL A   1      43.417  21.555  24.919  1.00  0.00    -0.349 N 
ATOM     16  C   UNL A   1      45.338  20.830  25.737  1.00  0.00     0.062 A 
ATOM     17  H   UNL A   1      42.520  21.558  24.513  1.00  0.00     0.167 HD
BRANCH   9  18
ATOM     18  C   UNL A   1      44.795  26.323  25.247  1.00  0.00     0.101 C 
ATOM     19  N   UNL A   1      44.663  27.463  25.159  1.00  0.00    -0.192 NA
ENDBRANCH   9  18
ENDBRANCH   5   8
ENDBRANCH   3   4
ENDBRANCH   2   3
ENDBRANCH   1   2
BRANCH   1  20
ATOM     20  N   UNL A   1      42.641  21.956  28.443  1.00  0.00    -0.352 N 
ATOM     21  C   UNL A   1      43.511  22.984  28.770  1.00  0.00     0.251 C 
ATOM     22  H   UNL A   1      42.944  21.052  28.684  1.00  0.00     0.163 HD
ATOM     23  O   UNL A   1      44.684  22.740  29.037  1.00  0.00    -0.269 OA
BRANCH  21  24
ATOM     24  C   UNL A   1      42.997  24.367  28.814  1.00  0.00     0.039 A 
ATOM     25  C   UNL A   1      41.731  24.725  28.352  1.00  0.00     0.014 A 
ATOM     26  C   UNL A   1      43.830  25.327  29.377  1.00  0.00     0.014 A 
ATOM     27  C   UNL A   1      41.340  26.058  28.478  1.00  0.00     0.010 A 
ATOM     28  C   UNL A   1      43.319  26.517  29.793  1.00  0.00     0.010 A 
ATOM     29  C   UNL A   1      42.155  26.951  29.204  1.00  0.00    -0.014 A 
BRANCH  29  30
ATOM     30  C   UNL A   1      41.758  28.310  29.529  1.00  0.00     0.031 A 
ATOM     31  C   UNL A   1      42.589  29.286  28.795  1.00  0.00     0.074 A 
ATOM     32  C   UNL A   1      40.669  28.643  30.265  1.00  0.00     0.049 A 
ATOM     33  N   UNL A   1      43.638  29.865  29.267  1.00  0.00    -0.248 NA
ATOM     34  C   UNL A   1      42.443  29.418  27.337  1.00  0.00     0.031 C 
ATOM     35  C   UNL A   1      39.605  27.780  30.803  1.00  0.00     0.029 A 
ATOM     36  N   UNL A   1      40.242  29.878  30.646  1.00  0.00    -0.354 N 
ATOM     37  C   UNL A   1      44.086  30.695  28.252  1.00  0.00     0.074 A 
ATOM     38  C   UNL A   1      43.501  30.181  27.044  1.00  0.00     0.031 C 
ATOM     39  C   UNL A   1      38.566  28.540  31.233  1.00  0.00     0.029 A 
ATOM     40  C   UNL A   1      38.945  29.940  31.162  1.00  0.00     0.049 A 
ATOM     41  H   UNL A   1      40.811  30.678  30.563  1.00  0.00     0.167 HD
ATOM     42  C   UNL A   1      44.629  31.901  28.571  1.00  0.00     0.034 A 
ATOM     43  C   UNL A   1      38.258  31.059  31.528  1.00  0.00     0.034 A 
ATOM     44  C   UNL A   1      44.914  31.955  29.992  1.00  0.00     0.049 A 
ATOM     45  C   UNL A   1      39.277  32.098  31.801  1.00  0.00     0.074 A 
ATOM     46  C   UNL A   1      45.709  31.237  30.863  1.00  0.00     0.029 A 
ATOM     47  N   UNL A   1      43.962  32.577  30.765  1.00  0.00    -0.354 N 
ATOM     48  N   UNL A   1      40.128  32.014  32.783  1.00  0.00    -0.248 NA
ATOM     49  C   UNL A   1      39.658  32.958  30.696  1.00  0.00     0.031 C 
ATOM     50  C   UNL A   1      44.933  31.110  32.054  1.00  0.00     0.029 A 
ATOM     51  C   UNL A   1      43.752  31.840  31.898  1.00  0.00     0.049 A 
ATOM     52  H   UNL A   1      43.503  33.418  30.538  1.00  0.00     0.167 HD
ATOM     53  C   UNL A   1      41.333  32.387  32.206  1.00  0.00     0.074 A 
ATOM     54  C   UNL A   1      40.967  33.043  30.948  1.00  0.00     0.031 C 
ATOM     55  C   UNL A   1      42.511  31.852  32.644  1.00  0.00     0.034 A 
BRANCH  42  56
ATOM     56  C   UNL A   1      44.491  33.171  27.758  1.00  0.00     0.023 A 
ATOM     57  C   UNL A   1      45.546  33.451  26.858  1.00  0.00     0.012 A 
ATOM     58  C   UNL A   1      43.569  34.216  27.997  1.00  0.00     0.148 A 
ATOM     59  C   UNL A   1      45.725  34.718  26.297  1.00  0.00     0.002 A 
ATOM     60  C   UNL A   1      43.711  35.457  27.386  1.00  0.00     0.091 A 
ATOM     61  F   UNL A   1      42.599  34.070  28.900  1.00  0.00    -0.205 F 
ATOM     62  C   UNL A   1      44.806  35.723  26.562  1.00  0.00     0.022 A 
BRANCH  60  63
ATOM     63  S   UNL A   1      42.535  36.794  27.649  1.00  0.00     0.127 S 
ATOM     64  O   UNL A   1      42.947  37.293  28.958  1.00  0.00    -0.237 OA
ATOM     65  O   UNL A   1      42.841  37.677  26.523  1.00  0.00    -0.237 OA
ATOM     66  O   UNL A   1      41.214  36.182  27.592  1.00  0.00    -0.744 OA
ENDBRANCH  60  63
ENDBRANCH  42  56
BRANCH  43  67
ATOM     67  C   UNL A   1      36.832  31.452  31.331  1.00  0.00     0.023 A 
ATOM     68  C   UNL A   1      36.094  31.987  32.416  1.00  0.00     0.012 A 
ATOM     69  C   UNL A   1      36.319  31.649  30.034  1.00  0.00     0.148 A 
ATOM     70  C   UNL A   1      34.924  32.736  32.210  1.00  0.00     0.002 A 
ATOM     71  C   UNL A   1      35.164  32.407  29.831  1.00  0.00     0.091 A 
ATOM     72  F   UNL A   1      37.016  31.173  28.994  1.00  0.00    -0.205 F 
ATOM     73  C   UNL A   1      34.470  32.961  30.915  1.00  0.00     0.022 A 
BRANCH  71  74
ATOM     74  S   UNL A   1      34.557  32.813  28.187  1.00  0.00     0.127 S 
ATOM     75  O   UNL A   1      33.479  33.755  28.489  1.00  0.00    -0.237 OA
ATOM     76  O   UNL A   1      35.737  33.411  27.568  1.00  0.00    -0.237 OA
ATOM     77  O   UNL A   1      34.113  31.553  27.605  1.00  0.00    -0.744 OA
ENDBRANCH  71  74
ENDBRANCH  43  67
BRANCH  55  78
ATOM     78  C   UNL A   1      42.498  31.053  33.927  1.00  0.00     0.023 A 
ATOM     79  C   UNL A   1      42.461  31.641  35.210  1.00  0.00     0.012 A 
ATOM     80  C   UNL A   1      42.323  29.665  33.815  1.00  0.00     0.148 A 
ATOM     81  C   UNL A   1      42.256  30.855  36.353  1.00  0.00     0.002 A 
ATOM     82  C   UNL A   1      42.065  28.898  34.943  1.00  0.00     0.091 A 
ATOM     83  F   UNL A   1      42.370  29.123  32.589  1.00  0.00    -0.205 F 
ATOM     84  C   UNL A   1      42.040  29.486  36.216  1.00  0.00     0.022 A 
BRANCH  82  85
ATOM     85  S   UNL A   1      41.637  27.161  34.809  1.00  0.00     0.127 S 
ATOM     86  O   UNL A   1      42.847  26.593  34.221  1.00  0.00    -0.237 OA
ATOM     87  O   UNL A   1      41.400  26.791  36.206  1.00  0.00    -0.237 OA
ATOM     88  O   UNL A   1      40.447  27.101  33.968  1.00  0.00    -0.744 OA
ENDBRANCH  82  85
ENDBRANCH  55  78
ENDBRANCH  29  30
ENDBRANCH  21  24
ENDBRANCH   1  20
TORSDOF 14
ENDMDL
