MODEL 1
REMARK VINA RESULT:     -12.0      0.000      0.000
REMARK SMILES C[C@@](COc1ccccc1)(NC(=O)CN1CSCC1=O)C(=O)NCCCNC(=O)c1ccc(-c2c3nc(c(-c4cccc(S(=O)(=O)[O-])c4F)c4ccc([nH]4)c(-c4cccc(S(=O)(=O)[O-])c4F)c4nc(c(-c5cccc(S(=O)(=O)[O-])c5F)c5ccc2[nH]5)C=C4)C=C3)cc1
REMARK SMILES IDX 25 1 24 2 23 3 21 4 22 5 2 7 1 8 3 9 4 10 5 11 6 12 10 13
REMARK SMILES IDX 7 14 9 15 8 16 11 17 12 18 13 20 14 21 15 22 16 23 19 24
REMARK SMILES IDX 17 25 18 26 20 27 26 28 27 29 28 30 29 32 30 33 31 34 92 35
REMARK SMILES IDX 32 36 91 37 33 38 34 39 35 40 85 41 36 42 90 43 84 44 86 45
REMARK SMILES IDX 37 46 89 47 83 48 82 49 38 51 70 52 50 53 69 54 51 55 54 56
REMARK SMILES IDX 68 57 87 58 52 59 53 60 67 62 88 63 55 64 39 65 40 66 48 67
REMARK SMILES IDX 41 68 43 69 49 70 42 71 44 72 45 73 46 74 47 75 71 76 72 77
REMARK SMILES IDX 80 78 73 79 75 80 81 81 74 82 76 83 77 84 78 85 79 86 56 87
REMARK SMILES IDX 57 88 65 89 58 90 60 91 66 92 59 93 61 94 62 95 63 96 64 97
REMARK H PARENT 23 6 11 19 27 31 86 50 54 61
REMARK Flexibility Score: inf
ROOT
ATOM      1  C   UNL A   1      31.729  28.744  26.993  1.00  0.00     0.042 C 
ENDROOT
BRANCH   1   2
ATOM      2  C   UNL A   1      31.784  27.222  26.887  1.00  0.00     0.117 C 
BRANCH   2   3
ATOM      3  N   UNL A   1      32.597  26.721  25.789  1.00  0.00    -0.354 N 
ATOM      4  C   UNL A   1      32.296  25.952  24.706  1.00  0.00     0.249 C 
ATOM      5  O   UNL A   1      33.145  25.949  23.806  1.00  0.00    -0.272 OA
ATOM      6  H   UNL A   1      33.544  26.988  25.839  1.00  0.00     0.163 HD
BRANCH   4   7
ATOM      7  C   UNL A   1      30.930  25.242  24.522  1.00  0.00     0.150 C 
ATOM      8  C   UNL A   1      30.999  24.327  23.287  1.00  0.00     0.049 C 
BRANCH   7   9
ATOM      9  C   UNL A   1      29.882  26.370  24.224  1.00  0.00     0.267 C 
BRANCH   9  10
ATOM     10  O   UNL A   1      30.497  27.542  23.637  1.00  0.00    -0.491 OA
BRANCH  10  11
ATOM     11  C   UNL A   1      29.612  28.574  23.506  1.00  0.00     0.119 A 
ATOM     12  C   UNL A   1      30.022  29.888  23.714  1.00  0.00     0.046 A 
ATOM     13  C   UNL A   1      28.279  28.287  23.218  1.00  0.00     0.046 A 
ATOM     14  C   UNL A   1      29.108  30.930  23.538  1.00  0.00     0.004 A 
ATOM     15  C   UNL A   1      27.377  29.327  23.007  1.00  0.00     0.004 A 
ATOM     16  C   UNL A   1      27.794  30.649  23.158  1.00  0.00     0.000 A 
ENDBRANCH  10  11
ENDBRANCH   9  10
ENDBRANCH   7   9
BRANCH   7  17
ATOM     17  N   UNL A   1      30.506  24.511  25.735  1.00  0.00    -0.338 N 
ATOM     18  C   UNL A   1      31.030  23.538  26.521  1.00  0.00     0.240 C 
ATOM     19  H   UNL A   1      29.622  24.805  26.053  1.00  0.00     0.164 HD
ATOM     20  O   UNL A   1      30.302  23.162  27.447  1.00  0.00    -0.273 OA
BRANCH  18  21
ATOM     21  C   UNL A   1      32.505  23.114  26.492  1.00  0.00     0.220 C 
BRANCH  21  22
ATOM     22  N   UNL A   1      32.833  21.840  25.888  1.00  0.00    -0.323 N 
ATOM     23  C   UNL A   1      31.917  21.218  24.971  1.00  0.00     0.190 C 
ATOM     24  C   UNL A   1      34.158  21.444  25.800  1.00  0.00     0.233 C 
ATOM     25  S   UNL A   1      32.681  19.686  24.431  1.00  0.00    -0.130 SA
ATOM     26  C   UNL A   1      34.328  20.188  24.976  1.00  0.00     0.171 C 
ATOM     27  O   UNL A   1      35.090  22.013  26.349  1.00  0.00    -0.274 OA
ENDBRANCH  21  22
ENDBRANCH  18  21
ENDBRANCH   7  17
ENDBRANCH   4   7
ENDBRANCH   2   3
ENDBRANCH   1   2
BRANCH   1  28
ATOM     28  C   UNL A   1      32.938  29.489  26.440  1.00  0.00     0.118 C 
BRANCH  28  29
ATOM     29  N   UNL A   1      32.888  30.919  26.693  1.00  0.00    -0.352 N 
ATOM     30  C   UNL A   1      33.708  31.704  27.466  1.00  0.00     0.251 C 
ATOM     31  H   UNL A   1      32.155  31.397  26.243  1.00  0.00     0.163 HD
ATOM     32  O   UNL A   1      33.385  32.868  27.692  1.00  0.00    -0.269 OA
BRANCH  30  33
ATOM     33  C   UNL A   1      34.958  31.157  28.041  1.00  0.00     0.039 A 
ATOM     34  C   UNL A   1      36.100  31.962  28.049  1.00  0.00     0.014 A 
ATOM     35  C   UNL A   1      35.023  29.854  28.543  1.00  0.00     0.014 A 
ATOM     36  C   UNL A   1      37.287  31.483  28.609  1.00  0.00     0.010 A 
ATOM     37  C   UNL A   1      36.185  29.406  29.171  1.00  0.00     0.010 A 
ATOM     38  C   UNL A   1      37.333  30.211  29.203  1.00  0.00    -0.014 A 
BRANCH  38  39
ATOM     39  C   UNL A   1      38.573  29.716  29.863  1.00  0.00     0.031 A 
ATOM     40  C   UNL A   1      39.002  30.270  31.197  1.00  0.00     0.074 A 
ATOM     41  C   UNL A   1      39.349  28.811  29.233  1.00  0.00     0.049 A 
ATOM     42  N   UNL A   1      40.070  29.993  31.901  1.00  0.00    -0.248 NA
ATOM     43  C   UNL A   1      38.128  31.284  31.814  1.00  0.00     0.031 C 
ATOM     44  C   UNL A   1      39.083  28.244  27.909  1.00  0.00     0.029 A 
ATOM     45  N   UNL A   1      40.532  28.225  29.611  1.00  0.00    -0.354 N 
ATOM     46  C   UNL A   1      40.013  30.813  33.021  1.00  0.00     0.074 A 
ATOM     47  C   UNL A   1      38.824  31.626  32.889  1.00  0.00     0.031 C 
ATOM     48  C   UNL A   1      40.068  27.389  27.588  1.00  0.00     0.029 A 
ATOM     49  C   UNL A   1      41.055  27.373  28.664  1.00  0.00     0.049 A 
ATOM     50  H   UNL A   1      40.966  28.398  30.477  1.00  0.00     0.167 HD
ATOM     51  C   UNL A   1      40.857  30.867  34.081  1.00  0.00     0.034 A 
ATOM     52  C   UNL A   1      42.203  26.667  28.656  1.00  0.00     0.034 A 
ATOM     53  C   UNL A   1      42.020  30.034  34.229  1.00  0.00     0.049 A 
ATOM     54  C   UNL A   1      43.114  26.737  29.853  1.00  0.00     0.074 A 
ATOM     55  C   UNL A   1      42.896  29.965  35.299  1.00  0.00     0.029 A 
ATOM     56  N   UNL A   1      42.478  29.134  33.280  1.00  0.00    -0.354 N 
ATOM     57  N   UNL A   1      42.964  27.410  30.967  1.00  0.00    -0.248 NA
ATOM     58  C   UNL A   1      44.336  25.921  29.806  1.00  0.00     0.031 C 
ATOM     59  C   UNL A   1      43.899  29.043  34.984  1.00  0.00     0.029 A 
ATOM     60  C   UNL A   1      43.627  28.511  33.734  1.00  0.00     0.049 A 
ATOM     61  H   UNL A   1      42.047  28.962  32.411  1.00  0.00     0.167 HD
ATOM     62  C   UNL A   1      44.048  27.067  31.768  1.00  0.00     0.074 A 
ATOM     63  C   UNL A   1      44.834  26.109  31.020  1.00  0.00     0.031 C 
ATOM     64  C   UNL A   1      44.369  27.515  33.006  1.00  0.00     0.034 A 
BRANCH  51  65
ATOM     65  C   UNL A   1      40.528  31.826  35.196  1.00  0.00     0.023 A 
ATOM     66  C   UNL A   1      41.265  33.021  35.325  1.00  0.00     0.012 A 
ATOM     67  C   UNL A   1      39.442  31.587  36.063  1.00  0.00     0.148 A 
ATOM     68  C   UNL A   1      40.947  33.948  36.317  1.00  0.00     0.002 A 
ATOM     69  C   UNL A   1      39.104  32.538  37.019  1.00  0.00     0.091 A 
ATOM     70  F   UNL A   1      38.763  30.438  35.934  1.00  0.00    -0.205 F 
ATOM     71  C   UNL A   1      39.861  33.712  37.154  1.00  0.00     0.022 A 
BRANCH  69  72
ATOM     72  S   UNL A   1      37.674  32.369  38.094  1.00  0.00     0.127 S 
ATOM     73  O   UNL A   1      38.137  33.044  39.306  1.00  0.00    -0.237 OA
ATOM     74  O   UNL A   1      36.644  33.092  37.349  1.00  0.00    -0.237 OA
ATOM     75  O   UNL A   1      37.439  30.938  38.232  1.00  0.00    -0.744 OA
ENDBRANCH  69  72
ENDBRANCH  51  65
BRANCH  52  76
ATOM     76  C   UNL A   1      42.543  25.793  27.496  1.00  0.00     0.023 A 
ATOM     77  C   UNL A   1      43.308  26.315  26.435  1.00  0.00     0.012 A 
ATOM     78  C   UNL A   1      42.107  24.456  27.435  1.00  0.00     0.148 A 
ATOM     79  C   UNL A   1      43.597  25.535  25.314  1.00  0.00     0.002 A 
ATOM     80  C   UNL A   1      42.447  23.667  26.343  1.00  0.00     0.091 A 
ATOM     81  F   UNL A   1      41.369  23.981  28.449  1.00  0.00    -0.205 F 
ATOM     82  C   UNL A   1      43.174  24.209  25.272  1.00  0.00     0.022 A 
BRANCH  80  83
ATOM     83  S   UNL A   1      42.054  21.916  26.261  1.00  0.00     0.127 S 
ATOM     84  O   UNL A   1      42.936  21.462  25.189  1.00  0.00    -0.237 OA
ATOM     85  O   UNL A   1      42.428  21.462  27.601  1.00  0.00    -0.237 OA
ATOM     86  O   UNL A   1      40.627  21.849  25.980  1.00  0.00    -0.744 OA
ENDBRANCH  80  83
ENDBRANCH  52  76
BRANCH  64  87
ATOM     87  C   UNL A   1      45.597  26.938  33.664  1.00  0.00     0.023 A 
ATOM     88  C   UNL A   1      46.836  27.601  33.553  1.00  0.00     0.012 A 
ATOM     89  C   UNL A   1      45.504  25.774  34.453  1.00  0.00     0.148 A 
ATOM     90  C   UNL A   1      47.969  27.094  34.188  1.00  0.00     0.002 A 
ATOM     91  C   UNL A   1      46.626  25.305  35.126  1.00  0.00     0.091 A 
ATOM     92  F   UNL A   1      44.320  25.149  34.533  1.00  0.00    -0.205 F 
ATOM     93  C   UNL A   1      47.862  25.956  34.983  1.00  0.00     0.022 A 
BRANCH  91  94
ATOM     94  S   UNL A   1      46.561  23.905  36.249  1.00  0.00     0.127 S 
ATOM     95  O   UNL A   1      45.543  24.337  37.205  1.00  0.00    -0.237 OA
ATOM     96  O   UNL A   1      46.145  22.818  35.363  1.00  0.00    -0.237 OA
ATOM     97  O   UNL A   1      47.905  23.761  36.793  1.00  0.00    -0.744 OA
ENDBRANCH  91  94
ENDBRANCH  64  87
ENDBRANCH  38  39
ENDBRANCH  30  33
ENDBRANCH  28  29
ENDBRANCH   1  28
TORSDOF 19
ENDMDL
MODEL 2
REMARK VINA RESULT:     -11.8      5.105     10.326
REMARK SMILES C[C@@](COc1ccccc1)(NC(=O)CN1CSCC1=O)C(=O)NCCCNC(=O)c1ccc(-c2c3nc(c(-c4cccc(S(=O)(=O)[O-])c4F)c4ccc([nH]4)c(-c4cccc(S(=O)(=O)[O-])c4F)c4nc(c(-c5cccc(S(=O)(=O)[O-])c5F)c5ccc2[nH]5)C=C4)C=C3)cc1
REMARK SMILES IDX 25 1 24 2 23 3 21 4 22 5 2 7 1 8 3 9 4 10 5 11 6 12 10 13
REMARK SMILES IDX 7 14 9 15 8 16 11 17 12 18 13 20 14 21 15 22 16 23 19 24
REMARK SMILES IDX 17 25 18 26 20 27 26 28 27 29 28 30 29 32 30 33 31 34 92 35
REMARK SMILES IDX 32 36 91 37 33 38 34 39 35 40 85 41 36 42 90 43 84 44 86 45
REMARK SMILES IDX 37 46 89 47 83 48 82 49 38 51 70 52 50 53 69 54 51 55 54 56
REMARK SMILES IDX 68 57 87 58 52 59 53 60 67 62 88 63 55 64 39 65 40 66 48 67
REMARK SMILES IDX 41 68 43 69 49 70 42 71 44 72 45 73 46 74 47 75 71 76 72 77
REMARK SMILES IDX 80 78 73 79 75 80 81 81 74 82 76 83 77 84 78 85 79 86 56 87
REMARK SMILES IDX 57 88 65 89 58 90 60 91 66 92 59 93 61 94 62 95 63 96 64 97
REMARK H PARENT 23 6 11 19 27 31 86 50 54 61
REMARK Flexibility Score: inf
ROOT
ATOM      1  C   UNL A   1      35.567  22.164  24.818  1.00  0.00     0.042 C 
ENDROOT
BRANCH   1   2
ATOM      2  C   UNL A   1      35.002  23.568  24.620  1.00  0.00     0.117 C 
BRANCH   2   3
ATOM      3  N   UNL A   1      33.752  23.822  25.322  1.00  0.00    -0.354 N 
ATOM      4  C   UNL A   1      32.453  23.790  24.915  1.00  0.00     0.249 C 
ATOM      5  O   UNL A   1      31.614  23.764  25.823  1.00  0.00    -0.272 OA
ATOM      6  H   UNL A   1      33.868  24.062  26.270  1.00  0.00     0.163 HD
BRANCH   4   7
ATOM      7  C   UNL A   1      32.033  23.642  23.430  1.00  0.00     0.150 C 
ATOM      8  C   UNL A   1      30.519  23.892  23.307  1.00  0.00     0.049 C 
BRANCH   7   9
ATOM      9  C   UNL A   1      32.303  22.148  23.039  1.00  0.00     0.267 C 
BRANCH   9  10
ATOM     10  O   UNL A   1      32.230  21.265  24.185  1.00  0.00    -0.491 OA
BRANCH  10  11
ATOM     11  C   UNL A   1      32.619  19.992  23.875  1.00  0.00     0.119 A 
ATOM     12  C   UNL A   1      33.526  19.314  24.684  1.00  0.00     0.046 A 
ATOM     13  C   UNL A   1      32.136  19.404  22.708  1.00  0.00     0.046 A 
ATOM     14  C   UNL A   1      33.879  18.000  24.369  1.00  0.00     0.004 A 
ATOM     15  C   UNL A   1      32.460  18.082  22.413  1.00  0.00     0.004 A 
ATOM     16  C   UNL A   1      33.325  17.377  23.249  1.00  0.00     0.000 A 
ENDBRANCH  10  11
ENDBRANCH   9  10
ENDBRANCH   7   9
BRANCH   7  17
ATOM     17  N   UNL A   1      32.817  24.516  22.532  1.00  0.00    -0.338 N 
ATOM     18  C   UNL A   1      32.713  25.787  22.071  1.00  0.00     0.240 C 
ATOM     19  H   UNL A   1      33.616  24.062  22.181  1.00  0.00     0.164 HD
ATOM     20  O   UNL A   1      33.590  26.129  21.271  1.00  0.00    -0.273 OA
BRANCH  18  21
ATOM     21  C   UNL A   1      31.785  26.847  22.682  1.00  0.00     0.220 C 
BRANCH  21  22
ATOM     22  N   UNL A   1      32.243  27.550  23.861  1.00  0.00    -0.323 N 
ATOM     23  C   UNL A   1      33.576  27.339  24.357  1.00  0.00     0.190 C 
ATOM     24  C   UNL A   1      31.625  28.732  24.239  1.00  0.00     0.233 C 
ATOM     25  S   UNL A   1      33.768  28.389  25.800  1.00  0.00    -0.130 SA
ATOM     26  C   UNL A   1      32.349  29.423  25.371  1.00  0.00     0.171 C 
ATOM     27  O   UNL A   1      30.592  29.162  23.746  1.00  0.00    -0.274 OA
ENDBRANCH  21  22
ENDBRANCH  18  21
ENDBRANCH   7  17
ENDBRANCH   4   7
ENDBRANCH   2   3
ENDBRANCH   1   2
BRANCH   1  28
ATOM     28  C   UNL A   1      36.320  21.931  26.122  1.00  0.00     0.118 C 
BRANCH  28  29
ATOM     29  N   UNL A   1      37.402  20.970  25.989  1.00  0.00    -0.352 N 
ATOM     30  C   UNL A   1      38.760  21.163  26.046  1.00  0.00     0.251 C 
ATOM     31  H   UNL A   1      37.117  20.040  25.834  1.00  0.00     0.163 HD
ATOM     32  O   UNL A   1      39.510  20.242  25.728  1.00  0.00    -0.269 OA
BRANCH  30  33
ATOM     33  C   UNL A   1      39.324  22.466  26.465  1.00  0.00     0.039 A 
ATOM     34  C   UNL A   1      40.397  22.475  27.359  1.00  0.00     0.014 A 
ATOM     35  C   UNL A   1      38.788  23.675  26.009  1.00  0.00     0.014 A 
ATOM     36  C   UNL A   1      40.967  23.690  27.751  1.00  0.00     0.010 A 
ATOM     37  C   UNL A   1      39.406  24.879  26.340  1.00  0.00     0.010 A 
ATOM     38  C   UNL A   1      40.497  24.903  27.222  1.00  0.00    -0.014 A 
BRANCH  38  39
ATOM     39  C   UNL A   1      41.139  26.197  27.580  1.00  0.00     0.031 A 
ATOM     40  C   UNL A   1      42.570  26.473  27.193  1.00  0.00     0.074 A 
ATOM     41  C   UNL A   1      40.457  27.103  28.308  1.00  0.00     0.049 A 
ATOM     42  N   UNL A   1      43.308  27.522  27.454  1.00  0.00    -0.248 NA
ATOM     43  C   UNL A   1      43.271  25.426  26.430  1.00  0.00     0.031 C 
ATOM     44  C   UNL A   1      39.088  26.932  28.805  1.00  0.00     0.029 A 
ATOM     45  N   UNL A   1      40.825  28.339  28.780  1.00  0.00    -0.354 N 
ATOM     46  C   UNL A   1      44.561  27.251  26.918  1.00  0.00     0.074 A 
ATOM     47  C   UNL A   1      44.497  25.924  26.346  1.00  0.00     0.031 C 
ATOM     48  C   UNL A   1      38.733  28.023  29.503  1.00  0.00     0.029 A 
ATOM     49  C   UNL A   1      39.856  28.955  29.538  1.00  0.00     0.049 A 
ATOM     50  H   UNL A   1      41.702  28.747  28.593  1.00  0.00     0.167 HD
ATOM     51  C   UNL A   1      45.659  28.045  26.878  1.00  0.00     0.034 A 
ATOM     52  C   UNL A   1      39.871  30.131  30.197  1.00  0.00     0.034 A 
ATOM     53  C   UNL A   1      45.712  29.378  27.415  1.00  0.00     0.049 A 
ATOM     54  C   UNL A   1      41.100  30.996  30.122  1.00  0.00     0.074 A 
ATOM     55  C   UNL A   1      46.755  30.285  27.359  1.00  0.00     0.029 A 
ATOM     56  N   UNL A   1      44.686  29.993  28.115  1.00  0.00    -0.354 N 
ATOM     57  N   UNL A   1      42.224  30.782  29.484  1.00  0.00    -0.248 NA
ATOM     58  C   UNL A   1      41.050  32.284  30.831  1.00  0.00     0.031 C 
ATOM     59  C   UNL A   1      46.370  31.439  28.050  1.00  0.00     0.029 A 
ATOM     60  C   UNL A   1      45.073  31.263  28.503  1.00  0.00     0.049 A 
ATOM     61  H   UNL A   1      43.809  29.585  28.306  1.00  0.00     0.167 HD
ATOM     62  C   UNL A   1      42.995  31.922  29.678  1.00  0.00     0.074 A 
ATOM     63  C   UNL A   1      42.203  32.833  30.475  1.00  0.00     0.031 C 
ATOM     64  C   UNL A   1      44.253  32.185  29.246  1.00  0.00     0.034 A 
BRANCH  51  65
ATOM     65  C   UNL A   1      46.887  27.514  26.182  1.00  0.00     0.023 A 
ATOM     66  C   UNL A   1      47.729  26.607  26.855  1.00  0.00     0.012 A 
ATOM     67  C   UNL A   1      47.162  27.849  24.840  1.00  0.00     0.148 A 
ATOM     68  C   UNL A   1      48.842  26.062  26.216  1.00  0.00     0.002 A 
ATOM     69  C   UNL A   1      48.247  27.266  24.196  1.00  0.00     0.091 A 
ATOM     70  F   UNL A   1      46.358  28.725  24.222  1.00  0.00    -0.205 F 
ATOM     71  C   UNL A   1      49.094  26.383  24.885  1.00  0.00     0.022 A 
BRANCH  69  72
ATOM     72  S   UNL A   1      48.614  27.548  22.460  1.00  0.00     0.127 S 
ATOM     73  O   UNL A   1      49.878  28.280  22.542  1.00  0.00    -0.237 OA
ATOM     74  O   UNL A   1      48.732  26.183  21.947  1.00  0.00    -0.237 OA
ATOM     75  O   UNL A   1      47.490  28.306  21.928  1.00  0.00    -0.744 OA
ENDBRANCH  69  72
ENDBRANCH  51  65
BRANCH  52  76
ATOM     76  C   UNL A   1      38.667  30.588  30.951  1.00  0.00     0.023 A 
ATOM     77  C   UNL A   1      38.570  30.322  32.331  1.00  0.00     0.012 A 
ATOM     78  C   UNL A   1      37.619  31.276  30.310  1.00  0.00     0.148 A 
ATOM     79  C   UNL A   1      37.433  30.692  33.049  1.00  0.00     0.002 A 
ATOM     80  C   UNL A   1      36.515  31.693  31.043  1.00  0.00     0.091 A 
ATOM     81  F   UNL A   1      37.724  31.509  28.993  1.00  0.00    -0.205 F 
ATOM     82  C   UNL A   1      36.410  31.385  32.408  1.00  0.00     0.022 A 
BRANCH  80  83
ATOM     83  S   UNL A   1      35.210  32.700  30.329  1.00  0.00     0.127 S 
ATOM     84  O   UNL A   1      34.343  32.925  31.481  1.00  0.00    -0.237 OA
ATOM     85  O   UNL A   1      35.953  33.877  29.877  1.00  0.00    -0.237 OA
ATOM     86  O   UNL A   1      34.643  31.899  29.254  1.00  0.00    -0.744 OA
ENDBRANCH  80  83
ENDBRANCH  52  76
BRANCH  64  87
ATOM     87  C   UNL A   1      44.840  33.534  29.575  1.00  0.00     0.023 A 
ATOM     88  C   UNL A   1      45.577  33.714  30.764  1.00  0.00     0.012 A 
ATOM     89  C   UNL A   1      44.721  34.605  28.667  1.00  0.00     0.148 A 
ATOM     90  C   UNL A   1      46.153  34.948  31.059  1.00  0.00     0.002 A 
ATOM     91  C   UNL A   1      45.345  35.816  28.943  1.00  0.00     0.091 A 
ATOM     92  F   UNL A   1      44.004  34.419  27.550  1.00  0.00    -0.205 F 
ATOM     93  C   UNL A   1      46.049  35.994  30.145  1.00  0.00     0.022 A 
BRANCH  91  94
ATOM     94  S   UNL A   1      45.347  37.186  27.782  1.00  0.00     0.127 S 
ATOM     95  O   UNL A   1      43.922  37.498  27.685  1.00  0.00    -0.237 OA
ATOM     96  O   UNL A   1      46.145  38.188  28.490  1.00  0.00    -0.237 OA
ATOM     97  O   UNL A   1      45.959  36.679  26.561  1.00  0.00    -0.744 OA
ENDBRANCH  91  94
ENDBRANCH  64  87
ENDBRANCH  38  39
ENDBRANCH  30  33
ENDBRANCH  28  29
ENDBRANCH   1  28
TORSDOF 19
ENDMDL
MODEL 3
REMARK VINA RESULT:     -11.8      2.292      3.967
REMARK SMILES C[C@@](COc1ccccc1)(NC(=O)CN1CSCC1=O)C(=O)NCCCNC(=O)c1ccc(-c2c3nc(c(-c4cccc(S(=O)(=O)[O-])c4F)c4ccc([nH]4)c(-c4cccc(S(=O)(=O)[O-])c4F)c4nc(c(-c5cccc(S(=O)(=O)[O-])c5F)c5ccc2[nH]5)C=C4)C=C3)cc1
REMARK SMILES IDX 25 1 24 2 23 3 21 4 22 5 2 7 1 8 3 9 4 10 5 11 6 12 10 13
REMARK SMILES IDX 7 14 9 15 8 16 11 17 12 18 13 20 14 21 15 22 16 23 19 24
REMARK SMILES IDX 17 25 18 26 20 27 26 28 27 29 28 30 29 32 30 33 31 34 92 35
REMARK SMILES IDX 32 36 91 37 33 38 34 39 35 40 85 41 36 42 90 43 84 44 86 45
REMARK SMILES IDX 37 46 89 47 83 48 82 49 38 51 70 52 50 53 69 54 51 55 54 56
REMARK SMILES IDX 68 57 87 58 52 59 53 60 67 62 88 63 55 64 39 65 40 66 48 67
REMARK SMILES IDX 41 68 43 69 49 70 42 71 44 72 45 73 46 74 47 75 71 76 72 77
REMARK SMILES IDX 80 78 73 79 75 80 81 81 74 82 76 83 77 84 78 85 79 86 56 87
REMARK SMILES IDX 57 88 65 89 58 90 60 91 66 92 59 93 61 94 62 95 63 96 64 97
REMARK H PARENT 23 6 11 19 27 31 86 50 54 61
REMARK Flexibility Score: inf
ROOT
ATOM      1  C   UNL A   1      32.240  27.891  27.000  1.00  0.00     0.042 C 
ENDROOT
BRANCH   1   2
ATOM      2  C   UNL A   1      31.907  26.696  26.111  1.00  0.00     0.117 C 
BRANCH   2   3
ATOM      3  N   UNL A   1      31.465  25.511  26.831  1.00  0.00    -0.354 N 
ATOM      4  C   UNL A   1      31.467  24.189  26.504  1.00  0.00     0.249 C 
ATOM      5  O   UNL A   1      31.299  23.409  27.450  1.00  0.00    -0.272 OA
ATOM      6  H   UNL A   1      31.094  25.702  27.724  1.00  0.00     0.163 HD
BRANCH   4   7
ATOM      7  C   UNL A   1      31.805  23.667  25.085  1.00  0.00     0.150 C 
ATOM      8  C   UNL A   1      30.637  23.990  24.136  1.00  0.00     0.049 C 
BRANCH   7   9
ATOM      9  C   UNL A   1      31.910  22.106  25.200  1.00  0.00     0.267 C 
BRANCH   9  10
ATOM     10  O   UNL A   1      32.126  21.480  23.913  1.00  0.00    -0.491 OA
BRANCH  10  11
ATOM     11  C   UNL A   1      32.369  20.141  24.030  1.00  0.00     0.119 A 
ATOM     12  C   UNL A   1      32.617  19.573  25.276  1.00  0.00     0.046 A 
ATOM     13  C   UNL A   1      32.420  19.361  22.876  1.00  0.00     0.046 A 
ATOM     14  C   UNL A   1      32.826  18.196  25.375  1.00  0.00     0.004 A 
ATOM     15  C   UNL A   1      32.592  17.982  22.979  1.00  0.00     0.004 A 
ATOM     16  C   UNL A   1      32.786  17.399  24.230  1.00  0.00     0.000 A 
ENDBRANCH  10  11
ENDBRANCH   9  10
ENDBRANCH   7   9
BRANCH   7  17
ATOM     17  N   UNL A   1      33.092  24.192  24.582  1.00  0.00    -0.338 N 
ATOM     18  C   UNL A   1      34.376  24.216  25.020  1.00  0.00     0.240 C 
ATOM     19  H   UNL A   1      32.994  24.634  23.708  1.00  0.00     0.164 HD
ATOM     20  O   UNL A   1      35.170  24.818  24.290  1.00  0.00    -0.273 OA
BRANCH  18  21
ATOM     21  C   UNL A   1      34.907  23.336  26.160  1.00  0.00     0.220 C 
BRANCH  21  22
ATOM     22  N   UNL A   1      36.031  22.467  25.879  1.00  0.00    -0.323 N 
ATOM     23  C   UNL A   1      35.850  21.294  25.066  1.00  0.00     0.190 C 
ATOM     24  C   UNL A   1      37.322  22.962  25.970  1.00  0.00     0.233 C 
ATOM     25  S   UNL A   1      37.456  20.501  24.934  1.00  0.00    -0.130 SA
ATOM     26  C   UNL A   1      38.351  21.980  25.461  1.00  0.00     0.171 C 
ATOM     27  O   UNL A   1      37.614  24.053  26.438  1.00  0.00    -0.274 OA
ENDBRANCH  21  22
ENDBRANCH  18  21
ENDBRANCH   7  17
ENDBRANCH   4   7
ENDBRANCH   2   3
ENDBRANCH   1   2
BRANCH   1  28
ATOM     28  C   UNL A   1      33.592  28.547  26.748  1.00  0.00     0.118 C 
BRANCH  28  29
ATOM     29  N   UNL A   1      33.592  29.974  27.021  1.00  0.00    -0.352 N 
ATOM     30  C   UNL A   1      34.488  30.732  27.733  1.00  0.00     0.251 C 
ATOM     31  H   UNL A   1      32.834  30.472  26.636  1.00  0.00     0.163 HD
ATOM     32  O   UNL A   1      34.208  31.899  27.998  1.00  0.00    -0.269 OA
BRANCH  30  33
ATOM     33  C   UNL A   1      35.769  30.154  28.198  1.00  0.00     0.039 A 
ATOM     34  C   UNL A   1      36.879  30.221  27.353  1.00  0.00     0.014 A 
ATOM     35  C   UNL A   1      35.877  29.524  29.441  1.00  0.00     0.014 A 
ATOM     36  C   UNL A   1      38.108  29.708  27.776  1.00  0.00     0.010 A 
ATOM     37  C   UNL A   1      37.121  29.083  29.892  1.00  0.00     0.010 A 
ATOM     38  C   UNL A   1      38.249  29.161  29.062  1.00  0.00    -0.014 A 
BRANCH  38  39
ATOM     39  C   UNL A   1      39.569  28.672  29.548  1.00  0.00     0.031 A 
ATOM     40  C   UNL A   1      40.298  29.406  30.645  1.00  0.00     0.074 A 
ATOM     41  C   UNL A   1      40.143  27.603  28.962  1.00  0.00     0.049 A 
ATOM     42  N   UNL A   1      41.472  29.154  31.167  1.00  0.00    -0.248 NA
ATOM     43  C   UNL A   1      39.632  30.589  31.217  1.00  0.00     0.031 C 
ATOM     44  C   UNL A   1      39.574  26.842  27.846  1.00  0.00     0.029 A 
ATOM     45  N   UNL A   1      41.343  26.981  29.206  1.00  0.00    -0.354 N 
ATOM     46  C   UNL A   1      41.698  30.157  32.101  1.00  0.00     0.074 A 
ATOM     47  C   UNL A   1      40.556  31.044  32.052  1.00  0.00     0.031 C 
ATOM     48  C   UNL A   1      40.420  25.856  27.507  1.00  0.00     0.029 A 
ATOM     49  C   UNL A   1      41.606  25.932  28.354  1.00  0.00     0.049 A 
ATOM     50  H   UNL A   1      41.957  27.259  29.923  1.00  0.00     0.167 HD
ATOM     51  C   UNL A   1      42.746  30.313  32.946  1.00  0.00     0.034 A 
ATOM     52  C   UNL A   1      42.685  25.130  28.256  1.00  0.00     0.034 A 
ATOM     53  C   UNL A   1      43.864  29.412  33.020  1.00  0.00     0.049 A 
ATOM     54  C   UNL A   1      43.828  25.319  29.217  1.00  0.00     0.074 A 
ATOM     55  C   UNL A   1      44.938  29.447  33.892  1.00  0.00     0.029 A 
ATOM     56  N   UNL A   1      44.061  28.322  32.188  1.00  0.00    -0.354 N 
ATOM     57  N   UNL A   1      43.953  26.186  30.191  1.00  0.00    -0.248 NA
ATOM     58  C   UNL A   1      44.964  24.395  29.088  1.00  0.00     0.031 C 
ATOM     59  C   UNL A   1      45.799  28.393  33.568  1.00  0.00     0.029 A 
ATOM     60  C   UNL A   1      45.242  27.681  32.518  1.00  0.00     0.049 A 
ATOM     61  H   UNL A   1      43.449  28.044  31.467  1.00  0.00     0.167 HD
ATOM     62  C   UNL A   1      45.159  25.885  30.816  1.00  0.00     0.074 A 
ATOM     63  C   UNL A   1      45.715  24.743  30.124  1.00  0.00     0.031 C 
ATOM     64  C   UNL A   1      45.757  26.508  31.861  1.00  0.00     0.034 A 
BRANCH  51  65
ATOM     65  C   UNL A   1      42.713  31.478  33.903  1.00  0.00     0.023 A 
ATOM     66  C   UNL A   1      43.287  32.707  33.521  1.00  0.00     0.012 A 
ATOM     67  C   UNL A   1      42.045  31.382  35.141  1.00  0.00     0.148 A 
ATOM     68  C   UNL A   1      43.225  33.814  34.367  1.00  0.00     0.002 A 
ATOM     69  C   UNL A   1      41.948  32.503  35.958  1.00  0.00     0.091 A 
ATOM     70  F   UNL A   1      41.518  30.201  35.493  1.00  0.00    -0.205 F 
ATOM     71  C   UNL A   1      42.546  33.714  35.578  1.00  0.00     0.022 A 
BRANCH  69  72
ATOM     72  S   UNL A   1      41.027  32.504  37.501  1.00  0.00     0.127 S 
ATOM     73  O   UNL A   1      41.950  31.804  38.394  1.00  0.00    -0.237 OA
ATOM     74  O   UNL A   1      40.884  33.935  37.770  1.00  0.00    -0.237 OA
ATOM     75  O   UNL A   1      39.778  31.806  37.227  1.00  0.00    -0.744 OA
ENDBRANCH  69  72
ENDBRANCH  51  65
BRANCH  52  76
ATOM     76  C   UNL A   1      42.724  24.040  27.238  1.00  0.00     0.023 A 
ATOM     77  C   UNL A   1      43.298  24.289  25.976  1.00  0.00     0.012 A 
ATOM     78  C   UNL A   1      42.192  22.765  27.509  1.00  0.00     0.148 A 
ATOM     79  C   UNL A   1      43.301  23.304  24.988  1.00  0.00     0.002 A 
ATOM     80  C   UNL A   1      42.251  21.770  26.541  1.00  0.00     0.091 A 
ATOM     81  F   UNL A   1      41.639  22.551  28.712  1.00  0.00    -0.205 F 
ATOM     82  C   UNL A   1      42.786  22.043  25.273  1.00  0.00     0.022 A 
BRANCH  80  83
ATOM     83  S   UNL A   1      41.726  20.083  26.863  1.00  0.00     0.127 S 
ATOM     84  O   UNL A   1      40.392  20.286  27.419  1.00  0.00    -0.237 OA
ATOM     85  O   UNL A   1      41.753  19.500  25.521  1.00  0.00    -0.237 OA
ATOM     86  O   UNL A   1      42.718  19.533  27.775  1.00  0.00    -0.744 OA
ENDBRANCH  80  83
ENDBRANCH  52  76
BRANCH  64  87
ATOM     87  C   UNL A   1      47.060  25.940  32.364  1.00  0.00     0.023 A 
ATOM     88  C   UNL A   1      48.284  26.417  31.852  1.00  0.00     0.012 A 
ATOM     89  C   UNL A   1      47.069  24.983  33.398  1.00  0.00     0.148 A 
ATOM     90  C   UNL A   1      49.493  25.923  32.336  1.00  0.00     0.002 A 
ATOM     91  C   UNL A   1      48.280  24.535  33.913  1.00  0.00     0.091 A 
ATOM     92  F   UNL A   1      45.895  24.530  33.860  1.00  0.00    -0.205 F 
ATOM     93  C   UNL A   1      49.493  24.993  33.373  1.00  0.00     0.022 A 
BRANCH  91  94
ATOM     94  S   UNL A   1      48.377  23.414  35.313  1.00  0.00     0.127 S 
ATOM     95  O   UNL A   1      49.822  23.277  35.485  1.00  0.00    -0.237 OA
ATOM     96  O   UNL A   1      47.706  24.178  36.365  1.00  0.00    -0.237 OA
ATOM     97  O   UNL A   1      47.679  22.201  34.908  1.00  0.00    -0.744 OA
ENDBRANCH  91  94
ENDBRANCH  64  87
ENDBRANCH  38  39
ENDBRANCH  30  33
ENDBRANCH  28  29
ENDBRANCH   1  28
TORSDOF 19
ENDMDL
