MODEL 1
REMARK VINA RESULT:     -11.7      0.000      0.000
REMARK SMILES C[C@@H](C(=O)NCCCNC(=O)c1ccc(-c2c3nc(c(-c4cccc(S(=O)(=O)[O-])c4F)c4ccc([nH]4)c(-c4cccc(S(=O)(=O)[O-])c4F)c4nc(c(-c5cccc(S(=O)(=O)[O-])c5F)c5ccc2[nH]5)C=C4)C=C3)cc1)c1ccc(C(=O)c2cccs2)cc1
REMARK SMILES IDX 7 1 6 2 5 3 3 4 4 5 2 7 1 8 75 9 76 10 87 11 77 12 86 13
REMARK SMILES IDX 78 14 79 15 80 16 81 17 82 18 85 19 83 20 84 21 8 22 9 23
REMARK SMILES IDX 10 24 11 26 12 27 13 28 74 29 14 30 73 31 15 32 16 33 17 34
REMARK SMILES IDX 67 35 18 36 72 37 66 38 68 39 19 40 71 41 65 42 64 43 20 45
REMARK SMILES IDX 52 46 32 47 51 48 33 49 36 50 50 51 69 52 34 53 35 54 49 56
REMARK SMILES IDX 70 57 37 58 21 59 22 60 30 61 23 62 25 63 31 64 24 65 26 66
REMARK SMILES IDX 27 67 28 68 29 69 53 70 54 71 62 72 55 73 57 74 63 75 56 76
REMARK SMILES IDX 58 77 59 78 60 79 61 80 38 81 39 82 47 83 40 84 42 85 48 86
REMARK SMILES IDX 41 87 43 88 44 89 45 90 46 91
REMARK H PARENT 5 6 9 25 68 44 36 55
REMARK Flexibility Score: inf
ROOT
ATOM      1  C   UNL A   1      33.287  27.889  26.323  1.00  0.00     0.042 C 
ENDROOT
BRANCH   1   2
ATOM      2  C   UNL A   1      33.720  26.470  25.949  1.00  0.00     0.117 C 
BRANCH   2   3
ATOM      3  N   UNL A   1      34.016  26.359  24.532  1.00  0.00    -0.356 N 
ATOM      4  C   UNL A   1      33.377  25.659  23.548  1.00  0.00     0.227 C 
ATOM      5  O   UNL A   1      34.001  25.508  22.496  1.00  0.00    -0.274 OA
ATOM      6  H   UNL A   1      34.803  26.869  24.232  1.00  0.00     0.163 HD
BRANCH   4   7
ATOM      7  C   UNL A   1      31.961  25.110  23.796  1.00  0.00     0.105 C 
ATOM      8  C   UNL A   1      31.800  23.836  22.949  1.00  0.00     0.023 C 
BRANCH   7   9
ATOM      9  C   UNL A   1      30.798  26.087  23.557  1.00  0.00    -0.036 A 
ATOM     10  C   UNL A   1      29.498  25.879  24.041  1.00  0.00     0.005 A 
ATOM     11  C   UNL A   1      31.015  27.249  22.794  1.00  0.00     0.005 A 
ATOM     12  C   UNL A   1      28.490  26.838  23.863  1.00  0.00     0.012 A 
ATOM     13  C   UNL A   1      30.017  28.214  22.621  1.00  0.00     0.012 A 
ATOM     14  C   UNL A   1      28.746  28.025  23.167  1.00  0.00     0.023 A 
BRANCH  14  15
ATOM     15  C   UNL A   1      27.663  29.061  23.080  1.00  0.00     0.202 C 
ATOM     16  O   UNL A   1      26.497  28.710  23.256  1.00  0.00    -0.288 OA
BRANCH  15  17
ATOM     17  C   UNL A   1      28.031  30.441  22.816  1.00  0.00     0.075 A 
ATOM     18  C   UNL A   1      28.414  31.432  23.699  1.00  0.00     0.024 A 
ATOM     19  S   UNL A   1      28.019  31.001  21.199  1.00  0.00    -0.140 S 
ATOM     20  C   UNL A   1      28.631  32.679  23.044  1.00  0.00     0.012 A 
ATOM     21  C   UNL A   1      28.440  32.588  21.683  1.00  0.00     0.065 A 
ENDBRANCH  15  17
ENDBRANCH  14  15
ENDBRANCH   7   9
ENDBRANCH   4   7
ENDBRANCH   2   3
ENDBRANCH   1   2
BRANCH   1  22
ATOM     22  C   UNL A   1      34.372  28.946  26.152  1.00  0.00     0.118 C 
BRANCH  22  23
ATOM     23  N   UNL A   1      33.979  30.241  26.687  1.00  0.00    -0.352 N 
ATOM     24  C   UNL A   1      34.519  30.957  27.726  1.00  0.00     0.251 C 
ATOM     25  H   UNL A   1      33.214  30.667  26.237  1.00  0.00     0.163 HD
ATOM     26  O   UNL A   1      33.924  31.945  28.154  1.00  0.00    -0.269 OA
BRANCH  24  27
ATOM     27  C   UNL A   1      35.796  30.535  28.343  1.00  0.00     0.039 A 
ATOM     28  C   UNL A   1      35.765  29.608  29.390  1.00  0.00     0.014 A 
ATOM     29  C   UNL A   1      37.017  31.051  27.902  1.00  0.00     0.014 A 
ATOM     30  C   UNL A   1      36.962  29.149  29.946  1.00  0.00     0.010 A 
ATOM     31  C   UNL A   1      38.210  30.535  28.404  1.00  0.00     0.010 A 
ATOM     32  C   UNL A   1      38.196  29.579  29.431  1.00  0.00    -0.014 A 
BRANCH  32  33
ATOM     33  C   UNL A   1      39.481  29.019  29.931  1.00  0.00     0.031 A 
ATOM     34  C   UNL A   1      40.221  29.695  31.053  1.00  0.00     0.074 A 
ATOM     35  C   UNL A   1      40.029  27.958  29.305  1.00  0.00     0.049 A 
ATOM     36  N   UNL A   1      41.386  29.397  31.567  1.00  0.00    -0.248 NA
ATOM     37  C   UNL A   1      39.583  30.874  31.662  1.00  0.00     0.031 C 
ATOM     38  C   UNL A   1      39.446  27.258  28.158  1.00  0.00     0.029 A 
ATOM     39  N   UNL A   1      41.216  27.302  29.523  1.00  0.00    -0.354 N 
ATOM     40  C   UNL A   1      41.642  30.371  32.525  1.00  0.00     0.074 A 
ATOM     41  C   UNL A   1      40.518  31.282  32.508  1.00  0.00     0.031 C 
ATOM     42  C   UNL A   1      40.275  26.276  27.772  1.00  0.00     0.029 A 
ATOM     43  C   UNL A   1      41.467  26.299  28.613  1.00  0.00     0.049 A 
ATOM     44  H   UNL A   1      41.829  27.527  30.259  1.00  0.00     0.167 HD
ATOM     45  C   UNL A   1      42.704  30.486  33.355  1.00  0.00     0.034 A 
ATOM     46  C   UNL A   1      42.544  25.504  28.457  1.00  0.00     0.034 A 
ATOM     47  C   UNL A   1      43.800  29.555  33.397  1.00  0.00     0.049 A 
ATOM     48  C   UNL A   1      43.701  25.641  29.410  1.00  0.00     0.074 A 
ATOM     49  C   UNL A   1      44.868  29.525  34.276  1.00  0.00     0.029 A 
ATOM     50  N   UNL A   1      43.983  28.505  32.511  1.00  0.00    -0.354 N 
ATOM     51  N   UNL A   1      43.839  26.459  30.426  1.00  0.00    -0.248 NA
ATOM     52  C   UNL A   1      44.836  24.728  29.217  1.00  0.00     0.031 C 
ATOM     53  C   UNL A   1      45.719  28.484  33.895  1.00  0.00     0.029 A 
ATOM     54  C   UNL A   1      45.159  27.839  32.805  1.00  0.00     0.049 A 
ATOM     55  H   UNL A   1      43.367  28.269  31.780  1.00  0.00     0.167 HD
ATOM     56  C   UNL A   1      45.058  26.135  31.012  1.00  0.00     0.074 A 
ATOM     57  C   UNL A   1      45.607  25.031  30.252  1.00  0.00     0.031 C 
ATOM     58  C   UNL A   1      45.673  26.708  32.075  1.00  0.00     0.034 A 
BRANCH  45  59
ATOM     59  C   UNL A   1      42.729  31.644  34.319  1.00  0.00     0.023 A 
ATOM     60  C   UNL A   1      43.308  32.868  33.931  1.00  0.00     0.012 A 
ATOM     61  C   UNL A   1      42.106  31.542  35.579  1.00  0.00     0.148 A 
ATOM     62  C   UNL A   1      43.292  33.965  34.791  1.00  0.00     0.002 A 
ATOM     63  C   UNL A   1      42.053  32.654  36.411  1.00  0.00     0.091 A 
ATOM     64  F   UNL A   1      41.577  30.364  35.938  1.00  0.00    -0.205 F 
ATOM     65  C   UNL A   1      42.655  33.861  36.025  1.00  0.00     0.022 A 
BRANCH  63  66
ATOM     66  S   UNL A   1      41.182  32.648  37.984  1.00  0.00     0.127 S 
ATOM     67  O   UNL A   1      42.000  31.725  38.769  1.00  0.00    -0.237 OA
ATOM     68  O   UNL A   1      41.282  34.050  38.392  1.00  0.00    -0.237 OA
ATOM     69  O   UNL A   1      39.831  32.191  37.695  1.00  0.00    -0.744 OA
ENDBRANCH  63  66
ENDBRANCH  45  59
BRANCH  46  70
ATOM     70  C   UNL A   1      42.569  24.479  27.374  1.00  0.00     0.023 A 
ATOM     71  C   UNL A   1      43.168  24.790  26.137  1.00  0.00     0.012 A 
ATOM     72  C   UNL A   1      42.010  23.200  27.562  1.00  0.00     0.148 A 
ATOM     73  C   UNL A   1      43.172  23.863  25.095  1.00  0.00     0.002 A 
ATOM     74  C   UNL A   1      42.072  22.260  26.541  1.00  0.00     0.091 A 
ATOM     75  F   UNL A   1      41.435  22.926  28.741  1.00  0.00    -0.205 F 
ATOM     76  C   UNL A   1      42.634  22.596  25.299  1.00  0.00     0.022 A 
BRANCH  74  77
ATOM     77  S   UNL A   1      41.526  20.564  26.761  1.00  0.00     0.127 S 
ATOM     78  O   UNL A   1      42.280  20.157  27.944  1.00  0.00    -0.237 OA
ATOM     79  O   UNL A   1      40.088  20.735  26.975  1.00  0.00    -0.237 OA
ATOM     80  O   UNL A   1      41.867  19.876  25.524  1.00  0.00    -0.744 OA
ENDBRANCH  74  77
ENDBRANCH  46  70
BRANCH  58  81
ATOM     81  C   UNL A   1      46.994  26.136  32.518  1.00  0.00     0.023 A 
ATOM     82  C   UNL A   1      48.198  26.711  32.065  1.00  0.00     0.012 A 
ATOM     83  C   UNL A   1      47.039  25.081  33.452  1.00  0.00     0.148 A 
ATOM     84  C   UNL A   1      49.427  26.224  32.512  1.00  0.00     0.002 A 
ATOM     85  C   UNL A   1      48.264  24.637  33.933  1.00  0.00     0.091 A 
ATOM     86  F   UNL A   1      45.882  24.538  33.857  1.00  0.00    -0.205 F 
ATOM     87  C   UNL A   1      49.459  25.199  33.455  1.00  0.00     0.022 A 
BRANCH  85  88
ATOM     88  S   UNL A   1      48.403  23.392  35.219  1.00  0.00     0.127 S 
ATOM     89  O   UNL A   1      49.854  23.241  35.332  1.00  0.00    -0.237 OA
ATOM     90  O   UNL A   1      47.769  24.055  36.359  1.00  0.00    -0.237 OA
ATOM     91  O   UNL A   1      47.694  22.219  34.726  1.00  0.00    -0.744 OA
ENDBRANCH  85  88
ENDBRANCH  58  81
ENDBRANCH  32  33
ENDBRANCH  24  27
ENDBRANCH  22  23
ENDBRANCH   1  22
TORSDOF 16
ENDMDL
MODEL 2
REMARK VINA RESULT:     -11.6      1.936      7.994
REMARK SMILES C[C@@H](C(=O)NCCCNC(=O)c1ccc(-c2c3nc(c(-c4cccc(S(=O)(=O)[O-])c4F)c4ccc([nH]4)c(-c4cccc(S(=O)(=O)[O-])c4F)c4nc(c(-c5cccc(S(=O)(=O)[O-])c5F)c5ccc2[nH]5)C=C4)C=C3)cc1)c1ccc(C(=O)c2cccs2)cc1
REMARK SMILES IDX 7 1 6 2 5 3 3 4 4 5 2 7 1 8 75 9 76 10 87 11 77 12 86 13
REMARK SMILES IDX 78 14 79 15 80 16 81 17 82 18 85 19 83 20 84 21 8 22 9 23
REMARK SMILES IDX 10 24 11 26 12 27 13 28 74 29 14 30 73 31 15 32 16 33 17 34
REMARK SMILES IDX 67 35 18 36 72 37 66 38 68 39 19 40 71 41 65 42 64 43 20 45
REMARK SMILES IDX 52 46 32 47 51 48 33 49 36 50 50 51 69 52 34 53 35 54 49 56
REMARK SMILES IDX 70 57 37 58 21 59 22 60 30 61 23 62 25 63 31 64 24 65 26 66
REMARK SMILES IDX 27 67 28 68 29 69 53 70 54 71 62 72 55 73 57 74 63 75 56 76
REMARK SMILES IDX 58 77 59 78 60 79 61 80 38 81 39 82 47 83 40 84 42 85 48 86
REMARK SMILES IDX 41 87 43 88 44 89 45 90 46 91
REMARK H PARENT 5 6 9 25 68 44 36 55
REMARK Flexibility Score: inf
ROOT
ATOM      1  C   UNL A   1      33.194  28.725  25.203  1.00  0.00     0.042 C 
ENDROOT
BRANCH   1   2
ATOM      2  C   UNL A   1      33.744  27.300  25.277  1.00  0.00     0.117 C 
BRANCH   2   3
ATOM      3  N   UNL A   1      34.028  26.768  23.955  1.00  0.00    -0.356 N 
ATOM      4  C   UNL A   1      33.410  25.772  23.253  1.00  0.00     0.227 C 
ATOM      5  O   UNL A   1      34.028  25.328  22.283  1.00  0.00    -0.274 OA
ATOM      6  H   UNL A   1      34.785  27.192  23.492  1.00  0.00     0.163 HD
BRANCH   4   7
ATOM      7  C   UNL A   1      32.026  25.267  23.697  1.00  0.00     0.105 C 
ATOM      8  C   UNL A   1      31.775  23.919  23.001  1.00  0.00     0.023 C 
BRANCH   7   9
ATOM      9  C   UNL A   1      30.847  26.231  23.483  1.00  0.00    -0.036 A 
ATOM     10  C   UNL A   1      29.573  26.033  24.036  1.00  0.00     0.005 A 
ATOM     11  C   UNL A   1      31.020  27.367  22.672  1.00  0.00     0.005 A 
ATOM     12  C   UNL A   1      28.552  26.982  23.876  1.00  0.00     0.012 A 
ATOM     13  C   UNL A   1      30.009  28.322  22.516  1.00  0.00     0.012 A 
ATOM     14  C   UNL A   1      28.767  28.146  23.129  1.00  0.00     0.023 A 
BRANCH  14  15
ATOM     15  C   UNL A   1      27.675  29.174  23.061  1.00  0.00     0.202 C 
ATOM     16  O   UNL A   1      26.526  28.831  23.334  1.00  0.00    -0.288 OA
BRANCH  15  17
ATOM     17  C   UNL A   1      28.017  30.538  22.699  1.00  0.00     0.075 A 
ATOM     18  C   UNL A   1      28.353  31.605  23.511  1.00  0.00     0.024 A 
ATOM     19  S   UNL A   1      28.034  30.971  21.043  1.00  0.00    -0.140 S 
ATOM     20  C   UNL A   1      28.558  32.802  22.766  1.00  0.00     0.012 A 
ATOM     21  C   UNL A   1      28.404  32.601  21.412  1.00  0.00     0.065 A 
ENDBRANCH  15  17
ENDBRANCH  14  15
ENDBRANCH   7   9
ENDBRANCH   4   7
ENDBRANCH   2   3
ENDBRANCH   1   2
BRANCH   1  22
ATOM     22  C   UNL A   1      32.444  29.179  26.450  1.00  0.00     0.118 C 
BRANCH  22  23
ATOM     23  N   UNL A   1      32.276  30.623  26.507  1.00  0.00    -0.352 N 
ATOM     24  C   UNL A   1      33.050  31.568  27.131  1.00  0.00     0.251 C 
ATOM     25  H   UNL A   1      31.490  30.974  26.027  1.00  0.00     0.163 HD
ATOM     26  O   UNL A   1      32.636  32.722  27.229  1.00  0.00    -0.269 OA
BRANCH  24  27
ATOM     27  C   UNL A   1      34.365  31.202  27.702  1.00  0.00     0.039 A 
ATOM     28  C   UNL A   1      35.351  32.186  27.810  1.00  0.00     0.014 A 
ATOM     29  C   UNL A   1      34.632  29.896  28.122  1.00  0.00     0.014 A 
ATOM     30  C   UNL A   1      36.579  31.878  28.403  1.00  0.00     0.010 A 
ATOM     31  C   UNL A   1      35.825  29.611  28.782  1.00  0.00     0.010 A 
ATOM     32  C   UNL A   1      36.812  30.597  28.930  1.00  0.00    -0.014 A 
BRANCH  32  33
ATOM     33  C   UNL A   1      38.065  30.279  29.665  1.00  0.00     0.031 A 
ATOM     34  C   UNL A   1      39.061  29.309  29.088  1.00  0.00     0.074 A 
ATOM     35  C   UNL A   1      38.258  30.788  30.898  1.00  0.00     0.049 A 
ATOM     36  N   UNL A   1      40.167  28.853  29.618  1.00  0.00    -0.248 NA
ATOM     37  C   UNL A   1      38.765  28.758  27.755  1.00  0.00     0.031 C 
ATOM     38  C   UNL A   1      37.333  31.683  31.598  1.00  0.00     0.029 A 
ATOM     39  N   UNL A   1      39.279  30.602  31.797  1.00  0.00    -0.354 N 
ATOM     40  C   UNL A   1      40.676  27.934  28.707  1.00  0.00     0.074 A 
ATOM     41  C   UNL A   1      39.747  27.882  27.599  1.00  0.00     0.031 C 
ATOM     42  C   UNL A   1      37.825  31.963  32.814  1.00  0.00     0.029 A 
ATOM     43  C   UNL A   1      39.078  31.239  33.001  1.00  0.00     0.049 A 
ATOM     44  H   UNL A   1      40.079  30.063  31.601  1.00  0.00     0.167 HD
ATOM     45  C   UNL A   1      41.820  27.214  28.778  1.00  0.00     0.034 A 
ATOM     46  C   UNL A   1      39.806  31.225  34.136  1.00  0.00     0.034 A 
ATOM     47  C   UNL A   1      42.760  27.300  29.863  1.00  0.00     0.049 A 
ATOM     48  C   UNL A   1      41.085  30.432  34.175  1.00  0.00     0.074 A 
ATOM     49  C   UNL A   1      43.999  26.692  29.974  1.00  0.00     0.029 A 
ATOM     50  N   UNL A   1      42.560  28.016  31.032  1.00  0.00    -0.354 N 
ATOM     51  N   UNL A   1      41.636  29.709  33.231  1.00  0.00    -0.248 NA
ATOM     52  C   UNL A   1      41.858  30.476  35.425  1.00  0.00     0.031 C 
ATOM     53  C   UNL A   1      44.529  27.007  31.229  1.00  0.00     0.029 A 
ATOM     54  C   UNL A   1      43.639  27.845  31.881  1.00  0.00     0.049 A 
ATOM     55  H   UNL A   1      41.768  28.565  31.229  1.00  0.00     0.167 HD
ATOM     56  C   UNL A   1      42.835  29.243  33.759  1.00  0.00     0.074 A 
ATOM     57  C   UNL A   1      42.941  29.785  35.099  1.00  0.00     0.031 C 
ATOM     58  C   UNL A   1      43.759  28.430  33.192  1.00  0.00     0.034 A 
BRANCH  45  59
ATOM     59  C   UNL A   1      42.146  26.287  27.636  1.00  0.00     0.023 A 
ATOM     60  C   UNL A   1      42.976  26.730  26.587  1.00  0.00     0.012 A 
ATOM     61  C   UNL A   1      41.697  24.952  27.645  1.00  0.00     0.148 A 
ATOM     62  C   UNL A   1      43.329  25.869  25.549  1.00  0.00     0.002 A 
ATOM     63  C   UNL A   1      42.093  24.086  26.633  1.00  0.00     0.091 A 
ATOM     64  F   UNL A   1      40.893  24.554  28.642  1.00  0.00    -0.205 F 
ATOM     65  C   UNL A   1      42.898  24.545  25.579  1.00  0.00     0.022 A 
BRANCH  63  66
ATOM     66  S   UNL A   1      41.661  22.341  26.624  1.00  0.00     0.127 S 
ATOM     67  O   UNL A   1      42.280  21.892  25.378  1.00  0.00    -0.237 OA
ATOM     68  O   UNL A   1      42.317  21.858  27.839  1.00  0.00    -0.237 OA
ATOM     69  O   UNL A   1      40.207  22.286  26.652  1.00  0.00    -0.744 OA
ENDBRANCH  63  66
ENDBRANCH  45  59
BRANCH  46  70
ATOM     70  C   UNL A   1      39.363  32.014  35.321  1.00  0.00     0.023 A 
ATOM     71  C   UNL A   1      38.487  31.429  36.256  1.00  0.00     0.012 A 
ATOM     72  C   UNL A   1      39.807  33.334  35.530  1.00  0.00     0.148 A 
ATOM     73  C   UNL A   1      38.028  32.157  37.354  1.00  0.00     0.002 A 
ATOM     74  C   UNL A   1      39.395  34.033  36.658  1.00  0.00     0.091 A 
ATOM     75  F   UNL A   1      40.631  33.878  34.623  1.00  0.00    -0.205 F 
ATOM     76  C   UNL A   1      38.489  33.455  37.560  1.00  0.00     0.022 A 
BRANCH  74  77
ATOM     77  S   UNL A   1      40.042  35.656  37.072  1.00  0.00     0.127 S 
ATOM     78  O   UNL A   1      39.647  36.444  35.908  1.00  0.00    -0.237 OA
ATOM     79  O   UNL A   1      39.314  35.966  38.304  1.00  0.00    -0.237 OA
ATOM     80  O   UNL A   1      41.475  35.473  37.257  1.00  0.00    -0.744 OA
ENDBRANCH  74  77
ENDBRANCH  46  70
BRANCH  58  81
ATOM     81  C   UNL A   1      44.992  28.098  33.992  1.00  0.00     0.023 A 
ATOM     82  C   UNL A   1      46.116  28.946  33.937  1.00  0.00     0.012 A 
ATOM     83  C   UNL A   1      45.002  26.990  34.863  1.00  0.00     0.148 A 
ATOM     84  C   UNL A   1      47.242  28.679  34.715  1.00  0.00     0.002 A 
ATOM     85  C   UNL A   1      46.107  26.762  35.675  1.00  0.00     0.091 A 
ATOM     86  F   UNL A   1      43.929  26.187  34.888  1.00  0.00    -0.205 F 
ATOM     87  C   UNL A   1      47.232  27.597  35.593  1.00  0.00     0.022 A 
BRANCH  85  88
ATOM     88  S   UNL A   1      46.147  25.454  36.905  1.00  0.00     0.127 S 
ATOM     89  O   UNL A   1      47.423  25.712  37.572  1.00  0.00    -0.237 OA
ATOM     90  O   UNL A   1      44.964  25.754  37.712  1.00  0.00    -0.237 OA
ATOM     91  O   UNL A   1      46.076  24.200  36.166  1.00  0.00    -0.744 OA
ENDBRANCH  85  88
ENDBRANCH  58  81
ENDBRANCH  32  33
ENDBRANCH  24  27
ENDBRANCH  22  23
ENDBRANCH   1  22
TORSDOF 16
ENDMDL
MODEL 3
REMARK VINA RESULT:     -11.5      3.805      9.311
REMARK SMILES C[C@@H](C(=O)NCCCNC(=O)c1ccc(-c2c3nc(c(-c4cccc(S(=O)(=O)[O-])c4F)c4ccc([nH]4)c(-c4cccc(S(=O)(=O)[O-])c4F)c4nc(c(-c5cccc(S(=O)(=O)[O-])c5F)c5ccc2[nH]5)C=C4)C=C3)cc1)c1ccc(C(=O)c2cccs2)cc1
REMARK SMILES IDX 7 1 6 2 5 3 3 4 4 5 2 7 1 8 75 9 76 10 87 11 77 12 86 13
REMARK SMILES IDX 78 14 79 15 80 16 81 17 82 18 85 19 83 20 84 21 8 22 9 23
REMARK SMILES IDX 10 24 11 26 12 27 13 28 74 29 14 30 73 31 15 32 16 33 17 34
REMARK SMILES IDX 67 35 18 36 72 37 66 38 68 39 19 40 71 41 65 42 64 43 20 45
REMARK SMILES IDX 52 46 32 47 51 48 33 49 36 50 50 51 69 52 34 53 35 54 49 56
REMARK SMILES IDX 70 57 37 58 21 59 22 60 30 61 23 62 25 63 31 64 24 65 26 66
REMARK SMILES IDX 27 67 28 68 29 69 53 70 54 71 62 72 55 73 57 74 63 75 56 76
REMARK SMILES IDX 58 77 59 78 60 79 61 80 38 81 39 82 47 83 40 84 42 85 48 86
REMARK SMILES IDX 41 87 43 88 44 89 45 90 46 91
REMARK H PARENT 5 6 9 25 68 44 36 55
REMARK Flexibility Score: inf
ROOT
ATOM      1  C   UNL A   1      31.648  31.825  26.587  1.00  0.00     0.042 C 
ENDROOT
BRANCH   1   2
ATOM      2  C   UNL A   1      31.899  30.351  26.268  1.00  0.00     0.117 C 
BRANCH   2   3
ATOM      3  N   UNL A   1      31.249  29.954  25.030  1.00  0.00    -0.356 N 
ATOM      4  C   UNL A   1      31.719  29.211  23.985  1.00  0.00     0.227 C 
ATOM      5  O   UNL A   1      31.065  29.268  22.941  1.00  0.00    -0.274 OA
ATOM      6  H   UNL A   1      30.323  30.273  24.929  1.00  0.00     0.163 HD
BRANCH   4   7
ATOM      7  C   UNL A   1      32.998  28.373  24.155  1.00  0.00     0.105 C 
ATOM      8  C   UNL A   1      33.612  28.170  22.759  1.00  0.00     0.023 C 
BRANCH   7   9
ATOM      9  C   UNL A   1      32.845  27.034  24.895  1.00  0.00    -0.036 A 
ATOM     10  C   UNL A   1      31.605  26.471  25.230  1.00  0.00     0.005 A 
ATOM     11  C   UNL A   1      33.994  26.326  25.291  1.00  0.00     0.005 A 
ATOM     12  C   UNL A   1      31.516  25.209  25.836  1.00  0.00     0.012 A 
ATOM     13  C   UNL A   1      33.912  25.063  25.886  1.00  0.00     0.012 A 
ATOM     14  C   UNL A   1      32.669  24.483  26.152  1.00  0.00     0.023 A 
BRANCH  14  15
ATOM     15  C   UNL A   1      32.522  23.100  26.716  1.00  0.00     0.202 C 
ATOM     16  O   UNL A   1      31.898  22.956  27.766  1.00  0.00    -0.288 OA
BRANCH  15  17
ATOM     17  C   UNL A   1      33.100  21.982  25.992  1.00  0.00     0.075 A 
ATOM     18  C   UNL A   1      34.369  21.441  26.078  1.00  0.00     0.024 A 
ATOM     19  S   UNL A   1      32.134  21.154  24.848  1.00  0.00    -0.140 S 
ATOM     20  C   UNL A   1      34.565  20.382  25.144  1.00  0.00     0.012 A 
ATOM     21  C   UNL A   1      33.432  20.130  24.403  1.00  0.00     0.065 A 
ENDBRANCH  15  17
ENDBRANCH  14  15
ENDBRANCH   7   9
ENDBRANCH   4   7
ENDBRANCH   2   3
ENDBRANCH   1   2
BRANCH   1  22
ATOM     22  C   UNL A   1      32.824  32.537  27.246  1.00  0.00     0.118 C 
BRANCH  22  23
ATOM     23  N   UNL A   1      32.521  33.920  27.586  1.00  0.00    -0.352 N 
ATOM     24  C   UNL A   1      33.052  34.713  28.571  1.00  0.00     0.251 C 
ATOM     25  H   UNL A   1      31.834  34.349  27.026  1.00  0.00     0.163 HD
ATOM     26  O   UNL A   1      32.525  35.795  28.826  1.00  0.00    -0.269 OA
BRANCH  24  27
ATOM     27  C   UNL A   1      34.235  34.265  29.339  1.00  0.00     0.039 A 
ATOM     28  C   UNL A   1      34.039  33.526  30.509  1.00  0.00     0.014 A 
ATOM     29  C   UNL A   1      35.530  34.575  28.916  1.00  0.00     0.014 A 
ATOM     30  C   UNL A   1      35.142  33.039  31.216  1.00  0.00     0.010 A 
ATOM     31  C   UNL A   1      36.625  34.024  29.578  1.00  0.00     0.010 A 
ATOM     32  C   UNL A   1      36.444  33.251  30.735  1.00  0.00    -0.014 A 
BRANCH  32  33
ATOM     33  C   UNL A   1      37.626  32.648  31.408  1.00  0.00     0.031 A 
ATOM     34  C   UNL A   1      38.364  31.503  30.769  1.00  0.00     0.074 A 
ATOM     35  C   UNL A   1      37.971  33.066  32.643  1.00  0.00     0.049 A 
ATOM     36  N   UNL A   1      39.363  30.802  31.240  1.00  0.00    -0.248 NA
ATOM     37  C   UNL A   1      37.906  31.069  29.438  1.00  0.00     0.031 C 
ATOM     38  C   UNL A   1      37.289  34.118  33.400  1.00  0.00     0.029 A 
ATOM     39  N   UNL A   1      38.960  32.636  33.493  1.00  0.00    -0.354 N 
ATOM     40  C   UNL A   1      39.626  29.823  30.289  1.00  0.00     0.074 A 
ATOM     41  C   UNL A   1      38.667  30.006  29.222  1.00  0.00     0.031 C 
ATOM     42  C   UNL A   1      37.876  34.249  34.600  1.00  0.00     0.029 A 
ATOM     43  C   UNL A   1      38.947  33.265  34.717  1.00  0.00     0.049 A 
ATOM     44  H   UNL A   1      39.615  31.943  33.251  1.00  0.00     0.167 HD
ATOM     45  C   UNL A   1      40.588  28.871  30.296  1.00  0.00     0.034 A 
ATOM     46  C   UNL A   1      39.697  33.060  35.819  1.00  0.00     0.034 A 
ATOM     47  C   UNL A   1      41.564  28.718  31.340  1.00  0.00     0.049 A 
ATOM     48  C   UNL A   1      40.773  32.008  35.787  1.00  0.00     0.074 A 
ATOM     49  C   UNL A   1      42.645  27.854  31.385  1.00  0.00     0.029 A 
ATOM     50  N   UNL A   1      41.569  29.425  32.532  1.00  0.00    -0.354 N 
ATOM     51  N   UNL A   1      41.118  31.211  34.804  1.00  0.00    -0.248 NA
ATOM     52  C   UNL A   1      41.584  31.846  37.003  1.00  0.00     0.031 C 
ATOM     53  C   UNL A   1      43.277  28.009  32.623  1.00  0.00     0.029 A 
ATOM     54  C   UNL A   1      42.615  29.000  33.330  1.00  0.00     0.049 A 
ATOM     55  H   UNL A   1      40.922  30.127  32.775  1.00  0.00     0.167 HD
ATOM     56  C   UNL A   1      42.206  30.482  35.270  1.00  0.00     0.074 A 
ATOM     57  C   UNL A   1      42.477  30.947  36.615  1.00  0.00     0.031 C 
ATOM     58  C   UNL A   1      42.909  29.505  34.647  1.00  0.00     0.034 A 
BRANCH  45  59
ATOM     59  C   UNL A   1      40.661  27.930  29.122  1.00  0.00     0.023 A 
ATOM     60  C   UNL A   1      39.778  26.835  29.043  1.00  0.00     0.012 A 
ATOM     61  C   UNL A   1      41.551  28.179  28.057  1.00  0.00     0.148 A 
ATOM     62  C   UNL A   1      39.799  25.985  27.938  1.00  0.00     0.002 A 
ATOM     63  C   UNL A   1      41.532  27.356  26.938  1.00  0.00     0.091 A 
ATOM     64  F   UNL A   1      42.396  29.215  28.159  1.00  0.00    -0.205 F 
ATOM     65  C   UNL A   1      40.666  26.252  26.881  1.00  0.00     0.022 A 
BRANCH  63  66
ATOM     66  S   UNL A   1      42.549  27.663  25.489  1.00  0.00     0.127 S 
ATOM     67  O   UNL A   1      42.256  26.489  24.669  1.00  0.00    -0.237 OA
ATOM     68  O   UNL A   1      41.988  28.916  24.982  1.00  0.00    -0.237 OA
ATOM     69  O   UNL A   1      43.919  27.760  25.971  1.00  0.00    -0.744 OA
ENDBRANCH  63  66
ENDBRANCH  45  59
BRANCH  46  70
ATOM     70  C   UNL A   1      39.481  33.890  37.038  1.00  0.00     0.023 A 
ATOM     71  C   UNL A   1      39.962  35.214  37.071  1.00  0.00     0.012 A 
ATOM     72  C   UNL A   1      38.799  33.381  38.160  1.00  0.00     0.148 A 
ATOM     73  C   UNL A   1      39.805  36.000  38.214  1.00  0.00     0.002 A 
ATOM     74  C   UNL A   1      38.592  34.189  39.272  1.00  0.00     0.091 A 
ATOM     75  F   UNL A   1      38.358  32.116  38.115  1.00  0.00    -0.205 F 
ATOM     76  C   UNL A   1      39.113  35.491  39.309  1.00  0.00     0.022 A 
BRANCH  74  77
ATOM     77  S   UNL A   1      37.597  33.663  40.671  1.00  0.00     0.127 S 
ATOM     78  O   UNL A   1      37.473  34.902  41.434  1.00  0.00    -0.237 OA
ATOM     79  O   UNL A   1      36.367  33.216  40.016  1.00  0.00    -0.237 OA
ATOM     80  O   UNL A   1      38.353  32.597  41.313  1.00  0.00    -0.744 OA
ENDBRANCH  74  77
ENDBRANCH  46  70
BRANCH  58  81
ATOM     81  C   UNL A   1      44.070  28.890  35.385  1.00  0.00     0.023 A 
ATOM     82  C   UNL A   1      45.362  29.435  35.244  1.00  0.00     0.012 A 
ATOM     83  C   UNL A   1      43.861  27.826  36.286  1.00  0.00     0.148 A 
ATOM     84  C   UNL A   1      46.433  28.909  35.965  1.00  0.00     0.002 A 
ATOM     85  C   UNL A   1      44.923  27.343  37.040  1.00  0.00     0.091 A 
ATOM     86  F   UNL A   1      42.627  27.313  36.393  1.00  0.00    -0.205 F 
ATOM     87  C   UNL A   1      46.212  27.875  36.872  1.00  0.00     0.022 A 
BRANCH  85  88
ATOM     88  S   UNL A   1      44.716  26.082  38.302  1.00  0.00     0.127 S 
ATOM     89  O   UNL A   1      44.584  24.871  37.494  1.00  0.00    -0.237 OA
ATOM     90  O   UNL A   1      45.972  26.184  39.048  1.00  0.00    -0.237 OA
ATOM     91  O   UNL A   1      43.529  26.457  39.059  1.00  0.00    -0.744 OA
ENDBRANCH  85  88
ENDBRANCH  58  81
ENDBRANCH  32  33
ENDBRANCH  24  27
ENDBRANCH  22  23
ENDBRANCH   1  22
TORSDOF 16
ENDMDL
