MODEL 1
REMARK VINA RESULT:     -11.7      0.000      0.000
REMARK SMILES CCNC(=O)N1CC[C@H](Cc2cccc(C(=O)NCCCNC(=O)c3ccc(-c4c5nc(c(-c6cccc(S(=O)(=O)[O-])c6F)c6ccc([nH]6)c(-c6cccc(S(=O)(=O)[O-])c6F)c6nc(c(-c7cccc(S(=O)(=O)[O-])c7F)c7ccc4[nH]7)C=C6)C=C5)cc3)c2)C1
REMARK SMILES IDX 19 1 18 2 16 3 17 4 15 6 11 7 12 8 88 9 13 10 14 11 10 12
REMARK SMILES IDX 9 13 6 14 7 15 89 16 8 17 4 18 3 19 5 21 2 22 1 23 20 24
REMARK SMILES IDX 21 25 22 26 23 27 24 29 25 30 26 31 87 32 27 33 86 34 28 35
REMARK SMILES IDX 29 36 30 37 80 38 31 39 85 40 79 41 81 42 32 43 84 44 78 45
REMARK SMILES IDX 77 46 33 48 65 49 45 50 64 51 46 52 49 53 63 54 82 55 47 56
REMARK SMILES IDX 48 57 62 59 83 60 50 61 34 62 35 63 43 64 36 65 38 66 44 67
REMARK SMILES IDX 37 68 39 69 40 70 41 71 42 72 66 73 67 74 75 75 68 76 70 77
REMARK SMILES IDX 76 78 69 79 71 80 72 81 73 82 74 83 51 84 52 85 60 86 53 87
REMARK SMILES IDX 55 88 61 89 54 90 56 91 57 92 58 93 59 94
REMARK H PARENT 18 5 3 20 22 28 81 47 49 58
REMARK Flexibility Score: inf
ROOT
ATOM      1  C   UNL A   1      33.814  28.165  23.194  1.00  0.00     0.118 C 
ENDROOT
BRANCH   1   2
ATOM      2  N   UNL A   1      33.108  27.424  22.164  1.00  0.00    -0.352 N 
ATOM      3  C   UNL A   1      32.197  26.400  22.189  1.00  0.00     0.251 C 
ATOM      4  O   UNL A   1      31.733  26.053  21.100  1.00  0.00    -0.269 OA
ATOM      5  H   UNL A   1      33.333  27.720  21.253  1.00  0.00     0.163 HD
BRANCH   3   6
ATOM      6  C   UNL A   1      31.698  25.729  23.429  1.00  0.00     0.040 A 
ATOM      7  C   UNL A   1      31.814  24.097  25.247  1.00  0.00    -0.047 A 
ATOM      8  C   UNL A   1      30.695  24.683  25.847  1.00  0.00     0.004 A 
ATOM      9  C   UNL A   1      32.252  24.585  24.004  1.00  0.00     0.017 A 
ATOM     10  C   UNL A   1      30.066  25.768  25.242  1.00  0.00     0.001 A 
ATOM     11  C   UNL A   1      30.580  26.301  24.058  1.00  0.00     0.014 A 
BRANCH   7  12
ATOM     12  C   UNL A   1      32.547  22.958  25.921  1.00  0.00     0.041 C 
BRANCH  12  13
ATOM     13  C   UNL A   1      33.124  21.931  24.929  1.00  0.00     0.015 C 
ATOM     14  N   UNL A   1      33.055  19.567  25.015  1.00  0.00    -0.325 N 
ATOM     15  C   UNL A   1      34.441  19.933  24.812  1.00  0.00     0.121 C 
ATOM     16  C   UNL A   1      32.203  20.710  24.756  1.00  0.00     0.125 C 
ATOM     17  C   UNL A   1      34.475  21.335  25.383  1.00  0.00     0.027 C 
BRANCH  14  18
ATOM     18  C   UNL A   1      32.538  18.322  25.171  1.00  0.00     0.317 C 
ATOM     19  N   UNL A   1      32.213  17.608  24.063  1.00  0.00    -0.338 N 
ATOM     20  H   UNL A   1      31.438  17.006  24.142  1.00  0.00     0.165 HD
ATOM     21  O   UNL A   1      32.405  17.786  26.269  1.00  0.00    -0.249 OA
BRANCH  19  22
ATOM     22  C   UNL A   1      32.883  17.634  22.775  1.00  0.00     0.114 C 
ATOM     23  C   UNL A   1      34.162  16.813  22.806  1.00  0.00     0.027 C 
ENDBRANCH  19  22
ENDBRANCH  14  18
ENDBRANCH  12  13
ENDBRANCH   7  12
ENDBRANCH   3   6
ENDBRANCH   1   2
BRANCH   1  24
ATOM     24  C   UNL A   1      32.934  29.255  23.808  1.00  0.00     0.042 C 
BRANCH  24  25
ATOM     25  C   UNL A   1      33.062  29.349  25.329  1.00  0.00     0.118 C 
BRANCH  25  26
ATOM     26  N   UNL A   1      32.703  30.675  25.820  1.00  0.00    -0.352 N 
ATOM     27  C   UNL A   1      33.156  31.384  26.902  1.00  0.00     0.251 C 
ATOM     28  H   UNL A   1      32.020  31.138  25.284  1.00  0.00     0.163 HD
ATOM     29  O   UNL A   1      32.520  32.369  27.272  1.00  0.00    -0.269 OA
BRANCH  27  30
ATOM     30  C   UNL A   1      34.392  30.992  27.615  1.00  0.00     0.039 A 
ATOM     31  C   UNL A   1      34.495  29.692  28.121  1.00  0.00     0.014 A 
ATOM     32  C   UNL A   1      35.413  31.915  27.859  1.00  0.00     0.014 A 
ATOM     33  C   UNL A   1      35.631  29.310  28.837  1.00  0.00     0.010 A 
ATOM     34  C   UNL A   1      36.579  31.510  28.504  1.00  0.00     0.010 A 
ATOM     35  C   UNL A   1      36.694  30.209  29.016  1.00  0.00    -0.014 A 
BRANCH  35  36
ATOM     36  C   UNL A   1      37.929  29.812  29.740  1.00  0.00     0.031 A 
ATOM     37  C   UNL A   1      38.195  30.328  31.130  1.00  0.00     0.074 A 
ATOM     38  C   UNL A   1      38.850  29.056  29.112  1.00  0.00     0.049 A 
ATOM     39  N   UNL A   1      39.240  30.138  31.894  1.00  0.00    -0.248 NA
ATOM     40  C   UNL A   1      37.170  31.198  31.729  1.00  0.00     0.031 C 
ATOM     41  C   UNL A   1      38.745  28.567  27.735  1.00  0.00     0.029 A 
ATOM     42  N   UNL A   1      40.067  28.587  29.537  1.00  0.00    -0.354 N 
ATOM     43  C   UNL A   1      39.018  30.895  33.039  1.00  0.00     0.074 A 
ATOM     44  C   UNL A   1      37.755  31.574  32.856  1.00  0.00     0.031 C 
ATOM     45  C   UNL A   1      39.848  27.865  27.432  1.00  0.00     0.029 A 
ATOM     46  C   UNL A   1      40.749  27.874  28.579  1.00  0.00     0.049 A 
ATOM     47  H   UNL A   1      40.420  28.747  30.443  1.00  0.00     0.167 HD
ATOM     48  C   UNL A   1      39.780  30.991  34.154  1.00  0.00     0.034 A 
ATOM     49  C   UNL A   1      41.965  27.294  28.620  1.00  0.00     0.034 A 
ATOM     50  C   UNL A   1      41.007  30.267  34.352  1.00  0.00     0.049 A 
ATOM     51  C   UNL A   1      42.759  27.359  29.896  1.00  0.00     0.074 A 
ATOM     52  C   UNL A   1      41.804  30.217  35.482  1.00  0.00     0.029 A 
ATOM     53  N   UNL A   1      41.616  29.469  33.397  1.00  0.00    -0.354 N 
ATOM     54  N   UNL A   1      42.454  27.947  31.028  1.00  0.00    -0.248 NA
ATOM     55  C   UNL A   1      44.045  26.648  29.914  1.00  0.00     0.031 C 
ATOM     56  C   UNL A   1      42.905  29.400  35.203  1.00  0.00     0.029 A 
ATOM     57  C   UNL A   1      42.781  28.924  33.907  1.00  0.00     0.049 A 
ATOM     58  H   UNL A   1      41.271  29.312  32.488  1.00  0.00     0.167 HD
ATOM     59  C   UNL A   1      43.491  27.648  31.903  1.00  0.00     0.074 A 
ATOM     60  C   UNL A   1      44.422  26.808  31.176  1.00  0.00     0.031 C 
ATOM     61  C   UNL A   1      43.668  28.046  33.188  1.00  0.00     0.034 A 
BRANCH  48  62
ATOM     62  C   UNL A   1      39.276  31.865  35.276  1.00  0.00     0.023 A 
ATOM     63  C   UNL A   1      38.352  31.341  36.203  1.00  0.00     0.012 A 
ATOM     64  C   UNL A   1      39.755  33.179  35.448  1.00  0.00     0.148 A 
ATOM     65  C   UNL A   1      37.882  32.120  37.259  1.00  0.00     0.002 A 
ATOM     66  C   UNL A   1      39.316  33.934  36.530  1.00  0.00     0.091 A 
ATOM     67  F   UNL A   1      40.618  33.669  34.547  1.00  0.00    -0.205 F 
ATOM     68  C   UNL A   1      38.372  33.412  37.428  1.00  0.00     0.022 A 
BRANCH  66  69
ATOM     69  S   UNL A   1      39.946  35.580  36.884  1.00  0.00     0.127 S 
ATOM     70  O   UNL A   1      39.277  35.886  38.147  1.00  0.00    -0.237 OA
ATOM     71  O   UNL A   1      41.385  35.342  36.998  1.00  0.00    -0.237 OA
ATOM     72  O   UNL A   1      39.556  36.410  35.752  1.00  0.00    -0.744 OA
ENDBRANCH  66  69
ENDBRANCH  48  62
BRANCH  49  73
ATOM     73  C   UNL A   1      42.464  26.534  27.440  1.00  0.00     0.023 A 
ATOM     74  C   UNL A   1      43.284  27.183  26.497  1.00  0.00     0.012 A 
ATOM     75  C   UNL A   1      42.167  25.167  27.267  1.00  0.00     0.148 A 
ATOM     76  C   UNL A   1      43.772  26.497  25.385  1.00  0.00     0.002 A 
ATOM     77  C   UNL A   1      42.702  24.476  26.185  1.00  0.00     0.091 A 
ATOM     78  F   UNL A   1      41.378  24.569  28.169  1.00  0.00    -0.205 F 
ATOM     79  C   UNL A   1      43.491  25.142  25.235  1.00  0.00     0.022 A 
BRANCH  77  80
ATOM     80  S   UNL A   1      42.502  22.702  25.986  1.00  0.00     0.127 S 
ATOM     81  O   UNL A   1      43.112  22.476  24.679  1.00  0.00    -0.237 OA
ATOM     82  O   UNL A   1      43.263  22.181  27.121  1.00  0.00    -0.237 OA
ATOM     83  O   UNL A   1      41.067  22.459  26.066  1.00  0.00    -0.744 OA
ENDBRANCH  77  80
ENDBRANCH  49  73
BRANCH  61  84
ATOM     84  C   UNL A   1      44.896  27.553  33.906  1.00  0.00     0.023 A 
ATOM     85  C   UNL A   1      46.077  28.319  33.881  1.00  0.00     0.012 A 
ATOM     86  C   UNL A   1      44.856  26.367  34.666  1.00  0.00     0.148 A 
ATOM     87  C   UNL A   1      47.212  27.895  34.571  1.00  0.00     0.002 A 
ATOM     88  C   UNL A   1      45.975  25.976  35.391  1.00  0.00     0.091 A 
ATOM     89  F   UNL A   1      43.728  25.640  34.661  1.00  0.00    -0.205 F 
ATOM     90  C   UNL A   1      47.157  26.731  35.335  1.00  0.00     0.022 A 
BRANCH  88  91
ATOM     91  S   UNL A   1      45.962  24.545  36.478  1.00  0.00     0.127 S 
ATOM     92  O   UNL A   1      45.784  23.450  35.527  1.00  0.00    -0.237 OA
ATOM     93  O   UNL A   1      47.288  24.609  37.094  1.00  0.00    -0.237 OA
ATOM     94  O   UNL A   1      44.858  24.759  37.404  1.00  0.00    -0.744 OA
ENDBRANCH  88  91
ENDBRANCH  61  84
ENDBRANCH  35  36
ENDBRANCH  27  30
ENDBRANCH  25  26
ENDBRANCH  24  25
ENDBRANCH   1  24
TORSDOF 17
ENDMDL
MODEL 2
REMARK VINA RESULT:     -11.6      2.696      8.217
REMARK SMILES CCNC(=O)N1CC[C@H](Cc2cccc(C(=O)NCCCNC(=O)c3ccc(-c4c5nc(c(-c6cccc(S(=O)(=O)[O-])c6F)c6ccc([nH]6)c(-c6cccc(S(=O)(=O)[O-])c6F)c6nc(c(-c7cccc(S(=O)(=O)[O-])c7F)c7ccc4[nH]7)C=C6)C=C5)cc3)c2)C1
REMARK SMILES IDX 19 1 18 2 16 3 17 4 15 6 11 7 12 8 88 9 13 10 14 11 10 12
REMARK SMILES IDX 9 13 6 14 7 15 89 16 8 17 4 18 3 19 5 21 2 22 1 23 20 24
REMARK SMILES IDX 21 25 22 26 23 27 24 29 25 30 26 31 87 32 27 33 86 34 28 35
REMARK SMILES IDX 29 36 30 37 80 38 31 39 85 40 79 41 81 42 32 43 84 44 78 45
REMARK SMILES IDX 77 46 33 48 65 49 45 50 64 51 46 52 49 53 63 54 82 55 47 56
REMARK SMILES IDX 48 57 62 59 83 60 50 61 34 62 35 63 43 64 36 65 38 66 44 67
REMARK SMILES IDX 37 68 39 69 40 70 41 71 42 72 66 73 67 74 75 75 68 76 70 77
REMARK SMILES IDX 76 78 69 79 71 80 72 81 73 82 74 83 51 84 52 85 60 86 53 87
REMARK SMILES IDX 55 88 61 89 54 90 56 91 57 92 58 93 59 94
REMARK H PARENT 18 5 3 20 22 28 81 47 49 58
REMARK Flexibility Score: inf
ROOT
ATOM      1  C   UNL A   1      31.793  30.809  26.644  1.00  0.00     0.118 C 
ENDROOT
BRANCH   1   2
ATOM      2  N   UNL A   1      33.040  30.344  27.224  1.00  0.00    -0.352 N 
ATOM      3  C   UNL A   1      33.882  29.297  26.948  1.00  0.00     0.251 C 
ATOM      4  O   UNL A   1      34.921  29.241  27.610  1.00  0.00    -0.269 OA
ATOM      5  H   UNL A   1      33.346  30.898  27.978  1.00  0.00     0.163 HD
BRANCH   3   6
ATOM      6  C   UNL A   1      33.652  28.274  25.881  1.00  0.00     0.040 A 
ATOM      7  C   UNL A   1      33.078  26.044  25.058  1.00  0.00    -0.047 A 
ATOM      8  C   UNL A   1      33.112  26.519  23.743  1.00  0.00     0.004 A 
ATOM      9  C   UNL A   1      33.425  26.916  26.104  1.00  0.00     0.017 A 
ATOM     10  C   UNL A   1      33.430  27.851  23.489  1.00  0.00     0.001 A 
ATOM     11  C   UNL A   1      33.673  28.724  24.551  1.00  0.00     0.014 A 
BRANCH   7  12
ATOM     12  C   UNL A   1      32.674  24.617  25.356  1.00  0.00     0.041 C 
BRANCH  12  13
ATOM     13  C   UNL A   1      33.702  23.858  26.215  1.00  0.00     0.015 C 
ATOM     14  N   UNL A   1      34.610  21.696  25.899  1.00  0.00    -0.325 N 
ATOM     15  C   UNL A   1      34.114  21.741  27.258  1.00  0.00     0.121 C 
ATOM     16  C   UNL A   1      34.683  23.038  25.359  1.00  0.00     0.125 C 
ATOM     17  C   UNL A   1      33.059  22.822  27.165  1.00  0.00     0.027 C 
BRANCH  14  18
ATOM     18  C   UNL A   1      35.174  20.643  25.255  1.00  0.00     0.317 C 
ATOM     19  N   UNL A   1      34.396  19.576  24.944  1.00  0.00    -0.338 N 
ATOM     20  H   UNL A   1      34.833  18.693  24.964  1.00  0.00     0.165 HD
ATOM     21  O   UNL A   1      36.347  20.635  24.886  1.00  0.00    -0.249 OA
BRANCH  19  22
ATOM     22  C   UNL A   1      32.988  19.590  24.586  1.00  0.00     0.114 C 
ATOM     23  C   UNL A   1      32.649  18.437  23.656  1.00  0.00     0.027 C 
ENDBRANCH  19  22
ENDBRANCH  14  18
ENDBRANCH  12  13
ENDBRANCH   7  12
ENDBRANCH   3   6
ENDBRANCH   1   2
BRANCH   1  24
ATOM     24  C   UNL A   1      31.624  32.320  26.808  1.00  0.00     0.042 C 
BRANCH  24  25
ATOM     25  C   UNL A   1      32.936  33.047  27.102  1.00  0.00     0.118 C 
BRANCH  25  26
ATOM     26  N   UNL A   1      32.708  34.335  27.746  1.00  0.00    -0.352 N 
ATOM     27  C   UNL A   1      33.197  34.850  28.919  1.00  0.00     0.251 C 
ATOM     28  H   UNL A   1      32.102  34.936  27.256  1.00  0.00     0.163 HD
ATOM     29  O   UNL A   1      32.661  35.850  29.394  1.00  0.00    -0.269 OA
BRANCH  27  30
ATOM     30  C   UNL A   1      34.354  34.236  29.606  1.00  0.00     0.039 A 
ATOM     31  C   UNL A   1      34.118  33.379  30.686  1.00  0.00     0.014 A 
ATOM     32  C   UNL A   1      35.666  34.559  29.249  1.00  0.00     0.014 A 
ATOM     33  C   UNL A   1      35.193  32.821  31.382  1.00  0.00     0.010 A 
ATOM     34  C   UNL A   1      36.735  33.941  29.892  1.00  0.00     0.010 A 
ATOM     35  C   UNL A   1      36.513  33.080  30.977  1.00  0.00    -0.014 A 
BRANCH  35  36
ATOM     36  C   UNL A   1      37.670  32.466  31.676  1.00  0.00     0.031 A 
ATOM     37  C   UNL A   1      38.431  31.333  31.039  1.00  0.00     0.074 A 
ATOM     38  C   UNL A   1      37.981  32.872  32.923  1.00  0.00     0.049 A 
ATOM     39  N   UNL A   1      39.428  30.636  31.519  1.00  0.00    -0.248 NA
ATOM     40  C   UNL A   1      37.995  30.904  29.699  1.00  0.00     0.031 C 
ATOM     41  C   UNL A   1      37.263  33.901  33.679  1.00  0.00     0.029 A 
ATOM     42  N   UNL A   1      38.963  32.452  33.784  1.00  0.00    -0.354 N 
ATOM     43  C   UNL A   1      39.709  29.664  30.565  1.00  0.00     0.074 A 
ATOM     44  C   UNL A   1      38.756  29.839  29.492  1.00  0.00     0.031 C 
ATOM     45  C   UNL A   1      37.832  34.034  34.888  1.00  0.00     0.029 A 
ATOM     46  C   UNL A   1      38.935  33.087  35.003  1.00  0.00     0.049 A 
ATOM     47  H   UNL A   1      39.625  31.761  33.551  1.00  0.00     0.167 HD
ATOM     48  C   UNL A   1      40.691  28.731  30.566  1.00  0.00     0.034 A 
ATOM     49  C   UNL A   1      39.709  32.922  36.094  1.00  0.00     0.034 A 
ATOM     50  C   UNL A   1      41.672  28.601  31.611  1.00  0.00     0.049 A 
ATOM     51  C   UNL A   1      40.836  31.926  36.041  1.00  0.00     0.074 A 
ATOM     52  C   UNL A   1      42.766  27.756  31.664  1.00  0.00     0.029 A 
ATOM     53  N   UNL A   1      41.675  29.334  32.787  1.00  0.00    -0.354 N 
ATOM     54  N   UNL A   1      41.187  31.128  35.062  1.00  0.00    -0.248 NA
ATOM     55  C   UNL A   1      41.698  31.836  37.228  1.00  0.00     0.031 C 
ATOM     56  C   UNL A   1      43.422  27.967  32.881  1.00  0.00     0.029 A 
ATOM     57  C   UNL A   1      42.749  28.959  33.576  1.00  0.00     0.049 A 
ATOM     58  H   UNL A   1      41.011  30.020  33.027  1.00  0.00     0.167 HD
ATOM     59  C   UNL A   1      42.328  30.468  35.499  1.00  0.00     0.074 A 
ATOM     60  C   UNL A   1      42.624  30.976  36.823  1.00  0.00     0.031 C 
ATOM     61  C   UNL A   1      43.059  29.514  34.868  1.00  0.00     0.034 A 
BRANCH  48  62
ATOM     62  C   UNL A   1      40.793  27.818  29.371  1.00  0.00     0.023 A 
ATOM     63  C   UNL A   1      39.992  26.658  29.313  1.00  0.00     0.012 A 
ATOM     64  C   UNL A   1      41.634  28.129  28.285  1.00  0.00     0.148 A 
ATOM     65  C   UNL A   1      40.054  25.804  28.213  1.00  0.00     0.002 A 
ATOM     66  C   UNL A   1      41.655  27.296  27.171  1.00  0.00     0.091 A 
ATOM     67  F   UNL A   1      42.404  29.223  28.364  1.00  0.00    -0.205 F 
ATOM     68  C   UNL A   1      40.876  26.128  27.139  1.00  0.00     0.022 A 
BRANCH  66  69
ATOM     69  S   UNL A   1      42.621  27.666  25.701  1.00  0.00     0.127 S 
ATOM     70  O   UNL A   1      42.219  26.583  24.804  1.00  0.00    -0.237 OA
ATOM     71  O   UNL A   1      42.118  28.987  25.325  1.00  0.00    -0.237 OA
ATOM     72  O   UNL A   1      44.015  27.645  26.122  1.00  0.00    -0.744 OA
ENDBRANCH  66  69
ENDBRANCH  48  62
BRANCH  49  73
ATOM     73  C   UNL A   1      39.494  33.778  37.294  1.00  0.00     0.023 A 
ATOM     74  C   UNL A   1      39.956  35.108  37.285  1.00  0.00     0.012 A 
ATOM     75  C   UNL A   1      38.803  33.298  38.425  1.00  0.00     0.148 A 
ATOM     76  C   UNL A   1      39.764  35.936  38.391  1.00  0.00     0.002 A 
ATOM     77  C   UNL A   1      38.568  34.146  39.502  1.00  0.00     0.091 A 
ATOM     78  F   UNL A   1      38.380  32.027  38.418  1.00  0.00    -0.205 F 
ATOM     79  C   UNL A   1      39.061  35.459  39.494  1.00  0.00     0.022 A 
BRANCH  77  80
ATOM     80  S   UNL A   1      37.558  33.658  40.905  1.00  0.00     0.127 S 
ATOM     81  O   UNL A   1      36.324  33.232  40.252  1.00  0.00    -0.237 OA
ATOM     82  O   UNL A   1      38.352  32.578  41.490  1.00  0.00    -0.237 OA
ATOM     83  O   UNL A   1      37.455  34.846  41.744  1.00  0.00    -0.744 OA
ENDBRANCH  77  80
ENDBRANCH  49  73
BRANCH  61  84
ATOM     84  C   UNL A   1      44.270  28.979  35.585  1.00  0.00     0.023 A 
ATOM     85  C   UNL A   1      45.517  29.613  35.425  1.00  0.00     0.012 A 
ATOM     86  C   UNL A   1      44.156  27.892  36.474  1.00  0.00     0.148 A 
ATOM     87  C   UNL A   1      46.640  29.153  36.110  1.00  0.00     0.002 A 
ATOM     88  C   UNL A   1      45.268  27.469  37.192  1.00  0.00     0.091 A 
ATOM     89  F   UNL A   1      42.964  27.287  36.599  1.00  0.00    -0.205 F 
ATOM     90  C   UNL A   1      46.514  28.090  37.002  1.00  0.00     0.022 A 
BRANCH  88  91
ATOM     91  S   UNL A   1      45.175  26.173  38.432  1.00  0.00     0.127 S 
ATOM     92  O   UNL A   1      44.172  26.710  39.349  1.00  0.00    -0.237 OA
ATOM     93  O   UNL A   1      44.728  25.021  37.646  1.00  0.00    -0.237 OA
ATOM     94  O   UNL A   1      46.520  26.044  38.976  1.00  0.00    -0.744 OA
ENDBRANCH  88  91
ENDBRANCH  61  84
ENDBRANCH  35  36
ENDBRANCH  27  30
ENDBRANCH  25  26
ENDBRANCH  24  25
ENDBRANCH   1  24
TORSDOF 17
ENDMDL
MODEL 3
REMARK VINA RESULT:     -11.5      2.180      3.057
REMARK SMILES CCNC(=O)N1CC[C@H](Cc2cccc(C(=O)NCCCNC(=O)c3ccc(-c4c5nc(c(-c6cccc(S(=O)(=O)[O-])c6F)c6ccc([nH]6)c(-c6cccc(S(=O)(=O)[O-])c6F)c6nc(c(-c7cccc(S(=O)(=O)[O-])c7F)c7ccc4[nH]7)C=C6)C=C5)cc3)c2)C1
REMARK SMILES IDX 19 1 18 2 16 3 17 4 15 6 11 7 12 8 88 9 13 10 14 11 10 12
REMARK SMILES IDX 9 13 6 14 7 15 89 16 8 17 4 18 3 19 5 21 2 22 1 23 20 24
REMARK SMILES IDX 21 25 22 26 23 27 24 29 25 30 26 31 87 32 27 33 86 34 28 35
REMARK SMILES IDX 29 36 30 37 80 38 31 39 85 40 79 41 81 42 32 43 84 44 78 45
REMARK SMILES IDX 77 46 33 48 65 49 45 50 64 51 46 52 49 53 63 54 82 55 47 56
REMARK SMILES IDX 48 57 62 59 83 60 50 61 34 62 35 63 43 64 36 65 38 66 44 67
REMARK SMILES IDX 37 68 39 69 40 70 41 71 42 72 66 73 67 74 75 75 68 76 70 77
REMARK SMILES IDX 76 78 69 79 71 80 72 81 73 82 74 83 51 84 52 85 60 86 53 87
REMARK SMILES IDX 55 88 61 89 54 90 56 91 57 92 58 93 59 94
REMARK H PARENT 18 5 3 20 22 28 81 47 49 58
REMARK Flexibility Score: inf
ROOT
ATOM      1  C   UNL A   1      33.146  28.555  24.375  1.00  0.00     0.118 C 
ENDROOT
BRANCH   1   2
ATOM      2  N   UNL A   1      33.528  27.909  23.132  1.00  0.00    -0.352 N 
ATOM      3  C   UNL A   1      33.346  26.649  22.624  1.00  0.00     0.251 C 
ATOM      4  O   UNL A   1      33.747  26.459  21.473  1.00  0.00    -0.269 OA
ATOM      5  H   UNL A   1      34.025  28.503  22.524  1.00  0.00     0.163 HD
BRANCH   3   6
ATOM      6  C   UNL A   1      32.658  25.530  23.339  1.00  0.00     0.040 A 
ATOM      7  C   UNL A   1      32.451  23.833  25.087  1.00  0.00    -0.047 A 
ATOM      8  C   UNL A   1      31.155  23.542  24.654  1.00  0.00     0.004 A 
ATOM      9  C   UNL A   1      33.212  24.773  24.371  1.00  0.00     0.017 A 
ATOM     10  C   UNL A   1      30.613  24.219  23.564  1.00  0.00     0.001 A 
ATOM     11  C   UNL A   1      31.350  25.221  22.930  1.00  0.00     0.014 A 
BRANCH   7  12
ATOM     12  C   UNL A   1      33.032  23.151  26.307  1.00  0.00     0.041 C 
BRANCH  12  13
ATOM     13  C   UNL A   1      33.324  21.655  26.090  1.00  0.00     0.015 C 
ATOM     14  N   UNL A   1      35.244  20.623  25.169  1.00  0.00    -0.325 N 
ATOM     15  C   UNL A   1      34.105  20.088  24.454  1.00  0.00     0.121 C 
ATOM     16  C   UNL A   1      34.796  21.303  26.367  1.00  0.00     0.125 C 
ATOM     17  C   UNL A   1      33.083  21.190  24.636  1.00  0.00     0.027 C 
BRANCH  14  18
ATOM     18  C   UNL A   1      36.558  20.358  24.957  1.00  0.00     0.317 C 
ATOM     19  N   UNL A   1      37.396  21.391  24.687  1.00  0.00    -0.338 N 
ATOM     20  H   UNL A   1      38.143  21.201  24.075  1.00  0.00     0.165 HD
ATOM     21  O   UNL A   1      37.037  19.230  25.055  1.00  0.00    -0.249 OA
BRANCH  19  22
ATOM     22  C   UNL A   1      37.312  22.747  25.202  1.00  0.00     0.114 C 
ATOM     23  C   UNL A   1      36.664  23.677  24.188  1.00  0.00     0.027 C 
ENDBRANCH  19  22
ENDBRANCH  14  18
ENDBRANCH  12  13
ENDBRANCH   7  12
ENDBRANCH   3   6
ENDBRANCH   1   2
BRANCH   1  24
ATOM     24  C   UNL A   1      34.027  28.103  25.540  1.00  0.00     0.042 C 
BRANCH  24  25
ATOM     25  C   UNL A   1      33.507  28.558  26.903  1.00  0.00     0.118 C 
BRANCH  25  26
ATOM     26  N   UNL A   1      33.545  30.010  27.040  1.00  0.00    -0.352 N 
ATOM     27  C   UNL A   1      34.412  30.824  27.722  1.00  0.00     0.251 C 
ATOM     28  H   UNL A   1      32.828  30.485  26.562  1.00  0.00     0.163 HD
ATOM     29  O   UNL A   1      34.095  31.996  27.914  1.00  0.00    -0.269 OA
BRANCH  27  30
ATOM     30  C   UNL A   1      35.713  30.321  28.215  1.00  0.00     0.039 A 
ATOM     31  C   UNL A   1      36.852  30.515  27.426  1.00  0.00     0.014 A 
ATOM     32  C   UNL A   1      35.808  29.593  29.403  1.00  0.00     0.014 A 
ATOM     33  C   UNL A   1      38.085  30.012  27.846  1.00  0.00     0.010 A 
ATOM     34  C   UNL A   1      37.051  29.160  29.859  1.00  0.00     0.010 A 
ATOM     35  C   UNL A   1      38.200  29.348  29.078  1.00  0.00    -0.014 A 
BRANCH  35  36
ATOM     36  C   UNL A   1      39.508  28.839  29.562  1.00  0.00     0.031 A 
ATOM     37  C   UNL A   1      40.228  29.538  30.686  1.00  0.00     0.074 A 
ATOM     38  C   UNL A   1      40.088  27.799  28.932  1.00  0.00     0.049 A 
ATOM     39  N   UNL A   1      41.400  29.276  31.204  1.00  0.00    -0.248 NA
ATOM     40  C   UNL A   1      39.558  30.704  31.286  1.00  0.00     0.031 C 
ATOM     41  C   UNL A   1      39.529  27.094  27.775  1.00  0.00     0.029 A 
ATOM     42  N   UNL A   1      41.286  27.169  29.157  1.00  0.00    -0.354 N 
ATOM     43  C   UNL A   1      41.626  30.264  32.156  1.00  0.00     0.074 A 
ATOM     44  C   UNL A   1      40.485  31.151  32.121  1.00  0.00     0.031 C 
ATOM     45  C   UNL A   1      40.381  26.128  27.396  1.00  0.00     0.029 A 
ATOM     46  C   UNL A   1      41.554  26.159  28.262  1.00  0.00     0.049 A 
ATOM     47  H   UNL A   1      41.897  27.417  29.888  1.00  0.00     0.167 HD
ATOM     48  C   UNL A   1      42.673  30.402  33.004  1.00  0.00     0.034 A 
ATOM     49  C   UNL A   1      42.627  25.351  28.150  1.00  0.00     0.034 A 
ATOM     50  C   UNL A   1      43.777  29.483  33.072  1.00  0.00     0.049 A 
ATOM     51  C   UNL A   1      43.744  25.483  29.150  1.00  0.00     0.074 A 
ATOM     52  C   UNL A   1      44.838  29.476  33.959  1.00  0.00     0.029 A 
ATOM     53  N   UNL A   1      43.963  28.408  32.218  1.00  0.00    -0.354 N 
ATOM     54  N   UNL A   1      43.862  26.324  30.149  1.00  0.00    -0.248 NA
ATOM     55  C   UNL A   1      44.856  24.530  29.031  1.00  0.00     0.031 C 
ATOM     56  C   UNL A   1      45.676  28.405  33.630  1.00  0.00     0.029 A 
ATOM     57  C   UNL A   1      45.124  27.732  32.552  1.00  0.00     0.049 A 
ATOM     58  H   UNL A   1      43.359  28.160  31.480  1.00  0.00     0.167 HD
ATOM     59  C   UNL A   1      45.040  25.980  30.798  1.00  0.00     0.074 A 
ATOM     60  C   UNL A   1      45.589  24.839  30.093  1.00  0.00     0.031 C 
ATOM     61  C   UNL A   1      45.627  26.565  31.873  1.00  0.00     0.034 A 
BRANCH  48  62
ATOM     62  C   UNL A   1      42.644  31.558  33.972  1.00  0.00     0.023 A 
ATOM     63  C   UNL A   1      43.195  32.799  33.589  1.00  0.00     0.012 A 
ATOM     64  C   UNL A   1      42.027  31.439  35.232  1.00  0.00     0.148 A 
ATOM     65  C   UNL A   1      43.168  33.889  34.457  1.00  0.00     0.002 A 
ATOM     66  C   UNL A   1      41.963  32.544  36.074  1.00  0.00     0.091 A 
ATOM     67  F   UNL A   1      41.526  30.248  35.590  1.00  0.00    -0.205 F 
ATOM     68  C   UNL A   1      42.543  33.765  35.694  1.00  0.00     0.022 A 
BRANCH  66  69
ATOM     69  S   UNL A   1      41.110  32.511  37.656  1.00  0.00     0.127 S 
ATOM     70  O   UNL A   1      41.986  31.646  38.445  1.00  0.00    -0.237 OA
ATOM     71  O   UNL A   1      41.132  33.919  38.048  1.00  0.00    -0.237 OA
ATOM     72  O   UNL A   1      39.783  31.976  37.385  1.00  0.00    -0.744 OA
ENDBRANCH  66  69
ENDBRANCH  48  62
BRANCH  49  73
ATOM     73  C   UNL A   1      42.653  24.293  27.101  1.00  0.00     0.023 A 
ATOM     74  C   UNL A   1      43.401  24.506  25.926  1.00  0.00     0.012 A 
ATOM     75  C   UNL A   1      41.979  23.069  27.274  1.00  0.00     0.148 A 
ATOM     76  C   UNL A   1      43.450  23.532  24.929  1.00  0.00     0.002 A 
ATOM     77  C   UNL A   1      42.077  22.082  26.300  1.00  0.00     0.091 A 
ATOM     78  F   UNL A   1      41.265  22.890  28.394  1.00  0.00    -0.205 F 
ATOM     79  C   UNL A   1      42.798  22.317  25.119  1.00  0.00     0.022 A 
BRANCH  77  80
ATOM     80  S   UNL A   1      41.381  20.441  26.521  1.00  0.00     0.127 S 
ATOM     81  O   UNL A   1      41.933  20.054  27.816  1.00  0.00    -0.237 OA
ATOM     82  O   UNL A   1      39.945  20.717  26.520  1.00  0.00    -0.237 OA
ATOM     83  O   UNL A   1      41.841  19.663  25.378  1.00  0.00    -0.744 OA
ENDBRANCH  77  80
ENDBRANCH  49  73
BRANCH  61  84
ATOM     84  C   UNL A   1      46.912  25.965  32.377  1.00  0.00     0.023 A 
ATOM     85  C   UNL A   1      48.144  26.409  31.857  1.00  0.00     0.012 A 
ATOM     86  C   UNL A   1      46.902  25.013  33.415  1.00  0.00     0.148 A 
ATOM     87  C   UNL A   1      49.344  25.891  32.338  1.00  0.00     0.002 A 
ATOM     88  C   UNL A   1      48.104  24.536  33.924  1.00  0.00     0.091 A 
ATOM     89  F   UNL A   1      45.719  24.586  33.882  1.00  0.00    -0.205 F 
ATOM     90  C   UNL A   1      49.326  24.964  33.379  1.00  0.00     0.022 A 
BRANCH  88  91
ATOM     91  S   UNL A   1      48.175  23.415  35.327  1.00  0.00     0.127 S 
ATOM     92  O   UNL A   1      47.429  22.263  34.825  1.00  0.00    -0.237 OA
ATOM     93  O   UNL A   1      49.614  23.193  35.476  1.00  0.00    -0.237 OA
ATOM     94  O   UNL A   1      47.558  24.128  36.437  1.00  0.00    -0.744 OA
ENDBRANCH  88  91
ENDBRANCH  61  84
ENDBRANCH  35  36
ENDBRANCH  27  30
ENDBRANCH  25  26
ENDBRANCH  24  25
ENDBRANCH   1  24
TORSDOF 17
ENDMDL
