MODEL 1
REMARK VINA RESULT:     -12.1      0.000      0.000
REMARK SMILES O=C(NCCCNC(=O)[C@@]1(Cc2cn3ccccc3n2)CCC[NH2+]C1)c1ccc(-c2c3nc(c(-c4cccc(S(=O)(=O)[O-])c4F)c4ccc([nH]4)c(-c4cccc(S(=O)(=O)[O-])c4F)c4nc(c(-c5cccc(S(=O)(=O)[O-])c5F)c5ccc2[nH]5)C=C4)C=C3)cc1
REMARK SMILES IDX 4 1 3 2 1 3 2 4 26 6 27 7 88 8 28 9 87 10 29 11 30 12 31 13
REMARK SMILES IDX 81 14 32 15 86 16 80 17 82 18 33 19 85 20 79 21 78 22 34 24
REMARK SMILES IDX 66 25 46 26 65 27 47 28 50 29 64 30 83 31 48 32 49 33 63 35
REMARK SMILES IDX 84 36 51 37 35 38 36 39 44 40 37 41 39 42 45 43 38 44 40 45
REMARK SMILES IDX 41 46 42 47 43 48 67 49 68 50 76 51 69 52 71 53 77 54 70 55
REMARK SMILES IDX 72 56 73 57 74 58 75 59 52 60 53 61 61 62 54 63 56 64 62 65
REMARK SMILES IDX 55 66 57 67 58 68 59 69 60 70 5 71 6 72 7 73 8 74 9 76 10 77
REMARK SMILES IDX 21 78 25 79 22 80 24 81 23 82 11 85 12 86 13 87 20 88 14 89
REMARK SMILES IDX 19 90 15 91 18 92 16 93 17 94
REMARK H PARENT 3 5 82 23 50 34 7 75 24 83 24 84
REMARK Flexibility Score: inf
ROOT
ATOM      1  C   UNL A   1      34.071  28.733  26.182  1.00  0.00     0.118 C 
ENDROOT
BRANCH   1   2
ATOM      2  N   UNL A   1      33.923  30.125  26.591  1.00  0.00    -0.352 N 
ATOM      3  O   UNL A   1      34.214  31.907  27.934  1.00  0.00    -0.269 OA
ATOM      4  C   UNL A   1      34.635  30.825  27.532  1.00  0.00     0.251 C 
ATOM      5  H   UNL A   1      33.216  30.630  26.129  1.00  0.00     0.163 HD
BRANCH   4   6
ATOM      6  C   UNL A   1      35.894  30.258  28.057  1.00  0.00     0.039 A 
ATOM      7  C   UNL A   1      37.069  30.353  27.305  1.00  0.00     0.014 A 
ATOM      8  C   UNL A   1      35.906  29.642  29.310  1.00  0.00     0.014 A 
ATOM      9  C   UNL A   1      38.221  29.715  27.737  1.00  0.00     0.010 A 
ATOM     10  C   UNL A   1      37.096  29.091  29.793  1.00  0.00     0.010 A 
ATOM     11  C   UNL A   1      38.257  29.112  29.004  1.00  0.00    -0.014 A 
BRANCH  11  12
ATOM     12  C   UNL A   1      39.559  28.654  29.540  1.00  0.00     0.031 A 
ATOM     13  C   UNL A   1      40.248  29.378  30.660  1.00  0.00     0.074 A 
ATOM     14  C   UNL A   1      40.127  27.577  28.964  1.00  0.00     0.049 A 
ATOM     15  N   UNL A   1      41.399  29.109  31.217  1.00  0.00    -0.248 NA
ATOM     16  C   UNL A   1      39.572  30.560  31.221  1.00  0.00     0.031 C 
ATOM     17  C   UNL A   1      39.563  26.835  27.831  1.00  0.00     0.029 A 
ATOM     18  N   UNL A   1      41.304  26.926  29.228  1.00  0.00    -0.354 N 
ATOM     19  C   UNL A   1      41.612  30.107  32.157  1.00  0.00     0.074 A 
ATOM     20  C   UNL A   1      40.464  30.987  32.107  1.00  0.00     0.031 C 
ATOM     21  C   UNL A   1      40.386  25.832  27.502  1.00  0.00     0.029 A 
ATOM     22  C   UNL A   1      41.564  25.895  28.356  1.00  0.00     0.049 A 
ATOM     23  H   UNL A   1      41.904  27.172  29.969  1.00  0.00     0.167 HD
ATOM     24  C   UNL A   1      42.670  30.264  32.988  1.00  0.00     0.034 A 
ATOM     25  C   UNL A   1      42.650  25.110  28.225  1.00  0.00     0.034 A 
ATOM     26  C   UNL A   1      43.780  29.350  33.060  1.00  0.00     0.049 A 
ATOM     27  C   UNL A   1      43.792  25.303  29.176  1.00  0.00     0.074 A 
ATOM     28  C   UNL A   1      44.836  29.352  33.954  1.00  0.00     0.029 A 
ATOM     29  N   UNL A   1      43.990  28.289  32.193  1.00  0.00    -0.354 N 
ATOM     30  N   UNL A   1      43.894  26.144  30.178  1.00  0.00    -0.248 NA
ATOM     31  C   UNL A   1      44.961  24.435  28.993  1.00  0.00     0.031 C 
ATOM     32  C   UNL A   1      45.702  28.310  33.607  1.00  0.00     0.029 A 
ATOM     33  C   UNL A   1      45.177  27.650  32.508  1.00  0.00     0.049 A 
ATOM     34  H   UNL A   1      43.385  28.028  31.461  1.00  0.00     0.167 HD
ATOM     35  C   UNL A   1      45.134  25.901  30.750  1.00  0.00     0.074 A 
ATOM     36  C   UNL A   1      45.731  24.808  30.008  1.00  0.00     0.031 C 
ATOM     37  C   UNL A   1      45.738  26.541  31.780  1.00  0.00     0.034 A 
BRANCH  24  38
ATOM     38  C   UNL A   1      42.681  31.445  33.921  1.00  0.00     0.023 A 
ATOM     39  C   UNL A   1      43.168  32.687  33.467  1.00  0.00     0.012 A 
ATOM     40  C   UNL A   1      42.098  31.354  35.201  1.00  0.00     0.148 A 
ATOM     41  C   UNL A   1      43.083  33.819  34.277  1.00  0.00     0.002 A 
ATOM     42  C   UNL A   1      41.987  32.494  35.989  1.00  0.00     0.091 A 
ATOM     43  F   UNL A   1      41.659  30.158  35.618  1.00  0.00    -0.205 F 
ATOM     44  C   UNL A   1      42.483  33.726  35.530  1.00  0.00     0.022 A 
BRANCH  42  45
ATOM     45  S   UNL A   1      41.168  32.494  37.588  1.00  0.00     0.127 S 
ATOM     46  O   UNL A   1      39.847  31.972  37.241  1.00  0.00    -0.237 OA
ATOM     47  O   UNL A   1      42.003  31.573  38.361  1.00  0.00    -0.237 OA
ATOM     48  O   UNL A   1      41.190  33.874  38.053  1.00  0.00    -0.744 OA
ENDBRANCH  42  45
ENDBRANCH  24  38
BRANCH  25  49
ATOM     49  C   UNL A   1      42.689  24.077  27.154  1.00  0.00     0.023 A 
ATOM     50  C   UNL A   1      43.402  24.328  25.969  1.00  0.00     0.012 A 
ATOM     51  C   UNL A   1      42.065  22.826  27.329  1.00  0.00     0.148 A 
ATOM     52  C   UNL A   1      43.475  23.359  24.967  1.00  0.00     0.002 A 
ATOM     53  C   UNL A   1      42.193  21.844  26.355  1.00  0.00     0.091 A 
ATOM     54  F   UNL A   1      41.369  22.610  28.456  1.00  0.00    -0.205 F 
ATOM     55  C   UNL A   1      42.884  22.113  25.165  1.00  0.00     0.022 A 
BRANCH  53  56
ATOM     56  S   UNL A   1      41.592  20.172  26.620  1.00  0.00     0.127 S 
ATOM     57  O   UNL A   1      42.029  19.498  25.402  1.00  0.00    -0.237 OA
ATOM     58  O   UNL A   1      42.303  19.773  27.836  1.00  0.00    -0.237 OA
ATOM     59  O   UNL A   1      40.151  20.312  26.798  1.00  0.00    -0.744 OA
ENDBRANCH  53  56
ENDBRANCH  25  49
BRANCH  37  60
ATOM     60  C   UNL A   1      47.119  26.084  32.160  1.00  0.00     0.023 A 
ATOM     61  C   UNL A   1      48.233  26.653  31.515  1.00  0.00     0.012 A 
ATOM     62  C   UNL A   1      47.314  25.150  33.195  1.00  0.00     0.148 A 
ATOM     63  C   UNL A   1      49.526  26.281  31.878  1.00  0.00     0.002 A 
ATOM     64  C   UNL A   1      48.606  24.818  33.583  1.00  0.00     0.091 A 
ATOM     65  F   UNL A   1      46.237  24.609  33.781  1.00  0.00    -0.205 F 
ATOM     66  C   UNL A   1      49.713  25.374  32.918  1.00  0.00     0.022 A 
BRANCH  64  67
ATOM     67  S   UNL A   1      48.947  23.728  34.967  1.00  0.00     0.127 S 
ATOM     68  O   UNL A   1      50.407  23.767  35.026  1.00  0.00    -0.237 OA
ATOM     69  O   UNL A   1      48.272  24.409  36.072  1.00  0.00    -0.237 OA
ATOM     70  O   UNL A   1      48.372  22.436  34.612  1.00  0.00    -0.744 OA
ENDBRANCH  64  67
ENDBRANCH  37  60
ENDBRANCH  11  12
ENDBRANCH   4   6
ENDBRANCH   1   2
BRANCH   1  71
ATOM     71  C   UNL A   1      33.005  27.847  26.801  1.00  0.00     0.042 C 
BRANCH  71  72
ATOM     72  C   UNL A   1      32.922  26.489  26.131  1.00  0.00     0.117 C 
BRANCH  72  73
ATOM     73  N   UNL A   1      31.818  25.692  26.645  1.00  0.00    -0.355 N 
ATOM     74  C   UNL A   1      31.585  24.348  26.628  1.00  0.00     0.232 C 
ATOM     75  H   UNL A   1      31.112  26.218  27.085  1.00  0.00     0.163 HD
ATOM     76  O   UNL A   1      30.558  23.978  27.203  1.00  0.00    -0.274 OA
BRANCH  74  77
ATOM     77  C   UNL A   1      32.560  23.352  25.959  1.00  0.00     0.104 C 
ATOM     78  C   UNL A   1      32.840  23.813  24.500  1.00  0.00     0.029 C 
ATOM     79  C   UNL A   1      33.829  23.291  26.856  1.00  0.00     0.277 C 
ATOM     80  C   UNL A   1      34.215  23.421  23.960  1.00  0.00     0.063 C 
ATOM     81  N   UNL A   1      35.071  22.863  26.204  1.00  0.00    -0.345 N 
ATOM     82  C   UNL A   1      35.336  23.599  24.974  1.00  0.00     0.260 C 
ATOM     83  H   UNL A   1      35.847  23.013  26.850  1.00  0.00     0.346 HD
ATOM     84  H   UNL A   1      34.971  21.877  25.962  1.00  0.00     0.346 HD
BRANCH  77  85
ATOM     85  C   UNL A   1      31.823  21.966  25.950  1.00  0.00     0.080 C 
BRANCH  85  86
ATOM     86  C   UNL A   1      32.455  20.902  25.120  1.00  0.00     0.061 A 
ATOM     87  C   UNL A   1      32.030  20.375  23.919  1.00  0.00     0.116 A 
ATOM     88  N   UNL A   1      33.598  20.259  25.548  1.00  0.00    -0.234 NA
ATOM     89  N   UNL A   1      32.781  19.248  23.733  1.00  0.00    -0.307 N 
ATOM     90  C   UNL A   1      33.779  19.269  24.699  1.00  0.00     0.136 A 
ATOM     91  C   UNL A   1      32.607  18.210  22.823  1.00  0.00     0.093 A 
ATOM     92  C   UNL A   1      34.736  18.218  24.659  1.00  0.00     0.048 A 
ATOM     93  C   UNL A   1      33.470  17.180  22.836  1.00  0.00     0.018 A 
ATOM     94  C   UNL A   1      34.587  17.214  23.772  1.00  0.00     0.005 A 
ENDBRANCH  85  86
ENDBRANCH  77  85
ENDBRANCH  74  77
ENDBRANCH  72  73
ENDBRANCH  71  72
ENDBRANCH   1  71
TORSDOF 15
ENDMDL
MODEL 2
REMARK VINA RESULT:     -12.1      2.962      8.531
REMARK SMILES O=C(NCCCNC(=O)[C@@]1(Cc2cn3ccccc3n2)CCC[NH2+]C1)c1ccc(-c2c3nc(c(-c4cccc(S(=O)(=O)[O-])c4F)c4ccc([nH]4)c(-c4cccc(S(=O)(=O)[O-])c4F)c4nc(c(-c5cccc(S(=O)(=O)[O-])c5F)c5ccc2[nH]5)C=C4)C=C3)cc1
REMARK SMILES IDX 4 1 3 2 1 3 2 4 26 6 27 7 88 8 28 9 87 10 29 11 30 12 31 13
REMARK SMILES IDX 81 14 32 15 86 16 80 17 82 18 33 19 85 20 79 21 78 22 34 24
REMARK SMILES IDX 66 25 46 26 65 27 47 28 50 29 64 30 83 31 48 32 49 33 63 35
REMARK SMILES IDX 84 36 51 37 35 38 36 39 44 40 37 41 39 42 45 43 38 44 40 45
REMARK SMILES IDX 41 46 42 47 43 48 67 49 68 50 76 51 69 52 71 53 77 54 70 55
REMARK SMILES IDX 72 56 73 57 74 58 75 59 52 60 53 61 61 62 54 63 56 64 62 65
REMARK SMILES IDX 55 66 57 67 58 68 59 69 60 70 5 71 6 72 7 73 8 74 9 76 10 77
REMARK SMILES IDX 21 78 25 79 22 80 24 81 23 82 11 85 12 86 13 87 20 88 14 89
REMARK SMILES IDX 19 90 15 91 18 92 16 93 17 94
REMARK H PARENT 3 5 82 23 50 34 7 75 24 83 24 84
REMARK Flexibility Score: inf
ROOT
ATOM      1  C   UNL A   1      32.458  31.977  26.961  1.00  0.00     0.118 C 
ENDROOT
BRANCH   1   2
ATOM      2  N   UNL A   1      32.359  33.405  27.239  1.00  0.00    -0.352 N 
ATOM      3  O   UNL A   1      32.672  35.285  28.434  1.00  0.00    -0.269 OA
ATOM      4  C   UNL A   1      33.059  34.155  28.151  1.00  0.00     0.251 C 
ATOM      5  H   UNL A   1      31.700  33.897  26.699  1.00  0.00     0.163 HD
BRANCH   4   6
ATOM      6  C   UNL A   1      34.263  33.582  28.786  1.00  0.00     0.039 A 
ATOM      7  C   UNL A   1      34.130  32.649  29.820  1.00  0.00     0.014 A 
ATOM      8  C   UNL A   1      35.530  33.966  28.341  1.00  0.00     0.014 A 
ATOM      9  C   UNL A   1      35.253  32.205  30.499  1.00  0.00     0.010 A 
ATOM     10  C   UNL A   1      36.665  33.436  28.959  1.00  0.00     0.010 A 
ATOM     11  C   UNL A   1      36.533  32.562  30.050  1.00  0.00    -0.014 A 
BRANCH  11  12
ATOM     12  C   UNL A   1      37.712  31.885  30.638  1.00  0.00     0.031 A 
ATOM     13  C   UNL A   1      38.464  30.824  29.891  1.00  0.00     0.074 A 
ATOM     14  C   UNL A   1      38.069  32.231  31.891  1.00  0.00     0.049 A 
ATOM     15  N   UNL A   1      39.498  30.129  30.285  1.00  0.00    -0.248 NA
ATOM     16  C   UNL A   1      37.997  30.488  28.536  1.00  0.00     0.031 C 
ATOM     17  C   UNL A   1      37.367  33.213  32.724  1.00  0.00     0.029 A 
ATOM     18  N   UNL A   1      39.090  31.792  32.692  1.00  0.00    -0.354 N 
ATOM     19  C   UNL A   1      39.779  29.241  29.255  1.00  0.00     0.074 A 
ATOM     20  C   UNL A   1      38.812  29.492  28.208  1.00  0.00     0.031 C 
ATOM     21  C   UNL A   1      37.978  33.307  33.911  1.00  0.00     0.029 A 
ATOM     22  C   UNL A   1      39.074  32.349  33.950  1.00  0.00     0.049 A 
ATOM     23  H   UNL A   1      39.768  31.142  32.398  1.00  0.00     0.167 HD
ATOM     24  C   UNL A   1      40.760  28.310  29.194  1.00  0.00     0.034 A 
ATOM     25  C   UNL A   1      39.830  32.091  35.033  1.00  0.00     0.034 A 
ATOM     26  C   UNL A   1      41.744  28.110  30.225  1.00  0.00     0.049 A 
ATOM     27  C   UNL A   1      40.918  31.066  34.920  1.00  0.00     0.074 A 
ATOM     28  C   UNL A   1      42.852  27.281  30.204  1.00  0.00     0.029 A 
ATOM     29  N   UNL A   1      41.727  28.724  31.468  1.00  0.00    -0.354 N 
ATOM     30  N   UNL A   1      41.279  30.364  33.873  1.00  0.00    -0.248 NA
ATOM     31  C   UNL A   1      41.712  30.806  36.127  1.00  0.00     0.031 C 
ATOM     32  C   UNL A   1      43.487  27.370  31.447  1.00  0.00     0.029 A 
ATOM     33  C   UNL A   1      42.785  28.267  32.236  1.00  0.00     0.049 A 
ATOM     34  H   UNL A   1      41.062  29.388  31.761  1.00  0.00     0.167 HD
ATOM     35  C   UNL A   1      42.348  29.585  34.291  1.00  0.00     0.074 A 
ATOM     36  C   UNL A   1      42.601  29.929  35.676  1.00  0.00     0.031 C 
ATOM     37  C   UNL A   1      43.041  28.648  33.600  1.00  0.00     0.034 A 
BRANCH  24  38
ATOM     38  C   UNL A   1      40.857  27.448  27.965  1.00  0.00     0.023 A 
ATOM     39  C   UNL A   1      41.517  27.938  26.821  1.00  0.00     0.012 A 
ATOM     40  C   UNL A   1      40.403  26.113  27.987  1.00  0.00     0.148 A 
ATOM     41  C   UNL A   1      41.717  27.114  25.712  1.00  0.00     0.002 A 
ATOM     42  C   UNL A   1      40.636  25.290  26.892  1.00  0.00     0.091 A 
ATOM     43  F   UNL A   1      39.762  25.676  29.080  1.00  0.00    -0.205 F 
ATOM     44  C   UNL A   1      41.288  25.790  25.752  1.00  0.00     0.022 A 
BRANCH  42  45
ATOM     45  S   UNL A   1      40.186  23.550  26.871  1.00  0.00     0.127 S 
ATOM     46  O   UNL A   1      38.766  23.619  26.526  1.00  0.00    -0.237 OA
ATOM     47  O   UNL A   1      41.045  23.023  25.811  1.00  0.00    -0.237 OA
ATOM     48  O   UNL A   1      40.478  23.042  28.204  1.00  0.00    -0.744 OA
ENDBRANCH  42  45
ENDBRANCH  24  38
BRANCH  25  49
ATOM     49  C   UNL A   1      39.575  32.825  36.303  1.00  0.00     0.023 A 
ATOM     50  C   UNL A   1      40.181  34.075  36.519  1.00  0.00     0.012 A 
ATOM     51  C   UNL A   1      38.694  32.311  37.274  1.00  0.00     0.148 A 
ATOM     52  C   UNL A   1      39.929  34.791  37.691  1.00  0.00     0.002 A 
ATOM     53  C   UNL A   1      38.399  33.056  38.409  1.00  0.00     0.091 A 
ATOM     54  F   UNL A   1      38.141  31.106  37.063  1.00  0.00    -0.205 F 
ATOM     55  C   UNL A   1      39.029  34.289  38.628  1.00  0.00     0.022 A 
BRANCH  53  56
ATOM     56  S   UNL A   1      37.131  32.538  39.571  1.00  0.00     0.127 S 
ATOM     57  O   UNL A   1      35.927  32.595  38.748  1.00  0.00    -0.237 OA
ATOM     58  O   UNL A   1      37.569  31.189  39.931  1.00  0.00    -0.237 OA
ATOM     59  O   UNL A   1      37.208  33.496  40.667  1.00  0.00    -0.744 OA
ENDBRANCH  53  56
ENDBRANCH  25  49
BRANCH  37  60
ATOM     60  C   UNL A   1      44.135  27.922  34.334  1.00  0.00     0.023 A 
ATOM     61  C   UNL A   1      45.420  28.494  34.394  1.00  0.00     0.012 A 
ATOM     62  C   UNL A   1      43.875  26.718  35.016  1.00  0.00     0.148 A 
ATOM     63  C   UNL A   1      46.441  27.865  35.103  1.00  0.00     0.002 A 
ATOM     64  C   UNL A   1      44.885  26.121  35.759  1.00  0.00     0.091 A 
ATOM     65  F   UNL A   1      42.649  26.185  34.929  1.00  0.00    -0.205 F 
ATOM     66  C   UNL A   1      46.171  26.686  35.795  1.00  0.00     0.022 A 
BRANCH  64  67
ATOM     67  S   UNL A   1      44.610  24.651  36.753  1.00  0.00     0.127 S 
ATOM     68  O   UNL A   1      45.954  24.376  37.257  1.00  0.00    -0.237 OA
ATOM     69  O   UNL A   1      43.665  25.131  37.761  1.00  0.00    -0.237 OA
ATOM     70  O   UNL A   1      44.068  23.648  35.845  1.00  0.00    -0.744 OA
ENDBRANCH  64  67
ENDBRANCH  37  60
ENDBRANCH  11  12
ENDBRANCH   4   6
ENDBRANCH   1   2
BRANCH   1  71
ATOM     71  C   UNL A   1      31.279  31.477  26.146  1.00  0.00     0.042 C 
BRANCH  71  72
ATOM     72  C   UNL A   1      31.468  30.050  25.670  1.00  0.00     0.117 C 
BRANCH  72  73
ATOM     73  N   UNL A   1      32.446  29.956  24.597  1.00  0.00    -0.355 N 
ATOM     74  C   UNL A   1      33.019  28.881  23.983  1.00  0.00     0.232 C 
ATOM     75  H   UNL A   1      32.749  30.827  24.251  1.00  0.00     0.163 HD
ATOM     76  O   UNL A   1      33.790  29.145  23.057  1.00  0.00    -0.274 OA
BRANCH  74  77
ATOM     77  C   UNL A   1      32.697  27.428  24.400  1.00  0.00     0.104 C 
ATOM     78  C   UNL A   1      32.894  27.281  25.936  1.00  0.00     0.029 C 
ATOM     79  C   UNL A   1      31.248  27.129  23.919  1.00  0.00     0.277 C 
ATOM     80  C   UNL A   1      32.005  26.228  26.596  1.00  0.00     0.063 C 
ATOM     81  N   UNL A   1      30.530  26.066  24.627  1.00  0.00    -0.345 N 
ATOM     82  C   UNL A   1      30.575  26.231  26.075  1.00  0.00     0.260 C 
ATOM     83  H   UNL A   1      29.555  26.075  24.327  1.00  0.00     0.346 HD
ATOM     84  H   UNL A   1      30.983  25.181  24.401  1.00  0.00     0.346 HD
BRANCH  77  85
ATOM     85  C   UNL A   1      33.729  26.522  23.640  1.00  0.00     0.080 C 
BRANCH  85  86
ATOM     86  C   UNL A   1      33.886  25.136  24.166  1.00  0.00     0.061 A 
ATOM     87  C   UNL A   1      34.922  24.605  24.905  1.00  0.00     0.116 A 
ATOM     88  N   UNL A   1      32.945  24.166  23.890  1.00  0.00    -0.234 NA
ATOM     89  N   UNL A   1      34.728  23.252  24.876  1.00  0.00    -0.307 N 
ATOM     90  C   UNL A   1      33.470  23.040  24.328  1.00  0.00     0.136 A 
ATOM     91  C   UNL A   1      35.594  22.228  25.245  1.00  0.00     0.093 A 
ATOM     92  C   UNL A   1      33.016  21.694  24.259  1.00  0.00     0.048 A 
ATOM     93  C   UNL A   1      35.191  20.953  25.109  1.00  0.00     0.018 A 
ATOM     94  C   UNL A   1      33.840  20.693  24.627  1.00  0.00     0.005 A 
ENDBRANCH  85  86
ENDBRANCH  77  85
ENDBRANCH  74  77
ENDBRANCH  72  73
ENDBRANCH  71  72
ENDBRANCH   1  71
TORSDOF 15
ENDMDL
MODEL 3
REMARK VINA RESULT:     -12.0      5.180      8.542
REMARK SMILES O=C(NCCCNC(=O)[C@@]1(Cc2cn3ccccc3n2)CCC[NH2+]C1)c1ccc(-c2c3nc(c(-c4cccc(S(=O)(=O)[O-])c4F)c4ccc([nH]4)c(-c4cccc(S(=O)(=O)[O-])c4F)c4nc(c(-c5cccc(S(=O)(=O)[O-])c5F)c5ccc2[nH]5)C=C4)C=C3)cc1
REMARK SMILES IDX 4 1 3 2 1 3 2 4 26 6 27 7 88 8 28 9 87 10 29 11 30 12 31 13
REMARK SMILES IDX 81 14 32 15 86 16 80 17 82 18 33 19 85 20 79 21 78 22 34 24
REMARK SMILES IDX 66 25 46 26 65 27 47 28 50 29 64 30 83 31 48 32 49 33 63 35
REMARK SMILES IDX 84 36 51 37 35 38 36 39 44 40 37 41 39 42 45 43 38 44 40 45
REMARK SMILES IDX 41 46 42 47 43 48 67 49 68 50 76 51 69 52 71 53 77 54 70 55
REMARK SMILES IDX 72 56 73 57 74 58 75 59 52 60 53 61 61 62 54 63 56 64 62 65
REMARK SMILES IDX 55 66 57 67 58 68 59 69 60 70 5 71 6 72 7 73 8 74 9 76 10 77
REMARK SMILES IDX 21 78 25 79 22 80 24 81 23 82 11 85 12 86 13 87 20 88 14 89
REMARK SMILES IDX 19 90 15 91 18 92 16 93 17 94
REMARK H PARENT 3 5 82 23 50 34 7 75 24 83 24 84
REMARK Flexibility Score: inf
ROOT
ATOM      1  C   UNL A   1      38.908  20.190  25.745  1.00  0.00     0.118 C 
ENDROOT
BRANCH   1   2
ATOM      2  N   UNL A   1      39.993  19.226  25.886  1.00  0.00    -0.352 N 
ATOM      3  O   UNL A   1      42.137  18.544  25.904  1.00  0.00    -0.269 OA
ATOM      4  C   UNL A   1      41.334  19.459  26.061  1.00  0.00     0.251 C 
ATOM      5  H   UNL A   1      39.727  18.279  25.852  1.00  0.00     0.163 HD
BRANCH   4   6
ATOM      6  C   UNL A   1      41.791  20.816  26.425  1.00  0.00     0.039 A 
ATOM      7  C   UNL A   1      41.867  21.813  25.446  1.00  0.00     0.014 A 
ATOM      8  C   UNL A   1      42.131  21.100  27.749  1.00  0.00     0.014 A 
ATOM      9  C   UNL A   1      42.411  23.048  25.759  1.00  0.00     0.010 A 
ATOM     10  C   UNL A   1      42.581  22.380  28.083  1.00  0.00     0.010 A 
ATOM     11  C   UNL A   1      42.736  23.358  27.088  1.00  0.00    -0.014 A 
BRANCH  11  12
ATOM     12  C   UNL A   1      43.084  24.756  27.432  1.00  0.00     0.031 A 
ATOM     13  C   UNL A   1      42.089  25.680  28.069  1.00  0.00     0.074 A 
ATOM     14  C   UNL A   1      44.323  25.185  27.120  1.00  0.00     0.049 A 
ATOM     15  N   UNL A   1      42.243  26.934  28.406  1.00  0.00    -0.248 NA
ATOM     16  C   UNL A   1      40.750  25.142  28.359  1.00  0.00     0.031 C 
ATOM     17  C   UNL A   1      45.347  24.377  26.447  1.00  0.00     0.029 A 
ATOM     18  N   UNL A   1      44.931  26.399  27.305  1.00  0.00    -0.354 N 
ATOM     19  C   UNL A   1      41.014  27.351  28.899  1.00  0.00     0.074 A 
ATOM     20  C   UNL A   1      40.123  26.213  28.831  1.00  0.00     0.031 C 
ATOM     21  C   UNL A   1      46.453  25.113  26.281  1.00  0.00     0.029 A 
ATOM     22  C   UNL A   1      46.200  26.458  26.776  1.00  0.00     0.049 A 
ATOM     23  H   UNL A   1      44.503  27.154  27.769  1.00  0.00     0.167 HD
ATOM     24  C   UNL A   1      40.671  28.573  29.371  1.00  0.00     0.034 A 
ATOM     25  C   UNL A   1      47.054  27.492  26.662  1.00  0.00     0.034 A 
ATOM     26  C   UNL A   1      41.586  29.680  29.478  1.00  0.00     0.049 A 
ATOM     27  C   UNL A   1      46.645  28.824  27.213  1.00  0.00     0.074 A 
ATOM     28  C   UNL A   1      41.369  30.918  30.058  1.00  0.00     0.029 A 
ATOM     29  N   UNL A   1      42.878  29.692  28.976  1.00  0.00    -0.354 N 
ATOM     30  N   UNL A   1      45.539  29.150  27.839  1.00  0.00    -0.248 NA
ATOM     31  C   UNL A   1      47.601  29.928  27.058  1.00  0.00     0.031 C 
ATOM     32  C   UNL A   1      42.521  31.691  29.878  1.00  0.00     0.029 A 
ATOM     33  C   UNL A   1      43.460  30.929  29.201  1.00  0.00     0.049 A 
ATOM     34  H   UNL A   1      43.317  28.935  28.526  1.00  0.00     0.167 HD
ATOM     35  C   UNL A   1      45.668  30.493  28.160  1.00  0.00     0.074 A 
ATOM     36  C   UNL A   1      46.976  30.911  27.694  1.00  0.00     0.031 C 
ATOM     37  C   UNL A   1      44.776  31.315  28.762  1.00  0.00     0.034 A 
BRANCH  24  38
ATOM     38  C   UNL A   1      39.259  28.791  29.844  1.00  0.00     0.023 A 
ATOM     39  C   UNL A   1      38.901  28.426  31.157  1.00  0.00     0.012 A 
ATOM     40  C   UNL A   1      38.327  29.466  29.032  1.00  0.00     0.148 A 
ATOM     41  C   UNL A   1      37.630  28.722  31.652  1.00  0.00     0.002 A 
ATOM     42  C   UNL A   1      37.075  29.787  29.543  1.00  0.00     0.091 A 
ATOM     43  F   UNL A   1      38.685  29.787  27.781  1.00  0.00    -0.205 F 
ATOM     44  C   UNL A   1      36.724  29.412  30.851  1.00  0.00     0.022 A 
BRANCH  42  45
ATOM     45  S   UNL A   1      35.861  30.735  28.618  1.00  0.00     0.127 S 
ATOM     46  O   UNL A   1      35.173  29.682  27.871  1.00  0.00    -0.237 OA
ATOM     47  O   UNL A   1      35.066  31.343  29.686  1.00  0.00    -0.237 OA
ATOM     48  O   UNL A   1      36.618  31.679  27.808  1.00  0.00    -0.744 OA
ENDBRANCH  42  45
ENDBRANCH  24  38
BRANCH  25  49
ATOM     49  C   UNL A   1      48.374  27.289  26.003  1.00  0.00     0.023 A 
ATOM     50  C   UNL A   1      49.472  26.849  26.763  1.00  0.00     0.012 A 
ATOM     51  C   UNL A   1      48.530  27.482  24.616  1.00  0.00     0.148 A 
ATOM     52  C   UNL A   1      50.709  26.625  26.156  1.00  0.00     0.002 A 
ATOM     53  C   UNL A   1      49.746  27.197  24.008  1.00  0.00     0.091 A 
ATOM     54  F   UNL A   1      47.478  27.923  23.909  1.00  0.00    -0.205 F 
ATOM     55  C   UNL A   1      50.843  26.785  24.778  1.00  0.00     0.022 A 
BRANCH  53  56
ATOM     56  S   UNL A   1      49.935  27.230  22.222  1.00  0.00     0.127 S 
ATOM     57  O   UNL A   1      49.746  28.647  21.926  1.00  0.00    -0.237 OA
ATOM     58  O   UNL A   1      51.303  26.741  22.044  1.00  0.00    -0.237 OA
ATOM     59  O   UNL A   1      48.912  26.324  21.716  1.00  0.00    -0.744 OA
ENDBRANCH  53  56
ENDBRANCH  25  49
BRANCH  37  60
ATOM     60  C   UNL A   1      45.178  32.752  28.944  1.00  0.00     0.023 A 
ATOM     61  C   UNL A   1      45.875  33.129  30.108  1.00  0.00     0.012 A 
ATOM     62  C   UNL A   1      44.929  33.707  27.940  1.00  0.00     0.148 A 
ATOM     63  C   UNL A   1      46.299  34.445  30.283  1.00  0.00     0.002 A 
ATOM     64  C   UNL A   1      45.395  35.007  28.102  1.00  0.00     0.091 A 
ATOM     65  F   UNL A   1      44.248  33.328  26.851  1.00  0.00    -0.205 F 
ATOM     66  C   UNL A   1      46.070  35.379  29.276  1.00  0.00     0.022 A 
BRANCH  64  67
ATOM     67  S   UNL A   1      45.224  36.256  26.824  1.00  0.00     0.127 S 
ATOM     68  O   UNL A   1      45.806  37.429  27.474  1.00  0.00    -0.237 OA
ATOM     69  O   UNL A   1      46.028  35.700  25.736  1.00  0.00    -0.237 OA
ATOM     70  O   UNL A   1      43.798  36.346  26.538  1.00  0.00    -0.744 OA
ENDBRANCH  64  67
ENDBRANCH  37  60
ENDBRANCH  11  12
ENDBRANCH   4   6
ENDBRANCH   1   2
BRANCH   1  71
ATOM     71  C   UNL A   1      37.736  19.610  24.973  1.00  0.00     0.042 C 
BRANCH  71  72
ATOM     72  C   UNL A   1      36.496  20.478  25.068  1.00  0.00     0.117 C 
BRANCH  72  73
ATOM     73  N   UNL A   1      35.274  19.707  24.898  1.00  0.00    -0.355 N 
ATOM     74  C   UNL A   1      33.963  20.082  24.861  1.00  0.00     0.232 C 
ATOM     75  H   UNL A   1      35.420  18.740  24.791  1.00  0.00     0.163 HD
ATOM     76  O   UNL A   1      33.155  19.173  24.650  1.00  0.00    -0.274 OA
BRANCH  74  77
ATOM     77  C   UNL A   1      33.522  21.553  25.038  1.00  0.00     0.104 C 
ATOM     78  C   UNL A   1      32.034  21.695  24.609  1.00  0.00     0.029 C 
ATOM     79  C   UNL A   1      33.789  21.929  26.523  1.00  0.00     0.277 C 
ATOM     80  C   UNL A   1      31.264  22.800  25.333  1.00  0.00     0.063 C 
ATOM     81  N   UNL A   1      32.997  23.035  27.071  1.00  0.00    -0.345 N 
ATOM     82  C   UNL A   1      31.569  22.873  26.822  1.00  0.00     0.260 C 
ATOM     83  H   UNL A   1      33.150  23.079  28.079  1.00  0.00     0.346 HD
ATOM     84  H   UNL A   1      33.298  23.892  26.608  1.00  0.00     0.346 HD
BRANCH  77  85
ATOM     85  C   UNL A   1      34.437  22.396  24.082  1.00  0.00     0.080 C 
BRANCH  85  86
ATOM     86  C   UNL A   1      34.008  23.805  23.850  1.00  0.00     0.061 A 
ATOM     87  C   UNL A   1      33.494  24.374  22.704  1.00  0.00     0.116 A 
ATOM     88  N   UNL A   1      34.149  24.757  24.838  1.00  0.00    -0.234 NA
ATOM     89  N   UNL A   1      33.545  25.723  22.918  1.00  0.00    -0.307 N 
ATOM     90  C   UNL A   1      33.863  25.904  24.258  1.00  0.00     0.136 A 
ATOM     91  C   UNL A   1      33.385  26.768  22.013  1.00  0.00     0.093 A 
ATOM     92  C   UNL A   1      33.906  27.243  24.734  1.00  0.00     0.048 A 
ATOM     93  C   UNL A   1      33.499  28.033  22.451  1.00  0.00     0.018 A 
ATOM     94  C   UNL A   1      33.737  28.264  23.870  1.00  0.00     0.005 A 
ENDBRANCH  85  86
ENDBRANCH  77  85
ENDBRANCH  74  77
ENDBRANCH  72  73
ENDBRANCH  71  72
ENDBRANCH   1  71
TORSDOF 15
ENDMDL
