MODEL 1
REMARK VINA RESULT:     -13.4      0.000      0.000
REMARK SMILES CC1=Nc2c(c(C)nn2-c2ccc(F)cc2)[C@H](c2ccc(C(=O)NCCCNC(=O)c3ccc(-c4c5nc(c(-c6cccc(S(=O)(=O)[O-])c6F)c6ccc([nH]6)c(-c6cccc(S(=O)(=O)[O-])c6F)c6nc(c(-c7cccc(S(=O)(=O)[O-])c7F)c7ccc4[nH]7)C=C6)C=C5)cc3)cc2)S1
REMARK SMILES IDX 26 1 25 2 24 3 22 4 23 5 21 7 18 8 19 9 95 10 20 11 94 12
REMARK SMILES IDX 17 13 1 14 2 15 3 16 96 17 4 18 5 19 9 20 6 21 8 22 7 23
REMARK SMILES IDX 10 24 11 25 16 26 12 27 15 28 13 29 14 30 27 31 28 32 29 33
REMARK SMILES IDX 30 35 31 36 32 37 93 38 33 39 92 40 34 41 35 42 36 43 86 44
REMARK SMILES IDX 37 45 91 46 85 47 87 48 38 49 90 50 84 51 83 52 39 54 71 55
REMARK SMILES IDX 51 56 70 57 52 58 55 59 69 60 88 61 53 62 54 63 68 65 89 66
REMARK SMILES IDX 56 67 40 68 41 69 49 70 42 71 44 72 50 73 43 74 45 75 46 76
REMARK SMILES IDX 47 77 48 78 72 79 73 80 81 81 74 82 76 83 82 84 75 85 77 86
REMARK SMILES IDX 78 87 79 88 80 89 57 90 58 91 66 92 59 93 61 94 67 95 60 96
REMARK SMILES IDX 62 97 63 98 64 99 65 100
REMARK H PARENT 24 6 28 34 87 53 55 64
REMARK Flexibility Score: inf
ROOT
ATOM      1  C   UNL A   1      31.390  31.611  26.871  1.00  0.00     0.042 C 
ENDROOT
BRANCH   1   2
ATOM      2  C   UNL A   1      31.570  30.441  25.897  1.00  0.00     0.118 C 
BRANCH   2   3
ATOM      3  N   UNL A   1      30.794  30.602  24.679  1.00  0.00    -0.352 N 
ATOM      4  C   UNL A   1      30.277  29.671  23.812  1.00  0.00     0.251 C 
ATOM      5  O   UNL A   1      29.471  30.043  22.964  1.00  0.00    -0.269 OA
ATOM      6  H   UNL A   1      30.606  31.537  24.435  1.00  0.00     0.163 HD
BRANCH   4   7
ATOM      7  C   UNL A   1      30.603  28.226  23.906  1.00  0.00     0.039 A 
ATOM      8  C   UNL A   1      31.093  25.439  24.034  1.00  0.00    -0.030 A 
ATOM      9  C   UNL A   1      29.860  25.939  23.578  1.00  0.00     0.006 A 
ATOM     10  C   UNL A   1      32.084  26.366  24.393  1.00  0.00     0.006 A 
ATOM     11  C   UNL A   1      29.625  27.313  23.500  1.00  0.00     0.014 A 
ATOM     12  C   UNL A   1      31.844  27.740  24.316  1.00  0.00     0.014 A 
BRANCH   8  13
ATOM     13  C   UNL A   1      31.335  23.940  24.041  1.00  0.00     0.119 C 
ATOM     14  C   UNL A   1      32.219  22.957  27.979  1.00  0.00     0.075 C 
ATOM     15  C   UNL A   1      32.346  23.066  26.481  1.00  0.00     0.074 C 
ATOM     16  N   UNL A   1      33.543  23.111  25.991  1.00  0.00    -0.227 NA
ATOM     17  S   UNL A   1      30.830  23.123  25.594  1.00  0.00    -0.098 SA
ATOM     18  C   UNL A   1      33.692  23.334  24.664  1.00  0.00     0.161 A 
ATOM     19  C   UNL A   1      32.771  23.754  23.734  1.00  0.00     0.038 A 
ATOM     20  N   UNL A   1      34.914  23.299  24.014  1.00  0.00    -0.215 N 
ATOM     21  C   UNL A   1      33.523  23.979  22.550  1.00  0.00     0.067 A 
ATOM     22  N   UNL A   1      34.832  23.771  22.747  1.00  0.00    -0.171 NA
ATOM     23  C   UNL A   1      33.047  24.435  21.219  1.00  0.00     0.069 C 
BRANCH  20  24
ATOM     24  C   UNL A   1      36.131  22.812  24.539  1.00  0.00     0.067 A 
ATOM     25  C   UNL A   1      36.417  21.442  24.446  1.00  0.00     0.031 A 
ATOM     26  C   UNL A   1      37.013  23.689  25.178  1.00  0.00     0.031 A 
ATOM     27  C   UNL A   1      37.590  20.944  25.006  1.00  0.00     0.041 A 
ATOM     28  C   UNL A   1      38.159  23.171  25.786  1.00  0.00     0.041 A 
ATOM     29  C   UNL A   1      38.438  21.809  25.689  1.00  0.00     0.123 A 
ATOM     30  F   UNL A   1      39.541  21.317  26.268  1.00  0.00    -0.207 F 
ENDBRANCH  20  24
ENDBRANCH   8  13
ENDBRANCH   4   7
ENDBRANCH   2   3
ENDBRANCH   1   2
BRANCH   1  31
ATOM     31  C   UNL A   1      32.680  32.367  27.135  1.00  0.00     0.118 C 
BRANCH  31  32
ATOM     32  N   UNL A   1      32.436  33.748  27.566  1.00  0.00    -0.352 N 
ATOM     33  C   UNL A   1      33.067  34.463  28.563  1.00  0.00     0.251 C 
ATOM     34  H   UNL A   1      31.727  34.228  27.080  1.00  0.00     0.163 HD
ATOM     35  O   UNL A   1      32.534  35.461  29.049  1.00  0.00    -0.269 OA
BRANCH  33  36
ATOM     36  C   UNL A   1      34.384  34.014  29.034  1.00  0.00     0.039 A 
ATOM     37  C   UNL A   1      34.525  33.199  30.161  1.00  0.00     0.014 A 
ATOM     38  C   UNL A   1      35.491  34.380  28.276  1.00  0.00     0.014 A 
ATOM     39  C   UNL A   1      35.785  32.683  30.459  1.00  0.00     0.010 A 
ATOM     40  C   UNL A   1      36.672  33.711  28.447  1.00  0.00     0.010 A 
ATOM     41  C   UNL A   1      36.851  32.925  29.578  1.00  0.00    -0.014 A 
BRANCH  41  42
ATOM     42  C   UNL A   1      38.146  32.282  29.756  1.00  0.00     0.031 A 
ATOM     43  C   UNL A   1      38.206  30.887  29.251  1.00  0.00     0.074 A 
ATOM     44  C   UNL A   1      39.254  32.966  30.121  1.00  0.00     0.049 A 
ATOM     45  N   UNL A   1      38.246  29.798  29.945  1.00  0.00    -0.248 NA
ATOM     46  C   UNL A   1      38.029  30.664  27.807  1.00  0.00     0.031 C 
ATOM     47  C   UNL A   1      39.396  34.420  30.303  1.00  0.00     0.029 A 
ATOM     48  N   UNL A   1      40.533  32.526  30.262  1.00  0.00    -0.354 N 
ATOM     49  C   UNL A   1      38.379  28.773  29.012  1.00  0.00     0.074 A 
ATOM     50  C   UNL A   1      37.991  29.331  27.745  1.00  0.00     0.031 C 
ATOM     51  C   UNL A   1      40.703  34.757  30.253  1.00  0.00     0.029 A 
ATOM     52  C   UNL A   1      41.487  33.541  30.251  1.00  0.00     0.049 A 
ATOM     53  H   UNL A   1      40.763  31.574  30.362  1.00  0.00     0.167 HD
ATOM     54  C   UNL A   1      39.097  27.652  29.301  1.00  0.00     0.034 A 
ATOM     55  C   UNL A   1      42.829  33.378  30.217  1.00  0.00     0.034 A 
ATOM     56  C   UNL A   1      39.419  27.596  30.703  1.00  0.00     0.049 A 
ATOM     57  C   UNL A   1      43.099  32.016  30.723  1.00  0.00     0.074 A 
ATOM     58  C   UNL A   1      38.730  27.448  31.886  1.00  0.00     0.029 A 
ATOM     59  N   UNL A   1      40.645  28.130  31.008  1.00  0.00    -0.354 N 
ATOM     60  N   UNL A   1      42.855  31.639  31.947  1.00  0.00    -0.248 NA
ATOM     61  C   UNL A   1      43.353  30.944  29.773  1.00  0.00     0.031 C 
ATOM     62  C   UNL A   1      39.474  28.182  32.857  1.00  0.00     0.029 A 
ATOM     63  C   UNL A   1      40.614  28.709  32.246  1.00  0.00     0.049 A 
ATOM     64  H   UNL A   1      41.435  28.100  30.420  1.00  0.00     0.167 HD
ATOM     65  C   UNL A   1      42.472  30.316  31.817  1.00  0.00     0.074 A 
ATOM     66  C   UNL A   1      42.983  29.899  30.517  1.00  0.00     0.031 C 
ATOM     67  C   UNL A   1      41.506  29.789  32.622  1.00  0.00     0.034 A 
BRANCH  54  68
ATOM     68  C   UNL A   1      39.902  26.839  28.305  1.00  0.00     0.023 A 
ATOM     69  C   UNL A   1      39.785  25.430  28.377  1.00  0.00     0.012 A 
ATOM     70  C   UNL A   1      40.952  27.346  27.505  1.00  0.00     0.148 A 
ATOM     71  C   UNL A   1      40.678  24.580  27.714  1.00  0.00     0.002 A 
ATOM     72  C   UNL A   1      41.777  26.499  26.774  1.00  0.00     0.091 A 
ATOM     73  F   UNL A   1      41.266  28.642  27.555  1.00  0.00    -0.205 F 
ATOM     74  C   UNL A   1      41.666  25.113  26.897  1.00  0.00     0.022 A 
BRANCH  72  75
ATOM     75  S   UNL A   1      43.023  27.143  25.649  1.00  0.00     0.127 S 
ATOM     76  O   UNL A   1      43.845  27.944  26.551  1.00  0.00    -0.237 OA
ATOM     77  O   UNL A   1      43.651  25.913  25.165  1.00  0.00    -0.237 OA
ATOM     78  O   UNL A   1      42.282  27.874  24.629  1.00  0.00    -0.744 OA
ENDBRANCH  72  75
ENDBRANCH  54  68
BRANCH  55  79
ATOM     79  C   UNL A   1      43.899  34.179  29.582  1.00  0.00     0.023 A 
ATOM     80  C   UNL A   1      44.812  34.864  30.414  1.00  0.00     0.012 A 
ATOM     81  C   UNL A   1      44.247  33.981  28.229  1.00  0.00     0.148 A 
ATOM     82  C   UNL A   1      46.069  35.251  29.941  1.00  0.00     0.002 A 
ATOM     83  C   UNL A   1      45.503  34.365  27.766  1.00  0.00     0.091 A 
ATOM     84  F   UNL A   1      43.391  33.326  27.433  1.00  0.00    -0.205 F 
ATOM     85  C   UNL A   1      46.423  34.980  28.624  1.00  0.00     0.022 A 
BRANCH  83  86
ATOM     86  S   UNL A   1      46.059  34.005  26.095  1.00  0.00     0.127 S 
ATOM     87  O   UNL A   1      45.032  34.662  25.284  1.00  0.00    -0.237 OA
ATOM     88  O   UNL A   1      47.366  34.653  26.070  1.00  0.00    -0.237 OA
ATOM     89  O   UNL A   1      46.066  32.551  25.989  1.00  0.00    -0.744 OA
ENDBRANCH  83  86
ENDBRANCH  55  79
BRANCH  67  90
ATOM     90  C   UNL A   1      41.200  30.504  33.912  1.00  0.00     0.023 A 
ATOM     91  C   UNL A   1      42.052  30.470  35.034  1.00  0.00     0.012 A 
ATOM     92  C   UNL A   1      40.081  31.353  33.931  1.00  0.00     0.148 A 
ATOM     93  C   UNL A   1      41.784  31.260  36.156  1.00  0.00     0.002 A 
ATOM     94  C   UNL A   1      39.849  32.176  35.024  1.00  0.00     0.091 A 
ATOM     95  F   UNL A   1      39.274  31.360  32.859  1.00  0.00    -0.205 F 
ATOM     96  C   UNL A   1      40.692  32.126  36.144  1.00  0.00     0.022 A 
BRANCH  94  97
ATOM     97  S   UNL A   1      38.544  33.406  35.002  1.00  0.00     0.127 S 
ATOM     98  O   UNL A   1      37.353  32.586  34.786  1.00  0.00    -0.237 OA
ATOM     99  O   UNL A   1      38.647  33.997  36.337  1.00  0.00    -0.237 OA
ATOM    100  O   UNL A   1      38.878  34.324  33.921  1.00  0.00    -0.744 OA
ENDBRANCH  94  97
ENDBRANCH  67  90
ENDBRANCH  41  42
ENDBRANCH  33  36
ENDBRANCH  31  32
ENDBRANCH   1  31
TORSDOF 15
ENDMDL
MODEL 2
REMARK VINA RESULT:     -12.9      3.217      7.176
REMARK SMILES CC1=Nc2c(c(C)nn2-c2ccc(F)cc2)[C@H](c2ccc(C(=O)NCCCNC(=O)c3ccc(-c4c5nc(c(-c6cccc(S(=O)(=O)[O-])c6F)c6ccc([nH]6)c(-c6cccc(S(=O)(=O)[O-])c6F)c6nc(c(-c7cccc(S(=O)(=O)[O-])c7F)c7ccc4[nH]7)C=C6)C=C5)cc3)cc2)S1
REMARK SMILES IDX 26 1 25 2 24 3 22 4 23 5 21 7 18 8 19 9 95 10 20 11 94 12
REMARK SMILES IDX 17 13 1 14 2 15 3 16 96 17 4 18 5 19 9 20 6 21 8 22 7 23
REMARK SMILES IDX 10 24 11 25 16 26 12 27 15 28 13 29 14 30 27 31 28 32 29 33
REMARK SMILES IDX 30 35 31 36 32 37 93 38 33 39 92 40 34 41 35 42 36 43 86 44
REMARK SMILES IDX 37 45 91 46 85 47 87 48 38 49 90 50 84 51 83 52 39 54 71 55
REMARK SMILES IDX 51 56 70 57 52 58 55 59 69 60 88 61 53 62 54 63 68 65 89 66
REMARK SMILES IDX 56 67 40 68 41 69 49 70 42 71 44 72 50 73 43 74 45 75 46 76
REMARK SMILES IDX 47 77 48 78 72 79 73 80 81 81 74 82 76 83 82 84 75 85 77 86
REMARK SMILES IDX 78 87 79 88 80 89 57 90 58 91 66 92 59 93 61 94 67 95 60 96
REMARK SMILES IDX 62 97 63 98 64 99 65 100
REMARK H PARENT 24 6 28 34 87 53 55 64
REMARK Flexibility Score: inf
ROOT
ATOM      1  C   UNL A   1      33.134  29.838  25.280  1.00  0.00     0.042 C 
ENDROOT
BRANCH   1   2
ATOM      2  C   UNL A   1      31.629  30.074  25.110  1.00  0.00     0.118 C 
BRANCH   2   3
ATOM      3  N   UNL A   1      31.103  29.480  23.894  1.00  0.00    -0.352 N 
ATOM      4  C   UNL A   1      31.037  28.169  23.489  1.00  0.00     0.251 C 
ATOM      5  O   UNL A   1      30.352  27.892  22.508  1.00  0.00    -0.269 OA
ATOM      6  H   UNL A   1      30.730  30.125  23.250  1.00  0.00     0.163 HD
BRANCH   4   7
ATOM      7  C   UNL A   1      31.704  27.071  24.231  1.00  0.00     0.039 A 
ATOM      8  C   UNL A   1      32.892  25.002  25.759  1.00  0.00    -0.030 A 
ATOM      9  C   UNL A   1      31.851  25.788  26.286  1.00  0.00     0.006 A 
ATOM     10  C   UNL A   1      33.301  25.255  24.440  1.00  0.00     0.006 A 
ATOM     11  C   UNL A   1      31.256  26.797  25.526  1.00  0.00     0.014 A 
ATOM     12  C   UNL A   1      32.704  26.267  23.685  1.00  0.00     0.014 A 
BRANCH   8  13
ATOM     13  C   UNL A   1      33.469  23.871  26.592  1.00  0.00     0.119 C 
ATOM     14  C   UNL A   1      37.126  22.940  24.854  1.00  0.00     0.075 C 
ATOM     15  C   UNL A   1      35.736  22.770  25.413  1.00  0.00     0.074 C 
ATOM     16  N   UNL A   1      35.006  21.831  24.905  1.00  0.00    -0.227 NA
ATOM     17  S   UNL A   1      35.292  23.891  26.693  1.00  0.00    -0.098 SA
ATOM     18  C   UNL A   1      33.713  21.732  25.296  1.00  0.00     0.161 A 
ATOM     19  C   UNL A   1      32.939  22.619  26.006  1.00  0.00     0.038 A 
ATOM     20  N   UNL A   1      32.869  20.708  24.900  1.00  0.00    -0.215 N 
ATOM     21  C   UNL A   1      31.629  22.070  25.971  1.00  0.00     0.067 A 
ATOM     22  N   UNL A   1      31.580  20.949  25.238  1.00  0.00    -0.171 NA
ATOM     23  C   UNL A   1      30.383  22.599  26.582  1.00  0.00     0.069 C 
BRANCH  20  24
ATOM     24  C   UNL A   1      33.248  19.513  24.250  1.00  0.00     0.067 A 
ATOM     25  C   UNL A   1      32.467  19.036  23.186  1.00  0.00     0.031 A 
ATOM     26  C   UNL A   1      34.367  18.804  24.695  1.00  0.00     0.031 A 
ATOM     27  C   UNL A   1      32.802  17.833  22.572  1.00  0.00     0.041 A 
ATOM     28  C   UNL A   1      34.662  17.570  24.110  1.00  0.00     0.041 A 
ATOM     29  C   UNL A   1      33.883  17.101  23.054  1.00  0.00     0.123 A 
ATOM     30  F   UNL A   1      34.172  15.921  22.491  1.00  0.00    -0.207 F 
ENDBRANCH  20  24
ENDBRANCH   8  13
ENDBRANCH   4   7
ENDBRANCH   2   3
ENDBRANCH   1   2
BRANCH   1  31
ATOM     31  C   UNL A   1      33.574  29.830  26.733  1.00  0.00     0.118 C 
BRANCH  31  32
ATOM     32  N   UNL A   1      33.450  31.151  27.359  1.00  0.00    -0.352 N 
ATOM     33  C   UNL A   1      34.305  31.763  28.253  1.00  0.00     0.251 C 
ATOM     34  H   UNL A   1      32.651  31.668  27.109  1.00  0.00     0.163 HD
ATOM     35  O   UNL A   1      33.908  32.692  28.957  1.00  0.00    -0.269 OA
BRANCH  33  36
ATOM     36  C   UNL A   1      35.692  31.289  28.349  1.00  0.00     0.039 A 
ATOM     37  C   UNL A   1      36.759  32.169  28.544  1.00  0.00     0.014 A 
ATOM     38  C   UNL A   1      35.900  29.915  28.304  1.00  0.00     0.014 A 
ATOM     39  C   UNL A   1      38.026  31.640  28.783  1.00  0.00     0.010 A 
ATOM     40  C   UNL A   1      37.089  29.402  28.742  1.00  0.00     0.010 A 
ATOM     41  C   UNL A   1      38.176  30.250  28.906  1.00  0.00    -0.014 A 
BRANCH  41  42
ATOM     42  C   UNL A   1      39.443  29.655  29.311  1.00  0.00     0.031 A 
ATOM     43  C   UNL A   1      39.749  29.803  30.757  1.00  0.00     0.074 A 
ATOM     44  C   UNL A   1      40.154  28.836  28.503  1.00  0.00     0.049 A 
ATOM     45  N   UNL A   1      40.630  30.576  31.300  1.00  0.00    -0.248 NA
ATOM     46  C   UNL A   1      38.859  29.144  31.726  1.00  0.00     0.031 C 
ATOM     47  C   UNL A   1      39.772  28.327  27.175  1.00  0.00     0.029 A 
ATOM     48  N   UNL A   1      41.305  28.158  28.757  1.00  0.00    -0.354 N 
ATOM     49  C   UNL A   1      40.583  30.285  32.662  1.00  0.00     0.074 A 
ATOM     50  C   UNL A   1      39.335  29.606  32.884  1.00  0.00     0.031 C 
ATOM     51  C   UNL A   1      40.514  27.240  26.875  1.00  0.00     0.029 A 
ATOM     52  C   UNL A   1      41.551  27.107  27.876  1.00  0.00     0.049 A 
ATOM     53  H   UNL A   1      41.910  28.390  29.498  1.00  0.00     0.167 HD
ATOM     54  C   UNL A   1      41.708  30.339  33.428  1.00  0.00     0.034 A 
ATOM     55  C   UNL A   1      42.530  26.180  27.990  1.00  0.00     0.034 A 
ATOM     56  C   UNL A   1      42.787  30.968  32.712  1.00  0.00     0.049 A 
ATOM     57  C   UNL A   1      43.569  26.772  28.857  1.00  0.00     0.074 A 
ATOM     58  C   UNL A   1      43.070  32.224  32.224  1.00  0.00     0.029 A 
ATOM     59  N   UNL A   1      43.605  30.081  32.059  1.00  0.00    -0.354 N 
ATOM     60  N   UNL A   1      44.279  27.815  28.526  1.00  0.00    -0.248 NA
ATOM     61  C   UNL A   1      43.615  26.400  30.262  1.00  0.00     0.031 C 
ATOM     62  C   UNL A   1      43.867  32.012  31.060  1.00  0.00     0.029 A 
ATOM     63  C   UNL A   1      44.084  30.641  30.907  1.00  0.00     0.049 A 
ATOM     64  H   UNL A   1      43.817  29.173  32.375  1.00  0.00     0.167 HD
ATOM     65  C   UNL A   1      44.470  28.480  29.723  1.00  0.00     0.074 A 
ATOM     66  C   UNL A   1      44.223  27.482  30.756  1.00  0.00     0.031 C 
ATOM     67  C   UNL A   1      44.490  29.843  29.766  1.00  0.00     0.034 A 
BRANCH  54  68
ATOM     68  C   UNL A   1      42.005  29.452  34.622  1.00  0.00     0.023 A 
ATOM     69  C   UNL A   1      42.659  30.052  35.725  1.00  0.00     0.012 A 
ATOM     70  C   UNL A   1      41.935  28.041  34.621  1.00  0.00     0.148 A 
ATOM     71  C   UNL A   1      43.232  29.289  36.749  1.00  0.00     0.002 A 
ATOM     72  C   UNL A   1      42.422  27.291  35.686  1.00  0.00     0.091 A 
ATOM     73  F   UNL A   1      41.534  27.391  33.526  1.00  0.00    -0.205 F 
ATOM     74  C   UNL A   1      43.100  27.907  36.740  1.00  0.00     0.022 A 
BRANCH  72  75
ATOM     75  S   UNL A   1      42.212  25.507  35.753  1.00  0.00     0.127 S 
ATOM     76  O   UNL A   1      42.724  25.201  37.085  1.00  0.00    -0.237 OA
ATOM     77  O   UNL A   1      40.763  25.372  35.599  1.00  0.00    -0.237 OA
ATOM     78  O   UNL A   1      42.980  24.985  34.630  1.00  0.00    -0.744 OA
ENDBRANCH  72  75
ENDBRANCH  54  68
BRANCH  55  79
ATOM     79  C   UNL A   1      42.573  24.748  27.620  1.00  0.00     0.023 A 
ATOM     80  C   UNL A   1      41.377  24.000  27.679  1.00  0.00     0.012 A 
ATOM     81  C   UNL A   1      43.653  24.224  26.878  1.00  0.00     0.148 A 
ATOM     82  C   UNL A   1      41.227  22.819  26.945  1.00  0.00     0.002 A 
ATOM     83  C   UNL A   1      43.495  23.051  26.146  1.00  0.00     0.091 A 
ATOM     84  F   UNL A   1      44.790  24.929  26.809  1.00  0.00    -0.205 F 
ATOM     85  C   UNL A   1      42.278  22.358  26.161  1.00  0.00     0.022 A 
BRANCH  83  86
ATOM     86  S   UNL A   1      44.784  22.414  25.065  1.00  0.00     0.127 S 
ATOM     87  O   UNL A   1      45.925  22.315  25.978  1.00  0.00    -0.237 OA
ATOM     88  O   UNL A   1      44.219  21.134  24.651  1.00  0.00    -0.237 OA
ATOM     89  O   UNL A   1      44.942  23.412  24.015  1.00  0.00    -0.744 OA
ENDBRANCH  83  86
ENDBRANCH  55  79
BRANCH  67  90
ATOM     90  C   UNL A   1      44.754  30.582  28.481  1.00  0.00     0.023 A 
ATOM     91  C   UNL A   1      43.736  30.952  27.580  1.00  0.00     0.012 A 
ATOM     92  C   UNL A   1      46.064  31.039  28.254  1.00  0.00     0.148 A 
ATOM     93  C   UNL A   1      44.023  31.752  26.470  1.00  0.00     0.002 A 
ATOM     94  C   UNL A   1      46.334  31.877  27.183  1.00  0.00     0.091 A 
ATOM     95  F   UNL A   1      47.022  30.663  29.115  1.00  0.00    -0.205 F 
ATOM     96  C   UNL A   1      45.318  32.230  26.281  1.00  0.00     0.022 A 
BRANCH  94  97
ATOM     97  S   UNL A   1      47.948  32.631  26.974  1.00  0.00     0.127 S 
ATOM     98  O   UNL A   1      47.707  33.576  25.885  1.00  0.00    -0.237 OA
ATOM     99  O   UNL A   1      48.177  33.248  28.281  1.00  0.00    -0.237 OA
ATOM    100  O   UNL A   1      48.863  31.539  26.666  1.00  0.00    -0.744 OA
ENDBRANCH  94  97
ENDBRANCH  67  90
ENDBRANCH  41  42
ENDBRANCH  33  36
ENDBRANCH  31  32
ENDBRANCH   1  31
TORSDOF 15
ENDMDL
MODEL 3
REMARK VINA RESULT:     -12.5      3.316      7.174
REMARK SMILES CC1=Nc2c(c(C)nn2-c2ccc(F)cc2)[C@H](c2ccc(C(=O)NCCCNC(=O)c3ccc(-c4c5nc(c(-c6cccc(S(=O)(=O)[O-])c6F)c6ccc([nH]6)c(-c6cccc(S(=O)(=O)[O-])c6F)c6nc(c(-c7cccc(S(=O)(=O)[O-])c7F)c7ccc4[nH]7)C=C6)C=C5)cc3)cc2)S1
REMARK SMILES IDX 26 1 25 2 24 3 22 4 23 5 21 7 18 8 19 9 95 10 20 11 94 12
REMARK SMILES IDX 17 13 1 14 2 15 3 16 96 17 4 18 5 19 9 20 6 21 8 22 7 23
REMARK SMILES IDX 10 24 11 25 16 26 12 27 15 28 13 29 14 30 27 31 28 32 29 33
REMARK SMILES IDX 30 35 31 36 32 37 93 38 33 39 92 40 34 41 35 42 36 43 86 44
REMARK SMILES IDX 37 45 91 46 85 47 87 48 38 49 90 50 84 51 83 52 39 54 71 55
REMARK SMILES IDX 51 56 70 57 52 58 55 59 69 60 88 61 53 62 54 63 68 65 89 66
REMARK SMILES IDX 56 67 40 68 41 69 49 70 42 71 44 72 50 73 43 74 45 75 46 76
REMARK SMILES IDX 47 77 48 78 72 79 73 80 81 81 74 82 76 83 82 84 75 85 77 86
REMARK SMILES IDX 78 87 79 88 80 89 57 90 58 91 66 92 59 93 61 94 67 95 60 96
REMARK SMILES IDX 62 97 63 98 64 99 65 100
REMARK H PARENT 24 6 28 34 87 53 55 64
REMARK Flexibility Score: inf
ROOT
ATOM      1  C   UNL A   1      33.318  29.691  25.870  1.00  0.00     0.042 C 
ENDROOT
BRANCH   1   2
ATOM      2  C   UNL A   1      31.799  29.892  25.913  1.00  0.00     0.118 C 
BRANCH   2   3
ATOM      3  N   UNL A   1      31.224  30.094  24.595  1.00  0.00    -0.352 N 
ATOM      4  C   UNL A   1      30.808  29.191  23.647  1.00  0.00     0.251 C 
ATOM      5  O   UNL A   1      30.155  29.602  22.691  1.00  0.00    -0.269 OA
ATOM      6  H   UNL A   1      31.112  31.037  24.336  1.00  0.00     0.163 HD
BRANCH   4   7
ATOM      7  C   UNL A   1      31.058  27.733  23.770  1.00  0.00     0.039 A 
ATOM      8  C   UNL A   1      31.393  24.931  24.007  1.00  0.00    -0.030 A 
ATOM      9  C   UNL A   1      30.111  25.507  23.959  1.00  0.00     0.006 A 
ATOM     10  C   UNL A   1      32.500  25.786  23.901  1.00  0.00     0.006 A 
ATOM     11  C   UNL A   1      29.946  26.887  23.827  1.00  0.00     0.014 A 
ATOM     12  C   UNL A   1      32.332  27.167  23.771  1.00  0.00     0.014 A 
BRANCH   8  13
ATOM     13  C   UNL A   1      31.530  23.420  24.084  1.00  0.00     0.119 C 
ATOM     14  C   UNL A   1      32.360  22.565  28.064  1.00  0.00     0.075 C 
ATOM     15  C   UNL A   1      32.488  22.594  26.563  1.00  0.00     0.074 C 
ATOM     16  N   UNL A   1      33.683  22.533  26.070  1.00  0.00    -0.227 NA
ATOM     17  S   UNL A   1      30.976  22.714  25.674  1.00  0.00    -0.098 SA
ATOM     18  C   UNL A   1      33.843  22.683  24.734  1.00  0.00     0.161 A 
ATOM     19  C   UNL A   1      32.949  23.121  23.786  1.00  0.00     0.038 A 
ATOM     20  N   UNL A   1      35.057  22.533  24.085  1.00  0.00    -0.215 N 
ATOM     21  C   UNL A   1      33.710  23.238  22.592  1.00  0.00     0.067 A 
ATOM     22  N   UNL A   1      35.002  22.949  22.798  1.00  0.00    -0.171 NA
ATOM     23  C   UNL A   1      33.262  23.662  21.242  1.00  0.00     0.069 C 
BRANCH  20  24
ATOM     24  C   UNL A   1      36.239  21.988  24.633  1.00  0.00     0.067 A 
ATOM     25  C   UNL A   1      37.206  22.851  25.170  1.00  0.00     0.031 A 
ATOM     26  C   UNL A   1      36.448  20.606  24.599  1.00  0.00     0.031 A 
ATOM     27  C   UNL A   1      38.396  22.328  25.665  1.00  0.00     0.041 A 
ATOM     28  C   UNL A   1      37.669  20.096  25.046  1.00  0.00     0.041 A 
ATOM     29  C   UNL A   1      38.625  20.959  25.579  1.00  0.00     0.123 A 
ATOM     30  F   UNL A   1      39.792  20.465  26.013  1.00  0.00    -0.207 F 
ENDBRANCH  20  24
ENDBRANCH   8  13
ENDBRANCH   4   7
ENDBRANCH   2   3
ENDBRANCH   1   2
BRANCH   1  31
ATOM     31  C   UNL A   1      33.928  29.475  27.244  1.00  0.00     0.118 C 
BRANCH  31  32
ATOM     32  N   UNL A   1      34.079  30.731  27.988  1.00  0.00    -0.352 N 
ATOM     33  C   UNL A   1      35.037  31.066  28.923  1.00  0.00     0.251 C 
ATOM     34  H   UNL A   1      33.409  31.425  27.795  1.00  0.00     0.163 HD
ATOM     35  O   UNL A   1      34.840  31.990  29.713  1.00  0.00    -0.269 OA
BRANCH  33  36
ATOM     36  C   UNL A   1      36.292  30.304  28.960  1.00  0.00     0.039 A 
ATOM     37  C   UNL A   1      37.282  30.466  27.987  1.00  0.00     0.014 A 
ATOM     38  C   UNL A   1      36.490  29.454  30.043  1.00  0.00     0.014 A 
ATOM     39  C   UNL A   1      38.508  29.831  28.169  1.00  0.00     0.010 A 
ATOM     40  C   UNL A   1      37.752  29.006  30.322  1.00  0.00     0.010 A 
ATOM     41  C   UNL A   1      38.743  29.120  29.356  1.00  0.00    -0.014 A 
BRANCH  41  42
ATOM     42  C   UNL A   1      40.056  28.572  29.668  1.00  0.00     0.031 A 
ATOM     43  C   UNL A   1      40.433  28.671  31.101  1.00  0.00     0.074 A 
ATOM     44  C   UNL A   1      40.761  27.827  28.786  1.00  0.00     0.049 A 
ATOM     45  N   UNL A   1      41.303  29.463  31.634  1.00  0.00    -0.248 NA
ATOM     46  C   UNL A   1      39.628  27.926  32.082  1.00  0.00     0.031 C 
ATOM     47  C   UNL A   1      40.333  27.359  27.457  1.00  0.00     0.029 A 
ATOM     48  N   UNL A   1      41.955  27.197  28.949  1.00  0.00    -0.354 N 
ATOM     49  C   UNL A   1      41.343  29.109  32.981  1.00  0.00     0.074 A 
ATOM     50  C   UNL A   1      40.143  28.359  33.235  1.00  0.00     0.031 C 
ATOM     51  C   UNL A   1      41.110  26.325  27.069  1.00  0.00     0.029 A 
ATOM     52  C   UNL A   1      42.204  26.200  28.008  1.00  0.00     0.049 A 
ATOM     53  H   UNL A   1      42.587  27.425  29.668  1.00  0.00     0.167 HD
ATOM     54  C   UNL A   1      42.504  29.186  33.691  1.00  0.00     0.034 A 
ATOM     55  C   UNL A   1      43.230  25.319  28.027  1.00  0.00     0.034 A 
ATOM     56  C   UNL A   1      43.512  29.899  32.950  1.00  0.00     0.049 A 
ATOM     57  C   UNL A   1      44.285  25.924  28.867  1.00  0.00     0.074 A 
ATOM     58  C   UNL A   1      43.708  31.188  32.508  1.00  0.00     0.029 A 
ATOM     59  N   UNL A   1      44.335  29.084  32.215  1.00  0.00    -0.354 N 
ATOM     60  N   UNL A   1      44.926  27.014  28.549  1.00  0.00    -0.248 NA
ATOM     61  C   UNL A   1      44.425  25.492  30.249  1.00  0.00     0.031 C 
ATOM     62  C   UNL A   1      44.451  31.069  31.296  1.00  0.00     0.029 A 
ATOM     63  C   UNL A   1      44.724  29.718  31.068  1.00  0.00     0.049 A 
ATOM     64  H   UNL A   1      44.607  28.175  32.476  1.00  0.00     0.167 HD
ATOM     65  C   UNL A   1      45.149  27.634  29.765  1.00  0.00     0.074 A 
ATOM     66  C   UNL A   1      45.005  26.580  30.761  1.00  0.00     0.031 C 
ATOM     67  C   UNL A   1      45.106  28.993  29.871  1.00  0.00     0.034 A 
BRANCH  54  68
ATOM     68  C   UNL A   1      42.907  28.263  34.825  1.00  0.00     0.023 A 
ATOM     69  C   UNL A   1      43.375  28.869  36.015  1.00  0.00     0.012 A 
ATOM     70  C   UNL A   1      43.113  26.870  34.702  1.00  0.00     0.148 A 
ATOM     71  C   UNL A   1      44.032  28.135  37.010  1.00  0.00     0.002 A 
ATOM     72  C   UNL A   1      43.682  26.129  35.733  1.00  0.00     0.091 A 
ATOM     73  F   UNL A   1      42.902  26.262  33.532  1.00  0.00    -0.205 F 
ATOM     74  C   UNL A   1      44.172  26.760  36.877  1.00  0.00     0.022 A 
BRANCH  72  75
ATOM     75  S   UNL A   1      43.819  24.339  35.637  1.00  0.00     0.127 S 
ATOM     76  O   UNL A   1      44.770  24.176  34.542  1.00  0.00    -0.237 OA
ATOM     77  O   UNL A   1      44.339  24.010  36.965  1.00  0.00    -0.237 OA
ATOM     78  O   UNL A   1      42.465  23.860  35.393  1.00  0.00    -0.744 OA
ENDBRANCH  72  75
ENDBRANCH  54  68
BRANCH  55  79
ATOM     79  C   UNL A   1      43.322  23.909  27.589  1.00  0.00     0.023 A 
ATOM     80  C   UNL A   1      42.257  23.035  27.898  1.00  0.00     0.012 A 
ATOM     81  C   UNL A   1      44.234  23.521  26.584  1.00  0.00     0.148 A 
ATOM     82  C   UNL A   1      42.048  21.863  27.167  1.00  0.00     0.002 A 
ATOM     83  C   UNL A   1      44.017  22.354  25.855  1.00  0.00     0.091 A 
ATOM     84  F   UNL A   1      45.244  24.345  26.277  1.00  0.00    -0.205 F 
ATOM     85  C   UNL A   1      42.914  21.535  26.130  1.00  0.00     0.022 A 
BRANCH  83  86
ATOM     86  S   UNL A   1      45.057  21.885  24.466  1.00  0.00     0.127 S 
ATOM     87  O   UNL A   1      44.501  20.581  24.097  1.00  0.00    -0.237 OA
ATOM     88  O   UNL A   1      44.784  22.957  23.514  1.00  0.00    -0.237 OA
ATOM     89  O   UNL A   1      46.414  21.830  24.994  1.00  0.00    -0.744 OA
ENDBRANCH  83  86
ENDBRANCH  55  79
BRANCH  67  90
ATOM     90  C   UNL A   1      45.265  29.801  28.610  1.00  0.00     0.023 A 
ATOM     91  C   UNL A   1      44.181  30.176  27.792  1.00  0.00     0.012 A 
ATOM     92  C   UNL A   1      46.542  30.314  28.327  1.00  0.00     0.148 A 
ATOM     93  C   UNL A   1      44.372  31.037  26.707  1.00  0.00     0.002 A 
ATOM     94  C   UNL A   1      46.718  31.211  27.283  1.00  0.00     0.091 A 
ATOM     95  F   UNL A   1      47.564  29.932  29.108  1.00  0.00    -0.205 F 
ATOM     96  C   UNL A   1      45.637  31.569  26.463  1.00  0.00     0.022 A 
BRANCH  94  97
ATOM     97  S   UNL A   1      48.291  32.030  27.014  1.00  0.00     0.127 S 
ATOM     98  O   UNL A   1      48.593  32.557  28.344  1.00  0.00    -0.237 OA
ATOM     99  O   UNL A   1      49.150  30.926  26.583  1.00  0.00    -0.237 OA
ATOM    100  O   UNL A   1      48.049  33.031  25.983  1.00  0.00    -0.744 OA
ENDBRANCH  94  97
ENDBRANCH  67  90
ENDBRANCH  41  42
ENDBRANCH  33  36
ENDBRANCH  31  32
ENDBRANCH   1  31
TORSDOF 15
ENDMDL
