MODEL 1
REMARK VINA RESULT:     -13.1      0.000      0.000
REMARK SMILES CC(/C=C1\SC(=S)N(CC(=O)NCC(=O)NCCCNC(=O)c2ccc(-c3c4nc(c(-c5cccc(S(=O)(=O)[O-])c5F)c5ccc([nH]5)c(-c5cccc(S(=O)(=O)[O-])c5F)c5nc(c(-c6cccc(S(=O)(=O)[O-])c6F)c6ccc3[nH]6)C=C5)C=C4)cc2)C1=O)=C\c1ccccc1
REMARK SMILES IDX 17 1 16 2 14 3 15 4 13 6 12 7 10 8 11 9 9 11 8 12 3 13 4 14
REMARK SMILES IDX 5 15 86 16 6 17 87 18 7 19 2 20 1 21 88 22 89 23 90 24 94 25
REMARK SMILES IDX 91 26 93 27 92 28 18 29 19 30 20 31 21 32 22 34 23 35 24 36
REMARK SMILES IDX 85 37 25 38 84 39 26 40 27 41 28 42 78 43 29 44 83 45 77 46
REMARK SMILES IDX 79 47 30 48 82 49 76 50 75 51 31 53 63 54 43 55 62 56 44 57
REMARK SMILES IDX 47 58 61 59 80 60 45 61 46 62 60 64 81 65 48 66 32 67 33 68
REMARK SMILES IDX 41 69 34 70 36 71 42 72 35 73 37 74 38 75 39 76 40 77 64 78
REMARK SMILES IDX 65 79 73 80 66 81 68 82 74 83 67 84 69 85 70 86 71 87 72 88
REMARK SMILES IDX 49 89 50 90 58 91 51 92 53 93 59 94 52 95 54 96 55 97 56 98
REMARK SMILES IDX 57 99
REMARK H PARENT 16 5 12 10 20 33 79 52 47 63
REMARK Flexibility Score: inf
ROOT
ATOM      1  C   UNL A   1      31.017  30.058  24.855  1.00  0.00     0.117 C 
ENDROOT
BRANCH   1   2
ATOM      2  N   UNL A   1      30.177  30.174  23.689  1.00  0.00    -0.355 N 
ATOM      3  C   UNL A   1      29.966  29.230  22.722  1.00  0.00     0.239 C 
ATOM      4  O   UNL A   1      28.974  29.346  22.002  1.00  0.00    -0.273 OA
ATOM      5  H   UNL A   1      29.701  31.029  23.576  1.00  0.00     0.163 HD
BRANCH   3   6
ATOM      6  C   UNL A   1      30.844  27.968  22.673  1.00  0.00     0.216 C 
BRANCH   6   7
ATOM      7  N   UNL A   1      32.183  28.203  22.159  1.00  0.00    -0.345 N 
ATOM      8  C   UNL A   1      33.421  27.882  22.619  1.00  0.00     0.240 C 
ATOM      9  O   UNL A   1      34.345  28.038  21.814  1.00  0.00    -0.273 OA
ATOM     10  H   UNL A   1      32.197  28.694  21.306  1.00  0.00     0.164 HD
BRANCH   8  11
ATOM     11  C   UNL A   1      33.694  27.184  23.965  1.00  0.00     0.227 C 
BRANCH  11  12
ATOM     12  N   UNL A   1      33.135  25.841  24.170  1.00  0.00    -0.283 N 
ATOM     13  C   UNL A   1      33.309  22.371  23.141  1.00  0.00     0.024 C 
ATOM     14  C   UNL A   1      32.936  23.523  23.718  1.00  0.00     0.080 C 
ATOM     15  S   UNL A   1      31.877  23.765  25.042  1.00  0.00    -0.054 SA
ATOM     16  C   UNL A   1      33.538  24.829  23.313  1.00  0.00     0.266 C 
ATOM     17  C   UNL A   1      32.136  25.508  25.056  1.00  0.00     0.148 C 
ATOM     18  O   UNL A   1      34.331  24.952  22.390  1.00  0.00    -0.268 OA
ATOM     19  S   UNL A   1      31.244  26.521  26.038  1.00  0.00    -0.052 S 
BRANCH  13  20
ATOM     20  C   UNL A   1      32.947  20.988  23.461  1.00  0.00    -0.049 C 
ATOM     21  C   UNL A   1      31.982  20.302  22.540  1.00  0.00     0.044 C 
ATOM     22  C   UNL A   1      33.585  20.375  24.482  1.00  0.00     0.011 C 
BRANCH  22  23
ATOM     23  C   UNL A   1      33.653  18.949  24.858  1.00  0.00    -0.025 A 
ATOM     24  C   UNL A   1      34.638  18.137  24.274  1.00  0.00     0.008 A 
ATOM     25  C   UNL A   1      32.648  18.330  25.612  1.00  0.00     0.008 A 
ATOM     26  C   UNL A   1      34.641  16.752  24.476  1.00  0.00     0.001 A 
ATOM     27  C   UNL A   1      32.656  16.948  25.824  1.00  0.00     0.001 A 
ATOM     28  C   UNL A   1      33.654  16.159  25.258  1.00  0.00     0.000 A 
ENDBRANCH  22  23
ENDBRANCH  13  20
ENDBRANCH  11  12
ENDBRANCH   8  11
ENDBRANCH   6   7
ENDBRANCH   3   6
ENDBRANCH   1   2
BRANCH   1  29
ATOM     29  C   UNL A   1      30.988  31.277  25.769  1.00  0.00     0.042 C 
BRANCH  29  30
ATOM     30  C   UNL A   1      32.240  31.372  26.632  1.00  0.00     0.118 C 
BRANCH  30  31
ATOM     31  N   UNL A   1      32.476  32.735  27.093  1.00  0.00    -0.352 N 
ATOM     32  C   UNL A   1      33.496  33.287  27.821  1.00  0.00     0.251 C 
ATOM     33  H   UNL A   1      31.774  33.375  26.834  1.00  0.00     0.163 HD
ATOM     34  O   UNL A   1      33.395  34.447  28.214  1.00  0.00    -0.269 OA
BRANCH  32  35
ATOM     35  C   UNL A   1      34.678  32.508  28.199  1.00  0.00     0.039 A 
ATOM     36  C   UNL A   1      35.909  33.174  28.188  1.00  0.00     0.014 A 
ATOM     37  C   UNL A   1      34.591  31.177  28.598  1.00  0.00     0.014 A 
ATOM     38  C   UNL A   1      37.035  32.540  28.687  1.00  0.00     0.010 A 
ATOM     39  C   UNL A   1      35.687  30.581  29.193  1.00  0.00     0.010 A 
ATOM     40  C   UNL A   1      36.906  31.268  29.256  1.00  0.00    -0.014 A 
BRANCH  40  41
ATOM     41  C   UNL A   1      38.028  30.653  29.983  1.00  0.00     0.031 A 
ATOM     42  C   UNL A   1      38.319  31.086  31.384  1.00  0.00     0.074 A 
ATOM     43  C   UNL A   1      38.826  29.804  29.308  1.00  0.00     0.049 A 
ATOM     44  N   UNL A   1      39.317  30.754  32.153  1.00  0.00    -0.248 NA
ATOM     45  C   UNL A   1      37.387  32.055  31.990  1.00  0.00     0.031 C 
ATOM     46  C   UNL A   1      38.656  29.413  27.904  1.00  0.00     0.029 A 
ATOM     47  N   UNL A   1      39.954  29.136  29.699  1.00  0.00    -0.354 N 
ATOM     48  C   UNL A   1      39.163  31.503  33.311  1.00  0.00     0.074 A 
ATOM     49  C   UNL A   1      37.995  32.336  33.133  1.00  0.00     0.031 C 
ATOM     50  C   UNL A   1      39.633  28.561  27.558  1.00  0.00     0.029 A 
ATOM     51  C   UNL A   1      40.516  28.375  28.700  1.00  0.00     0.049 A 
ATOM     52  H   UNL A   1      40.327  29.193  30.608  1.00  0.00     0.167 HD
ATOM     53  C   UNL A   1      39.916  31.468  34.433  1.00  0.00     0.034 A 
ATOM     54  C   UNL A   1      41.625  27.615  28.717  1.00  0.00     0.034 A 
ATOM     55  C   UNL A   1      41.040  30.588  34.591  1.00  0.00     0.049 A 
ATOM     56  C   UNL A   1      42.389  27.530  30.007  1.00  0.00     0.074 A 
ATOM     57  C   UNL A   1      41.842  30.401  35.699  1.00  0.00     0.029 A 
ATOM     58  N   UNL A   1      41.512  29.735  33.601  1.00  0.00    -0.354 N 
ATOM     59  N   UNL A   1      42.155  28.144  31.144  1.00  0.00    -0.248 NA
ATOM     60  C   UNL A   1      43.543  26.625  30.037  1.00  0.00     0.031 C 
ATOM     61  C   UNL A   1      42.804  29.437  35.377  1.00  0.00     0.029 A 
ATOM     62  C   UNL A   1      42.588  29.011  34.074  1.00  0.00     0.049 A 
ATOM     63  H   UNL A   1      41.134  29.658  32.695  1.00  0.00     0.167 HD
ATOM     64  C   UNL A   1      43.108  27.673  32.035  1.00  0.00     0.074 A 
ATOM     65  C   UNL A   1      43.910  26.705  31.309  1.00  0.00     0.031 C 
ATOM     66  C   UNL A   1      43.320  28.017  33.330  1.00  0.00     0.034 A 
BRANCH  53  67
ATOM     67  C   UNL A   1      39.508  32.359  35.575  1.00  0.00     0.023 A 
ATOM     68  C   UNL A   1      38.689  31.842  36.601  1.00  0.00     0.012 A 
ATOM     69  C   UNL A   1      39.951  33.692  35.655  1.00  0.00     0.148 A 
ATOM     70  C   UNL A   1      38.284  32.646  37.665  1.00  0.00     0.002 A 
ATOM     71  C   UNL A   1      39.582  34.477  36.742  1.00  0.00     0.091 A 
ATOM     72  F   UNL A   1      40.709  34.176  34.659  1.00  0.00    -0.205 F 
ATOM     73  C   UNL A   1      38.739  33.960  37.740  1.00  0.00     0.022 A 
BRANCH  71  74
ATOM     74  S   UNL A   1      40.166  36.160  36.973  1.00  0.00     0.127 S 
ATOM     75  O   UNL A   1      39.360  36.599  38.111  1.00  0.00    -0.237 OA
ATOM     76  O   UNL A   1      41.583  35.952  37.273  1.00  0.00    -0.237 OA
ATOM     77  O   UNL A   1      39.904  36.853  35.720  1.00  0.00    -0.744 OA
ENDBRANCH  71  74
ENDBRANCH  53  67
BRANCH  54  78
ATOM     78  C   UNL A   1      42.010  26.819  27.518  1.00  0.00     0.023 A 
ATOM     79  C   UNL A   1      42.664  27.461  26.448  1.00  0.00     0.012 A 
ATOM     80  C   UNL A   1      41.776  25.432  27.443  1.00  0.00     0.148 A 
ATOM     81  C   UNL A   1      43.047  26.746  25.312  1.00  0.00     0.002 A 
ATOM     82  C   UNL A   1      42.206  24.715  26.330  1.00  0.00     0.091 A 
ATOM     83  F   UNL A   1      41.148  24.836  28.466  1.00  0.00    -0.205 F 
ATOM     84  C   UNL A   1      42.826  25.373  25.257  1.00  0.00     0.022 A 
BRANCH  82  85
ATOM     85  S   UNL A   1      42.075  22.926  26.234  1.00  0.00     0.127 S 
ATOM     86  O   UNL A   1      40.629  22.727  26.302  1.00  0.00    -0.237 OA
ATOM     87  O   UNL A   1      42.676  22.643  24.930  1.00  0.00    -0.237 OA
ATOM     88  O   UNL A   1      42.842  22.422  27.366  1.00  0.00    -0.744 OA
ENDBRANCH  82  85
ENDBRANCH  54  78
BRANCH  66  89
ATOM     89  C   UNL A   1      44.437  27.314  34.047  1.00  0.00     0.023 A 
ATOM     90  C   UNL A   1      45.739  27.847  34.004  1.00  0.00     0.012 A 
ATOM     91  C   UNL A   1      44.174  26.171  34.825  1.00  0.00     0.148 A 
ATOM     92  C   UNL A   1      46.775  27.232  34.703  1.00  0.00     0.002 A 
ATOM     93  C   UNL A   1      45.201  25.595  35.561  1.00  0.00     0.091 A 
ATOM     94  F   UNL A   1      42.929  25.672  34.831  1.00  0.00    -0.205 F 
ATOM     95  C   UNL A   1      46.503  26.116  35.490  1.00  0.00     0.022 A 
BRANCH  93  96
ATOM     96  S   UNL A   1      44.917  24.220  36.679  1.00  0.00     0.127 S 
ATOM     97  O   UNL A   1      43.988  24.806  37.643  1.00  0.00    -0.237 OA
ATOM     98  O   UNL A   1      44.326  23.216  35.793  1.00  0.00    -0.237 OA
ATOM     99  O   UNL A   1      46.225  23.858  37.208  1.00  0.00    -0.744 OA
ENDBRANCH  93  96
ENDBRANCH  66  89
ENDBRANCH  40  41
ENDBRANCH  32  35
ENDBRANCH  30  31
ENDBRANCH  29  30
ENDBRANCH   1  29
TORSDOF 18
ENDMDL
MODEL 2
REMARK VINA RESULT:     -12.6      1.547      7.529
REMARK SMILES CC(/C=C1\SC(=S)N(CC(=O)NCC(=O)NCCCNC(=O)c2ccc(-c3c4nc(c(-c5cccc(S(=O)(=O)[O-])c5F)c5ccc([nH]5)c(-c5cccc(S(=O)(=O)[O-])c5F)c5nc(c(-c6cccc(S(=O)(=O)[O-])c6F)c6ccc3[nH]6)C=C5)C=C4)cc2)C1=O)=C\c1ccccc1
REMARK SMILES IDX 17 1 16 2 14 3 15 4 13 6 12 7 10 8 11 9 9 11 8 12 3 13 4 14
REMARK SMILES IDX 5 15 86 16 6 17 87 18 7 19 2 20 1 21 88 22 89 23 90 24 94 25
REMARK SMILES IDX 91 26 93 27 92 28 18 29 19 30 20 31 21 32 22 34 23 35 24 36
REMARK SMILES IDX 85 37 25 38 84 39 26 40 27 41 28 42 78 43 29 44 83 45 77 46
REMARK SMILES IDX 79 47 30 48 82 49 76 50 75 51 31 53 63 54 43 55 62 56 44 57
REMARK SMILES IDX 47 58 61 59 80 60 45 61 46 62 60 64 81 65 48 66 32 67 33 68
REMARK SMILES IDX 41 69 34 70 36 71 42 72 35 73 37 74 38 75 39 76 40 77 64 78
REMARK SMILES IDX 65 79 73 80 66 81 68 82 74 83 67 84 69 85 70 86 71 87 72 88
REMARK SMILES IDX 49 89 50 90 58 91 51 92 53 93 59 94 52 95 54 96 55 97 56 98
REMARK SMILES IDX 57 99
REMARK H PARENT 16 5 12 10 20 33 79 52 47 63
REMARK Flexibility Score: inf
ROOT
ATOM      1  C   UNL A   1      30.998  29.999  24.676  1.00  0.00     0.117 C 
ENDROOT
BRANCH   1   2
ATOM      2  N   UNL A   1      30.178  30.180  23.504  1.00  0.00    -0.355 N 
ATOM      3  C   UNL A   1      29.977  29.288  22.487  1.00  0.00     0.239 C 
ATOM      4  O   UNL A   1      28.997  29.448  21.758  1.00  0.00    -0.273 OA
ATOM      5  H   UNL A   1      29.710  31.044  23.426  1.00  0.00     0.163 HD
BRANCH   3   6
ATOM      6  C   UNL A   1      30.846  28.024  22.389  1.00  0.00     0.216 C 
BRANCH   6   7
ATOM      7  N   UNL A   1      32.245  28.293  22.099  1.00  0.00    -0.345 N 
ATOM      8  C   UNL A   1      33.404  27.921  22.704  1.00  0.00     0.240 C 
ATOM      9  O   UNL A   1      34.435  28.141  22.060  1.00  0.00    -0.273 OA
ATOM     10  H   UNL A   1      32.381  28.859  21.306  1.00  0.00     0.164 HD
BRANCH   8  11
ATOM     11  C   UNL A   1      33.481  27.100  24.006  1.00  0.00     0.227 C 
BRANCH  11  12
ATOM     12  N   UNL A   1      32.856  25.772  24.020  1.00  0.00    -0.283 N 
ATOM     13  C   UNL A   1      32.999  22.415  22.660  1.00  0.00     0.024 C 
ATOM     14  C   UNL A   1      32.616  23.521  23.316  1.00  0.00     0.080 C 
ATOM     15  S   UNL A   1      31.444  23.679  24.556  1.00  0.00    -0.054 SA
ATOM     16  C   UNL A   1      33.301  24.831  23.104  1.00  0.00     0.266 C 
ATOM     17  C   UNL A   1      31.766  25.399  24.772  1.00  0.00     0.148 C 
ATOM     18  O   UNL A   1      34.182  25.008  22.274  1.00  0.00    -0.268 OA
ATOM     19  S   UNL A   1      30.822  26.350  25.768  1.00  0.00    -0.052 S 
BRANCH  13  20
ATOM     20  C   UNL A   1      32.557  21.025  22.802  1.00  0.00    -0.049 C 
ATOM     21  C   UNL A   1      31.766  20.439  21.670  1.00  0.00     0.044 C 
ATOM     22  C   UNL A   1      32.984  20.321  23.873  1.00  0.00     0.011 C 
BRANCH  22  23
ATOM     23  C   UNL A   1      32.954  18.870  24.145  1.00  0.00    -0.025 A 
ATOM     24  C   UNL A   1      32.524  18.421  25.404  1.00  0.00     0.008 A 
ATOM     25  C   UNL A   1      33.530  17.938  23.273  1.00  0.00     0.008 A 
ATOM     26  C   UNL A   1      32.629  17.072  25.762  1.00  0.00     0.001 A 
ATOM     27  C   UNL A   1      33.626  16.588  23.624  1.00  0.00     0.001 A 
ATOM     28  C   UNL A   1      33.172  16.154  24.867  1.00  0.00     0.000 A 
ENDBRANCH  22  23
ENDBRANCH  13  20
ENDBRANCH  11  12
ENDBRANCH   8  11
ENDBRANCH   6   7
ENDBRANCH   3   6
ENDBRANCH   1   2
BRANCH   1  29
ATOM     29  C   UNL A   1      30.868  31.114  25.707  1.00  0.00     0.042 C 
BRANCH  29  30
ATOM     30  C   UNL A   1      32.164  31.331  26.478  1.00  0.00     0.118 C 
BRANCH  30  31
ATOM     31  N   UNL A   1      32.267  32.692  26.989  1.00  0.00    -0.352 N 
ATOM     32  C   UNL A   1      33.205  33.301  27.780  1.00  0.00     0.251 C 
ATOM     33  H   UNL A   1      31.526  33.281  26.717  1.00  0.00     0.163 HD
ATOM     34  O   UNL A   1      32.992  34.435  28.202  1.00  0.00    -0.269 OA
BRANCH  32  35
ATOM     35  C   UNL A   1      34.430  32.608  28.188  1.00  0.00     0.039 A 
ATOM     36  C   UNL A   1      35.618  33.348  28.163  1.00  0.00     0.014 A 
ATOM     37  C   UNL A   1      34.422  31.287  28.629  1.00  0.00     0.014 A 
ATOM     38  C   UNL A   1      36.776  32.799  28.689  1.00  0.00     0.010 A 
ATOM     39  C   UNL A   1      35.547  30.778  29.249  1.00  0.00     0.010 A 
ATOM     40  C   UNL A   1      36.721  31.540  29.297  1.00  0.00    -0.014 A 
BRANCH  40  41
ATOM     41  C   UNL A   1      37.873  31.018  30.049  1.00  0.00     0.031 A 
ATOM     42  C   UNL A   1      38.786  30.030  29.398  1.00  0.00     0.074 A 
ATOM     43  C   UNL A   1      37.991  31.366  31.345  1.00  0.00     0.049 A 
ATOM     44  N   UNL A   1      39.783  29.370  29.916  1.00  0.00    -0.248 NA
ATOM     45  C   UNL A   1      38.518  29.705  27.984  1.00  0.00     0.031 C 
ATOM     46  C   UNL A   1      37.075  32.253  32.072  1.00  0.00     0.029 A 
ATOM     47  N   UNL A   1      38.910  31.000  32.289  1.00  0.00    -0.354 N 
ATOM     48  C   UNL A   1      40.233  28.522  28.914  1.00  0.00     0.074 A 
ATOM     49  C   UNL A   1      39.378  28.720  27.766  1.00  0.00     0.031 C 
ATOM     50  C   UNL A   1      37.489  32.374  33.342  1.00  0.00     0.029 A 
ATOM     51  C   UNL A   1      38.673  31.549  33.528  1.00  0.00     0.049 A 
ATOM     52  H   UNL A   1      39.668  30.401  32.099  1.00  0.00     0.167 HD
ATOM     53  C   UNL A   1      41.288  27.677  28.948  1.00  0.00     0.034 A 
ATOM     54  C   UNL A   1      39.347  31.393  34.681  1.00  0.00     0.034 A 
ATOM     55  C   UNL A   1      42.145  27.546  30.093  1.00  0.00     0.049 A 
ATOM     56  C   UNL A   1      40.567  30.516  34.661  1.00  0.00     0.074 A 
ATOM     57  C   UNL A   1      43.287  26.783  30.233  1.00  0.00     0.029 A 
ATOM     58  N   UNL A   1      41.951  28.211  31.296  1.00  0.00    -0.354 N 
ATOM     59  N   UNL A   1      41.062  29.819  33.664  1.00  0.00    -0.248 NA
ATOM     60  C   UNL A   1      41.343  30.429  35.902  1.00  0.00     0.031 C 
ATOM     61  C   UNL A   1      43.782  26.984  31.527  1.00  0.00     0.029 A 
ATOM     62  C   UNL A   1      42.958  27.886  32.184  1.00  0.00     0.049 A 
ATOM     63  H   UNL A   1      41.207  28.825  31.489  1.00  0.00     0.167 HD
ATOM     64  C   UNL A   1      42.228  29.240  34.146  1.00  0.00     0.074 A 
ATOM     65  C   UNL A   1      42.374  29.688  35.518  1.00  0.00     0.031 C 
ATOM     66  C   UNL A   1      43.092  28.401  33.524  1.00  0.00     0.034 A 
BRANCH  53  67
ATOM     67  C   UNL A   1      41.592  26.891  27.701  1.00  0.00     0.023 A 
ATOM     68  C   UNL A   1      42.088  27.560  26.562  1.00  0.00     0.012 A 
ATOM     69  C   UNL A   1      41.417  25.495  27.658  1.00  0.00     0.148 A 
ATOM     70  C   UNL A   1      42.367  26.860  25.390  1.00  0.00     0.002 A 
ATOM     71  C   UNL A   1      41.740  24.797  26.500  1.00  0.00     0.091 A 
ATOM     72  F   UNL A   1      40.922  24.878  28.741  1.00  0.00    -0.205 F 
ATOM     73  C   UNL A   1      42.203  25.478  25.362  1.00  0.00     0.022 A 
BRANCH  71  74
ATOM     74  S   UNL A   1      41.631  23.007  26.379  1.00  0.00     0.127 S 
ATOM     75  O   UNL A   1      42.282  22.758  25.093  1.00  0.00    -0.237 OA
ATOM     76  O   UNL A   1      42.402  22.575  27.546  1.00  0.00    -0.237 OA
ATOM     77  O   UNL A   1      40.213  22.685  26.432  1.00  0.00    -0.744 OA
ENDBRANCH  71  74
ENDBRANCH  53  67
BRANCH  54  78
ATOM     78  C   UNL A   1      38.938  32.147  35.899  1.00  0.00     0.023 A 
ATOM     79  C   UNL A   1      39.296  33.503  36.021  1.00  0.00     0.012 A 
ATOM     80  C   UNL A   1      38.165  31.550  36.915  1.00  0.00     0.148 A 
ATOM     81  C   UNL A   1      38.924  34.244  37.144  1.00  0.00     0.002 A 
ATOM     82  C   UNL A   1      37.753  32.307  38.009  1.00  0.00     0.091 A 
ATOM     83  F   UNL A   1      37.837  30.257  36.789  1.00  0.00    -0.205 F 
ATOM     84  C   UNL A   1      38.146  33.648  38.132  1.00  0.00     0.022 A 
BRANCH  82  85
ATOM     85  S   UNL A   1      36.645  31.653  39.262  1.00  0.00     0.127 S 
ATOM     86  O   UNL A   1      36.482  30.269  38.826  1.00  0.00    -0.237 OA
ATOM     87  O   UNL A   1      37.429  31.826  40.486  1.00  0.00    -0.237 OA
ATOM     88  O   UNL A   1      35.452  32.488  39.196  1.00  0.00    -0.744 OA
ENDBRANCH  82  85
ENDBRANCH  54  78
BRANCH  66  89
ATOM     89  C   UNL A   1      44.287  27.948  34.312  1.00  0.00     0.023 A 
ATOM     90  C   UNL A   1      45.456  28.732  34.322  1.00  0.00     0.012 A 
ATOM     91  C   UNL A   1      44.217  26.787  35.104  1.00  0.00     0.148 A 
ATOM     92  C   UNL A   1      46.555  28.347  35.086  1.00  0.00     0.002 A 
ATOM     93  C   UNL A   1      45.297  26.439  35.904  1.00  0.00     0.091 A 
ATOM     94  F   UNL A   1      43.099  26.047  35.061  1.00  0.00    -0.205 F 
ATOM     95  C   UNL A   1      46.471  27.210  35.886  1.00  0.00     0.022 A 
BRANCH  93  96
ATOM     96  S   UNL A   1      45.235  25.051  37.040  1.00  0.00     0.127 S 
ATOM     97  O   UNL A   1      44.961  23.936  36.135  1.00  0.00    -0.237 OA
ATOM     98  O   UNL A   1      46.582  25.057  37.612  1.00  0.00    -0.237 OA
ATOM     99  O   UNL A   1      44.177  25.361  37.993  1.00  0.00    -0.744 OA
ENDBRANCH  93  96
ENDBRANCH  66  89
ENDBRANCH  40  41
ENDBRANCH  32  35
ENDBRANCH  30  31
ENDBRANCH  29  30
ENDBRANCH   1  29
TORSDOF 18
ENDMDL
MODEL 3
REMARK VINA RESULT:     -12.1      1.905      2.463
REMARK SMILES CC(/C=C1\SC(=S)N(CC(=O)NCC(=O)NCCCNC(=O)c2ccc(-c3c4nc(c(-c5cccc(S(=O)(=O)[O-])c5F)c5ccc([nH]5)c(-c5cccc(S(=O)(=O)[O-])c5F)c5nc(c(-c6cccc(S(=O)(=O)[O-])c6F)c6ccc3[nH]6)C=C5)C=C4)cc2)C1=O)=C\c1ccccc1
REMARK SMILES IDX 17 1 16 2 14 3 15 4 13 6 12 7 10 8 11 9 9 11 8 12 3 13 4 14
REMARK SMILES IDX 5 15 86 16 6 17 87 18 7 19 2 20 1 21 88 22 89 23 90 24 94 25
REMARK SMILES IDX 91 26 93 27 92 28 18 29 19 30 20 31 21 32 22 34 23 35 24 36
REMARK SMILES IDX 85 37 25 38 84 39 26 40 27 41 28 42 78 43 29 44 83 45 77 46
REMARK SMILES IDX 79 47 30 48 82 49 76 50 75 51 31 53 63 54 43 55 62 56 44 57
REMARK SMILES IDX 47 58 61 59 80 60 45 61 46 62 60 64 81 65 48 66 32 67 33 68
REMARK SMILES IDX 41 69 34 70 36 71 42 72 35 73 37 74 38 75 39 76 40 77 64 78
REMARK SMILES IDX 65 79 73 80 66 81 68 82 74 83 67 84 69 85 70 86 71 87 72 88
REMARK SMILES IDX 49 89 50 90 58 91 51 92 53 93 59 94 52 95 54 96 55 97 56 98
REMARK SMILES IDX 57 99
REMARK H PARENT 16 5 12 10 20 33 79 52 47 63
REMARK Flexibility Score: inf
ROOT
ATOM      1  C   UNL A   1      30.574  31.232  25.110  1.00  0.00     0.117 C 
ENDROOT
BRANCH   1   2
ATOM      2  N   UNL A   1      29.823  32.061  24.200  1.00  0.00    -0.355 N 
ATOM      3  C   UNL A   1      28.741  31.695  23.448  1.00  0.00     0.239 C 
ATOM      4  O   UNL A   1      28.014  32.585  23.004  1.00  0.00    -0.273 OA
ATOM      5  H   UNL A   1      30.123  32.994  24.109  1.00  0.00     0.163 HD
BRANCH   3   6
ATOM      6  C   UNL A   1      28.351  30.213  23.329  1.00  0.00     0.216 C 
BRANCH   6   7
ATOM      7  N   UNL A   1      29.305  29.411  22.581  1.00  0.00    -0.345 N 
ATOM      8  C   UNL A   1      30.068  28.335  22.908  1.00  0.00     0.240 C 
ATOM      9  O   UNL A   1      30.606  27.755  21.959  1.00  0.00    -0.273 OA
ATOM     10  H   UNL A   1      29.424  29.708  21.650  1.00  0.00     0.164 HD
BRANCH   8  11
ATOM     11  C   UNL A   1      30.136  27.714  24.317  1.00  0.00     0.227 C 
BRANCH  11  12
ATOM     12  N   UNL A   1      31.359  26.993  24.692  1.00  0.00    -0.283 N 
ATOM     13  C   UNL A   1      32.683  23.886  26.006  1.00  0.00     0.024 C 
ATOM     14  C   UNL A   1      32.565  25.145  25.557  1.00  0.00     0.080 C 
ATOM     15  S   UNL A   1      33.796  26.221  25.047  1.00  0.00    -0.054 SA
ATOM     16  C   UNL A   1      31.227  25.767  25.326  1.00  0.00     0.266 C 
ATOM     17  C   UNL A   1      32.644  27.478  24.597  1.00  0.00     0.148 C 
ATOM     18  O   UNL A   1      30.168  25.221  25.602  1.00  0.00    -0.268 OA
ATOM     19  S   UNL A   1      33.144  29.003  24.139  1.00  0.00    -0.052 S 
BRANCH  13  20
ATOM     20  C   UNL A   1      33.873  23.049  26.184  1.00  0.00    -0.049 C 
ATOM     21  C   UNL A   1      34.133  22.513  27.560  1.00  0.00     0.044 C 
ATOM     22  C   UNL A   1      34.592  22.712  25.091  1.00  0.00     0.011 C 
BRANCH  22  23
ATOM     23  C   UNL A   1      35.636  21.685  24.905  1.00  0.00    -0.025 A 
ATOM     24  C   UNL A   1      35.266  20.331  24.896  1.00  0.00     0.008 A 
ATOM     25  C   UNL A   1      37.001  21.997  24.945  1.00  0.00     0.008 A 
ATOM     26  C   UNL A   1      36.234  19.320  24.884  1.00  0.00     0.001 A 
ATOM     27  C   UNL A   1      37.970  20.989  24.922  1.00  0.00     0.001 A 
ATOM     28  C   UNL A   1      37.587  19.651  24.888  1.00  0.00     0.000 A 
ENDBRANCH  22  23
ENDBRANCH  13  20
ENDBRANCH  11  12
ENDBRANCH   8  11
ENDBRANCH   6   7
ENDBRANCH   3   6
ENDBRANCH   1   2
BRANCH   1  29
ATOM     29  C   UNL A   1      30.796  31.856  26.483  1.00  0.00     0.042 C 
BRANCH  29  30
ATOM     30  C   UNL A   1      32.277  32.003  26.809  1.00  0.00     0.118 C 
BRANCH  30  31
ATOM     31  N   UNL A   1      32.596  33.346  27.277  1.00  0.00    -0.352 N 
ATOM     32  C   UNL A   1      33.650  33.833  28.003  1.00  0.00     0.251 C 
ATOM     33  H   UNL A   1      31.932  34.028  27.026  1.00  0.00     0.163 HD
ATOM     34  O   UNL A   1      33.620  34.994  28.404  1.00  0.00    -0.269 OA
BRANCH  32  35
ATOM     35  C   UNL A   1      34.786  32.982  28.370  1.00  0.00     0.039 A 
ATOM     36  C   UNL A   1      36.061  33.556  28.293  1.00  0.00     0.014 A 
ATOM     37  C   UNL A   1      34.618  31.676  28.821  1.00  0.00     0.014 A 
ATOM     38  C   UNL A   1      37.155  32.858  28.777  1.00  0.00     0.010 A 
ATOM     39  C   UNL A   1      35.689  31.022  29.401  1.00  0.00     0.010 A 
ATOM     40  C   UNL A   1      36.955  31.619  29.398  1.00  0.00    -0.014 A 
BRANCH  40  41
ATOM     41  C   UNL A   1      38.056  30.949  30.109  1.00  0.00     0.031 A 
ATOM     42  C   UNL A   1      38.363  31.341  31.519  1.00  0.00     0.074 A 
ATOM     43  C   UNL A   1      38.823  30.088  29.414  1.00  0.00     0.049 A 
ATOM     44  N   UNL A   1      39.350  30.958  32.278  1.00  0.00    -0.248 NA
ATOM     45  C   UNL A   1      37.466  32.329  32.147  1.00  0.00     0.031 C 
ATOM     46  C   UNL A   1      38.637  29.735  28.002  1.00  0.00     0.029 A 
ATOM     47  N   UNL A   1      39.927  29.372  29.788  1.00  0.00    -0.354 N 
ATOM     48  C   UNL A   1      39.222  31.685  33.453  1.00  0.00     0.074 A 
ATOM     49  C   UNL A   1      38.085  32.563  33.295  1.00  0.00     0.031 C 
ATOM     50  C   UNL A   1      39.584  28.857  27.636  1.00  0.00     0.029 A 
ATOM     51  C   UNL A   1      40.460  28.615  28.772  1.00  0.00     0.049 A 
ATOM     52  H   UNL A   1      40.303  29.397  30.698  1.00  0.00     0.167 HD
ATOM     53  C   UNL A   1      39.975  31.599  34.573  1.00  0.00     0.034 A 
ATOM     54  C   UNL A   1      41.542  27.816  28.770  1.00  0.00     0.034 A 
ATOM     55  C   UNL A   1      41.067  30.677  34.709  1.00  0.00     0.049 A 
ATOM     56  C   UNL A   1      42.304  27.676  30.057  1.00  0.00     0.074 A 
ATOM     57  C   UNL A   1      41.863  30.437  35.811  1.00  0.00     0.029 A 
ATOM     58  N   UNL A   1      41.508  29.830  33.700  1.00  0.00    -0.354 N 
ATOM     59  N   UNL A   1      42.093  28.272  31.208  1.00  0.00    -0.248 NA
ATOM     60  C   UNL A   1      43.426  26.730  30.065  1.00  0.00     0.031 C 
ATOM     61  C   UNL A   1      42.790  29.448  35.466  1.00  0.00     0.029 A 
ATOM     62  C   UNL A   1      42.559  29.058  34.155  1.00  0.00     0.049 A 
ATOM     63  H   UNL A   1      41.127  29.786  32.793  1.00  0.00     0.167 HD
ATOM     64  C   UNL A   1      43.030  27.748  32.087  1.00  0.00     0.074 A 
ATOM     65  C   UNL A   1      43.796  26.769  31.337  1.00  0.00     0.031 C 
ATOM     66  C   UNL A   1      43.255  28.056  33.388  1.00  0.00     0.034 A 
BRANCH  53  67
ATOM     67  C   UNL A   1      39.600  32.479  35.735  1.00  0.00     0.023 A 
ATOM     68  C   UNL A   1      40.143  33.778  35.827  1.00  0.00     0.012 A 
ATOM     69  C   UNL A   1      38.695  32.040  36.719  1.00  0.00     0.148 A 
ATOM     70  C   UNL A   1      39.823  34.610  36.898  1.00  0.00     0.002 A 
ATOM     71  C   UNL A   1      38.345  32.892  37.762  1.00  0.00     0.091 A 
ATOM     72  F   UNL A   1      38.207  30.793  36.631  1.00  0.00    -0.205 F 
ATOM     73  C   UNL A   1      38.918  34.171  37.859  1.00  0.00     0.022 A 
BRANCH  71  74
ATOM     74  S   UNL A   1      37.136  32.452  39.016  1.00  0.00     0.127 S 
ATOM     75  O   UNL A   1      37.443  31.039  39.238  1.00  0.00    -0.237 OA
ATOM     76  O   UNL A   1      37.506  33.337  40.120  1.00  0.00    -0.237 OA
ATOM     77  O   UNL A   1      35.832  32.720  38.429  1.00  0.00    -0.744 OA
ENDBRANCH  71  74
ENDBRANCH  53  67
BRANCH  54  78
ATOM     78  C   UNL A   1      41.899  27.034  27.553  1.00  0.00     0.023 A 
ATOM     79  C   UNL A   1      42.478  27.698  26.454  1.00  0.00     0.012 A 
ATOM     80  C   UNL A   1      41.710  25.639  27.488  1.00  0.00     0.148 A 
ATOM     81  C   UNL A   1      42.832  26.996  25.301  1.00  0.00     0.002 A 
ATOM     82  C   UNL A   1      42.112  24.937  26.354  1.00  0.00     0.091 A 
ATOM     83  F   UNL A   1      41.153  25.022  28.538  1.00  0.00    -0.205 F 
ATOM     84  C   UNL A   1      42.657  25.616  25.254  1.00  0.00     0.022 A 
BRANCH  82  85
ATOM     85  S   UNL A   1      42.039  23.145  26.263  1.00  0.00     0.127 S 
ATOM     86  O   UNL A   1      42.653  22.886  24.963  1.00  0.00    -0.237 OA
ATOM     87  O   UNL A   1      42.848  22.745  27.416  1.00  0.00    -0.237 OA
ATOM     88  O   UNL A   1      40.627  22.809  26.380  1.00  0.00    -0.744 OA
ENDBRANCH  82  85
ENDBRANCH  54  78
BRANCH  66  89
ATOM     89  C   UNL A   1      44.346  27.298  34.087  1.00  0.00     0.023 A 
ATOM     90  C   UNL A   1      45.600  27.907  34.290  1.00  0.00     0.012 A 
ATOM     91  C   UNL A   1      44.100  26.015  34.610  1.00  0.00     0.148 A 
ATOM     92  C   UNL A   1      46.606  27.234  34.978  1.00  0.00     0.002 A 
ATOM     93  C   UNL A   1      45.090  25.373  35.340  1.00  0.00     0.091 A 
ATOM     94  F   UNL A   1      42.904  25.450  34.385  1.00  0.00    -0.205 F 
ATOM     95  C   UNL A   1      46.347  25.975  35.514  1.00  0.00     0.022 A 
BRANCH  93  96
ATOM     96  S   UNL A   1      44.806  23.797  36.151  1.00  0.00     0.127 S 
ATOM     97  O   UNL A   1      44.727  24.194  37.556  1.00  0.00    -0.237 OA
ATOM     98  O   UNL A   1      43.535  23.370  35.565  1.00  0.00    -0.237 OA
ATOM     99  O   UNL A   1      45.943  22.955  35.799  1.00  0.00    -0.744 OA
ENDBRANCH  93  96
ENDBRANCH  66  89
ENDBRANCH  40  41
ENDBRANCH  32  35
ENDBRANCH  30  31
ENDBRANCH  29  30
ENDBRANCH   1  29
TORSDOF 18
ENDMDL
