MODEL 1
REMARK VINA RESULT:     -12.9      0.000      0.000
REMARK SMILES Cc1cc(F)cc(N[C@](C)(C(=O)NCCCNC(=O)c2ccc(-c3c4nc(c(-c5cccc(S(=O)(=O)[O-])c5F)c5ccc([nH]5)c(-c5cccc(S(=O)(=O)[O-])c5F)c5nc(c(-c6cccc(S(=O)(=O)[O-])c6F)c6ccc3[nH]6)C=C5)C=C4)cc2)c2cccc(F)c2)c1
REMARK SMILES IDX 15 1 14 2 13 3 11 4 12 5 9 7 10 8 8 9 7 11 1 12 2 13 3 14
REMARK SMILES IDX 90 15 4 16 5 17 6 18 83 19 84 20 89 21 85 22 87 23 86 24
REMARK SMILES IDX 88 25 16 26 17 27 18 28 19 30 20 31 21 32 82 33 22 34 81 35
REMARK SMILES IDX 23 36 24 37 25 38 75 39 26 40 80 41 74 42 76 43 27 44 79 45
REMARK SMILES IDX 73 46 72 47 28 49 60 50 40 51 59 52 41 53 44 54 58 55 77 56
REMARK SMILES IDX 42 57 43 58 57 60 78 61 45 62 29 63 30 64 38 65 31 66 33 67
REMARK SMILES IDX 39 68 32 69 34 70 35 71 36 72 37 73 61 74 62 75 70 76 63 77
REMARK SMILES IDX 65 78 71 79 64 80 66 81 67 82 68 83 69 84 46 85 47 86 55 87
REMARK SMILES IDX 48 88 50 89 56 90 49 91 51 92 52 93 53 94 54 95
REMARK H PARENT 13 6 8 10 17 29 76 48 44 59
REMARK Flexibility Score: inf
ROOT
ATOM      1  C   UNL A   1      32.436  29.615  25.483  1.00  0.00     0.042 C 
ENDROOT
BRANCH   1   2
ATOM      2  C   UNL A   1      33.634  28.754  25.092  1.00  0.00     0.117 C 
BRANCH   2   3
ATOM      3  N   UNL A   1      33.893  28.829  23.670  1.00  0.00    -0.354 N 
ATOM      4  C   UNL A   1      33.575  28.005  22.636  1.00  0.00     0.250 C 
ATOM      5  O   UNL A   1      34.262  28.182  21.616  1.00  0.00    -0.272 OA
ATOM      6  H   UNL A   1      34.396  29.632  23.399  1.00  0.00     0.163 HD
BRANCH   4   7
ATOM      7  C   UNL A   1      32.442  26.884  22.666  1.00  0.00     0.139 C 
ATOM      8  C   UNL A   1      32.368  25.898  21.474  1.00  0.00     0.051 C 
BRANCH   7   9
ATOM      9  N   UNL A   1      32.739  26.029  23.867  1.00  0.00    -0.368 N 
ATOM     10  H   UNL A   1      32.639  26.461  24.747  1.00  0.00     0.161 HD
BRANCH   9  11
ATOM     11  C   UNL A   1      33.139  24.692  23.876  1.00  0.00     0.038 A 
ATOM     12  C   UNL A   1      36.481  22.853  23.443  1.00  0.00     0.044 C 
ATOM     13  C   UNL A   1      35.024  23.113  23.684  1.00  0.00    -0.046 A 
ATOM     14  C   UNL A   1      34.154  22.046  23.899  1.00  0.00     0.042 A 
ATOM     15  C   UNL A   1      34.510  24.422  23.693  1.00  0.00     0.029 A 
ATOM     16  C   UNL A   1      32.805  22.300  24.100  1.00  0.00     0.125 A 
ATOM     17  F   UNL A   1      31.968  21.272  24.300  1.00  0.00    -0.207 F 
ATOM     18  C   UNL A   1      32.301  23.598  24.089  1.00  0.00     0.065 A 
ENDBRANCH   9  11
ENDBRANCH   7   9
BRANCH   7  19
ATOM     19  C   UNL A   1      31.068  27.611  22.835  1.00  0.00    -0.011 A 
ATOM     20  C   UNL A   1      30.782  28.884  22.301  1.00  0.00     0.007 A 
ATOM     21  C   UNL A   1      29.989  26.952  23.461  1.00  0.00     0.046 A 
ATOM     22  C   UNL A   1      29.496  29.449  22.377  1.00  0.00     0.003 A 
ATOM     23  C   UNL A   1      28.711  27.507  23.512  1.00  0.00     0.123 A 
ATOM     24  C   UNL A   1      28.453  28.752  22.972  1.00  0.00     0.039 A 
ATOM     25  F   UNL A   1      27.720  26.803  24.074  1.00  0.00    -0.207 F 
ENDBRANCH   7  19
ENDBRANCH   4   7
ENDBRANCH   2   3
ENDBRANCH   1   2
BRANCH   1  26
ATOM     26  C   UNL A   1      32.522  30.190  26.890  1.00  0.00     0.118 C 
BRANCH  26  27
ATOM     27  N   UNL A   1      32.664  31.637  26.880  1.00  0.00    -0.352 N 
ATOM     28  C   UNL A   1      33.559  32.445  27.534  1.00  0.00     0.251 C 
ATOM     29  H   UNL A   1      32.013  32.114  26.314  1.00  0.00     0.163 HD
ATOM     30  O   UNL A   1      33.350  33.655  27.568  1.00  0.00    -0.269 OA
BRANCH  28  31
ATOM     31  C   UNL A   1      34.763  31.883  28.192  1.00  0.00     0.039 A 
ATOM     32  C   UNL A   1      35.883  32.704  28.356  1.00  0.00     0.014 A 
ATOM     33  C   UNL A   1      34.823  30.544  28.587  1.00  0.00     0.014 A 
ATOM     34  C   UNL A   1      37.043  32.192  28.942  1.00  0.00     0.010 A 
ATOM     35  C   UNL A   1      35.947  30.061  29.253  1.00  0.00     0.010 A 
ATOM     36  C   UNL A   1      37.080  30.869  29.413  1.00  0.00    -0.014 A 
BRANCH  36  37
ATOM     37  C   UNL A   1      38.302  30.313  30.048  1.00  0.00     0.031 A 
ATOM     38  C   UNL A   1      38.689  30.725  31.445  1.00  0.00     0.074 A 
ATOM     39  C   UNL A   1      39.100  29.486  29.345  1.00  0.00     0.049 A 
ATOM     40  N   UNL A   1      39.716  30.345  32.162  1.00  0.00    -0.248 NA
ATOM     41  C   UNL A   1      37.831  31.717  32.112  1.00  0.00     0.031 C 
ATOM     42  C   UNL A   1      38.881  29.082  27.956  1.00  0.00     0.029 A 
ATOM     43  N   UNL A   1      40.263  28.850  29.698  1.00  0.00    -0.354 N 
ATOM     44  C   UNL A   1      39.647  31.077  33.342  1.00  0.00     0.074 A 
ATOM     45  C   UNL A   1      38.505  31.956  33.227  1.00  0.00     0.031 C 
ATOM     46  C   UNL A   1      39.862  28.246  27.581  1.00  0.00     0.029 A 
ATOM     47  C   UNL A   1      40.792  28.073  28.693  1.00  0.00     0.049 A 
ATOM     48  H   UNL A   1      40.679  28.940  30.585  1.00  0.00     0.167 HD
ATOM     49  C   UNL A   1      40.440  31.002  34.438  1.00  0.00     0.034 A 
ATOM     50  C   UNL A   1      41.896  27.301  28.674  1.00  0.00     0.034 A 
ATOM     51  C   UNL A   1      41.542  30.089  34.567  1.00  0.00     0.049 A 
ATOM     52  C   UNL A   1      42.728  27.186  29.922  1.00  0.00     0.074 A 
ATOM     53  C   UNL A   1      42.345  29.856  35.670  1.00  0.00     0.029 A 
ATOM     54  N   UNL A   1      42.003  29.259  33.555  1.00  0.00    -0.354 N 
ATOM     55  N   UNL A   1      42.548  27.757  31.089  1.00  0.00    -0.248 NA
ATOM     56  C   UNL A   1      43.893  26.292  29.863  1.00  0.00     0.031 C 
ATOM     57  C   UNL A   1      43.305  28.900  35.317  1.00  0.00     0.029 A 
ATOM     58  C   UNL A   1      43.085  28.520  34.002  1.00  0.00     0.049 A 
ATOM     59  H   UNL A   1      41.617  29.203  32.652  1.00  0.00     0.167 HD
ATOM     60  C   UNL A   1      43.554  27.265  31.914  1.00  0.00     0.074 A 
ATOM     61  C   UNL A   1      44.329  26.336  31.116  1.00  0.00     0.031 C 
ATOM     62  C   UNL A   1      43.817  27.563  33.211  1.00  0.00     0.034 A 
BRANCH  49  63
ATOM     63  C   UNL A   1      40.101  31.897  35.604  1.00  0.00     0.023 A 
ATOM     64  C   UNL A   1      40.853  33.070  35.823  1.00  0.00     0.012 A 
ATOM     65  C   UNL A   1      39.028  31.597  36.466  1.00  0.00     0.148 A 
ATOM     66  C   UNL A   1      40.581  33.901  36.909  1.00  0.00     0.002 A 
ATOM     67  C   UNL A   1      38.731  32.457  37.520  1.00  0.00     0.091 A 
ATOM     68  F   UNL A   1      38.334  30.469  36.261  1.00  0.00    -0.205 F 
ATOM     69  C   UNL A   1      39.515  33.599  37.751  1.00  0.00     0.022 A 
BRANCH  67  70
ATOM     70  S   UNL A   1      37.327  32.193  38.609  1.00  0.00     0.127 S 
ATOM     71  O   UNL A   1      36.293  32.996  37.959  1.00  0.00    -0.237 OA
ATOM     72  O   UNL A   1      37.126  30.748  38.514  1.00  0.00    -0.237 OA
ATOM     73  O   UNL A   1      37.753  32.656  39.924  1.00  0.00    -0.744 OA
ENDBRANCH  67  70
ENDBRANCH  49  63
BRANCH  50  74
ATOM     74  C   UNL A   1      42.205  26.492  27.462  1.00  0.00     0.023 A 
ATOM     75  C   UNL A   1      42.881  27.103  26.387  1.00  0.00     0.012 A 
ATOM     76  C   UNL A   1      41.899  25.119  27.390  1.00  0.00     0.148 A 
ATOM     77  C   UNL A   1      43.227  26.367  25.253  1.00  0.00     0.002 A 
ATOM     78  C   UNL A   1      42.291  24.381  26.281  1.00  0.00     0.091 A 
ATOM     79  F   UNL A   1      41.252  24.560  28.423  1.00  0.00    -0.205 F 
ATOM     80  C   UNL A   1      42.943  25.005  25.205  1.00  0.00     0.022 A 
BRANCH  78  81
ATOM     81  S   UNL A   1      42.085  22.599  26.179  1.00  0.00     0.127 S 
ATOM     82  O   UNL A   1      40.632  22.468  26.135  1.00  0.00    -0.237 OA
ATOM     83  O   UNL A   1      42.770  22.288  24.925  1.00  0.00    -0.237 OA
ATOM     84  O   UNL A   1      42.730  22.058  27.369  1.00  0.00    -0.744 OA
ENDBRANCH  78  81
ENDBRANCH  50  74
BRANCH  62  85
ATOM     85  C   UNL A   1      44.978  26.862  33.866  1.00  0.00     0.023 A 
ATOM     86  C   UNL A   1      46.236  27.493  33.920  1.00  0.00     0.012 A 
ATOM     87  C   UNL A   1      44.801  25.616  34.498  1.00  0.00     0.148 A 
ATOM     88  C   UNL A   1      47.308  26.880  34.567  1.00  0.00     0.002 A 
ATOM     89  C   UNL A   1      45.860  25.033  35.183  1.00  0.00     0.091 A 
ATOM     90  F   UNL A   1      43.600  25.023  34.419  1.00  0.00    -0.205 F 
ATOM     91  C   UNL A   1      47.118  25.658  35.208  1.00  0.00     0.022 A 
BRANCH  89  92
ATOM     92  S   UNL A   1      45.679  23.511  36.119  1.00  0.00     0.127 S 
ATOM     93  O   UNL A   1      46.814  22.726  35.634  1.00  0.00    -0.237 OA
ATOM     94  O   UNL A   1      45.805  23.977  37.499  1.00  0.00    -0.237 OA
ATOM     95  O   UNL A   1      44.364  22.985  35.777  1.00  0.00    -0.744 OA
ENDBRANCH  89  92
ENDBRANCH  62  85
ENDBRANCH  36  37
ENDBRANCH  28  31
ENDBRANCH  26  27
ENDBRANCH   1  26
TORSDOF 16
ENDMDL
MODEL 2
REMARK VINA RESULT:     -12.8      2.286      3.014
REMARK SMILES Cc1cc(F)cc(N[C@](C)(C(=O)NCCCNC(=O)c2ccc(-c3c4nc(c(-c5cccc(S(=O)(=O)[O-])c5F)c5ccc([nH]5)c(-c5cccc(S(=O)(=O)[O-])c5F)c5nc(c(-c6cccc(S(=O)(=O)[O-])c6F)c6ccc3[nH]6)C=C5)C=C4)cc2)c2cccc(F)c2)c1
REMARK SMILES IDX 15 1 14 2 13 3 11 4 12 5 9 7 10 8 8 9 7 11 1 12 2 13 3 14
REMARK SMILES IDX 90 15 4 16 5 17 6 18 83 19 84 20 89 21 85 22 87 23 86 24
REMARK SMILES IDX 88 25 16 26 17 27 18 28 19 30 20 31 21 32 82 33 22 34 81 35
REMARK SMILES IDX 23 36 24 37 25 38 75 39 26 40 80 41 74 42 76 43 27 44 79 45
REMARK SMILES IDX 73 46 72 47 28 49 60 50 40 51 59 52 41 53 44 54 58 55 77 56
REMARK SMILES IDX 42 57 43 58 57 60 78 61 45 62 29 63 30 64 38 65 31 66 33 67
REMARK SMILES IDX 39 68 32 69 34 70 35 71 36 72 37 73 61 74 62 75 70 76 63 77
REMARK SMILES IDX 65 78 71 79 64 80 66 81 67 82 68 83 69 84 46 85 47 86 55 87
REMARK SMILES IDX 48 88 50 89 56 90 49 91 51 92 52 93 53 94 54 95
REMARK H PARENT 13 6 8 10 17 29 76 48 44 59
REMARK Flexibility Score: inf
ROOT
ATOM      1  C   UNL A   1      31.566  32.134  26.939  1.00  0.00     0.042 C 
ENDROOT
BRANCH   1   2
ATOM      2  C   UNL A   1      31.750  30.835  26.159  1.00  0.00     0.117 C 
BRANCH   2   3
ATOM      3  N   UNL A   1      31.807  29.693  27.046  1.00  0.00    -0.354 N 
ATOM      4  C   UNL A   1      31.908  28.358  26.814  1.00  0.00     0.250 C 
ATOM      5  O   UNL A   1      31.562  27.648  27.774  1.00  0.00    -0.272 OA
ATOM      6  H   UNL A   1      31.763  29.930  28.002  1.00  0.00     0.163 HD
BRANCH   4   7
ATOM      7  C   UNL A   1      32.410  27.694  25.455  1.00  0.00     0.139 C 
ATOM      8  C   UNL A   1      33.723  28.226  24.830  1.00  0.00     0.051 C 
BRANCH   7   9
ATOM      9  N   UNL A   1      32.682  26.250  25.775  1.00  0.00    -0.368 N 
ATOM     10  H   UNL A   1      32.254  25.895  26.589  1.00  0.00     0.161 HD
BRANCH   9  11
ATOM     11  C   UNL A   1      33.472  25.357  25.051  1.00  0.00     0.038 A 
ATOM     12  C   UNL A   1      36.892  23.700  25.589  1.00  0.00     0.044 C 
ATOM     13  C   UNL A   1      35.573  24.068  24.979  1.00  0.00    -0.046 A 
ATOM     14  C   UNL A   1      35.200  23.523  23.752  1.00  0.00     0.042 A 
ATOM     15  C   UNL A   1      34.699  24.963  25.621  1.00  0.00     0.029 A 
ATOM     16  C   UNL A   1      33.985  23.888  23.189  1.00  0.00     0.125 A 
ATOM     17  F   UNL A   1      33.629  23.369  22.006  1.00  0.00    -0.207 F 
ATOM     18  C   UNL A   1      33.133  24.790  23.822  1.00  0.00     0.065 A 
ENDBRANCH   9  11
ENDBRANCH   7   9
BRANCH   7  19
ATOM     19  C   UNL A   1      31.246  27.816  24.416  1.00  0.00    -0.011 A 
ATOM     20  C   UNL A   1      30.061  27.055  24.472  1.00  0.00     0.007 A 
ATOM     21  C   UNL A   1      31.296  28.803  23.408  1.00  0.00     0.046 A 
ATOM     22  C   UNL A   1      28.992  27.280  23.585  1.00  0.00     0.003 A 
ATOM     23  C   UNL A   1      30.224  29.037  22.549  1.00  0.00     0.123 A 
ATOM     24  C   UNL A   1      29.069  28.285  22.629  1.00  0.00     0.039 A 
ATOM     25  F   UNL A   1      30.317  30.025  21.650  1.00  0.00    -0.207 F 
ENDBRANCH   7  19
ENDBRANCH   4   7
ENDBRANCH   2   3
ENDBRANCH   1   2
BRANCH   1  26
ATOM     26  C   UNL A   1      32.854  32.924  27.132  1.00  0.00     0.118 C 
BRANCH  26  27
ATOM     27  N   UNL A   1      32.626  34.170  27.847  1.00  0.00    -0.352 N 
ATOM     28  C   UNL A   1      33.192  34.646  29.003  1.00  0.00     0.251 C 
ATOM     29  H   UNL A   1      31.958  34.768  27.436  1.00  0.00     0.163 HD
ATOM     30  O   UNL A   1      32.681  35.616  29.557  1.00  0.00    -0.269 OA
BRANCH  28  31
ATOM     31  C   UNL A   1      34.397  34.011  29.586  1.00  0.00     0.039 A 
ATOM     32  C   UNL A   1      34.234  33.089  30.625  1.00  0.00     0.014 A 
ATOM     33  C   UNL A   1      35.684  34.360  29.167  1.00  0.00     0.014 A 
ATOM     34  C   UNL A   1      35.354  32.500  31.218  1.00  0.00     0.010 A 
ATOM     35  C   UNL A   1      36.794  33.704  29.695  1.00  0.00     0.010 A 
ATOM     36  C   UNL A   1      36.644  32.789  30.746  1.00  0.00    -0.014 A 
BRANCH  36  37
ATOM     37  C   UNL A   1      37.844  32.163  31.357  1.00  0.00     0.031 A 
ATOM     38  C   UNL A   1      38.395  32.682  32.660  1.00  0.00     0.074 A 
ATOM     39  C   UNL A   1      38.479  31.167  30.709  1.00  0.00     0.049 A 
ATOM     40  N   UNL A   1      39.428  32.263  33.344  1.00  0.00    -0.248 NA
ATOM     41  C   UNL A   1      37.716  33.844  33.257  1.00  0.00     0.031 C 
ATOM     42  C   UNL A   1      38.097  30.634  29.400  1.00  0.00     0.029 A 
ATOM     43  N   UNL A   1      39.587  30.436  31.055  1.00  0.00    -0.354 N 
ATOM     44  C   UNL A   1      39.546  33.130  34.425  1.00  0.00     0.074 A 
ATOM     45  C   UNL A   1      38.507  34.125  34.282  1.00  0.00     0.031 C 
ATOM     46  C   UNL A   1      38.940  29.645  29.064  1.00  0.00     0.029 A 
ATOM     47  C   UNL A   1      39.936  29.488  30.121  1.00  0.00     0.049 A 
ATOM     48  H   UNL A   1      40.086  30.576  31.892  1.00  0.00     0.167 HD
ATOM     49  C   UNL A   1      40.416  33.084  35.463  1.00  0.00     0.034 A 
ATOM     50  C   UNL A   1      40.937  28.587  30.120  1.00  0.00     0.034 A 
ATOM     51  C   UNL A   1      41.413  32.062  35.627  1.00  0.00     0.049 A 
ATOM     52  C   UNL A   1      41.855  28.515  31.310  1.00  0.00     0.074 A 
ATOM     53  C   UNL A   1      42.276  31.861  36.690  1.00  0.00     0.029 A 
ATOM     54  N   UNL A   1      41.687  31.070  34.697  1.00  0.00    -0.354 N 
ATOM     55  N   UNL A   1      41.843  29.236  32.406  1.00  0.00    -0.248 NA
ATOM     56  C   UNL A   1      42.900  27.483  31.281  1.00  0.00     0.031 C 
ATOM     57  C   UNL A   1      43.085  30.759  36.392  1.00  0.00     0.029 A 
ATOM     58  C   UNL A   1      42.711  30.259  35.155  1.00  0.00     0.049 A 
ATOM     59  H   UNL A   1      41.221  30.958  33.837  1.00  0.00     0.167 HD
ATOM     60  C   UNL A   1      42.852  28.722  33.213  1.00  0.00     0.074 A 
ATOM     61  C   UNL A   1      43.444  27.618  32.484  1.00  0.00     0.031 C 
ATOM     62  C   UNL A   1      43.258  29.133  34.440  1.00  0.00     0.034 A 
BRANCH  49  63
ATOM     63  C   UNL A   1      40.283  34.144  36.528  1.00  0.00     0.023 A 
ATOM     64  C   UNL A   1      40.711  35.461  36.258  1.00  0.00     0.012 A 
ATOM     65  C   UNL A   1      39.715  33.850  37.783  1.00  0.00     0.148 A 
ATOM     66  C   UNL A   1      40.626  36.453  37.233  1.00  0.00     0.002 A 
ATOM     67  C   UNL A   1      39.590  34.858  38.736  1.00  0.00     0.091 A 
ATOM     68  F   UNL A   1      39.333  32.590  38.037  1.00  0.00    -0.205 F 
ATOM     69  C   UNL A   1      40.058  36.154  38.467  1.00  0.00     0.022 A 
BRANCH  67  70
ATOM     70  S   UNL A   1      38.798  34.585  40.325  1.00  0.00     0.127 S 
ATOM     71  O   UNL A   1      39.841  33.870  41.058  1.00  0.00    -0.237 OA
ATOM     72  O   UNL A   1      38.553  35.950  40.789  1.00  0.00    -0.237 OA
ATOM     73  O   UNL A   1      37.590  33.822  40.039  1.00  0.00    -0.744 OA
ENDBRANCH  67  70
ENDBRANCH  49  63
BRANCH  50  74
ATOM     74  C   UNL A   1      41.047  27.612  29.000  1.00  0.00     0.023 A 
ATOM     75  C   UNL A   1      40.199  26.486  28.988  1.00  0.00     0.012 A 
ATOM     76  C   UNL A   1      41.930  27.818  27.922  1.00  0.00     0.148 A 
ATOM     77  C   UNL A   1      40.243  25.573  27.934  1.00  0.00     0.002 A 
ATOM     78  C   UNL A   1      41.933  26.933  26.851  1.00  0.00     0.091 A 
ATOM     79  F   UNL A   1      42.730  28.894  27.957  1.00  0.00    -0.205 F 
ATOM     80  C   UNL A   1      41.100  25.803  26.861  1.00  0.00     0.022 A 
BRANCH  78  81
ATOM     81  S   UNL A   1      42.907  27.210  25.368  1.00  0.00     0.127 S 
ATOM     82  O   UNL A   1      42.734  25.947  24.656  1.00  0.00    -0.237 OA
ATOM     83  O   UNL A   1      42.222  28.354  24.767  1.00  0.00    -0.237 OA
ATOM     84  O   UNL A   1      44.260  27.492  25.829  1.00  0.00    -0.744 OA
ENDBRANCH  78  81
ENDBRANCH  50  74
BRANCH  62  85
ATOM     85  C   UNL A   1      44.382  28.374  35.094  1.00  0.00     0.023 A 
ATOM     86  C   UNL A   1      45.716  28.658  34.742  1.00  0.00     0.012 A 
ATOM     87  C   UNL A   1      44.120  27.437  36.113  1.00  0.00     0.148 A 
ATOM     88  C   UNL A   1      46.771  28.001  35.374  1.00  0.00     0.002 A 
ATOM     89  C   UNL A   1      45.177  26.822  36.772  1.00  0.00     0.091 A 
ATOM     90  F   UNL A   1      42.842  27.167  36.419  1.00  0.00    -0.205 F 
ATOM     91  C   UNL A   1      46.502  27.093  36.395  1.00  0.00     0.022 A 
BRANCH  89  92
ATOM     92  S   UNL A   1      44.927  25.714  38.164  1.00  0.00     0.127 S 
ATOM     93  O   UNL A   1      46.243  25.737  38.803  1.00  0.00    -0.237 OA
ATOM     94  O   UNL A   1      43.873  26.394  38.917  1.00  0.00    -0.237 OA
ATOM     95  O   UNL A   1      44.531  24.435  37.592  1.00  0.00    -0.744 OA
ENDBRANCH  89  92
ENDBRANCH  62  85
ENDBRANCH  36  37
ENDBRANCH  28  31
ENDBRANCH  26  27
ENDBRANCH   1  26
TORSDOF 16
ENDMDL
MODEL 3
REMARK VINA RESULT:     -12.8      5.154     10.407
REMARK SMILES Cc1cc(F)cc(N[C@](C)(C(=O)NCCCNC(=O)c2ccc(-c3c4nc(c(-c5cccc(S(=O)(=O)[O-])c5F)c5ccc([nH]5)c(-c5cccc(S(=O)(=O)[O-])c5F)c5nc(c(-c6cccc(S(=O)(=O)[O-])c6F)c6ccc3[nH]6)C=C5)C=C4)cc2)c2cccc(F)c2)c1
REMARK SMILES IDX 15 1 14 2 13 3 11 4 12 5 9 7 10 8 8 9 7 11 1 12 2 13 3 14
REMARK SMILES IDX 90 15 4 16 5 17 6 18 83 19 84 20 89 21 85 22 87 23 86 24
REMARK SMILES IDX 88 25 16 26 17 27 18 28 19 30 20 31 21 32 82 33 22 34 81 35
REMARK SMILES IDX 23 36 24 37 25 38 75 39 26 40 80 41 74 42 76 43 27 44 79 45
REMARK SMILES IDX 73 46 72 47 28 49 60 50 40 51 59 52 41 53 44 54 58 55 77 56
REMARK SMILES IDX 42 57 43 58 57 60 78 61 45 62 29 63 30 64 38 65 31 66 33 67
REMARK SMILES IDX 39 68 32 69 34 70 35 71 36 72 37 73 61 74 62 75 70 76 63 77
REMARK SMILES IDX 65 78 71 79 64 80 66 81 67 82 68 83 69 84 46 85 47 86 55 87
REMARK SMILES IDX 48 88 50 89 56 90 49 91 51 92 52 93 53 94 54 95
REMARK H PARENT 13 6 8 10 17 29 76 48 44 59
REMARK Flexibility Score: inf
ROOT
ATOM      1  C   UNL A   1      36.060  22.026  25.177  1.00  0.00     0.042 C 
ENDROOT
BRANCH   1   2
ATOM      2  C   UNL A   1      35.624  23.110  26.159  1.00  0.00     0.117 C 
BRANCH   2   3
ATOM      3  N   UNL A   1      34.682  22.593  27.128  1.00  0.00    -0.354 N 
ATOM      4  C   UNL A   1      33.323  22.600  27.178  1.00  0.00     0.250 C 
ATOM      5  O   UNL A   1      32.856  22.402  28.312  1.00  0.00    -0.272 OA
ATOM      6  H   UNL A   1      35.106  22.151  27.900  1.00  0.00     0.163 HD
BRANCH   4   7
ATOM      7  C   UNL A   1      32.357  22.845  25.934  1.00  0.00     0.139 C 
ATOM      8  C   UNL A   1      30.864  23.138  26.223  1.00  0.00     0.051 C 
BRANCH   7   9
ATOM      9  N   UNL A   1      32.874  24.077  25.244  1.00  0.00    -0.368 N 
ATOM     10  H   UNL A   1      33.675  23.959  24.681  1.00  0.00     0.161 HD
BRANCH   9  11
ATOM     11  C   UNL A   1      32.349  25.368  25.312  1.00  0.00     0.038 A 
ATOM     12  C   UNL A   1      33.156  28.529  27.333  1.00  0.00     0.044 C 
ATOM     13  C   UNL A   1      32.514  27.599  26.348  1.00  0.00    -0.046 A 
ATOM     14  C   UNL A   1      31.451  28.044  25.564  1.00  0.00     0.042 A 
ATOM     15  C   UNL A   1      32.961  26.274  26.200  1.00  0.00     0.029 A 
ATOM     16  C   UNL A   1      30.853  27.167  24.671  1.00  0.00     0.125 A 
ATOM     17  F   UNL A   1      29.826  27.594  23.922  1.00  0.00    -0.207 F 
ATOM     18  C   UNL A   1      31.289  25.850  24.543  1.00  0.00     0.065 A 
ENDBRANCH   9  11
ENDBRANCH   7   9
BRANCH   7  19
ATOM     19  C   UNL A   1      32.476  21.599  24.996  1.00  0.00    -0.011 A 
ATOM     20  C   UNL A   1      32.701  20.286  25.459  1.00  0.00     0.007 A 
ATOM     21  C   UNL A   1      32.250  21.730  23.609  1.00  0.00     0.046 A 
ATOM     22  C   UNL A   1      32.685  19.180  24.590  1.00  0.00     0.003 A 
ATOM     23  C   UNL A   1      32.212  20.628  22.758  1.00  0.00     0.123 A 
ATOM     24  C   UNL A   1      32.425  19.350  23.236  1.00  0.00     0.039 A 
ATOM     25  F   UNL A   1      31.939  20.819  21.461  1.00  0.00    -0.207 F 
ENDBRANCH   7  19
ENDBRANCH   4   7
ENDBRANCH   2   3
ENDBRANCH   1   2
BRANCH   1  26
ATOM     26  C   UNL A   1      37.549  22.046  24.856  1.00  0.00     0.118 C 
BRANCH  26  27
ATOM     27  N   UNL A   1      38.280  21.032  25.599  1.00  0.00    -0.352 N 
ATOM     28  C   UNL A   1      39.416  21.138  26.361  1.00  0.00     0.251 C 
ATOM     29  H   UNL A   1      37.899  20.124  25.547  1.00  0.00     0.163 HD
ATOM     30  O   UNL A   1      39.996  20.111  26.706  1.00  0.00    -0.269 OA
BRANCH  28  31
ATOM     31  C   UNL A   1      39.948  22.460  26.768  1.00  0.00     0.039 A 
ATOM     32  C   UNL A   1      39.396  23.610  26.195  1.00  0.00     0.014 A 
ATOM     33  C   UNL A   1      41.023  22.577  27.653  1.00  0.00     0.014 A 
ATOM     34  C   UNL A   1      39.899  24.869  26.533  1.00  0.00     0.010 A 
ATOM     35  C   UNL A   1      41.462  23.835  28.059  1.00  0.00     0.010 A 
ATOM     36  C   UNL A   1      40.926  24.994  27.483  1.00  0.00    -0.014 A 
BRANCH  36  37
ATOM     37  C   UNL A   1      41.465  26.325  27.862  1.00  0.00     0.031 A 
ATOM     38  C   UNL A   1      42.885  26.697  27.522  1.00  0.00     0.074 A 
ATOM     39  C   UNL A   1      40.698  27.176  28.570  1.00  0.00     0.049 A 
ATOM     40  N   UNL A   1      43.527  27.810  27.768  1.00  0.00    -0.248 NA
ATOM     41  C   UNL A   1      43.700  25.676  26.844  1.00  0.00     0.031 C 
ATOM     42  C   UNL A   1      39.339  26.899  29.036  1.00  0.00     0.029 A 
ATOM     43  N   UNL A   1      40.957  28.441  29.033  1.00  0.00    -0.354 N 
ATOM     44  C   UNL A   1      44.826  27.609  27.314  1.00  0.00     0.074 A 
ATOM     45  C   UNL A   1      44.893  26.252  26.818  1.00  0.00     0.031 C 
ATOM     46  C   UNL A   1      38.873  27.970  29.697  1.00  0.00     0.029 A 
ATOM     47  C   UNL A   1      39.907  29.001  29.723  1.00  0.00     0.049 A 
ATOM     48  H   UNL A   1      41.813  28.905  28.886  1.00  0.00     0.167 HD
ATOM     49  C   UNL A   1      45.861  28.482  27.278  1.00  0.00     0.034 A 
ATOM     50  C   UNL A   1      39.786  30.212  30.301  1.00  0.00     0.034 A 
ATOM     51  C   UNL A   1      45.774  29.845  27.724  1.00  0.00     0.049 A 
ATOM     52  C   UNL A   1      40.927  31.187  30.198  1.00  0.00     0.074 A 
ATOM     53  C   UNL A   1      46.727  30.844  27.639  1.00  0.00     0.029 A 
ATOM     54  N   UNL A   1      44.667  30.402  28.348  1.00  0.00    -0.354 N 
ATOM     55  N   UNL A   1      42.090  31.037  29.611  1.00  0.00    -0.248 NA
ATOM     56  C   UNL A   1      40.725  32.511  30.802  1.00  0.00     0.031 C 
ATOM     57  C   UNL A   1      46.203  31.999  28.230  1.00  0.00     0.029 A 
ATOM     58  C   UNL A   1      44.915  31.727  28.663  1.00  0.00     0.049 A 
ATOM     59  H   UNL A   1      43.827  29.925  28.539  1.00  0.00     0.167 HD
ATOM     60  C   UNL A   1      42.745  32.256  29.743  1.00  0.00     0.074 A 
ATOM     61  C   UNL A   1      41.840  33.139  30.451  1.00  0.00     0.031 C 
ATOM     62  C   UNL A   1      43.986  32.608  29.325  1.00  0.00     0.034 A 
BRANCH  49  63
ATOM     63  C   UNL A   1      47.160  27.996  26.684  1.00  0.00     0.023 A 
ATOM     64  C   UNL A   1      48.214  27.607  27.537  1.00  0.00     0.012 A 
ATOM     65  C   UNL A   1      47.333  27.900  25.289  1.00  0.00     0.148 A 
ATOM     66  C   UNL A   1      49.434  27.182  27.016  1.00  0.00     0.002 A 
ATOM     67  C   UNL A   1      48.539  27.429  24.776  1.00  0.00     0.091 A 
ATOM     68  F   UNL A   1      46.333  28.294  24.488  1.00  0.00    -0.205 F 
ATOM     69  C   UNL A   1      49.593  27.085  25.637  1.00  0.00     0.022 A 
BRANCH  67  70
ATOM     70  S   UNL A   1      48.807  27.193  23.016  1.00  0.00     0.127 S 
ATOM     71  O   UNL A   1      48.226  25.868  22.802  1.00  0.00    -0.237 OA
ATOM     72  O   UNL A   1      48.042  28.295  22.433  1.00  0.00    -0.237 OA
ATOM     73  O   UNL A   1      50.247  27.290  22.818  1.00  0.00    -0.744 OA
ENDBRANCH  67  70
ENDBRANCH  49  63
BRANCH  50  74
ATOM     74  C   UNL A   1      38.492  30.600  30.929  1.00  0.00     0.023 A 
ATOM     75  C   UNL A   1      38.294  30.344  32.300  1.00  0.00     0.012 A 
ATOM     76  C   UNL A   1      37.490  31.274  30.203  1.00  0.00     0.148 A 
ATOM     77  C   UNL A   1      37.113  30.733  32.933  1.00  0.00     0.002 A 
ATOM     78  C   UNL A   1      36.338  31.704  30.851  1.00  0.00     0.091 A 
ATOM     79  F   UNL A   1      37.699  31.503  28.899  1.00  0.00    -0.205 F 
ATOM     80  C   UNL A   1      36.141  31.422  32.213  1.00  0.00     0.022 A 
BRANCH  78  81
ATOM     81  S   UNL A   1      35.088  32.708  30.042  1.00  0.00     0.127 S 
ATOM     82  O   UNL A   1      34.643  31.824  28.968  1.00  0.00    -0.237 OA
ATOM     83  O   UNL A   1      34.118  32.906  31.118  1.00  0.00    -0.237 OA
ATOM     84  O   UNL A   1      35.771  33.922  29.615  1.00  0.00    -0.744 OA
ENDBRANCH  78  81
ENDBRANCH  50  74
BRANCH  62  85
ATOM     85  C   UNL A   1      44.439  34.019  29.596  1.00  0.00     0.023 A 
ATOM     86  C   UNL A   1      45.055  34.332  30.824  1.00  0.00     0.012 A 
ATOM     87  C   UNL A   1      44.328  35.013  28.604  1.00  0.00     0.148 A 
ATOM     88  C   UNL A   1      45.526  35.621  31.071  1.00  0.00     0.002 A 
ATOM     89  C   UNL A   1      44.843  36.282  28.840  1.00  0.00     0.091 A 
ATOM     90  F   UNL A   1      43.721  34.700  27.450  1.00  0.00    -0.205 F 
ATOM     91  C   UNL A   1      45.431  36.591  30.077  1.00  0.00     0.022 A 
BRANCH  89  92
ATOM     92  S   UNL A   1      44.853  37.564  27.581  1.00  0.00     0.127 S 
ATOM     93  O   UNL A   1      45.682  36.954  26.541  1.00  0.00    -0.237 OA
ATOM     94  O   UNL A   1      43.435  37.677  27.241  1.00  0.00    -0.237 OA
ATOM     95  O   UNL A   1      45.417  38.746  28.217  1.00  0.00    -0.744 OA
ENDBRANCH  89  92
ENDBRANCH  62  85
ENDBRANCH  36  37
ENDBRANCH  28  31
ENDBRANCH  26  27
ENDBRANCH   1  26
TORSDOF 16
ENDMDL
