MODEL 1
REMARK VINA RESULT:     -13.5      0.000      0.000
REMARK SMILES Cc1cc(S(F)(F)(F)(F)F)cc2c1O[C@H](C(F)(F)F)C(C(=O)NCCCNC(=O)c1ccc(-c3c4nc(c(-c5cccc(S(=O)(=O)[O-])c5F)c5ccc([nH]5)c(-c5cccc(S(=O)(=O)[O-])c5F)c5nc(c(-c6cccc(S(=O)(=O)[O-])c6F)c6ccc3[nH]6)C=C5)C=C4)cc1)=C2
REMARK SMILES IDX 26 1 25 2 24 3 23 4 21 5 22 6 20 8 1 9 2 10 3 11 13 12 4 13
REMARK SMILES IDX 12 14 14 15 11 16 93 17 15 18 5 19 6 20 7 21 8 22 9 23 10 24
REMARK SMILES IDX 16 25 17 26 18 27 19 28 27 29 28 30 29 32 30 33 31 34 92 35
REMARK SMILES IDX 32 36 91 37 33 38 34 39 35 40 85 41 36 42 90 43 84 44 86 45
REMARK SMILES IDX 37 46 89 47 83 48 82 49 38 51 70 52 50 53 69 54 51 55 54 56
REMARK SMILES IDX 68 57 87 58 52 59 53 60 67 62 88 63 55 64 39 65 40 66 48 67
REMARK SMILES IDX 41 68 43 69 49 70 42 71 44 72 45 73 46 74 47 75 71 76 72 77
REMARK SMILES IDX 80 78 73 79 75 80 81 81 74 82 76 83 77 84 78 85 79 86 56 87
REMARK SMILES IDX 57 88 65 89 58 90 60 91 66 92 59 93 61 94 62 95 63 96 64 97
REMARK H PARENT 23 7 27 31 86 50 54 61
REMARK Flexibility Score: inf
ROOT
ATOM      1  C   UNL A   1      38.749  20.333  25.813  1.00  0.00     0.118 C 
ENDROOT
BRANCH   1   2
ATOM      2  C   UNL A   1      37.803  20.224  24.628  1.00  0.00     0.042 C 
BRANCH   2   3
ATOM      3  C   UNL A   1      36.673  21.227  24.788  1.00  0.00     0.118 C 
BRANCH   3   4
ATOM      4  N   UNL A   1      35.717  20.734  25.790  1.00  0.00    -0.352 N 
ATOM      5  C   UNL A   1      34.494  21.499  26.077  1.00  0.00     0.251 C 
ATOM      6  O   UNL A   1      33.668  21.073  26.944  1.00  0.00    -0.270 OA
ATOM      7  H   UNL A   1      35.895  19.892  26.268  1.00  0.00     0.163 HD
BRANCH   5   8
ATOM      8  C   UNL A   1      34.220  22.798  25.339  1.00  0.00     0.067 C 
ATOM      9  C   UNL A   1      33.428  26.485  21.755  1.00  0.00     0.048 C 
ATOM     10  C   UNL A   1      33.462  26.356  23.270  1.00  0.00    -0.007 A 
ATOM     11  C   UNL A   1      33.372  27.529  23.986  1.00  0.00     0.031 A 
ATOM     12  C   UNL A   1      33.714  25.161  23.942  1.00  0.00     0.130 A 
ATOM     13  C   UNL A   1      33.533  27.532  25.366  1.00  0.00     0.108 A 
ATOM     14  C   UNL A   1      33.872  25.167  25.346  1.00  0.00     0.019 A 
ATOM     15  O   UNL A   1      33.822  23.879  23.236  1.00  0.00    -0.475 OA
ATOM     16  C   UNL A   1      33.773  26.372  26.046  1.00  0.00     0.036 A 
ATOM     17  C   UNL A   1      34.135  23.899  26.026  1.00  0.00     0.025 C 
ATOM     18  C   UNL A   1      34.068  22.762  23.953  1.00  0.00     0.314 C 
BRANCH  13  19
ATOM     19  S   UNL A   1      33.423  29.093  26.275  1.00  0.00     0.310 S 
ATOM     20  F   UNL A   1      33.393  28.439  27.719  1.00  0.00    -0.094 F 
ATOM     21  F   UNL A   1      31.862  28.885  26.223  1.00  0.00    -0.094 F 
ATOM     22  F   UNL A   1      33.244  30.475  26.964  1.00  0.00    -0.094 F 
ATOM     23  F   UNL A   1      34.988  29.221  26.444  1.00  0.00    -0.094 F 
ATOM     24  F   UNL A   1      33.619  27.643  25.678  1.00  0.00    -0.094 F 
ENDBRANCH  13  19
BRANCH  18  25
ATOM     25  C   UNL A   1      32.773  21.982  23.790  1.00  0.00     0.429 C 
ATOM     26  F   UNL A   1      32.243  22.246  22.599  1.00  0.00    -0.167 F 
ATOM     27  F   UNL A   1      33.025  20.680  23.885  1.00  0.00    -0.167 F 
ATOM     28  F   UNL A   1      31.919  22.338  24.745  1.00  0.00    -0.167 F 
ENDBRANCH  18  25
ENDBRANCH   5   8
ENDBRANCH   3   4
ENDBRANCH   2   3
ENDBRANCH   1   2
BRANCH   1  29
ATOM     29  N   UNL A   1      39.739  19.249  25.752  1.00  0.00    -0.352 N 
ATOM     30  C   UNL A   1      41.148  19.521  26.068  1.00  0.00     0.251 C 
ATOM     31  H   UNL A   1      39.458  18.339  25.499  1.00  0.00     0.163 HD
ATOM     32  O   UNL A   1      42.005  18.583  26.016  1.00  0.00    -0.269 OA
BRANCH  30  33
ATOM     33  C   UNL A   1      41.582  20.924  26.458  1.00  0.00     0.039 A 
ATOM     34  C   UNL A   1      41.630  21.364  27.776  1.00  0.00     0.014 A 
ATOM     35  C   UNL A   1      42.012  21.734  25.513  1.00  0.00     0.014 A 
ATOM     36  C   UNL A   1      42.563  22.384  28.068  1.00  0.00     0.010 A 
ATOM     37  C   UNL A   1      42.496  23.008  25.828  1.00  0.00     0.010 A 
ATOM     38  C   UNL A   1      42.771  23.336  27.072  1.00  0.00    -0.014 A 
BRANCH  38  39
ATOM     39  C   UNL A   1      43.300  24.719  27.414  1.00  0.00     0.031 A 
ATOM     40  C   UNL A   1      44.657  25.003  27.250  1.00  0.00     0.074 A 
ATOM     41  C   UNL A   1      42.358  25.650  27.817  1.00  0.00     0.049 A 
ATOM     42  N   UNL A   1      45.266  26.179  27.408  1.00  0.00    -0.248 NA
ATOM     43  C   UNL A   1      45.666  24.009  26.856  1.00  0.00     0.031 C 
ATOM     44  C   UNL A   1      40.986  25.372  27.978  1.00  0.00     0.029 A 
ATOM     45  N   UNL A   1      42.558  26.975  28.129  1.00  0.00    -0.354 N 
ATOM     46  C   UNL A   1      46.568  26.064  27.141  1.00  0.00     0.074 A 
ATOM     47  C   UNL A   1      46.846  24.664  26.789  1.00  0.00     0.031 C 
ATOM     48  C   UNL A   1      40.371  26.511  28.392  1.00  0.00     0.029 A 
ATOM     49  C   UNL A   1      41.347  27.519  28.496  1.00  0.00     0.049 A 
ATOM     50  H   UNL A   1      43.419  27.453  28.096  1.00  0.00     0.167 HD
ATOM     51  C   UNL A   1      47.536  27.069  27.178  1.00  0.00     0.034 A 
ATOM     52  C   UNL A   1      41.089  28.819  28.903  1.00  0.00     0.034 A 
ATOM     53  C   UNL A   1      47.270  28.379  27.543  1.00  0.00     0.049 A 
ATOM     54  C   UNL A   1      42.067  29.812  28.995  1.00  0.00     0.074 A 
ATOM     55  C   UNL A   1      48.231  29.407  27.577  1.00  0.00     0.029 A 
ATOM     56  N   UNL A   1      46.063  28.917  27.934  1.00  0.00    -0.354 N 
ATOM     57  N   UNL A   1      43.361  29.704  28.692  1.00  0.00    -0.248 NA
ATOM     58  C   UNL A   1      41.812  31.182  29.457  1.00  0.00     0.031 C 
ATOM     59  C   UNL A   1      47.616  30.546  27.991  1.00  0.00     0.029 A 
ATOM     60  C   UNL A   1      46.259  30.249  28.224  1.00  0.00     0.049 A 
ATOM     61  H   UNL A   1      45.209  28.433  27.994  1.00  0.00     0.167 HD
ATOM     62  C   UNL A   1      43.978  30.871  28.889  1.00  0.00     0.074 A 
ATOM     63  C   UNL A   1      42.991  31.837  29.391  1.00  0.00     0.031 C 
ATOM     64  C   UNL A   1      45.324  31.170  28.668  1.00  0.00     0.034 A 
BRANCH  51  65
ATOM     65  C   UNL A   1      48.962  26.707  26.794  1.00  0.00     0.023 A 
ATOM     66  C   UNL A   1      49.795  26.046  27.690  1.00  0.00     0.012 A 
ATOM     67  C   UNL A   1      49.435  27.004  25.603  1.00  0.00     0.148 A 
ATOM     68  C   UNL A   1      50.863  25.308  27.134  1.00  0.00     0.002 A 
ATOM     69  C   UNL A   1      50.748  26.673  25.251  1.00  0.00     0.091 A 
ATOM     70  F   UNL A   1      48.656  27.626  24.723  1.00  0.00    -0.205 F 
ATOM     71  C   UNL A   1      51.455  25.844  25.990  1.00  0.00     0.022 A 
BRANCH  69  72
ATOM     72  S   UNL A   1      51.484  27.393  23.762  1.00  0.00     0.127 S 
ATOM     73  O   UNL A   1      50.714  26.913  22.530  1.00  0.00    -0.237 OA
ATOM     74  O   UNL A   1      51.413  28.919  23.846  1.00  0.00    -0.237 OA
ATOM     75  O   UNL A   1      53.118  26.904  23.640  1.00  0.00    -0.744 OA
ENDBRANCH  69  72
ENDBRANCH  51  65
BRANCH  52  76
ATOM     76  C   UNL A   1      39.660  29.185  29.271  1.00  0.00     0.023 A 
ATOM     77  C   UNL A   1      38.759  29.600  28.296  1.00  0.00     0.012 A 
ATOM     78  C   UNL A   1      39.246  29.120  30.517  1.00  0.00     0.148 A 
ATOM     79  C   UNL A   1      37.387  29.437  28.594  1.00  0.00     0.002 A 
ATOM     80  C   UNL A   1      37.934  29.470  30.856  1.00  0.00     0.091 A 
ATOM     81  F   UNL A   1      40.084  28.716  31.468  1.00  0.00    -0.205 F 
ATOM     82  C   UNL A   1      37.018  29.626  29.925  1.00  0.00     0.022 A 
BRANCH  80  83
ATOM     83  S   UNL A   1      37.493  29.711  32.595  1.00  0.00     0.127 S 
ATOM     84  O   UNL A   1      36.168  30.472  32.683  1.00  0.00    -0.237 OA
ATOM     85  O   UNL A   1      37.346  28.350  33.277  1.00  0.00    -0.237 OA
ATOM     86  O   UNL A   1      38.720  30.611  33.374  1.00  0.00    -0.744 OA
ENDBRANCH  80  83
ENDBRANCH  52  76
BRANCH  64  87
ATOM     87  C   UNL A   1      45.792  32.592  28.931  1.00  0.00     0.023 A 
ATOM     88  C   UNL A   1      46.336  32.997  30.146  1.00  0.00     0.012 A 
ATOM     89  C   UNL A   1      45.742  33.464  27.947  1.00  0.00     0.148 A 
ATOM     90  C   UNL A   1      47.230  34.089  30.104  1.00  0.00     0.002 A 
ATOM     91  C   UNL A   1      46.217  34.769  28.122  1.00  0.00     0.091 A 
ATOM     92  F   UNL A   1      45.236  33.101  26.772  1.00  0.00    -0.205 F 
ATOM     93  C   UNL A   1      46.946  35.085  29.171  1.00  0.00     0.022 A 
BRANCH  91  94
ATOM     94  S   UNL A   1      45.823  36.037  26.891  1.00  0.00     0.127 S 
ATOM     95  O   UNL A   1      46.503  35.689  25.565  1.00  0.00    -0.237 OA
ATOM     96  O   UNL A   1      44.307  36.096  26.688  1.00  0.00    -0.237 OA
ATOM     97  O   UNL A   1      46.384  37.557  27.438  1.00  0.00    -0.744 OA
ENDBRANCH  91  94
ENDBRANCH  64  87
ENDBRANCH  38  39
ENDBRANCH  30  33
ENDBRANCH   1  29
TORSDOF 15
ENDMDL
MODEL 2
REMARK VINA RESULT:     -13.2      5.742     11.090
REMARK SMILES Cc1cc(S(F)(F)(F)(F)F)cc2c1O[C@H](C(F)(F)F)C(C(=O)NCCCNC(=O)c1ccc(-c3c4nc(c(-c5cccc(S(=O)(=O)[O-])c5F)c5ccc([nH]5)c(-c5cccc(S(=O)(=O)[O-])c5F)c5nc(c(-c6cccc(S(=O)(=O)[O-])c6F)c6ccc3[nH]6)C=C5)C=C4)cc1)=C2
REMARK SMILES IDX 26 1 25 2 24 3 23 4 21 5 22 6 20 8 1 9 2 10 3 11 13 12 4 13
REMARK SMILES IDX 12 14 14 15 11 16 93 17 15 18 5 19 6 20 7 21 8 22 9 23 10 24
REMARK SMILES IDX 16 25 17 26 18 27 19 28 27 29 28 30 29 32 30 33 31 34 92 35
REMARK SMILES IDX 32 36 91 37 33 38 34 39 35 40 85 41 36 42 90 43 84 44 86 45
REMARK SMILES IDX 37 46 89 47 83 48 82 49 38 51 70 52 50 53 69 54 51 55 54 56
REMARK SMILES IDX 68 57 87 58 52 59 53 60 67 62 88 63 55 64 39 65 40 66 48 67
REMARK SMILES IDX 41 68 43 69 49 70 42 71 44 72 45 73 46 74 47 75 71 76 72 77
REMARK SMILES IDX 80 78 73 79 75 80 81 81 74 82 76 83 77 84 78 85 79 86 56 87
REMARK SMILES IDX 57 88 65 89 58 90 60 91 66 92 59 93 61 94 62 95 63 96 64 97
REMARK H PARENT 23 7 27 31 86 50 54 61
REMARK Flexibility Score: inf
ROOT
ATOM      1  C   UNL A   1      32.624  32.182  26.873  1.00  0.00     0.118 C 
ENDROOT
BRANCH   1   2
ATOM      2  C   UNL A   1      31.402  31.303  26.660  1.00  0.00     0.042 C 
BRANCH   2   3
ATOM      3  C   UNL A   1      31.835  29.970  26.070  1.00  0.00     0.118 C 
BRANCH   3   4
ATOM      4  N   UNL A   1      31.879  30.073  24.604  1.00  0.00    -0.352 N 
ATOM      5  C   UNL A   1      32.079  28.866  23.789  1.00  0.00     0.251 C 
ATOM      6  O   UNL A   1      32.118  28.955  22.522  1.00  0.00    -0.270 OA
ATOM      7  H   UNL A   1      31.776  30.949  24.169  1.00  0.00     0.163 HD
BRANCH   5   8
ATOM      8  C   UNL A   1      32.239  27.513  24.462  1.00  0.00     0.067 C 
ATOM      9  C   UNL A   1      31.605  23.168  27.252  1.00  0.00     0.048 C 
ATOM     10  C   UNL A   1      32.641  23.788  26.327  1.00  0.00    -0.007 A 
ATOM     11  C   UNL A   1      33.843  23.124  26.222  1.00  0.00     0.031 A 
ATOM     12  C   UNL A   1      32.488  25.030  25.713  1.00  0.00     0.130 A 
ATOM     13  C   UNL A   1      34.902  23.681  25.515  1.00  0.00     0.108 A 
ATOM     14  C   UNL A   1      33.565  25.591  24.989  1.00  0.00     0.019 A 
ATOM     15  O   UNL A   1      31.233  25.787  25.788  1.00  0.00    -0.475 OA
ATOM     16  C   UNL A   1      34.772  24.893  24.899  1.00  0.00     0.036 A 
ATOM     17  C   UNL A   1      33.378  26.895  24.354  1.00  0.00     0.025 C 
ATOM     18  C   UNL A   1      31.159  26.983  25.168  1.00  0.00     0.314 C 
BRANCH  13  19
ATOM     19  S   UNL A   1      36.472  22.788  25.409  1.00  0.00     0.310 S 
ATOM     20  F   UNL A   1      37.091  23.686  24.257  1.00  0.00    -0.094 F 
ATOM     21  F   UNL A   1      35.783  21.934  24.279  1.00  0.00    -0.094 F 
ATOM     22  F   UNL A   1      37.753  21.911  25.330  1.00  0.00    -0.094 F 
ATOM     23  F   UNL A   1      37.198  23.740  26.440  1.00  0.00    -0.094 F 
ATOM     24  F   UNL A   1      35.221  23.755  25.418  1.00  0.00    -0.094 F 
ENDBRANCH  13  19
BRANCH  18  25
ATOM     25  C   UNL A   1      30.151  26.712  24.062  1.00  0.00     0.429 C 
ATOM     26  F   UNL A   1      29.224  25.867  24.505  1.00  0.00    -0.167 F 
ATOM     27  F   UNL A   1      29.574  27.853  23.699  1.00  0.00    -0.167 F 
ATOM     28  F   UNL A   1      30.775  26.179  23.016  1.00  0.00    -0.167 F 
ENDBRANCH  18  25
ENDBRANCH   5   8
ENDBRANCH   3   4
ENDBRANCH   2   3
ENDBRANCH   1   2
BRANCH   1  29
ATOM     29  N   UNL A   1      32.195  33.520  27.305  1.00  0.00    -0.352 N 
ATOM     30  C   UNL A   1      32.973  34.251  28.314  1.00  0.00     0.251 C 
ATOM     31  H   UNL A   1      31.385  33.927  26.918  1.00  0.00     0.163 HD
ATOM     32  O   UNL A   1      32.603  35.409  28.688  1.00  0.00    -0.269 OA
BRANCH  30  33
ATOM     33  C   UNL A   1      34.222  33.625  28.912  1.00  0.00     0.039 A 
ATOM     34  C   UNL A   1      35.495  33.823  28.389  1.00  0.00     0.014 A 
ATOM     35  C   UNL A   1      34.104  32.930  30.024  1.00  0.00     0.014 A 
ATOM     36  C   UNL A   1      36.572  33.727  29.298  1.00  0.00     0.010 A 
ATOM     37  C   UNL A   1      35.232  32.398  30.659  1.00  0.00     0.010 A 
ATOM     38  C   UNL A   1      36.443  32.781  30.313  1.00  0.00    -0.014 A 
BRANCH  38  39
ATOM     39  C   UNL A   1      37.668  32.206  31.003  1.00  0.00     0.031 A 
ATOM     40  C   UNL A   1      38.111  32.759  32.207  1.00  0.00     0.074 A 
ATOM     41  C   UNL A   1      38.241  31.097  30.405  1.00  0.00     0.049 A 
ATOM     42  N   UNL A   1      39.100  32.321  32.988  1.00  0.00    -0.248 NA
ATOM     43  C   UNL A   1      37.527  33.957  32.828  1.00  0.00     0.031 C 
ATOM     44  C   UNL A   1      37.795  30.529  29.196  1.00  0.00     0.029 A 
ATOM     45  N   UNL A   1      39.313  30.356  30.848  1.00  0.00    -0.354 N 
ATOM     46  C   UNL A   1      39.214  33.099  34.066  1.00  0.00     0.074 A 
ATOM     47  C   UNL A   1      38.209  34.167  33.975  1.00  0.00     0.031 C 
ATOM     48  C   UNL A   1      38.595  29.468  28.908  1.00  0.00     0.029 A 
ATOM     49  C   UNL A   1      39.553  29.355  29.932  1.00  0.00     0.049 A 
ATOM     50  H   UNL A   1      39.822  30.514  31.676  1.00  0.00     0.167 HD
ATOM     51  C   UNL A   1      40.117  32.960  35.122  1.00  0.00     0.034 A 
ATOM     52  C   UNL A   1      40.547  28.389  29.972  1.00  0.00     0.034 A 
ATOM     53  C   UNL A   1      41.083  31.968  35.182  1.00  0.00     0.049 A 
ATOM     54  C   UNL A   1      41.487  28.285  30.999  1.00  0.00     0.074 A 
ATOM     55  C   UNL A   1      41.995  31.809  36.243  1.00  0.00     0.029 A 
ATOM     56  N   UNL A   1      41.338  30.982  34.254  1.00  0.00    -0.354 N 
ATOM     57  N   UNL A   1      41.576  29.039  32.095  1.00  0.00    -0.248 NA
ATOM     58  C   UNL A   1      42.564  27.288  31.034  1.00  0.00     0.031 C 
ATOM     59  C   UNL A   1      42.795  30.748  35.955  1.00  0.00     0.029 A 
ATOM     60  C   UNL A   1      42.396  30.227  34.708  1.00  0.00     0.049 A 
ATOM     61  H   UNL A   1      40.848  30.842  33.412  1.00  0.00     0.167 HD
ATOM     62  C   UNL A   1      42.591  28.626  32.856  1.00  0.00     0.074 A 
ATOM     63  C   UNL A   1      43.246  27.497  32.181  1.00  0.00     0.031 C 
ATOM     64  C   UNL A   1      42.996  29.142  34.088  1.00  0.00     0.034 A 
BRANCH  51  65
ATOM     65  C   UNL A   1      40.034  33.952  36.271  1.00  0.00     0.023 A 
ATOM     66  C   UNL A   1      40.579  35.226  36.152  1.00  0.00     0.012 A 
ATOM     67  C   UNL A   1      39.440  33.628  37.399  1.00  0.00     0.148 A 
ATOM     68  C   UNL A   1      40.042  36.223  36.997  1.00  0.00     0.002 A 
ATOM     69  C   UNL A   1      39.367  34.541  38.458  1.00  0.00     0.091 A 
ATOM     70  F   UNL A   1      38.902  32.420  37.535  1.00  0.00    -0.205 F 
ATOM     71  C   UNL A   1      39.657  35.811  38.273  1.00  0.00     0.022 A 
BRANCH  69  72
ATOM     72  S   UNL A   1      38.869  33.967  40.100  1.00  0.00     0.127 S 
ATOM     73  O   UNL A   1      39.091  35.086  41.121  1.00  0.00    -0.237 OA
ATOM     74  O   UNL A   1      37.387  33.583  40.078  1.00  0.00    -0.237 OA
ATOM     75  O   UNL A   1      39.804  32.604  40.536  1.00  0.00    -0.744 OA
ENDBRANCH  69  72
ENDBRANCH  51  65
BRANCH  52  76
ATOM     76  C   UNL A   1      40.617  27.387  28.830  1.00  0.00     0.023 A 
ATOM     77  C   UNL A   1      39.844  26.232  28.849  1.00  0.00     0.012 A 
ATOM     78  C   UNL A   1      41.414  27.590  27.803  1.00  0.00     0.148 A 
ATOM     79  C   UNL A   1      39.576  25.631  27.598  1.00  0.00     0.002 A 
ATOM     80  C   UNL A   1      41.489  26.660  26.761  1.00  0.00     0.091 A 
ATOM     81  F   UNL A   1      42.158  28.691  27.755  1.00  0.00    -0.205 F 
ATOM     82  C   UNL A   1      40.595  25.700  26.650  1.00  0.00     0.022 A 
BRANCH  80  83
ATOM     83  S   UNL A   1      42.829  26.777  25.550  1.00  0.00     0.127 S 
ATOM     84  O   UNL A   1      44.173  26.821  26.281  1.00  0.00    -0.237 OA
ATOM     85  O   UNL A   1      42.790  25.559  24.625  1.00  0.00    -0.237 OA
ATOM     86  O   UNL A   1      42.637  28.202  24.624  1.00  0.00    -0.744 OA
ENDBRANCH  80  83
ENDBRANCH  52  76
BRANCH  64  87
ATOM     87  C   UNL A   1      44.167  28.476  34.792  1.00  0.00     0.023 A 
ATOM     88  C   UNL A   1      45.493  28.712  34.443  1.00  0.00     0.012 A 
ATOM     89  C   UNL A   1      43.921  27.691  35.819  1.00  0.00     0.148 A 
ATOM     90  C   UNL A   1      46.454  28.535  35.463  1.00  0.00     0.002 A 
ATOM     91  C   UNL A   1      44.968  27.103  36.537  1.00  0.00     0.091 A 
ATOM     92  F   UNL A   1      42.663  27.456  36.180  1.00  0.00    -0.205 F 
ATOM     93  C   UNL A   1      46.209  27.508  36.372  1.00  0.00     0.022 A 
BRANCH  91  94
ATOM     94  S   UNL A   1      44.611  25.767  37.706  1.00  0.00     0.127 S 
ATOM     95  O   UNL A   1      43.779  26.315  38.868  1.00  0.00    -0.237 OA
ATOM     96  O   UNL A   1      43.827  24.662  36.993  1.00  0.00    -0.237 OA
ATOM     97  O   UNL A   1      46.078  25.128  38.308  1.00  0.00    -0.744 OA
ENDBRANCH  91  94
ENDBRANCH  64  87
ENDBRANCH  38  39
ENDBRANCH  30  33
ENDBRANCH   1  29
TORSDOF 15
ENDMDL
MODEL 3
REMARK VINA RESULT:     -13.0      0.303      7.540
REMARK SMILES Cc1cc(S(F)(F)(F)(F)F)cc2c1O[C@H](C(F)(F)F)C(C(=O)NCCCNC(=O)c1ccc(-c3c4nc(c(-c5cccc(S(=O)(=O)[O-])c5F)c5ccc([nH]5)c(-c5cccc(S(=O)(=O)[O-])c5F)c5nc(c(-c6cccc(S(=O)(=O)[O-])c6F)c6ccc3[nH]6)C=C5)C=C4)cc1)=C2
REMARK SMILES IDX 26 1 25 2 24 3 23 4 21 5 22 6 20 8 1 9 2 10 3 11 13 12 4 13
REMARK SMILES IDX 12 14 14 15 11 16 93 17 15 18 5 19 6 20 7 21 8 22 9 23 10 24
REMARK SMILES IDX 16 25 17 26 18 27 19 28 27 29 28 30 29 32 30 33 31 34 92 35
REMARK SMILES IDX 32 36 91 37 33 38 34 39 35 40 85 41 36 42 90 43 84 44 86 45
REMARK SMILES IDX 37 46 89 47 83 48 82 49 38 51 70 52 50 53 69 54 51 55 54 56
REMARK SMILES IDX 68 57 87 58 52 59 53 60 67 62 88 63 55 64 39 65 40 66 48 67
REMARK SMILES IDX 41 68 43 69 49 70 42 71 44 72 45 73 46 74 47 75 71 76 72 77
REMARK SMILES IDX 80 78 73 79 75 80 81 81 74 82 76 83 77 84 78 85 79 86 56 87
REMARK SMILES IDX 57 88 65 89 58 90 60 91 66 92 59 93 61 94 62 95 63 96 64 97
REMARK H PARENT 23 7 27 31 86 50 54 61
REMARK Flexibility Score: inf
ROOT
ATOM      1  C   UNL A   1      38.693  20.315  25.845  1.00  0.00     0.118 C 
ENDROOT
BRANCH   1   2
ATOM      2  C   UNL A   1      37.797  20.131  24.630  1.00  0.00     0.042 C 
BRANCH   2   3
ATOM      3  C   UNL A   1      36.624  21.093  24.715  1.00  0.00     0.118 C 
BRANCH   3   4
ATOM      4  N   UNL A   1      35.675  20.621  25.733  1.00  0.00    -0.352 N 
ATOM      5  C   UNL A   1      34.478  21.416  26.047  1.00  0.00     0.251 C 
ATOM      6  O   UNL A   1      33.658  21.008  26.927  1.00  0.00    -0.270 OA
ATOM      7  H   UNL A   1      35.839  19.773  26.204  1.00  0.00     0.163 HD
BRANCH   5   8
ATOM      8  C   UNL A   1      34.224  22.726  25.319  1.00  0.00     0.067 C 
ATOM      9  C   UNL A   1      33.510  26.457  21.766  1.00  0.00     0.048 C 
ATOM     10  C   UNL A   1      33.523  26.311  23.279  1.00  0.00    -0.007 A 
ATOM     11  C   UNL A   1      33.432  27.477  24.007  1.00  0.00     0.031 A 
ATOM     12  C   UNL A   1      33.756  25.107  23.941  1.00  0.00     0.130 A 
ATOM     13  C   UNL A   1      33.574  27.464  25.389  1.00  0.00     0.108 A 
ATOM     14  C   UNL A   1      33.894  25.096  25.347  1.00  0.00     0.019 A 
ATOM     15  O   UNL A   1      33.863  23.832  23.222  1.00  0.00    -0.475 OA
ATOM     16  C   UNL A   1      33.796  26.294  26.059  1.00  0.00     0.036 A 
ATOM     17  C   UNL A   1      34.139  23.819  26.017  1.00  0.00     0.025 C 
ATOM     18  C   UNL A   1      34.090  22.706  23.931  1.00  0.00     0.314 C 
BRANCH  13  19
ATOM     19  S   UNL A   1      33.463  29.016  26.313  1.00  0.00     0.310 S 
ATOM     20  F   UNL A   1      33.471  28.349  27.752  1.00  0.00    -0.094 F 
ATOM     21  F   UNL A   1      31.905  28.789  26.291  1.00  0.00    -0.094 F 
ATOM     22  F   UNL A   1      33.282  30.390  27.017  1.00  0.00    -0.094 F 
ATOM     23  F   UNL A   1      35.031  29.161  26.451  1.00  0.00    -0.094 F 
ATOM     24  F   UNL A   1      33.665  27.573  25.700  1.00  0.00    -0.094 F 
ENDBRANCH  13  19
BRANCH  18  25
ATOM     25  C   UNL A   1      32.792  21.937  23.742  1.00  0.00     0.429 C 
ATOM     26  F   UNL A   1      33.035  20.632  23.819  1.00  0.00    -0.167 F 
ATOM     27  F   UNL A   1      31.929  22.285  24.692  1.00  0.00    -0.167 F 
ATOM     28  F   UNL A   1      32.277  22.224  22.550  1.00  0.00    -0.167 F 
ENDBRANCH  18  25
ENDBRANCH   5   8
ENDBRANCH   3   4
ENDBRANCH   2   3
ENDBRANCH   1   2
BRANCH   1  29
ATOM     29  N   UNL A   1      39.748  19.291  25.835  1.00  0.00    -0.352 N 
ATOM     30  C   UNL A   1      41.138  19.666  26.131  1.00  0.00     0.251 C 
ATOM     31  H   UNL A   1      39.523  18.355  25.630  1.00  0.00     0.163 HD
ATOM     32  O   UNL A   1      42.050  18.781  26.124  1.00  0.00    -0.269 OA
BRANCH  30  33
ATOM     33  C   UNL A   1      41.485  21.111  26.446  1.00  0.00     0.039 A 
ATOM     34  C   UNL A   1      41.437  21.640  27.732  1.00  0.00     0.014 A 
ATOM     35  C   UNL A   1      41.932  21.876  25.472  1.00  0.00     0.014 A 
ATOM     36  C   UNL A   1      42.306  22.720  28.003  1.00  0.00     0.010 A 
ATOM     37  C   UNL A   1      42.340  23.191  25.724  1.00  0.00     0.010 A 
ATOM     38  C   UNL A   1      42.527  23.614  26.956  1.00  0.00    -0.014 A 
BRANCH  38  39
ATOM     39  C   UNL A   1      42.973  25.040  27.231  1.00  0.00     0.031 A 
ATOM     40  C   UNL A   1      42.047  25.983  27.681  1.00  0.00     0.074 A 
ATOM     41  C   UNL A   1      44.324  25.297  27.073  1.00  0.00     0.049 A 
ATOM     42  N   UNL A   1      42.285  27.239  28.060  1.00  0.00    -0.248 NA
ATOM     43  C   UNL A   1      40.606  25.724  27.817  1.00  0.00     0.031 C 
ATOM     44  C   UNL A   1      45.266  24.349  26.627  1.00  0.00     0.029 A 
ATOM     45  N   UNL A   1      44.994  26.477  27.308  1.00  0.00    -0.354 N 
ATOM     46  C   UNL A   1      41.151  27.827  28.447  1.00  0.00     0.074 A 
ATOM     47  C   UNL A   1      40.053  26.862  28.289  1.00  0.00     0.031 C 
ATOM     48  C   UNL A   1      46.483  24.952  26.583  1.00  0.00     0.029 A 
ATOM     49  C   UNL A   1      46.324  26.286  27.001  1.00  0.00     0.049 A 
ATOM     50  H   UNL A   1      44.592  27.313  27.638  1.00  0.00     0.167 HD
ATOM     51  C   UNL A   1      40.988  29.128  28.924  1.00  0.00     0.034 A 
ATOM     52  C   UNL A   1      47.352  27.212  27.074  1.00  0.00     0.034 A 
ATOM     53  C   UNL A   1      42.024  30.041  29.038  1.00  0.00     0.049 A 
ATOM     54  C   UNL A   1      47.180  28.532  27.497  1.00  0.00     0.074 A 
ATOM     55  C   UNL A   1      41.879  31.353  29.526  1.00  0.00     0.029 A 
ATOM     56  N   UNL A   1      43.350  29.857  28.708  1.00  0.00    -0.354 N 
ATOM     57  N   UNL A   1      46.053  29.106  27.920  1.00  0.00    -0.248 NA
ATOM     58  C   UNL A   1      48.255  29.530  27.546  1.00  0.00     0.031 C 
ATOM     59  C   UNL A   1      43.097  31.956  29.481  1.00  0.00     0.029 A 
ATOM     60  C   UNL A   1      44.023  31.031  28.964  1.00  0.00     0.049 A 
ATOM     61  H   UNL A   1      43.745  29.030  28.350  1.00  0.00     0.167 HD
ATOM     62  C   UNL A   1      46.283  30.376  28.260  1.00  0.00     0.074 A 
ATOM     63  C   UNL A   1      47.703  30.669  28.018  1.00  0.00     0.031 C 
ATOM     64  C   UNL A   1      45.368  31.300  28.766  1.00  0.00     0.034 A 
BRANCH  51  65
ATOM     65  C   UNL A   1      39.595  29.568  29.345  1.00  0.00     0.023 A 
ATOM     66  C   UNL A   1      38.690  30.059  28.410  1.00  0.00     0.012 A 
ATOM     67  C   UNL A   1      39.214  29.487  30.602  1.00  0.00     0.148 A 
ATOM     68  C   UNL A   1      37.321  29.960  28.743  1.00  0.00     0.002 A 
ATOM     69  C   UNL A   1      37.932  29.896  30.989  1.00  0.00     0.091 A 
ATOM     70  F   UNL A   1      40.056  29.012  31.514  1.00  0.00    -0.205 F 
ATOM     71  C   UNL A   1      36.999  30.128  30.090  1.00  0.00     0.022 A 
BRANCH  69  72
ATOM     72  S   UNL A   1      37.554  30.108  32.746  1.00  0.00     0.127 S 
ATOM     73  O   UNL A   1      38.752  30.749  33.452  1.00  0.00    -0.237 OA
ATOM     74  O   UNL A   1      36.328  31.011  32.898  1.00  0.00    -0.237 OA
ATOM     75  O   UNL A   1      37.228  28.582  33.447  1.00  0.00    -0.744 OA
ENDBRANCH  69  72
ENDBRANCH  51  65
BRANCH  52  76
ATOM     76  C   UNL A   1      48.748  26.766  26.669  1.00  0.00     0.023 A 
ATOM     77  C   UNL A   1      49.545  26.038  27.546  1.00  0.00     0.012 A 
ATOM     78  C   UNL A   1      49.233  27.061  25.482  1.00  0.00     0.148 A 
ATOM     79  C   UNL A   1      50.565  25.251  26.968  1.00  0.00     0.002 A 
ATOM     80  C   UNL A   1      50.523  26.661  25.116  1.00  0.00     0.091 A 
ATOM     81  F   UNL A   1      48.489  27.747  24.619  1.00  0.00    -0.205 F 
ATOM     82  C   UNL A   1      51.182  25.776  25.834  1.00  0.00     0.022 A 
BRANCH  80  83
ATOM     83  S   UNL A   1      51.294  27.369  23.639  1.00  0.00     0.127 S 
ATOM     84  O   UNL A   1      51.257  28.896  23.727  1.00  0.00    -0.237 OA
ATOM     85  O   UNL A   1      52.748  26.898  23.548  1.00  0.00    -0.237 OA
ATOM     86  O   UNL A   1      50.441  26.856  22.250  1.00  0.00    -0.744 OA
ENDBRANCH  80  83
ENDBRANCH  52  76
BRANCH  64  87
ATOM     87  C   UNL A   1      45.877  32.688  29.120  1.00  0.00     0.023 A 
ATOM     88  C   UNL A   1      46.427  32.999  30.360  1.00  0.00     0.012 A 
ATOM     89  C   UNL A   1      45.858  33.622  28.193  1.00  0.00     0.148 A 
ATOM     90  C   UNL A   1      47.354  34.065  30.389  1.00  0.00     0.002 A 
ATOM     91  C   UNL A   1      46.371  34.898  28.452  1.00  0.00     0.091 A 
ATOM     92  F   UNL A   1      45.347  33.350  26.996  1.00  0.00    -0.205 F 
ATOM     93  C   UNL A   1      47.104  35.125  29.521  1.00  0.00     0.022 A 
BRANCH  91  94
ATOM     94  S   UNL A   1      46.020  36.253  27.303  1.00  0.00     0.127 S 
ATOM     95  O   UNL A   1      46.507  37.572  27.906  1.00  0.00    -0.237 OA
ATOM     96  O   UNL A   1      46.745  35.998  25.979  1.00  0.00    -0.237 OA
ATOM     97  O   UNL A   1      44.336  36.341  27.023  1.00  0.00    -0.744 OA
ENDBRANCH  91  94
ENDBRANCH  64  87
ENDBRANCH  38  39
ENDBRANCH  30  33
ENDBRANCH   1  29
TORSDOF 15
ENDMDL
