MODEL 1
REMARK VINA RESULT:     -14.3      0.000      0.000
REMARK SMILES O=C(NCCCNC(=O)c1ccc(-c2c3nc(c(-c4cccc(S(=O)(=O)[O-])c4F)c4ccc([nH]4)c(-c4cccc(S(=O)(=O)[O-])c4F)c4nc(c(-c5cccc(S(=O)(=O)[O-])c5F)c5ccc2[nH]5)C=C4)C=C3)cc1)c1ccc(NC(=O)[C@@H]2CC=CC[C@H]2C(=O)Nc2cccc([N+](=O)[O-])c2)cc1
REMARK SMILES IDX 4 1 3 2 1 3 2 4 73 6 74 7 99 8 75 9 98 10 76 11 77 12 78 13
REMARK SMILES IDX 79 15 80 16 81 17 85 18 82 19 84 20 83 21 86 22 87 23 88 24
REMARK SMILES IDX 89 26 90 27 97 28 91 29 93 30 92 31 94 32 95 33 96 34 5 35
REMARK SMILES IDX 6 36 7 37 8 38 9 40 10 41 11 42 72 43 12 44 71 45 13 46
REMARK SMILES IDX 14 47 15 48 65 49 16 50 70 51 64 52 66 53 17 54 69 55 63 56
REMARK SMILES IDX 62 57 18 59 50 60 30 61 49 62 31 63 34 64 48 65 67 66 32 67
REMARK SMILES IDX 33 68 47 70 68 71 35 72 19 73 20 74 28 75 21 76 23 77 29 78
REMARK SMILES IDX 22 79 24 80 25 81 26 82 27 83 51 84 52 85 60 86 53 87 55 88
REMARK SMILES IDX 61 89 54 90 56 91 57 92 58 93 59 94 36 95 37 96 45 97 38 98
REMARK SMILES IDX 40 99 46 100 39 101 41 102 42 103 43 104 44 105
REMARK H PARENT 3 5 77 14 88 25 7 39 66 58 34 69
REMARK Flexibility Score: inf
ROOT
ATOM      1  C   UNL A   1      34.976  21.014  25.874  1.00  0.00     0.118 C 
ENDROOT
BRANCH   1   2
ATOM      2  N   UNL A   1      34.014  19.913  25.876  1.00  0.00    -0.352 N 
ATOM      3  O   UNL A   1      32.030  18.895  25.456  1.00  0.00    -0.269 OA
ATOM      4  C   UNL A   1      32.773  19.847  25.279  1.00  0.00     0.251 C 
ATOM      5  H   UNL A   1      34.292  19.108  26.370  1.00  0.00     0.163 HD
BRANCH   4   6
ATOM      6  C   UNL A   1      32.362  20.966  24.411  1.00  0.00     0.039 A 
ATOM      7  C   UNL A   1      32.714  20.938  23.067  1.00  0.00     0.016 A 
ATOM      8  C   UNL A   1      31.712  22.076  24.944  1.00  0.00     0.016 A 
ATOM      9  C   UNL A   1      32.592  22.092  22.304  1.00  0.00     0.027 A 
ATOM     10  C   UNL A   1      31.532  23.209  24.142  1.00  0.00     0.027 A 
ATOM     11  C   UNL A   1      32.032  23.246  22.831  1.00  0.00     0.041 A 
BRANCH  11  12
ATOM     12  N   UNL A   1      31.871  24.434  22.110  1.00  0.00    -0.326 N 
ATOM     13  C   UNL A   1      32.488  25.642  22.092  1.00  0.00     0.228 C 
ATOM     14  H   UNL A   1      31.132  24.381  21.462  1.00  0.00     0.169 HD
ATOM     15  O   UNL A   1      32.233  26.364  21.115  1.00  0.00    -0.274 OA
BRANCH  13  16
ATOM     16  C   UNL A   1      33.375  26.222  23.197  1.00  0.00     0.095 C 
ATOM     17  C   UNL A   1      33.979  25.210  24.177  1.00  0.00     0.041 C 
ATOM     18  C   UNL A   1      32.848  27.559  23.746  1.00  0.00     0.095 C 
ATOM     19  C   UNL A   1      34.029  25.643  25.613  1.00  0.00    -0.030 C 
ATOM     20  C   UNL A   1      33.381  28.002  25.117  1.00  0.00     0.041 C 
ATOM     21  C   UNL A   1      33.761  26.884  26.031  1.00  0.00    -0.030 C 
BRANCH  18  22
ATOM     22  C   UNL A   1      32.925  28.699  22.708  1.00  0.00     0.228 C 
ATOM     23  O   UNL A   1      34.041  29.100  22.355  1.00  0.00    -0.274 OA
ATOM     24  N   UNL A   1      31.833  29.248  22.081  1.00  0.00    -0.326 N 
ATOM     25  H   UNL A   1      32.045  29.757  21.267  1.00  0.00     0.169 HD
BRANCH  24  26
ATOM     26  C   UNL A   1      30.469  29.207  22.399  1.00  0.00     0.048 A 
ATOM     27  C   UNL A   1      29.883  27.981  22.718  1.00  0.00     0.026 A 
ATOM     28  C   UNL A   1      29.669  30.345  22.374  1.00  0.00     0.111 A 
ATOM     29  C   UNL A   1      28.561  27.929  23.179  1.00  0.00     0.009 A 
ATOM     30  C   UNL A   1      28.373  30.310  22.893  1.00  0.00     0.271 A 
ATOM     31  C   UNL A   1      27.814  29.101  23.310  1.00  0.00     0.086 A 
BRANCH  30  32
ATOM     32  N   UNL A   1      27.621  31.562  23.038  1.00  0.00     0.062 N 
ATOM     33  O   UNL A   1      27.810  32.450  22.195  1.00  0.00    -0.258 OA
ATOM     34  O   UNL A   1      26.818  31.651  23.978  1.00  0.00    -0.258 OA
ENDBRANCH  30  32
ENDBRANCH  24  26
ENDBRANCH  18  22
ENDBRANCH  13  16
ENDBRANCH  11  12
ENDBRANCH   4   6
ENDBRANCH   1   2
BRANCH   1  35
ATOM     35  C   UNL A   1      35.993  20.920  24.753  1.00  0.00     0.042 C 
BRANCH  35  36
ATOM     36  C   UNL A   1      37.329  21.561  25.079  1.00  0.00     0.118 C 
BRANCH  36  37
ATOM     37  N   UNL A   1      38.339  20.597  25.507  1.00  0.00    -0.352 N 
ATOM     38  C   UNL A   1      39.508  20.802  26.202  1.00  0.00     0.251 C 
ATOM     39  H   UNL A   1      38.154  19.661  25.262  1.00  0.00     0.163 HD
ATOM     40  O   UNL A   1      40.301  19.876  26.352  1.00  0.00    -0.269 OA
BRANCH  38  41
ATOM     41  C   UNL A   1      39.825  22.148  26.727  1.00  0.00     0.039 A 
ATOM     42  C   UNL A   1      40.824  22.280  27.695  1.00  0.00     0.014 A 
ATOM     43  C   UNL A   1      39.181  23.279  26.223  1.00  0.00     0.014 A 
ATOM     44  C   UNL A   1      41.256  23.554  28.070  1.00  0.00     0.010 A 
ATOM     45  C   UNL A   1      39.672  24.543  26.529  1.00  0.00     0.010 A 
ATOM     46  C   UNL A   1      40.728  24.694  27.440  1.00  0.00    -0.014 A 
BRANCH  46  47
ATOM     47  C   UNL A   1      41.297  26.048  27.663  1.00  0.00     0.031 A 
ATOM     48  C   UNL A   1      42.711  26.351  27.253  1.00  0.00     0.074 A 
ATOM     49  C   UNL A   1      40.582  26.959  28.354  1.00  0.00     0.049 A 
ATOM     50  N   UNL A   1      43.423  27.423  27.486  1.00  0.00    -0.248 NA
ATOM     51  C   UNL A   1      43.430  25.303  26.508  1.00  0.00     0.031 C 
ATOM     52  C   UNL A   1      39.227  26.757  28.874  1.00  0.00     0.029 A 
ATOM     53  N   UNL A   1      40.910  28.225  28.773  1.00  0.00    -0.354 N 
ATOM     54  C   UNL A   1      44.678  27.168  26.949  1.00  0.00     0.074 A 
ATOM     55  C   UNL A   1      44.643  25.829  26.403  1.00  0.00     0.031 C 
ATOM     56  C   UNL A   1      38.842  27.855  29.544  1.00  0.00     0.029 A 
ATOM     57  C   UNL A   1      39.933  28.824  29.538  1.00  0.00     0.049 A 
ATOM     58  H   UNL A   1      41.762  28.663  28.550  1.00  0.00     0.167 HD
ATOM     59  C   UNL A   1      45.755  27.987  26.888  1.00  0.00     0.034 A 
ATOM     60  C   UNL A   1      39.924  30.008  30.178  1.00  0.00     0.034 A 
ATOM     61  C   UNL A   1      45.773  29.335  27.386  1.00  0.00     0.049 A 
ATOM     62  C   UNL A   1      41.133  30.899  30.087  1.00  0.00     0.074 A 
ATOM     63  C   UNL A   1      46.783  30.276  27.281  1.00  0.00     0.029 A 
ATOM     64  N   UNL A   1      44.740  29.933  28.089  1.00  0.00    -0.354 N 
ATOM     65  N   UNL A   1      42.251  30.705  29.432  1.00  0.00    -0.248 NA
ATOM     66  C   UNL A   1      41.071  32.181  30.805  1.00  0.00     0.031 C 
ATOM     67  C   UNL A   1      46.364  31.439  27.935  1.00  0.00     0.029 A 
ATOM     68  C   UNL A   1      45.092  31.226  28.439  1.00  0.00     0.049 A 
ATOM     69  H   UNL A   1      43.882  29.503  28.308  1.00  0.00     0.167 HD
ATOM     70  C   UNL A   1      43.015  31.848  29.637  1.00  0.00     0.074 A 
ATOM     71  C   UNL A   1      42.221  32.741  30.455  1.00  0.00     0.031 C 
ATOM     72  C   UNL A   1      44.272  32.123  29.209  1.00  0.00     0.034 A 
BRANCH  59  73
ATOM     73  C   UNL A   1      46.987  27.475  26.190  1.00  0.00     0.023 A 
ATOM     74  C   UNL A   1      47.180  27.780  24.828  1.00  0.00     0.012 A 
ATOM     75  C   UNL A   1      47.981  26.767  26.890  1.00  0.00     0.148 A 
ATOM     76  C   UNL A   1      48.336  27.369  24.166  1.00  0.00     0.002 A 
ATOM     77  C   UNL A   1      49.148  26.393  26.234  1.00  0.00     0.091 A 
ATOM     78  F   UNL A   1      47.767  26.468  28.180  1.00  0.00    -0.205 F 
ATOM     79  C   UNL A   1      49.323  26.686  24.871  1.00  0.00     0.022 A 
BRANCH  77  80
ATOM     80  S   UNL A   1      50.511  25.571  27.066  1.00  0.00     0.127 S 
ATOM     81  O   UNL A   1      51.457  25.384  25.966  1.00  0.00    -0.237 OA
ATOM     82  O   UNL A   1      50.916  26.571  28.054  1.00  0.00    -0.237 OA
ATOM     83  O   UNL A   1      49.960  24.347  27.629  1.00  0.00    -0.744 OA
ENDBRANCH  77  80
ENDBRANCH  59  73
BRANCH  60  84
ATOM     84  C   UNL A   1      38.711  30.447  30.926  1.00  0.00     0.023 A 
ATOM     85  C   UNL A   1      38.624  30.184  32.308  1.00  0.00     0.012 A 
ATOM     86  C   UNL A   1      37.659  31.134  30.292  1.00  0.00     0.148 A 
ATOM     87  C   UNL A   1      37.499  30.571  33.037  1.00  0.00     0.002 A 
ATOM     88  C   UNL A   1      36.567  31.567  31.036  1.00  0.00     0.091 A 
ATOM     89  F   UNL A   1      37.747  31.357  28.973  1.00  0.00    -0.205 F 
ATOM     90  C   UNL A   1      36.475  31.271  32.404  1.00  0.00     0.022 A 
BRANCH  88  91
ATOM     91  S   UNL A   1      35.278  32.598  30.326  1.00  0.00     0.127 S 
ATOM     92  O   UNL A   1      34.331  32.699  31.432  1.00  0.00    -0.237 OA
ATOM     93  O   UNL A   1      36.007  33.831  30.021  1.00  0.00    -0.237 OA
ATOM     94  O   UNL A   1      34.815  31.876  29.148  1.00  0.00    -0.744 OA
ENDBRANCH  88  91
ENDBRANCH  60  84
BRANCH  72  95
ATOM     95  C   UNL A   1      44.869  33.446  29.605  1.00  0.00     0.023 A 
ATOM     96  C   UNL A   1      45.646  33.530  30.777  1.00  0.00     0.012 A 
ATOM     97  C   UNL A   1      44.729  34.581  28.782  1.00  0.00     0.148 A 
ATOM     98  C   UNL A   1      46.258  34.730  31.136  1.00  0.00     0.002 A 
ATOM     99  C   UNL A   1      45.378  35.761  29.124  1.00  0.00     0.091 A 
ATOM    100  F   UNL A   1      43.970  34.483  27.681  1.00  0.00    -0.205 F 
ATOM    101  C   UNL A   1      46.134  35.840  30.306  1.00  0.00     0.022 A 
BRANCH  99 102
ATOM    102  S   UNL A   1      45.347  37.220  28.075  1.00  0.00     0.127 S 
ATOM    103  O   UNL A   1      46.127  38.172  28.864  1.00  0.00    -0.237 OA
ATOM    104  O   UNL A   1      46.012  36.743  26.862  1.00  0.00    -0.237 OA
ATOM    105  O   UNL A   1      43.942  37.559  27.899  1.00  0.00    -0.744 OA
ENDBRANCH  99 102
ENDBRANCH  72  95
ENDBRANCH  46  47
ENDBRANCH  38  41
ENDBRANCH  36  37
ENDBRANCH  35  36
ENDBRANCH   1  35
TORSDOF 18
ENDMDL
MODEL 2
REMARK VINA RESULT:     -14.3      2.196      7.557
REMARK SMILES O=C(NCCCNC(=O)c1ccc(-c2c3nc(c(-c4cccc(S(=O)(=O)[O-])c4F)c4ccc([nH]4)c(-c4cccc(S(=O)(=O)[O-])c4F)c4nc(c(-c5cccc(S(=O)(=O)[O-])c5F)c5ccc2[nH]5)C=C4)C=C3)cc1)c1ccc(NC(=O)[C@@H]2CC=CC[C@H]2C(=O)Nc2cccc([N+](=O)[O-])c2)cc1
REMARK SMILES IDX 4 1 3 2 1 3 2 4 73 6 74 7 99 8 75 9 98 10 76 11 77 12 78 13
REMARK SMILES IDX 79 15 80 16 81 17 85 18 82 19 84 20 83 21 86 22 87 23 88 24
REMARK SMILES IDX 89 26 90 27 97 28 91 29 93 30 92 31 94 32 95 33 96 34 5 35
REMARK SMILES IDX 6 36 7 37 8 38 9 40 10 41 11 42 72 43 12 44 71 45 13 46
REMARK SMILES IDX 14 47 15 48 65 49 16 50 70 51 64 52 66 53 17 54 69 55 63 56
REMARK SMILES IDX 62 57 18 59 50 60 30 61 49 62 31 63 34 64 48 65 67 66 32 67
REMARK SMILES IDX 33 68 47 70 68 71 35 72 19 73 20 74 28 75 21 76 23 77 29 78
REMARK SMILES IDX 22 79 24 80 25 81 26 82 27 83 51 84 52 85 60 86 53 87 55 88
REMARK SMILES IDX 61 89 54 90 56 91 57 92 58 93 59 94 36 95 37 96 45 97 38 98
REMARK SMILES IDX 40 99 46 100 39 101 41 102 42 103 43 104 44 105
REMARK H PARENT 3 5 77 14 88 25 7 39 66 58 34 69
REMARK Flexibility Score: inf
ROOT
ATOM      1  C   UNL A   1      36.397  21.500  25.483  1.00  0.00     0.118 C 
ENDROOT
BRANCH   1   2
ATOM      2  N   UNL A   1      35.643  20.297  25.136  1.00  0.00    -0.352 N 
ATOM      3  O   UNL A   1      33.780  19.058  24.754  1.00  0.00    -0.269 OA
ATOM      4  C   UNL A   1      34.286  20.154  24.935  1.00  0.00     0.251 C 
ATOM      5  H   UNL A   1      36.177  19.477  25.030  1.00  0.00     0.163 HD
BRANCH   4   6
ATOM      6  C   UNL A   1      33.452  21.370  24.943  1.00  0.00     0.039 A 
ATOM      7  C   UNL A   1      32.850  21.763  26.131  1.00  0.00     0.016 A 
ATOM      8  C   UNL A   1      33.196  22.062  23.763  1.00  0.00     0.016 A 
ATOM      9  C   UNL A   1      31.845  22.722  26.105  1.00  0.00     0.027 A 
ATOM     10  C   UNL A   1      32.231  23.076  23.765  1.00  0.00     0.027 A 
ATOM     11  C   UNL A   1      31.500  23.368  24.928  1.00  0.00     0.041 A 
BRANCH  11  12
ATOM     12  N   UNL A   1      30.507  24.350  24.839  1.00  0.00    -0.326 N 
ATOM     13  C   UNL A   1      30.495  25.702  24.731  1.00  0.00     0.228 C 
ATOM     14  H   UNL A   1      29.600  23.967  24.863  1.00  0.00     0.169 HD
ATOM     15  O   UNL A   1      29.410  26.208  24.404  1.00  0.00    -0.274 OA
BRANCH  13  16
ATOM     16  C   UNL A   1      31.652  26.647  25.065  1.00  0.00     0.095 C 
ATOM     17  C   UNL A   1      32.238  26.522  26.476  1.00  0.00     0.041 C 
ATOM     18  C   UNL A   1      31.469  28.050  24.463  1.00  0.00     0.095 C 
ATOM     19  C   UNL A   1      32.618  27.813  27.142  1.00  0.00    -0.030 C 
ATOM     20  C   UNL A   1      32.306  29.182  25.077  1.00  0.00     0.041 C 
ATOM     21  C   UNL A   1      32.646  28.996  26.520  1.00  0.00    -0.030 C 
BRANCH  18  22
ATOM     22  C   UNL A   1      31.554  28.050  22.921  1.00  0.00     0.228 C 
ATOM     23  O   UNL A   1      32.552  27.552  22.386  1.00  0.00    -0.274 OA
ATOM     24  N   UNL A   1      30.552  28.494  22.093  1.00  0.00    -0.326 N 
ATOM     25  H   UNL A   1      30.629  28.187  21.161  1.00  0.00     0.169 HD
BRANCH  24  26
ATOM     26  C   UNL A   1      29.438  29.306  22.343  1.00  0.00     0.048 A 
ATOM     27  C   UNL A   1      28.320  28.749  22.966  1.00  0.00     0.026 A 
ATOM     28  C   UNL A   1      29.396  30.642  21.960  1.00  0.00     0.111 A 
ATOM     29  C   UNL A   1      27.252  29.566  23.360  1.00  0.00     0.009 A 
ATOM     30  C   UNL A   1      28.365  31.474  22.406  1.00  0.00     0.271 A 
ATOM     31  C   UNL A   1      27.290  30.941  23.120  1.00  0.00     0.086 A 
BRANCH  30  32
ATOM     32  N   UNL A   1      28.445  32.918  22.156  1.00  0.00     0.062 N 
ATOM     33  O   UNL A   1      27.787  33.377  21.212  1.00  0.00    -0.258 OA
ATOM     34  O   UNL A   1      29.142  33.601  22.919  1.00  0.00    -0.258 OA
ENDBRANCH  30  32
ENDBRANCH  24  26
ENDBRANCH  18  22
ENDBRANCH  13  16
ENDBRANCH  11  12
ENDBRANCH   4   6
ENDBRANCH   1   2
BRANCH   1  35
ATOM     35  C   UNL A   1      37.825  21.482  24.972  1.00  0.00     0.042 C 
BRANCH  35  36
ATOM     36  C   UNL A   1      38.868  21.352  26.065  1.00  0.00     0.118 C 
BRANCH  36  37
ATOM     37  N   UNL A   1      39.648  20.122  25.970  1.00  0.00    -0.352 N 
ATOM     38  C   UNL A   1      41.009  19.938  26.051  1.00  0.00     0.251 C 
ATOM     39  H   UNL A   1      39.121  19.302  25.828  1.00  0.00     0.163 HD
ATOM     40  O   UNL A   1      41.492  18.835  25.809  1.00  0.00    -0.269 OA
BRANCH  38  41
ATOM     41  C   UNL A   1      41.887  21.081  26.384  1.00  0.00     0.039 A 
ATOM     42  C   UNL A   1      42.307  21.934  25.360  1.00  0.00     0.014 A 
ATOM     43  C   UNL A   1      42.244  21.343  27.708  1.00  0.00     0.014 A 
ATOM     44  C   UNL A   1      42.986  23.112  25.680  1.00  0.00     0.010 A 
ATOM     45  C   UNL A   1      42.838  22.557  28.032  1.00  0.00     0.010 A 
ATOM     46  C   UNL A   1      43.198  23.464  27.024  1.00  0.00    -0.014 A 
BRANCH  46  47
ATOM     47  C   UNL A   1      43.733  24.794  27.412  1.00  0.00     0.031 A 
ATOM     48  C   UNL A   1      42.805  25.869  27.901  1.00  0.00     0.074 A 
ATOM     49  C   UNL A   1      45.035  25.070  27.195  1.00  0.00     0.049 A 
ATOM     50  N   UNL A   1      43.063  27.126  28.155  1.00  0.00    -0.248 NA
ATOM     51  C   UNL A   1      41.396  25.493  28.107  1.00  0.00     0.031 C 
ATOM     52  C   UNL A   1      46.022  24.134  26.649  1.00  0.00     0.029 A 
ATOM     53  N   UNL A   1      45.747  26.233  27.369  1.00  0.00    -0.354 N 
ATOM     54  C   UNL A   1      41.850  27.697  28.517  1.00  0.00     0.074 A 
ATOM     55  C   UNL A   1      40.847  26.658  28.422  1.00  0.00     0.031 C 
ATOM     56  C   UNL A   1      47.205  24.758  26.531  1.00  0.00     0.029 A 
ATOM     57  C   UNL A   1      47.056  26.147  26.951  1.00  0.00     0.049 A 
ATOM     58  H   UNL A   1      45.357  27.049  27.754  1.00  0.00     0.167 HD
ATOM     59  C   UNL A   1      41.598  28.965  28.922  1.00  0.00     0.034 A 
ATOM     60  C   UNL A   1      48.022  27.084  26.893  1.00  0.00     0.034 A 
ATOM     61  C   UNL A   1      42.603  29.981  29.063  1.00  0.00     0.049 A 
ATOM     62  C   UNL A   1      47.713  28.482  27.356  1.00  0.00     0.074 A 
ATOM     63  C   UNL A   1      42.462  31.266  29.561  1.00  0.00     0.029 A 
ATOM     64  N   UNL A   1      43.932  29.836  28.701  1.00  0.00    -0.354 N 
ATOM     65  N   UNL A   1      46.597  28.958  27.851  1.00  0.00    -0.248 NA
ATOM     66  C   UNL A   1      48.801  29.466  27.272  1.00  0.00     0.031 C 
ATOM     67  C   UNL A   1      43.705  31.901  29.486  1.00  0.00     0.029 A 
ATOM     68  C   UNL A   1      44.621  31.012  28.949  1.00  0.00     0.049 A 
ATOM     69  H   UNL A   1      44.329  29.018  28.323  1.00  0.00     0.167 HD
ATOM     70  C   UNL A   1      46.855  30.288  28.160  1.00  0.00     0.074 A 
ATOM     71  C   UNL A   1      48.241  30.535  27.822  1.00  0.00     0.031 C 
ATOM     72  C   UNL A   1      46.014  31.229  28.656  1.00  0.00     0.034 A 
BRANCH  59  73
ATOM     73  C   UNL A   1      40.186  29.307  29.315  1.00  0.00     0.023 A 
ATOM     74  C   UNL A   1      39.259  29.652  28.311  1.00  0.00     0.012 A 
ATOM     75  C   UNL A   1      39.757  29.215  30.652  1.00  0.00     0.148 A 
ATOM     76  C   UNL A   1      37.930  29.921  28.633  1.00  0.00     0.002 A 
ATOM     77  C   UNL A   1      38.422  29.447  30.962  1.00  0.00     0.091 A 
ATOM     78  F   UNL A   1      40.660  28.907  31.595  1.00  0.00    -0.205 F 
ATOM     79  C   UNL A   1      37.510  29.808  29.956  1.00  0.00     0.022 A 
BRANCH  77  80
ATOM     80  S   UNL A   1      37.762  29.261  32.622  1.00  0.00     0.127 S 
ATOM     81  O   UNL A   1      36.422  29.826  32.471  1.00  0.00    -0.237 OA
ATOM     82  O   UNL A   1      37.794  27.810  32.805  1.00  0.00    -0.237 OA
ATOM     83  O   UNL A   1      38.658  30.004  33.496  1.00  0.00    -0.744 OA
ENDBRANCH  77  80
ENDBRANCH  59  73
BRANCH  60  84
ATOM     84  C   UNL A   1      49.389  26.723  26.423  1.00  0.00     0.023 A 
ATOM     85  C   UNL A   1      50.199  25.902  27.232  1.00  0.00     0.012 A 
ATOM     86  C   UNL A   1      49.885  27.164  25.181  1.00  0.00     0.148 A 
ATOM     87  C   UNL A   1      51.488  25.553  26.828  1.00  0.00     0.002 A 
ATOM     88  C   UNL A   1      51.149  26.766  24.759  1.00  0.00     0.091 A 
ATOM     89  F   UNL A   1      49.110  27.962  24.433  1.00  0.00    -0.205 F 
ATOM     90  C   UNL A   1      51.960  25.975  25.588  1.00  0.00     0.022 A 
BRANCH  88  91
ATOM     91  S   UNL A   1      51.769  27.147  23.117  1.00  0.00     0.127 S 
ATOM     92  O   UNL A   1      50.591  26.910  22.289  1.00  0.00    -0.237 OA
ATOM     93  O   UNL A   1      52.156  28.553  23.255  1.00  0.00    -0.237 OA
ATOM     94  O   UNL A   1      52.891  26.241  22.912  1.00  0.00    -0.744 OA
ENDBRANCH  88  91
ENDBRANCH  60  84
BRANCH  72  95
ATOM     95  C   UNL A   1      46.564  32.611  28.874  1.00  0.00     0.023 A 
ATOM     96  C   UNL A   1      47.105  32.949  30.130  1.00  0.00     0.012 A 
ATOM     97  C   UNL A   1      46.619  33.545  27.821  1.00  0.00     0.148 A 
ATOM     98  C   UNL A   1      47.673  34.204  30.342  1.00  0.00     0.002 A 
ATOM     99  C   UNL A   1      47.226  34.778  28.028  1.00  0.00     0.091 A 
ATOM    100  F   UNL A   1      46.083  33.209  26.638  1.00  0.00    -0.205 F 
ATOM    101  C   UNL A   1      47.744  35.113  29.290  1.00  0.00     0.022 A 
BRANCH  99 102
ATOM    102  S   UNL A   1      47.442  35.981  26.711  1.00  0.00     0.127 S 
ATOM    103  O   UNL A   1      47.895  35.137  25.606  1.00  0.00    -0.237 OA
ATOM    104  O   UNL A   1      46.090  36.518  26.555  1.00  0.00    -0.237 OA
ATOM    105  O   UNL A   1      48.421  36.943  27.201  1.00  0.00    -0.744 OA
ENDBRANCH  99 102
ENDBRANCH  72  95
ENDBRANCH  46  47
ENDBRANCH  38  41
ENDBRANCH  36  37
ENDBRANCH  35  36
ENDBRANCH   1  35
TORSDOF 18
ENDMDL
MODEL 3
REMARK VINA RESULT:     -13.9      1.675      7.341
REMARK SMILES O=C(NCCCNC(=O)c1ccc(-c2c3nc(c(-c4cccc(S(=O)(=O)[O-])c4F)c4ccc([nH]4)c(-c4cccc(S(=O)(=O)[O-])c4F)c4nc(c(-c5cccc(S(=O)(=O)[O-])c5F)c5ccc2[nH]5)C=C4)C=C3)cc1)c1ccc(NC(=O)[C@@H]2CC=CC[C@H]2C(=O)Nc2cccc([N+](=O)[O-])c2)cc1
REMARK SMILES IDX 4 1 3 2 1 3 2 4 73 6 74 7 99 8 75 9 98 10 76 11 77 12 78 13
REMARK SMILES IDX 79 15 80 16 81 17 85 18 82 19 84 20 83 21 86 22 87 23 88 24
REMARK SMILES IDX 89 26 90 27 97 28 91 29 93 30 92 31 94 32 95 33 96 34 5 35
REMARK SMILES IDX 6 36 7 37 8 38 9 40 10 41 11 42 72 43 12 44 71 45 13 46
REMARK SMILES IDX 14 47 15 48 65 49 16 50 70 51 64 52 66 53 17 54 69 55 63 56
REMARK SMILES IDX 62 57 18 59 50 60 30 61 49 62 31 63 34 64 48 65 67 66 32 67
REMARK SMILES IDX 33 68 47 70 68 71 35 72 19 73 20 74 28 75 21 76 23 77 29 78
REMARK SMILES IDX 22 79 24 80 25 81 26 82 27 83 51 84 52 85 60 86 53 87 55 88
REMARK SMILES IDX 61 89 54 90 56 91 57 92 58 93 59 94 36 95 37 96 45 97 38 98
REMARK SMILES IDX 40 99 46 100 39 101 41 102 42 103 43 104 44 105
REMARK H PARENT 3 5 77 14 88 25 7 39 66 58 34 69
REMARK Flexibility Score: inf
ROOT
ATOM      1  C   UNL A   1      34.247  21.005  26.497  1.00  0.00     0.118 C 
ENDROOT
BRANCH   1   2
ATOM      2  N   UNL A   1      33.505  19.800  26.134  1.00  0.00    -0.352 N 
ATOM      3  O   UNL A   1      31.892  18.597  25.084  1.00  0.00    -0.269 OA
ATOM      4  C   UNL A   1      32.498  19.650  25.205  1.00  0.00     0.251 C 
ATOM      5  H   UNL A   1      33.760  18.982  26.619  1.00  0.00     0.163 HD
BRANCH   4   6
ATOM      6  C   UNL A   1      32.167  20.805  24.350  1.00  0.00     0.039 A 
ATOM      7  C   UNL A   1      32.456  20.741  22.992  1.00  0.00     0.016 A 
ATOM      8  C   UNL A   1      31.659  21.976  24.905  1.00  0.00     0.016 A 
ATOM      9  C   UNL A   1      32.422  21.900  22.230  1.00  0.00     0.027 A 
ATOM     10  C   UNL A   1      31.562  23.121  24.106  1.00  0.00     0.027 A 
ATOM     11  C   UNL A   1      32.007  23.107  22.774  1.00  0.00     0.041 A 
BRANCH  11  12
ATOM     12  N   UNL A   1      31.939  24.305  22.056  1.00  0.00    -0.326 N 
ATOM     13  C   UNL A   1      32.656  25.456  22.028  1.00  0.00     0.228 C 
ATOM     14  H   UNL A   1      31.189  24.316  21.418  1.00  0.00     0.169 HD
ATOM     15  O   UNL A   1      32.451  26.197  21.055  1.00  0.00    -0.274 OA
BRANCH  13  16
ATOM     16  C   UNL A   1      33.606  25.956  23.120  1.00  0.00     0.095 C 
ATOM     17  C   UNL A   1      34.223  24.880  24.021  1.00  0.00     0.041 C 
ATOM     18  C   UNL A   1      33.140  27.275  23.757  1.00  0.00     0.095 C 
ATOM     19  C   UNL A   1      34.347  25.238  25.473  1.00  0.00    -0.030 C 
ATOM     20  C   UNL A   1      33.744  27.635  25.124  1.00  0.00     0.041 C 
ATOM     21  C   UNL A   1      34.132  26.463  25.964  1.00  0.00    -0.030 C 
BRANCH  18  22
ATOM     22  C   UNL A   1      33.204  28.465  22.775  1.00  0.00     0.228 C 
ATOM     23  O   UNL A   1      34.315  28.897  22.445  1.00  0.00    -0.274 OA
ATOM     24  N   UNL A   1      32.106  29.028  22.173  1.00  0.00    -0.326 N 
ATOM     25  H   UNL A   1      32.313  29.578  21.384  1.00  0.00     0.169 HD
BRANCH  24  26
ATOM     26  C   UNL A   1      30.742  28.955  22.485  1.00  0.00     0.048 A 
ATOM     27  C   UNL A   1      29.880  29.936  21.990  1.00  0.00     0.026 A 
ATOM     28  C   UNL A   1      30.222  27.957  23.301  1.00  0.00     0.111 A 
ATOM     29  C   UNL A   1      28.495  29.810  22.162  1.00  0.00     0.009 A 
ATOM     30  C   UNL A   1      28.841  27.790  23.423  1.00  0.00     0.271 A 
ATOM     31  C   UNL A   1      27.967  28.712  22.843  1.00  0.00     0.086 A 
BRANCH  30  32
ATOM     32  N   UNL A   1      28.315  26.614  24.127  1.00  0.00     0.062 N 
ATOM     33  O   UNL A   1      29.132  25.816  24.607  1.00  0.00    -0.258 OA
ATOM     34  O   UNL A   1      27.085  26.499  24.225  1.00  0.00    -0.258 OA
ENDBRANCH  30  32
ENDBRANCH  24  26
ENDBRANCH  18  22
ENDBRANCH  13  16
ENDBRANCH  11  12
ENDBRANCH   4   6
ENDBRANCH   1   2
BRANCH   1  35
ATOM     35  C   UNL A   1      35.166  21.498  25.395  1.00  0.00     0.042 C 
BRANCH  35  36
ATOM     36  C   UNL A   1      36.500  22.020  25.894  1.00  0.00     0.118 C 
BRANCH  36  37
ATOM     37  N   UNL A   1      37.601  21.088  25.668  1.00  0.00    -0.352 N 
ATOM     38  C   UNL A   1      38.948  21.250  25.898  1.00  0.00     0.251 C 
ATOM     39  H   UNL A   1      37.340  20.214  25.297  1.00  0.00     0.163 HD
ATOM     40  O   UNL A   1      39.741  20.394  25.515  1.00  0.00    -0.269 OA
BRANCH  38  41
ATOM     41  C   UNL A   1      39.437  22.475  26.567  1.00  0.00     0.039 A 
ATOM     42  C   UNL A   1      40.435  22.364  27.539  1.00  0.00     0.014 A 
ATOM     43  C   UNL A   1      38.957  23.731  26.194  1.00  0.00     0.014 A 
ATOM     44  C   UNL A   1      41.030  23.519  28.051  1.00  0.00     0.010 A 
ATOM     45  C   UNL A   1      39.611  24.876  26.635  1.00  0.00     0.010 A 
ATOM     46  C   UNL A   1      40.667  24.782  27.553  1.00  0.00    -0.014 A 
BRANCH  46  47
ATOM     47  C   UNL A   1      41.411  26.014  27.921  1.00  0.00     0.031 A 
ATOM     48  C   UNL A   1      40.714  27.131  28.645  1.00  0.00     0.074 A 
ATOM     49  C   UNL A   1      42.676  26.176  27.484  1.00  0.00     0.049 A 
ATOM     50  N   UNL A   1      41.154  28.329  28.928  1.00  0.00    -0.248 NA
ATOM     51  C   UNL A   1      39.331  26.881  29.085  1.00  0.00     0.031 C 
ATOM     52  C   UNL A   1      43.437  25.196  26.703  1.00  0.00     0.029 A 
ATOM     53  N   UNL A   1      43.535  27.242  27.598  1.00  0.00    -0.354 N 
ATOM     54  C   UNL A   1      40.098  28.985  29.547  1.00  0.00     0.074 A 
ATOM     55  C   UNL A   1      38.983  28.064  29.573  1.00  0.00     0.031 C 
ATOM     56  C   UNL A   1      44.643  25.707  26.407  1.00  0.00     0.029 A 
ATOM     57  C   UNL A   1      44.730  27.062  26.939  1.00  0.00     0.049 A 
ATOM     58  H   UNL A   1      43.316  28.058  28.103  1.00  0.00     0.167 HD
ATOM     59  C   UNL A   1      40.068  30.232  30.074  1.00  0.00     0.034 A 
ATOM     60  C   UNL A   1      45.770  27.900  26.764  1.00  0.00     0.034 A 
ATOM     61  C   UNL A   1      41.192  31.128  30.092  1.00  0.00     0.049 A 
ATOM     62  C   UNL A   1      45.711  29.277  27.366  1.00  0.00     0.074 A 
ATOM     63  C   UNL A   1      41.289  32.372  30.691  1.00  0.00     0.029 A 
ATOM     64  N   UNL A   1      42.410  30.882  29.480  1.00  0.00    -0.354 N 
ATOM     65  N   UNL A   1      44.762  29.818  28.092  1.00  0.00    -0.248 NA
ATOM     66  C   UNL A   1      46.871  30.151  27.146  1.00  0.00     0.031 C 
ATOM     67  C   UNL A   1      42.563  32.885  30.427  1.00  0.00     0.029 A 
ATOM     68  C   UNL A   1      43.261  31.957  29.672  1.00  0.00     0.049 A 
ATOM     69  H   UNL A   1      42.637  30.064  28.981  1.00  0.00     0.167 HD
ATOM     70  C   UNL A   1      45.221  31.085  28.434  1.00  0.00     0.074 A 
ATOM     71  C   UNL A   1      46.544  31.220  27.860  1.00  0.00     0.031 C 
ATOM     72  C   UNL A   1      44.594  32.058  29.139  1.00  0.00     0.034 A 
BRANCH  59  73
ATOM     73  C   UNL A   1      38.797  30.679  30.746  1.00  0.00     0.023 A 
ATOM     74  C   UNL A   1      38.671  30.532  32.141  1.00  0.00     0.012 A 
ATOM     75  C   UNL A   1      37.770  31.309  30.019  1.00  0.00     0.148 A 
ATOM     76  C   UNL A   1      37.531  30.985  32.803  1.00  0.00     0.002 A 
ATOM     77  C   UNL A   1      36.653  31.794  30.690  1.00  0.00     0.091 A 
ATOM     78  F   UNL A   1      37.901  31.420  28.689  1.00  0.00    -0.205 F 
ATOM     79  C   UNL A   1      36.528  31.626  32.079  1.00  0.00     0.022 A 
BRANCH  77  80
ATOM     80  S   UNL A   1      35.337  32.694  29.863  1.00  0.00     0.127 S 
ATOM     81  O   UNL A   1      36.062  33.844  29.323  1.00  0.00    -0.237 OA
ATOM     82  O   UNL A   1      34.888  31.730  28.858  1.00  0.00    -0.237 OA
ATOM     83  O   UNL A   1      34.354  33.004  30.891  1.00  0.00    -0.744 OA
ENDBRANCH  77  80
ENDBRANCH  59  73
BRANCH  60  84
ATOM     84  C   UNL A   1      46.982  27.446  26.024  1.00  0.00     0.023 A 
ATOM     85  C   UNL A   1      47.917  26.619  26.678  1.00  0.00     0.012 A 
ATOM     86  C   UNL A   1      47.207  27.803  24.681  1.00  0.00     0.148 A 
ATOM     87  C   UNL A   1      49.068  26.184  26.020  1.00  0.00     0.002 A 
ATOM     88  C   UNL A   1      48.326  27.320  24.013  1.00  0.00     0.091 A 
ATOM     89  F   UNL A   1      46.318  28.607  24.079  1.00  0.00    -0.205 F 
ATOM     90  C   UNL A   1      49.268  26.525  24.684  1.00  0.00     0.022 A 
BRANCH  88  91
ATOM     91  S   UNL A   1      48.580  27.594  22.255  1.00  0.00     0.127 S 
ATOM     92  O   UNL A   1      47.376  28.333  21.890  1.00  0.00    -0.237 OA
ATOM     93  O   UNL A   1      49.816  28.380  22.244  1.00  0.00    -0.237 OA
ATOM     94  O   UNL A   1      48.718  26.264  21.677  1.00  0.00    -0.744 OA
ENDBRANCH  88  91
ENDBRANCH  60  84
BRANCH  72  95
ATOM     95  C   UNL A   1      45.329  33.355  29.341  1.00  0.00     0.023 A 
ATOM     96  C   UNL A   1      46.153  33.513  30.472  1.00  0.00     0.012 A 
ATOM     97  C   UNL A   1      45.268  34.382  28.378  1.00  0.00     0.148 A 
ATOM     98  C   UNL A   1      46.889  34.683  30.654  1.00  0.00     0.002 A 
ATOM     99  C   UNL A   1      46.038  35.526  28.545  1.00  0.00     0.091 A 
ATOM    100  F   UNL A   1      44.463  34.217  27.318  1.00  0.00    -0.205 F 
ATOM    101  C   UNL A   1      46.841  35.683  29.687  1.00  0.00     0.022 A 
BRANCH  99 102
ATOM    102  S   UNL A   1      46.108  36.832  27.312  1.00  0.00     0.127 S 
ATOM    103  O   UNL A   1      44.723  37.298  27.292  1.00  0.00    -0.237 OA
ATOM    104  O   UNL A   1      47.060  37.770  27.907  1.00  0.00    -0.237 OA
ATOM    105  O   UNL A   1      46.570  36.200  26.083  1.00  0.00    -0.744 OA
ENDBRANCH  99 102
ENDBRANCH  72  95
ENDBRANCH  46  47
ENDBRANCH  38  41
ENDBRANCH  36  37
ENDBRANCH  35  36
ENDBRANCH   1  35
TORSDOF 18
ENDMDL
