MODEL 1
REMARK VINA RESULT:     -12.5      0.000      0.000
REMARK SMILES COc1ccc(-c2ncn(CC(=O)NCCCNC(=O)c3ccc(-c4c5nc(c(-c6cccc(S(=O)(=O)[O-])c6F)c6ccc([nH]6)c(-c6cccc(S(=O)(=O)[O-])c6F)c6nc(c(-c7cccc(S(=O)(=O)[O-])c7F)c7ccc4[nH]7)C=C6)C=C5)cc3)c2-c2ccc(OC)cc2)cc1
REMARK SMILES IDX 16 1 15 2 14 3 12 4 13 5 11 7 10 8 7 9 8 10 84 11 9 12 6 13
REMARK SMILES IDX 3 14 4 15 94 16 5 17 93 18 2 19 1 20 85 21 86 22 92 23 87 24
REMARK SMILES IDX 91 25 88 26 89 27 90 28 17 29 18 30 19 31 20 33 21 34 22 35
REMARK SMILES IDX 83 36 23 37 82 38 24 39 25 40 26 41 76 42 27 43 81 44 75 45
REMARK SMILES IDX 77 46 28 47 80 48 74 49 73 50 29 52 61 53 41 54 60 55 42 56
REMARK SMILES IDX 45 57 59 58 78 59 43 60 44 61 58 63 79 64 46 65 30 66 31 67
REMARK SMILES IDX 39 68 32 69 34 70 40 71 33 72 35 73 36 74 37 75 38 76 62 77
REMARK SMILES IDX 63 78 71 79 64 80 66 81 72 82 65 83 67 84 68 85 69 86 70 87
REMARK SMILES IDX 47 88 48 89 56 90 49 91 51 92 57 93 50 94 52 95 53 96 54 97
REMARK SMILES IDX 55 98
REMARK H PARENT 14 6 18 32 77 51 45 62
REMARK Flexibility Score: inf
ROOT
ATOM      1  C   UNL A   1      37.528  22.086  25.385  1.00  0.00     0.042 C 
ENDROOT
BRANCH   1   2
ATOM      2  C   UNL A   1      36.122  22.685  25.412  1.00  0.00     0.117 C 
BRANCH   2   3
ATOM      3  N   UNL A   1      35.620  23.083  24.108  1.00  0.00    -0.354 N 
ATOM      4  C   UNL A   1      34.439  23.684  23.784  1.00  0.00     0.239 C 
ATOM      5  O   UNL A   1      34.345  24.197  22.667  1.00  0.00    -0.273 OA
ATOM      6  H   UNL A   1      36.218  22.890  23.349  1.00  0.00     0.163 HD
BRANCH   4   7
ATOM      7  C   UNL A   1      33.317  23.812  24.792  1.00  0.00     0.223 C 
BRANCH   7   8
ATOM      8  N   UNL A   1      32.103  24.411  24.267  1.00  0.00    -0.321 N 
ATOM      9  C   UNL A   1      30.501  25.753  23.651  1.00  0.00     0.096 A 
ATOM     10  N   UNL A   1      30.111  24.486  23.283  1.00  0.00    -0.236 NA
ATOM     11  C   UNL A   1      31.711  25.730  24.334  1.00  0.00     0.076 A 
ATOM     12  C   UNL A   1      31.083  23.704  23.686  1.00  0.00     0.201 A 
BRANCH   9  13
ATOM     13  C   UNL A   1      29.703  26.942  23.427  1.00  0.00     0.003 A 
ATOM     14  C   UNL A   1      28.124  29.181  22.830  1.00  0.00     0.118 A 
ATOM     15  C   UNL A   1      27.565  28.085  23.486  1.00  0.00     0.047 A 
ATOM     16  C   UNL A   1      29.481  29.174  22.503  1.00  0.00     0.047 A 
ATOM     17  C   UNL A   1      28.348  26.967  23.779  1.00  0.00     0.014 A 
ATOM     18  C   UNL A   1      30.271  28.060  22.809  1.00  0.00     0.014 A 
BRANCH  14  19
ATOM     19  O   UNL A   1      27.277  30.231  22.617  1.00  0.00    -0.497 OA
ATOM     20  C   UNL A   1      27.680  31.472  23.177  1.00  0.00     0.278 C 
ENDBRANCH  14  19
ENDBRANCH   9  13
BRANCH  11  21
ATOM     21  C   UNL A   1      32.381  26.787  25.083  1.00  0.00     0.001 A 
ATOM     22  C   UNL A   1      32.073  27.061  26.417  1.00  0.00     0.014 A 
ATOM     23  C   UNL A   1      33.407  27.508  24.460  1.00  0.00     0.014 A 
ATOM     24  C   UNL A   1      32.746  28.080  27.095  1.00  0.00     0.047 A 
ATOM     25  C   UNL A   1      34.094  28.512  25.145  1.00  0.00     0.047 A 
ATOM     26  C   UNL A   1      33.756  28.808  26.464  1.00  0.00     0.118 A 
BRANCH  26  27
ATOM     27  O   UNL A   1      34.317  29.795  27.221  1.00  0.00    -0.497 OA
ATOM     28  C   UNL A   1      35.445  29.437  28.004  1.00  0.00     0.278 C 
ENDBRANCH  26  27
ENDBRANCH  11  21
ENDBRANCH   7   8
ENDBRANCH   4   7
ENDBRANCH   2   3
ENDBRANCH   1   2
BRANCH   1  29
ATOM     29  C   UNL A   1      38.547  22.952  26.101  1.00  0.00     0.118 C 
BRANCH  29  30
ATOM     30  N   UNL A   1      39.474  22.181  26.933  1.00  0.00    -0.352 N 
ATOM     31  C   UNL A   1      40.526  22.653  27.690  1.00  0.00     0.251 C 
ATOM     32  H   UNL A   1      39.330  21.208  26.955  1.00  0.00     0.163 HD
ATOM     33  O   UNL A   1      41.386  21.877  28.114  1.00  0.00    -0.269 OA
BRANCH  31  34
ATOM     34  C   UNL A   1      40.606  24.093  27.986  1.00  0.00     0.039 A 
ATOM     35  C   UNL A   1      39.468  24.905  27.969  1.00  0.00     0.014 A 
ATOM     36  C   UNL A   1      41.853  24.624  28.311  1.00  0.00     0.014 A 
ATOM     37  C   UNL A   1      39.589  26.238  28.352  1.00  0.00     0.010 A 
ATOM     38  C   UNL A   1      41.942  25.882  28.842  1.00  0.00     0.010 A 
ATOM     39  C   UNL A   1      40.830  26.713  28.803  1.00  0.00    -0.014 A 
BRANCH  39  40
ATOM     40  C   UNL A   1      40.969  28.044  29.379  1.00  0.00     0.031 A 
ATOM     41  C   UNL A   1      41.904  28.928  28.631  1.00  0.00     0.074 A 
ATOM     42  C   UNL A   1      40.136  28.498  30.343  1.00  0.00     0.049 A 
ATOM     43  N   UNL A   1      43.035  29.396  29.042  1.00  0.00    -0.248 NA
ATOM     44  C   UNL A   1      41.641  29.186  27.205  1.00  0.00     0.031 C 
ATOM     45  C   UNL A   1      38.970  27.821  30.929  1.00  0.00     0.029 A 
ATOM     46  N   UNL A   1      40.057  29.739  30.893  1.00  0.00    -0.354 N 
ATOM     47  C   UNL A   1      43.497  30.220  28.018  1.00  0.00     0.074 A 
ATOM     48  C   UNL A   1      42.729  29.875  26.852  1.00  0.00     0.031 C 
ATOM     49  C   UNL A   1      38.166  28.734  31.518  1.00  0.00     0.029 A 
ATOM     50  C   UNL A   1      38.832  30.022  31.498  1.00  0.00     0.049 A 
ATOM     51  H   UNL A   1      40.800  30.383  30.867  1.00  0.00     0.167 HD
ATOM     52  C   UNL A   1      44.281  31.302  28.289  1.00  0.00     0.034 A 
ATOM     53  C   UNL A   1      38.385  31.240  31.900  1.00  0.00     0.034 A 
ATOM     54  C   UNL A   1      44.801  31.238  29.634  1.00  0.00     0.049 A 
ATOM     55  C   UNL A   1      39.576  32.113  32.023  1.00  0.00     0.074 A 
ATOM     56  C   UNL A   1      45.557  30.327  30.344  1.00  0.00     0.029 A 
ATOM     57  N   UNL A   1      44.188  32.033  30.572  1.00  0.00    -0.354 N 
ATOM     58  N   UNL A   1      40.502  31.932  32.921  1.00  0.00    -0.248 NA
ATOM     59  C   UNL A   1      39.968  32.890  30.858  1.00  0.00     0.031 C 
ATOM     60  C   UNL A   1      44.965  30.300  31.642  1.00  0.00     0.029 A 
ATOM     61  C   UNL A   1      43.950  31.258  31.675  1.00  0.00     0.049 A 
ATOM     62  H   UNL A   1      43.963  32.986  30.471  1.00  0.00     0.167 HD
ATOM     63  C   UNL A   1      41.687  32.134  32.226  1.00  0.00     0.074 A 
ATOM     64  C   UNL A   1      41.296  32.824  30.996  1.00  0.00     0.031 C 
ATOM     65  C   UNL A   1      42.824  31.455  32.559  1.00  0.00     0.034 A 
BRANCH  52  66
ATOM     66  C   UNL A   1      44.273  32.608  27.522  1.00  0.00     0.023 A 
ATOM     67  C   UNL A   1      45.307  32.797  26.574  1.00  0.00     0.012 A 
ATOM     68  C   UNL A   1      43.516  33.749  27.873  1.00  0.00     0.148 A 
ATOM     69  C   UNL A   1      45.622  34.063  26.069  1.00  0.00     0.002 A 
ATOM     70  C   UNL A   1      43.787  34.993  27.313  1.00  0.00     0.091 A 
ATOM     71  F   UNL A   1      42.608  33.680  28.848  1.00  0.00    -0.205 F 
ATOM     72  C   UNL A   1      44.861  35.163  26.438  1.00  0.00     0.022 A 
BRANCH  70  73
ATOM     73  S   UNL A   1      42.815  36.449  27.725  1.00  0.00     0.127 S 
ATOM     74  O   UNL A   1      43.379  37.443  26.816  1.00  0.00    -0.237 OA
ATOM     75  O   UNL A   1      41.461  36.003  27.395  1.00  0.00    -0.237 OA
ATOM     76  O   UNL A   1      43.038  36.684  29.145  1.00  0.00    -0.744 OA
ENDBRANCH  70  73
ENDBRANCH  52  66
BRANCH  53  77
ATOM     77  C   UNL A   1      37.014  31.801  31.969  1.00  0.00     0.023 A 
ATOM     78  C   UNL A   1      36.481  32.182  33.219  1.00  0.00     0.012 A 
ATOM     79  C   UNL A   1      36.353  32.246  30.804  1.00  0.00     0.148 A 
ATOM     80  C   UNL A   1      35.359  33.017  33.306  1.00  0.00     0.002 A 
ATOM     81  C   UNL A   1      35.238  33.078  30.896  1.00  0.00     0.091 A 
ATOM     82  F   UNL A   1      36.872  31.935  29.610  1.00  0.00    -0.205 F 
ATOM     83  C   UNL A   1      34.746  33.475  32.145  1.00  0.00     0.022 A 
BRANCH  81  84
ATOM     84  S   UNL A   1      34.423  33.750  29.439  1.00  0.00     0.127 S 
ATOM     85  O   UNL A   1      33.343  34.540  30.034  1.00  0.00    -0.237 OA
ATOM     86  O   UNL A   1      35.494  34.536  28.833  1.00  0.00    -0.237 OA
ATOM     87  O   UNL A   1      33.971  32.595  28.675  1.00  0.00    -0.744 OA
ENDBRANCH  81  84
ENDBRANCH  53  77
BRANCH  65  88
ATOM     88  C   UNL A   1      42.826  30.648  33.835  1.00  0.00     0.023 A 
ATOM     89  C   UNL A   1      43.035  31.224  35.106  1.00  0.00     0.012 A 
ATOM     90  C   UNL A   1      42.436  29.301  33.759  1.00  0.00     0.148 A 
ATOM     91  C   UNL A   1      42.882  30.467  36.272  1.00  0.00     0.002 A 
ATOM     92  C   UNL A   1      42.239  28.565  34.920  1.00  0.00     0.091 A 
ATOM     93  F   UNL A   1      42.237  28.767  32.545  1.00  0.00    -0.205 F 
ATOM     94  C   UNL A   1      42.471  29.140  36.180  1.00  0.00     0.022 A 
BRANCH  92  95
ATOM     95  S   UNL A   1      41.590  26.894  34.862  1.00  0.00     0.127 S 
ATOM     96  O   UNL A   1      40.426  27.050  33.992  1.00  0.00    -0.237 OA
ATOM     97  O   UNL A   1      42.699  26.145  34.271  1.00  0.00    -0.237 OA
ATOM     98  O   UNL A   1      41.299  26.530  36.244  1.00  0.00    -0.744 OA
ENDBRANCH  92  95
ENDBRANCH  65  88
ENDBRANCH  39  40
ENDBRANCH  31  34
ENDBRANCH  29  30
ENDBRANCH   1  29
TORSDOF 18
ENDMDL
MODEL 2
REMARK VINA RESULT:     -12.5      3.596      9.045
REMARK SMILES COc1ccc(-c2ncn(CC(=O)NCCCNC(=O)c3ccc(-c4c5nc(c(-c6cccc(S(=O)(=O)[O-])c6F)c6ccc([nH]6)c(-c6cccc(S(=O)(=O)[O-])c6F)c6nc(c(-c7cccc(S(=O)(=O)[O-])c7F)c7ccc4[nH]7)C=C6)C=C5)cc3)c2-c2ccc(OC)cc2)cc1
REMARK SMILES IDX 16 1 15 2 14 3 12 4 13 5 11 7 10 8 7 9 8 10 84 11 9 12 6 13
REMARK SMILES IDX 3 14 4 15 94 16 5 17 93 18 2 19 1 20 85 21 86 22 92 23 87 24
REMARK SMILES IDX 91 25 88 26 89 27 90 28 17 29 18 30 19 31 20 33 21 34 22 35
REMARK SMILES IDX 83 36 23 37 82 38 24 39 25 40 26 41 76 42 27 43 81 44 75 45
REMARK SMILES IDX 77 46 28 47 80 48 74 49 73 50 29 52 61 53 41 54 60 55 42 56
REMARK SMILES IDX 45 57 59 58 78 59 43 60 44 61 58 63 79 64 46 65 30 66 31 67
REMARK SMILES IDX 39 68 32 69 34 70 40 71 33 72 35 73 36 74 37 75 38 76 62 77
REMARK SMILES IDX 63 78 71 79 64 80 66 81 72 82 65 83 67 84 68 85 69 86 70 87
REMARK SMILES IDX 47 88 48 89 56 90 49 91 51 92 57 93 50 94 52 95 53 96 54 97
REMARK SMILES IDX 55 98
REMARK H PARENT 14 6 18 32 77 51 45 62
REMARK Flexibility Score: inf
ROOT
ATOM      1  C   UNL A   1      32.990  30.481  26.991  1.00  0.00     0.042 C 
ENDROOT
BRANCH   1   2
ATOM      2  C   UNL A   1      33.106  29.166  26.221  1.00  0.00     0.117 C 
BRANCH   2   3
ATOM      3  N   UNL A   1      32.200  28.127  26.676  1.00  0.00    -0.354 N 
ATOM      4  C   UNL A   1      31.949  26.900  26.134  1.00  0.00     0.239 C 
ATOM      5  O   UNL A   1      31.372  26.068  26.839  1.00  0.00    -0.273 OA
ATOM      6  H   UNL A   1      31.692  28.338  27.494  1.00  0.00     0.163 HD
BRANCH   4   7
ATOM      7  C   UNL A   1      32.450  26.532  24.754  1.00  0.00     0.223 C 
BRANCH   7   8
ATOM      8  N   UNL A   1      31.999  25.236  24.277  1.00  0.00    -0.321 N 
ATOM      9  C   UNL A   1      31.784  23.133  23.748  1.00  0.00     0.096 A 
ATOM     10  N   UNL A   1      30.633  23.760  23.328  1.00  0.00    -0.236 NA
ATOM     11  C   UNL A   1      32.689  24.044  24.281  1.00  0.00     0.076 A 
ATOM     12  C   UNL A   1      30.804  25.022  23.640  1.00  0.00     0.201 A 
BRANCH   9  13
ATOM     13  C   UNL A   1      32.045  21.719  23.573  1.00  0.00     0.003 A 
ATOM     14  C   UNL A   1      32.377  18.951  23.266  1.00  0.00     0.118 A 
ATOM     15  C   UNL A   1      32.147  19.757  22.151  1.00  0.00     0.047 A 
ATOM     16  C   UNL A   1      32.476  19.532  24.531  1.00  0.00     0.047 A 
ATOM     17  C   UNL A   1      31.976  21.134  22.302  1.00  0.00     0.014 A 
ATOM     18  C   UNL A   1      32.320  20.914  24.683  1.00  0.00     0.014 A 
BRANCH  14  19
ATOM     19  O   UNL A   1      32.557  17.623  23.002  1.00  0.00    -0.497 OA
ATOM     20  C   UNL A   1      33.804  17.078  23.407  1.00  0.00     0.278 C 
ENDBRANCH  14  19
ENDBRANCH   9  13
BRANCH  11  21
ATOM     21  C   UNL A   1      34.091  23.866  24.641  1.00  0.00     0.001 A 
ATOM     22  C   UNL A   1      34.511  23.789  25.970  1.00  0.00     0.014 A 
ATOM     23  C   UNL A   1      35.035  23.710  23.619  1.00  0.00     0.014 A 
ATOM     24  C   UNL A   1      35.866  23.614  26.266  1.00  0.00     0.047 A 
ATOM     25  C   UNL A   1      36.385  23.513  23.915  1.00  0.00     0.047 A 
ATOM     26  C   UNL A   1      36.805  23.475  25.242  1.00  0.00     0.118 A 
BRANCH  26  27
ATOM     27  O   UNL A   1      38.097  23.339  25.659  1.00  0.00    -0.497 OA
ATOM     28  C   UNL A   1      38.557  24.264  26.632  1.00  0.00     0.278 C 
ENDBRANCH  26  27
ENDBRANCH  11  21
ENDBRANCH   7   8
ENDBRANCH   4   7
ENDBRANCH   2   3
ENDBRANCH   1   2
BRANCH   1  29
ATOM     29  C   UNL A   1      34.333  30.997  27.472  1.00  0.00     0.118 C 
BRANCH  29  30
ATOM     30  N   UNL A   1      34.247  31.729  28.739  1.00  0.00    -0.352 N 
ATOM     31  C   UNL A   1      35.128  31.692  29.799  1.00  0.00     0.251 C 
ATOM     32  H   UNL A   1      33.465  32.317  28.847  1.00  0.00     0.163 HD
ATOM     33  O   UNL A   1      34.794  32.135  30.902  1.00  0.00    -0.269 OA
BRANCH  31  34
ATOM     34  C   UNL A   1      36.469  31.121  29.598  1.00  0.00     0.039 A 
ATOM     35  C   UNL A   1      37.598  31.937  29.473  1.00  0.00     0.014 A 
ATOM     36  C   UNL A   1      36.589  29.733  29.559  1.00  0.00     0.014 A 
ATOM     37  C   UNL A   1      38.852  31.339  29.382  1.00  0.00     0.010 A 
ATOM     38  C   UNL A   1      37.825  29.151  29.635  1.00  0.00     0.010 A 
ATOM     39  C   UNL A   1      38.956  29.943  29.480  1.00  0.00    -0.014 A 
BRANCH  39  40
ATOM     40  C   UNL A   1      40.251  29.284  29.568  1.00  0.00     0.031 A 
ATOM     41  C   UNL A   1      40.719  29.062  30.964  1.00  0.00     0.074 A 
ATOM     42  C   UNL A   1      40.839  28.711  28.493  1.00  0.00     0.049 A 
ATOM     43  N   UNL A   1      41.739  29.601  31.542  1.00  0.00    -0.248 NA
ATOM     44  C   UNL A   1      39.864  28.284  31.878  1.00  0.00     0.031 C 
ATOM     45  C   UNL A   1      40.310  28.590  27.126  1.00  0.00     0.029 A 
ATOM     46  N   UNL A   1      41.973  27.962  28.432  1.00  0.00    -0.354 N 
ATOM     47  C   UNL A   1      41.801  29.027  32.811  1.00  0.00     0.074 A 
ATOM     48  C   UNL A   1      40.519  28.415  33.034  1.00  0.00     0.031 C 
ATOM     49  C   UNL A   1      40.967  27.605  26.473  1.00  0.00     0.029 A 
ATOM     50  C   UNL A   1      42.061  27.144  27.307  1.00  0.00     0.049 A 
ATOM     51  H   UNL A   1      42.672  27.996  29.124  1.00  0.00     0.167 HD
ATOM     52  C   UNL A   1      42.994  28.874  33.452  1.00  0.00     0.034 A 
ATOM     53  C   UNL A   1      42.939  26.126  27.107  1.00  0.00     0.034 A 
ATOM     54  C   UNL A   1      44.025  29.661  32.819  1.00  0.00     0.049 A 
ATOM     55  C   UNL A   1      44.061  26.339  28.050  1.00  0.00     0.074 A 
ATOM     56  C   UNL A   1      44.188  31.000  32.527  1.00  0.00     0.029 A 
ATOM     57  N   UNL A   1      44.906  28.987  32.007  1.00  0.00    -0.354 N 
ATOM     58  N   UNL A   1      44.889  27.341  27.957  1.00  0.00    -0.248 NA
ATOM     59  C   UNL A   1      43.974  25.711  29.358  1.00  0.00     0.031 C 
ATOM     60  C   UNL A   1      44.771  31.018  31.225  1.00  0.00     0.029 A 
ATOM     61  C   UNL A   1      45.015  29.698  30.842  1.00  0.00     0.049 A 
ATOM     62  H   UNL A   1      45.375  28.149  32.223  1.00  0.00     0.167 HD
ATOM     63  C   UNL A   1      45.044  27.770  29.268  1.00  0.00     0.074 A 
ATOM     64  C   UNL A   1      44.547  26.668  30.093  1.00  0.00     0.031 C 
ATOM     65  C   UNL A   1      45.267  29.087  29.557  1.00  0.00     0.034 A 
BRANCH  52  66
ATOM     66  C   UNL A   1      43.351  27.734  34.384  1.00  0.00     0.023 A 
ATOM     67  C   UNL A   1      43.825  28.086  35.670  1.00  0.00     0.012 A 
ATOM     68  C   UNL A   1      43.528  26.389  33.988  1.00  0.00     0.148 A 
ATOM     69  C   UNL A   1      44.511  27.174  36.479  1.00  0.00     0.002 A 
ATOM     70  C   UNL A   1      44.146  25.467  34.826  1.00  0.00     0.091 A 
ATOM     71  F   UNL A   1      43.221  26.007  32.747  1.00  0.00    -0.205 F 
ATOM     72  C   UNL A   1      44.671  25.862  36.057  1.00  0.00     0.022 A 
BRANCH  70  73
ATOM     73  S   UNL A   1      44.352  23.744  34.351  1.00  0.00     0.127 S 
ATOM     74  O   UNL A   1      45.260  23.262  35.388  1.00  0.00    -0.237 OA
ATOM     75  O   UNL A   1      42.980  23.245  34.446  1.00  0.00    -0.237 OA
ATOM     76  O   UNL A   1      44.888  23.770  32.996  1.00  0.00    -0.744 OA
ENDBRANCH  70  73
ENDBRANCH  52  66
BRANCH  53  77
ATOM     77  C   UNL A   1      42.805  24.859  26.349  1.00  0.00     0.023 A 
ATOM     78  C   UNL A   1      43.613  24.639  25.213  1.00  0.00     0.012 A 
ATOM     79  C   UNL A   1      42.124  23.752  26.901  1.00  0.00     0.148 A 
ATOM     80  C   UNL A   1      43.777  23.356  24.676  1.00  0.00     0.002 A 
ATOM     81  C   UNL A   1      42.292  22.477  26.363  1.00  0.00     0.091 A 
ATOM     82  F   UNL A   1      41.392  23.932  28.007  1.00  0.00    -0.205 F 
ATOM     83  C   UNL A   1      43.128  22.273  25.259  1.00  0.00     0.022 A 
BRANCH  81  84
ATOM     84  S   UNL A   1      41.524  21.022  27.093  1.00  0.00     0.127 S 
ATOM     85  O   UNL A   1      41.259  20.196  25.913  1.00  0.00    -0.237 OA
ATOM     86  O   UNL A   1      42.589  20.525  27.960  1.00  0.00    -0.237 OA
ATOM     87  O   UNL A   1      40.328  21.507  27.768  1.00  0.00    -0.744 OA
ENDBRANCH  81  84
ENDBRANCH  53  77
BRANCH  65  88
ATOM     88  C   UNL A   1      45.562  30.028  28.415  1.00  0.00     0.023 A 
ATOM     89  C   UNL A   1      44.551  30.680  27.677  1.00  0.00     0.012 A 
ATOM     90  C   UNL A   1      46.900  30.394  28.196  1.00  0.00     0.148 A 
ATOM     91  C   UNL A   1      44.869  31.655  26.727  1.00  0.00     0.002 A 
ATOM     92  C   UNL A   1      47.210  31.396  27.286  1.00  0.00     0.091 A 
ATOM     93  F   UNL A   1      47.851  29.770  28.906  1.00  0.00    -0.205 F 
ATOM     94  C   UNL A   1      46.199  32.024  26.541  1.00  0.00     0.022 A 
BRANCH  92  95
ATOM     95  S   UNL A   1      48.890  31.994  27.099  1.00  0.00     0.127 S 
ATOM     96  O   UNL A   1      49.572  30.821  26.556  1.00  0.00    -0.237 OA
ATOM     97  O   UNL A   1      48.729  33.100  26.154  1.00  0.00    -0.237 OA
ATOM     98  O   UNL A   1      49.317  32.410  28.430  1.00  0.00    -0.744 OA
ENDBRANCH  92  95
ENDBRANCH  65  88
ENDBRANCH  39  40
ENDBRANCH  31  34
ENDBRANCH  29  30
ENDBRANCH   1  29
TORSDOF 18
ENDMDL
MODEL 3
REMARK VINA RESULT:     -12.0      2.357      2.794
REMARK SMILES COc1ccc(-c2ncn(CC(=O)NCCCNC(=O)c3ccc(-c4c5nc(c(-c6cccc(S(=O)(=O)[O-])c6F)c6ccc([nH]6)c(-c6cccc(S(=O)(=O)[O-])c6F)c6nc(c(-c7cccc(S(=O)(=O)[O-])c7F)c7ccc4[nH]7)C=C6)C=C5)cc3)c2-c2ccc(OC)cc2)cc1
REMARK SMILES IDX 16 1 15 2 14 3 12 4 13 5 11 7 10 8 7 9 8 10 84 11 9 12 6 13
REMARK SMILES IDX 3 14 4 15 94 16 5 17 93 18 2 19 1 20 85 21 86 22 92 23 87 24
REMARK SMILES IDX 91 25 88 26 89 27 90 28 17 29 18 30 19 31 20 33 21 34 22 35
REMARK SMILES IDX 83 36 23 37 82 38 24 39 25 40 26 41 76 42 27 43 81 44 75 45
REMARK SMILES IDX 77 46 28 47 80 48 74 49 73 50 29 52 61 53 41 54 60 55 42 56
REMARK SMILES IDX 45 57 59 58 78 59 43 60 44 61 58 63 79 64 46 65 30 66 31 67
REMARK SMILES IDX 39 68 32 69 34 70 40 71 33 72 35 73 36 74 37 75 38 76 62 77
REMARK SMILES IDX 63 78 71 79 64 80 66 81 72 82 65 83 67 84 68 85 69 86 70 87
REMARK SMILES IDX 47 88 48 89 56 90 49 91 51 92 57 93 50 94 52 95 53 96 54 97
REMARK SMILES IDX 55 98
REMARK H PARENT 14 6 18 32 77 51 45 62
REMARK Flexibility Score: inf
ROOT
ATOM      1  C   UNL A   1      37.817  23.840  25.630  1.00  0.00     0.042 C 
ENDROOT
BRANCH   1   2
ATOM      2  C   UNL A   1      36.454  23.149  25.596  1.00  0.00     0.117 C 
BRANCH   2   3
ATOM      3  N   UNL A   1      35.843  23.102  24.279  1.00  0.00    -0.354 N 
ATOM      4  C   UNL A   1      34.595  23.493  23.890  1.00  0.00     0.239 C 
ATOM      5  O   UNL A   1      34.390  23.641  22.683  1.00  0.00    -0.273 OA
ATOM      6  H   UNL A   1      36.412  22.734  23.563  1.00  0.00     0.163 HD
BRANCH   4   7
ATOM      7  C   UNL A   1      33.526  23.836  24.905  1.00  0.00     0.223 C 
BRANCH   7   8
ATOM      8  N   UNL A   1      32.315  24.399  24.335  1.00  0.00    -0.321 N 
ATOM      9  C   UNL A   1      30.689  25.690  23.672  1.00  0.00     0.096 A 
ATOM     10  N   UNL A   1      30.372  24.417  23.254  1.00  0.00    -0.236 NA
ATOM     11  C   UNL A   1      31.864  25.698  24.415  1.00  0.00     0.076 A 
ATOM     12  C   UNL A   1      31.356  23.666  23.686  1.00  0.00     0.201 A 
BRANCH   9  13
ATOM     13  C   UNL A   1      29.854  26.850  23.438  1.00  0.00     0.003 A 
ATOM     14  C   UNL A   1      28.195  29.027  22.826  1.00  0.00     0.118 A 
ATOM     15  C   UNL A   1      27.693  27.946  23.549  1.00  0.00     0.047 A 
ATOM     16  C   UNL A   1      29.536  29.037  22.438  1.00  0.00     0.047 A 
ATOM     17  C   UNL A   1      28.515  26.858  23.850  1.00  0.00     0.014 A 
ATOM     18  C   UNL A   1      30.366  27.955  22.752  1.00  0.00     0.014 A 
BRANCH  14  19
ATOM     19  O   UNL A   1      27.314  30.047  22.611  1.00  0.00    -0.497 OA
ATOM     20  C   UNL A   1      27.560  31.239  23.343  1.00  0.00     0.278 C 
ENDBRANCH  14  19
ENDBRANCH   9  13
BRANCH  11  21
ATOM     21  C   UNL A   1      32.451  26.761  25.223  1.00  0.00     0.001 A 
ATOM     22  C   UNL A   1      33.479  27.575  24.744  1.00  0.00     0.014 A 
ATOM     23  C   UNL A   1      31.925  27.008  26.497  1.00  0.00     0.014 A 
ATOM     24  C   UNL A   1      34.006  28.584  25.555  1.00  0.00     0.047 A 
ATOM     25  C   UNL A   1      32.438  28.030  27.297  1.00  0.00     0.047 A 
ATOM     26  C   UNL A   1      33.489  28.815  26.830  1.00  0.00     0.118 A 
BRANCH  26  27
ATOM     27  O   UNL A   1      34.107  29.808  27.534  1.00  0.00    -0.497 OA
ATOM     28  C   UNL A   1      35.517  29.719  27.662  1.00  0.00     0.278 C 
ENDBRANCH  26  27
ENDBRANCH  11  21
ENDBRANCH   7   8
ENDBRANCH   4   7
ENDBRANCH   2   3
ENDBRANCH   1   2
BRANCH   1  29
ATOM     29  C   UNL A   1      38.669  23.395  26.804  1.00  0.00     0.118 C 
BRANCH  29  30
ATOM     30  N   UNL A   1      40.047  23.072  26.426  1.00  0.00    -0.352 N 
ATOM     31  C   UNL A   1      41.146  23.904  26.438  1.00  0.00     0.251 C 
ATOM     32  H   UNL A   1      40.208  22.148  26.125  1.00  0.00     0.163 HD
ATOM     33  O   UNL A   1      42.175  23.586  25.836  1.00  0.00    -0.269 OA
BRANCH  31  34
ATOM     34  C   UNL A   1      41.076  25.174  27.179  1.00  0.00     0.039 A 
ATOM     35  C   UNL A   1      41.676  25.319  28.434  1.00  0.00     0.014 A 
ATOM     36  C   UNL A   1      40.412  26.243  26.581  1.00  0.00     0.014 A 
ATOM     37  C   UNL A   1      41.661  26.571  29.044  1.00  0.00     0.010 A 
ATOM     38  C   UNL A   1      40.539  27.503  27.101  1.00  0.00     0.010 A 
ATOM     39  C   UNL A   1      41.102  27.661  28.360  1.00  0.00    -0.014 A 
BRANCH  39  40
ATOM     40  C   UNL A   1      41.218  29.018  28.875  1.00  0.00     0.031 A 
ATOM     41  C   UNL A   1      42.411  29.752  28.371  1.00  0.00     0.074 A 
ATOM     42  C   UNL A   1      40.207  29.622  29.540  1.00  0.00     0.049 A 
ATOM     43  N   UNL A   1      43.429  30.155  29.056  1.00  0.00    -0.248 NA
ATOM     44  C   UNL A   1      42.577  29.912  26.916  1.00  0.00     0.031 C 
ATOM     45  C   UNL A   1      38.860  29.100  29.812  1.00  0.00     0.029 A 
ATOM     46  N   UNL A   1      40.112  30.908  29.974  1.00  0.00    -0.354 N 
ATOM     47  C   UNL A   1      44.239  30.847  28.156  1.00  0.00     0.074 A 
ATOM     48  C   UNL A   1      43.787  30.472  26.844  1.00  0.00     0.031 C 
ATOM     49  C   UNL A   1      38.027  30.125  30.099  1.00  0.00     0.029 A 
ATOM     50  C   UNL A   1      38.806  31.345  30.194  1.00  0.00     0.049 A 
ATOM     51  H   UNL A   1      40.899  31.480  30.121  1.00  0.00     0.167 HD
ATOM     52  C   UNL A   1      45.029  31.876  28.575  1.00  0.00     0.034 A 
ATOM     53  C   UNL A   1      38.398  32.626  30.384  1.00  0.00     0.034 A 
ATOM     54  C   UNL A   1      45.151  31.881  30.013  1.00  0.00     0.049 A 
ATOM     55  C   UNL A   1      39.595  33.400  30.787  1.00  0.00     0.074 A 
ATOM     56  C   UNL A   1      45.583  30.971  30.958  1.00  0.00     0.029 A 
ATOM     57  N   UNL A   1      44.393  32.802  30.695  1.00  0.00    -0.354 N 
ATOM     58  N   UNL A   1      40.216  33.216  31.917  1.00  0.00    -0.248 NA
ATOM     59  C   UNL A   1      40.371  34.040  29.737  1.00  0.00     0.031 C 
ATOM     60  C   UNL A   1      44.659  31.105  32.037  1.00  0.00     0.029 A 
ATOM     61  C   UNL A   1      43.781  32.146  31.729  1.00  0.00     0.049 A 
ATOM     62  H   UNL A   1      44.306  33.759  30.481  1.00  0.00     0.167 HD
ATOM     63  C   UNL A   1      41.560  33.257  31.572  1.00  0.00     0.074 A 
ATOM     64  C   UNL A   1      41.596  33.872  30.244  1.00  0.00     0.031 C 
ATOM     65  C   UNL A   1      42.484  32.513  32.249  1.00  0.00     0.034 A 
BRANCH  52  66
ATOM     66  C   UNL A   1      45.370  33.109  27.764  1.00  0.00     0.023 A 
ATOM     67  C   UNL A   1      44.343  33.638  26.946  1.00  0.00     0.012 A 
ATOM     68  C   UNL A   1      46.678  33.590  27.532  1.00  0.00     0.148 A 
ATOM     69  C   UNL A   1      44.616  34.529  25.902  1.00  0.00     0.002 A 
ATOM     70  C   UNL A   1      46.934  34.532  26.540  1.00  0.00     0.091 A 
ATOM     71  F   UNL A   1      47.717  33.052  28.174  1.00  0.00    -0.205 F 
ATOM     72  C   UNL A   1      45.913  34.977  25.700  1.00  0.00     0.022 A 
BRANCH  70  73
ATOM     73  S   UNL A   1      48.588  35.177  26.251  1.00  0.00     0.127 S 
ATOM     74  O   UNL A   1      48.315  36.598  26.051  1.00  0.00    -0.237 OA
ATOM     75  O   UNL A   1      49.259  34.845  27.508  1.00  0.00    -0.237 OA
ATOM     76  O   UNL A   1      49.096  34.456  25.092  1.00  0.00    -0.744 OA
ENDBRANCH  70  73
ENDBRANCH  52  66
BRANCH  53  77
ATOM     77  C   UNL A   1      37.127  33.307  30.034  1.00  0.00     0.023 A 
ATOM     78  C   UNL A   1      36.589  33.150  28.739  1.00  0.00     0.012 A 
ATOM     79  C   UNL A   1      36.293  33.846  31.036  1.00  0.00     0.148 A 
ATOM     80  C   UNL A   1      35.254  33.473  28.463  1.00  0.00     0.002 A 
ATOM     81  C   UNL A   1      34.965  34.163  30.758  1.00  0.00     0.091 A 
ATOM     82  F   UNL A   1      36.771  33.956  32.283  1.00  0.00    -0.205 F 
ATOM     83  C   UNL A   1      34.439  33.967  29.475  1.00  0.00     0.022 A 
BRANCH  81  84
ATOM     84  S   UNL A   1      33.836  34.759  32.026  1.00  0.00     0.127 S 
ATOM     85  O   UNL A   1      33.666  33.570  32.863  1.00  0.00    -0.237 OA
ATOM     86  O   UNL A   1      34.616  35.832  32.639  1.00  0.00    -0.237 OA
ATOM     87  O   UNL A   1      32.633  35.173  31.318  1.00  0.00    -0.744 OA
ENDBRANCH  81  84
ENDBRANCH  53  77
BRANCH  65  88
ATOM     88  C   UNL A   1      42.051  31.819  33.518  1.00  0.00     0.023 A 
ATOM     89  C   UNL A   1      41.563  30.495  33.539  1.00  0.00     0.012 A 
ATOM     90  C   UNL A   1      42.309  32.464  34.738  1.00  0.00     0.148 A 
ATOM     91  C   UNL A   1      41.313  29.840  34.750  1.00  0.00     0.002 A 
ATOM     92  C   UNL A   1      42.105  31.795  35.938  1.00  0.00     0.091 A 
ATOM     93  F   UNL A   1      42.777  33.721  34.703  1.00  0.00    -0.205 F 
ATOM     94  C   UNL A   1      41.597  30.486  35.950  1.00  0.00     0.022 A 
BRANCH  92  95
ATOM     95  S   UNL A   1      42.571  32.534  37.504  1.00  0.00     0.127 S 
ATOM     96  O   UNL A   1      42.182  31.496  38.457  1.00  0.00    -0.237 OA
ATOM     97  O   UNL A   1      44.015  32.714  37.351  1.00  0.00    -0.237 OA
ATOM     98  O   UNL A   1      41.825  33.783  37.595  1.00  0.00    -0.744 OA
ENDBRANCH  92  95
ENDBRANCH  65  88
ENDBRANCH  39  40
ENDBRANCH  31  34
ENDBRANCH  29  30
ENDBRANCH   1  29
TORSDOF 18
ENDMDL
