MODEL 1
REMARK VINA RESULT:     -12.2      0.000      0.000
REMARK SMILES COc1cccc([C@H]2SC[C@@H](C(=O)NCCCNC(=O)c3ccc(-c4c5nc(c(-c6cccc(S(=O)(=O)[O-])c6F)c6ccc([nH]6)c(-c6cccc(S(=O)(=O)[O-])c6F)c6nc(c(-c7cccc(S(=O)(=O)[O-])c7F)c7ccc4[nH]7)C=C6)C=C5)cc3)N2C(C)=O)c1
REMARK SMILES IDX 16 1 15 2 14 3 12 4 13 5 11 7 8 8 9 9 84 10 10 11 7 12 3 13
REMARK SMILES IDX 4 14 88 15 5 16 6 17 2 18 1 19 85 20 86 21 87 22 17 23 18 24
REMARK SMILES IDX 19 25 20 27 21 28 22 29 83 30 23 31 82 32 24 33 25 34 26 35
REMARK SMILES IDX 76 36 27 37 81 38 75 39 77 40 28 41 80 42 74 43 73 44 29 46
REMARK SMILES IDX 61 47 41 48 60 49 42 50 45 51 59 52 78 53 43 54 44 55 58 57
REMARK SMILES IDX 79 58 46 59 30 60 31 61 39 62 32 63 34 64 40 65 33 66 35 67
REMARK SMILES IDX 36 68 37 69 38 70 62 71 63 72 71 73 64 74 66 75 72 76 65 77
REMARK SMILES IDX 67 78 68 79 69 80 70 81 47 82 48 83 56 84 49 85 51 86 57 87
REMARK SMILES IDX 50 88 52 89 53 90 54 91 55 92
REMARK H PARENT 14 6 18 26 77 45 45 56
REMARK Flexibility Score: inf
ROOT
ATOM      1  C   UNL A   1      32.960  27.803  23.926  1.00  0.00     0.042 C 
ENDROOT
BRANCH   1   2
ATOM      2  C   UNL A   1      33.459  26.418  24.295  1.00  0.00     0.117 C 
BRANCH   2   3
ATOM      3  N   UNL A   1      33.778  25.571  23.172  1.00  0.00    -0.354 N 
ATOM      4  C   UNL A   1      34.002  24.228  23.165  1.00  0.00     0.243 C 
ATOM      5  O   UNL A   1      33.728  23.627  22.120  1.00  0.00    -0.273 OA
ATOM      6  H   UNL A   1      33.844  26.022  22.299  1.00  0.00     0.163 HD
BRANCH   4   7
ATOM      7  C   UNL A   1      34.464  23.423  24.410  1.00  0.00     0.185 C 
ATOM      8  C   UNL A   1      33.947  21.228  25.473  1.00  0.00     0.175 C 
ATOM      9  S   UNL A   1      35.772  21.342  25.348  1.00  0.00    -0.129 SA
ATOM     10  N   UNL A   1      33.483  22.587  25.128  1.00  0.00    -0.314 N 
ATOM     11  C   UNL A   1      35.688  22.592  24.044  1.00  0.00     0.107 C 
BRANCH   8  12
ATOM     12  C   UNL A   1      33.325  20.135  24.603  1.00  0.00    -0.012 A 
ATOM     13  C   UNL A   1      33.176  17.797  23.887  1.00  0.00     0.119 A 
ATOM     14  C   UNL A   1      32.461  18.176  22.756  1.00  0.00     0.046 A 
ATOM     15  C   UNL A   1      33.524  18.759  24.835  1.00  0.00     0.053 A 
ATOM     16  C   UNL A   1      32.153  19.520  22.549  1.00  0.00     0.004 A 
ATOM     17  C   UNL A   1      32.595  20.492  23.454  1.00  0.00     0.007 A 
BRANCH  13  18
ATOM     18  O   UNL A   1      33.465  16.470  24.040  1.00  0.00    -0.497 OA
ATOM     19  C   UNL A   1      34.602  16.172  24.849  1.00  0.00     0.278 C 
ENDBRANCH  13  18
ENDBRANCH   8  12
BRANCH  10  20
ATOM     20  C   UNL A   1      32.438  23.117  25.871  1.00  0.00     0.221 C 
ATOM     21  C   UNL A   1      31.026  23.036  25.331  1.00  0.00     0.114 C 
ATOM     22  O   UNL A   1      32.629  23.693  26.943  1.00  0.00    -0.275 OA
ENDBRANCH  10  20
ENDBRANCH   4   7
ENDBRANCH   2   3
ENDBRANCH   1   2
BRANCH   1  23
ATOM     23  C   UNL A   1      33.669  28.951  24.641  1.00  0.00     0.118 C 
BRANCH  23  24
ATOM     24  N   UNL A   1      32.805  29.910  25.325  1.00  0.00    -0.352 N 
ATOM     25  C   UNL A   1      32.963  30.648  26.475  1.00  0.00     0.251 C 
ATOM     26  H   UNL A   1      31.941  30.055  24.876  1.00  0.00     0.163 HD
ATOM     27  O   UNL A   1      32.059  31.406  26.821  1.00  0.00    -0.269 OA
BRANCH  25  28
ATOM     28  C   UNL A   1      34.182  30.541  27.305  1.00  0.00     0.039 A 
ATOM     29  C   UNL A   1      34.901  31.699  27.627  1.00  0.00     0.014 A 
ATOM     30  C   UNL A   1      34.646  29.303  27.739  1.00  0.00     0.014 A 
ATOM     31  C   UNL A   1      36.053  31.611  28.415  1.00  0.00     0.010 A 
ATOM     32  C   UNL A   1      35.692  29.231  28.641  1.00  0.00     0.010 A 
ATOM     33  C   UNL A   1      36.445  30.373  28.942  1.00  0.00    -0.014 A 
BRANCH  33  34
ATOM     34  C   UNL A   1      37.694  30.182  29.717  1.00  0.00     0.031 A 
ATOM     35  C   UNL A   1      38.786  29.321  29.129  1.00  0.00     0.074 A 
ATOM     36  C   UNL A   1      37.794  30.651  30.974  1.00  0.00     0.049 A 
ATOM     37  N   UNL A   1      39.875  28.863  29.685  1.00  0.00    -0.248 NA
ATOM     38  C   UNL A   1      38.589  28.860  27.740  1.00  0.00     0.031 C 
ATOM     39  C   UNL A   1      36.775  31.435  31.674  1.00  0.00     0.029 A 
ATOM     40  N   UNL A   1      38.797  30.505  31.898  1.00  0.00    -0.354 N 
ATOM     41  C   UNL A   1      40.445  28.007  28.748  1.00  0.00     0.074 A 
ATOM     42  C   UNL A   1      39.552  27.962  27.615  1.00  0.00     0.031 C 
ATOM     43  C   UNL A   1      37.213  31.718  32.912  1.00  0.00     0.029 A 
ATOM     44  C   UNL A   1      38.523  31.106  33.104  1.00  0.00     0.049 A 
ATOM     45  H   UNL A   1      39.631  30.018  31.716  1.00  0.00     0.167 HD
ATOM     46  C   UNL A   1      41.625  27.346  28.805  1.00  0.00     0.034 A 
ATOM     47  C   UNL A   1      39.256  31.154  34.234  1.00  0.00     0.034 A 
ATOM     48  C   UNL A   1      42.538  27.467  29.907  1.00  0.00     0.049 A 
ATOM     49  C   UNL A   1      40.598  30.473  34.253  1.00  0.00     0.074 A 
ATOM     50  C   UNL A   1      43.810  26.939  30.038  1.00  0.00     0.029 A 
ATOM     51  N   UNL A   1      42.274  28.173  31.071  1.00  0.00    -0.354 N 
ATOM     52  N   UNL A   1      41.186  29.778  33.309  1.00  0.00    -0.248 NA
ATOM     53  C   UNL A   1      41.394  30.616  35.479  1.00  0.00     0.031 C 
ATOM     54  C   UNL A   1      44.303  27.306  31.295  1.00  0.00     0.029 A 
ATOM     55  C   UNL A   1      43.355  28.094  31.930  1.00  0.00     0.049 A 
ATOM     56  H   UNL A   1      41.439  28.660  31.259  1.00  0.00     0.167 HD
ATOM     57  C   UNL A   1      42.443  29.446  33.806  1.00  0.00     0.074 A 
ATOM     58  C   UNL A   1      42.529  30.025  35.132  1.00  0.00     0.031 C 
ATOM     59  C   UNL A   1      43.434  28.726  33.223  1.00  0.00     0.034 A 
BRANCH  46  60
ATOM     60  C   UNL A   1      42.001  26.483  27.626  1.00  0.00     0.023 A 
ATOM     61  C   UNL A   1      42.621  27.061  26.496  1.00  0.00     0.012 A 
ATOM     62  C   UNL A   1      41.739  25.099  27.630  1.00  0.00     0.148 A 
ATOM     63  C   UNL A   1      42.911  26.293  25.368  1.00  0.00     0.002 A 
ATOM     64  C   UNL A   1      42.085  24.329  26.524  1.00  0.00     0.091 A 
ATOM     65  F   UNL A   1      41.131  24.565  28.698  1.00  0.00    -0.205 F 
ATOM     66  C   UNL A   1      42.650  24.927  25.386  1.00  0.00     0.022 A 
BRANCH  64  67
ATOM     67  S   UNL A   1      41.872  22.546  26.486  1.00  0.00     0.127 S 
ATOM     68  O   UNL A   1      42.491  22.202  25.205  1.00  0.00    -0.237 OA
ATOM     69  O   UNL A   1      42.633  22.120  27.662  1.00  0.00    -0.237 OA
ATOM     70  O   UNL A   1      40.439  22.312  26.575  1.00  0.00    -0.744 OA
ENDBRANCH  64  67
ENDBRANCH  46  60
BRANCH  47  71
ATOM     71  C   UNL A   1      38.788  31.969  35.390  1.00  0.00     0.023 A 
ATOM     72  C   UNL A   1      38.874  33.374  35.309  1.00  0.00     0.012 A 
ATOM     73  C   UNL A   1      38.227  31.382  36.539  1.00  0.00     0.148 A 
ATOM     74  C   UNL A   1      38.439  34.178  36.362  1.00  0.00     0.002 A 
ATOM     75  C   UNL A   1      37.748  32.192  37.565  1.00  0.00     0.091 A 
ATOM     76  F   UNL A   1      38.153  30.045  36.597  1.00  0.00    -0.205 F 
ATOM     77  C   UNL A   1      37.869  33.588  37.485  1.00  0.00     0.022 A 
BRANCH  75  78
ATOM     78  S   UNL A   1      36.890  31.534  39.000  1.00  0.00     0.127 S 
ATOM     79  O   UNL A   1      35.728  32.417  39.083  1.00  0.00    -0.237 OA
ATOM     80  O   UNL A   1      36.596  30.167  38.571  1.00  0.00    -0.237 OA
ATOM     81  O   UNL A   1      37.832  31.633  40.105  1.00  0.00    -0.744 OA
ENDBRANCH  75  78
ENDBRANCH  47  71
BRANCH  59  82
ATOM     82  C   UNL A   1      44.724  28.577  33.984  1.00  0.00     0.023 A 
ATOM     83  C   UNL A   1      45.752  29.527  33.831  1.00  0.00     0.012 A 
ATOM     84  C   UNL A   1      44.885  27.525  34.908  1.00  0.00     0.148 A 
ATOM     85  C   UNL A   1      46.938  29.409  34.556  1.00  0.00     0.002 A 
ATOM     86  C   UNL A   1      46.044  27.446  35.667  1.00  0.00     0.091 A 
ATOM     87  F   UNL A   1      43.902  26.620  35.025  1.00  0.00    -0.205 F 
ATOM     88  C   UNL A   1      47.078  28.378  35.481  1.00  0.00     0.022 A 
BRANCH  86  89
ATOM     89  S   UNL A   1      46.262  26.217  36.958  1.00  0.00     0.127 S 
ATOM     90  O   UNL A   1      47.583  26.561  37.478  1.00  0.00    -0.237 OA
ATOM     91  O   UNL A   1      45.152  26.518  37.863  1.00  0.00    -0.237 OA
ATOM     92  O   UNL A   1      46.166  24.922  36.297  1.00  0.00    -0.744 OA
ENDBRANCH  86  89
ENDBRANCH  59  82
ENDBRANCH  33  34
ENDBRANCH  25  28
ENDBRANCH  23  24
ENDBRANCH   1  23
TORSDOF 16
ENDMDL
MODEL 2
REMARK VINA RESULT:     -12.0      3.377      5.269
REMARK SMILES COc1cccc([C@H]2SC[C@@H](C(=O)NCCCNC(=O)c3ccc(-c4c5nc(c(-c6cccc(S(=O)(=O)[O-])c6F)c6ccc([nH]6)c(-c6cccc(S(=O)(=O)[O-])c6F)c6nc(c(-c7cccc(S(=O)(=O)[O-])c7F)c7ccc4[nH]7)C=C6)C=C5)cc3)N2C(C)=O)c1
REMARK SMILES IDX 16 1 15 2 14 3 12 4 13 5 11 7 8 8 9 9 84 10 10 11 7 12 3 13
REMARK SMILES IDX 4 14 88 15 5 16 6 17 2 18 1 19 85 20 86 21 87 22 17 23 18 24
REMARK SMILES IDX 19 25 20 27 21 28 22 29 83 30 23 31 82 32 24 33 25 34 26 35
REMARK SMILES IDX 76 36 27 37 81 38 75 39 77 40 28 41 80 42 74 43 73 44 29 46
REMARK SMILES IDX 61 47 41 48 60 49 42 50 45 51 59 52 78 53 43 54 44 55 58 57
REMARK SMILES IDX 79 58 46 59 30 60 31 61 39 62 32 63 34 64 40 65 33 66 35 67
REMARK SMILES IDX 36 68 37 69 38 70 62 71 63 72 71 73 64 74 66 75 72 76 65 77
REMARK SMILES IDX 67 78 68 79 69 80 70 81 47 82 48 83 56 84 49 85 51 86 57 87
REMARK SMILES IDX 50 88 52 89 53 90 54 91 55 92
REMARK H PARENT 14 6 18 26 77 45 45 56
REMARK Flexibility Score: inf
ROOT
ATOM      1  C   UNL A   1      31.323  32.192  26.422  1.00  0.00     0.042 C 
ENDROOT
BRANCH   1   2
ATOM      2  C   UNL A   1      31.566  30.806  25.854  1.00  0.00     0.117 C 
BRANCH   2   3
ATOM      3  N   UNL A   1      31.751  29.772  26.842  1.00  0.00    -0.354 N 
ATOM      4  C   UNL A   1      32.368  28.567  26.697  1.00  0.00     0.243 C 
ATOM      5  O   UNL A   1      32.888  28.086  27.710  1.00  0.00    -0.273 OA
ATOM      6  H   UNL A   1      31.383  29.961  27.736  1.00  0.00     0.163 HD
BRANCH   4   7
ATOM      7  C   UNL A   1      32.543  27.845  25.333  1.00  0.00     0.185 C 
ATOM      8  C   UNL A   1      31.172  27.403  23.299  1.00  0.00     0.175 C 
ATOM      9  S   UNL A   1      32.783  28.060  22.723  1.00  0.00    -0.129 SA
ATOM     10  N   UNL A   1      31.388  27.147  24.737  1.00  0.00    -0.314 N 
ATOM     11  C   UNL A   1      33.142  28.818  24.324  1.00  0.00     0.107 C 
BRANCH   8  12
ATOM     12  C   UNL A   1      29.982  28.323  23.018  1.00  0.00    -0.012 A 
ATOM     13  C   UNL A   1      29.049  30.551  22.611  1.00  0.00     0.119 A 
ATOM     14  C   UNL A   1      27.769  30.077  22.874  1.00  0.00     0.046 A 
ATOM     15  C   UNL A   1      30.124  29.662  22.601  1.00  0.00     0.053 A 
ATOM     16  C   UNL A   1      27.578  28.730  23.185  1.00  0.00     0.004 A 
ATOM     17  C   UNL A   1      28.676  27.866  23.274  1.00  0.00     0.007 A 
BRANCH  13  18
ATOM     18  O   UNL A   1      29.187  31.880  22.323  1.00  0.00    -0.497 OA
ATOM     19  C   UNL A   1      28.121  32.466  21.577  1.00  0.00     0.278 C 
ENDBRANCH  13  18
ENDBRANCH   8  12
BRANCH  10  20
ATOM     20  C   UNL A   1      30.849  25.986  25.270  1.00  0.00     0.221 C 
ATOM     21  C   UNL A   1      30.697  24.764  24.390  1.00  0.00     0.114 C 
ATOM     22  O   UNL A   1      30.447  25.930  26.434  1.00  0.00    -0.275 OA
ENDBRANCH  10  20
ENDBRANCH   4   7
ENDBRANCH   2   3
ENDBRANCH   1   2
BRANCH   1  23
ATOM     23  C   UNL A   1      32.471  32.754  27.257  1.00  0.00     0.118 C 
BRANCH  23  24
ATOM     24  N   UNL A   1      32.299  34.120  27.745  1.00  0.00    -0.352 N 
ATOM     25  C   UNL A   1      33.021  34.888  28.629  1.00  0.00     0.251 C 
ATOM     26  H   UNL A   1      31.514  34.579  27.369  1.00  0.00     0.163 HD
ATOM     27  O   UNL A   1      32.649  36.038  28.853  1.00  0.00    -0.269 OA
BRANCH  25  28
ATOM     28  C   UNL A   1      34.216  34.360  29.322  1.00  0.00     0.039 A 
ATOM     29  C   UNL A   1      35.484  34.573  28.767  1.00  0.00     0.014 A 
ATOM     30  C   UNL A   1      34.095  33.623  30.495  1.00  0.00     0.014 A 
ATOM     31  C   UNL A   1      36.623  34.083  29.416  1.00  0.00     0.010 A 
ATOM     32  C   UNL A   1      35.224  33.272  31.214  1.00  0.00     0.010 A 
ATOM     33  C   UNL A   1      36.498  33.442  30.656  1.00  0.00    -0.014 A 
BRANCH  33  34
ATOM     34  C   UNL A   1      37.642  32.825  31.368  1.00  0.00     0.031 A 
ATOM     35  C   UNL A   1      38.368  31.676  30.710  1.00  0.00     0.074 A 
ATOM     36  C   UNL A   1      37.937  33.190  32.628  1.00  0.00     0.049 A 
ATOM     37  N   UNL A   1      39.265  30.867  31.205  1.00  0.00    -0.248 NA
ATOM     38  C   UNL A   1      37.978  31.355  29.323  1.00  0.00     0.031 C 
ATOM     39  C   UNL A   1      37.260  34.239  33.391  1.00  0.00     0.029 A 
ATOM     40  N   UNL A   1      38.870  32.692  33.501  1.00  0.00    -0.354 N 
ATOM     41  C   UNL A   1      39.486  29.906  30.224  1.00  0.00     0.074 A 
ATOM     42  C   UNL A   1      38.587  30.196  29.133  1.00  0.00     0.031 C 
ATOM     43  C   UNL A   1      37.812  34.320  34.614  1.00  0.00     0.029 A 
ATOM     44  C   UNL A   1      38.854  33.306  34.731  1.00  0.00     0.049 A 
ATOM     45  H   UNL A   1      39.491  31.965  33.269  1.00  0.00     0.167 HD
ATOM     46  C   UNL A   1      40.385  28.893  30.212  1.00  0.00     0.034 A 
ATOM     47  C   UNL A   1      39.604  33.071  35.826  1.00  0.00     0.034 A 
ATOM     48  C   UNL A   1      41.328  28.668  31.272  1.00  0.00     0.049 A 
ATOM     49  C   UNL A   1      40.648  31.987  35.767  1.00  0.00     0.074 A 
ATOM     50  C   UNL A   1      42.359  27.749  31.331  1.00  0.00     0.029 A 
ATOM     51  N   UNL A   1      41.354  29.380  32.462  1.00  0.00    -0.354 N 
ATOM     52  N   UNL A   1      40.939  31.172  34.782  1.00  0.00    -0.248 NA
ATOM     53  C   UNL A   1      41.491  31.818  36.957  1.00  0.00     0.031 C 
ATOM     54  C   UNL A   1      42.992  27.889  32.571  1.00  0.00     0.029 A 
ATOM     55  C   UNL A   1      42.379  28.921  33.267  1.00  0.00     0.049 A 
ATOM     56  H   UNL A   1      40.733  30.106  32.699  1.00  0.00     0.167 HD
ATOM     57  C   UNL A   1      42.034  30.430  35.212  1.00  0.00     0.074 A 
ATOM     58  C   UNL A   1      42.355  30.901  36.545  1.00  0.00     0.031 C 
ATOM     59  C   UNL A   1      42.710  29.446  34.568  1.00  0.00     0.034 A 
BRANCH  46  60
ATOM     60  C   UNL A   1      40.412  27.997  28.998  1.00  0.00     0.023 A 
ATOM     61  C   UNL A   1      39.449  26.973  28.854  1.00  0.00     0.012 A 
ATOM     62  C   UNL A   1      41.391  28.161  27.999  1.00  0.00     0.148 A 
ATOM     63  C   UNL A   1      39.500  26.090  27.775  1.00  0.00     0.002 A 
ATOM     64  C   UNL A   1      41.399  27.314  26.895  1.00  0.00     0.091 A 
ATOM     65  F   UNL A   1      42.312  29.121  28.155  1.00  0.00    -0.205 F 
ATOM     66  C   UNL A   1      40.470  26.266  26.793  1.00  0.00     0.022 A 
BRANCH  64  67
ATOM     67  S   UNL A   1      42.551  27.515  25.532  1.00  0.00     0.127 S 
ATOM     68  O   UNL A   1      42.379  26.253  24.812  1.00  0.00    -0.237 OA
ATOM     69  O   UNL A   1      42.009  28.687  24.842  1.00  0.00    -0.237 OA
ATOM     70  O   UNL A   1      43.857  27.720  26.139  1.00  0.00    -0.744 OA
ENDBRANCH  64  67
ENDBRANCH  46  60
BRANCH  47  71
ATOM     71  C   UNL A   1      39.474  33.952  37.019  1.00  0.00     0.023 A 
ATOM     72  C   UNL A   1      39.901  35.293  36.924  1.00  0.00     0.012 A 
ATOM     73  C   UNL A   1      38.901  33.501  38.223  1.00  0.00     0.148 A 
ATOM     74  C   UNL A   1      39.790  36.157  38.012  1.00  0.00     0.002 A 
ATOM     75  C   UNL A   1      38.745  34.382  39.289  1.00  0.00     0.091 A 
ATOM     76  F   UNL A   1      38.500  32.223  38.294  1.00  0.00    -0.205 F 
ATOM     77  C   UNL A   1      39.204  35.705  39.190  1.00  0.00     0.022 A 
BRANCH  75  78
ATOM     78  S   UNL A   1      37.898  33.930  40.807  1.00  0.00     0.127 S 
ATOM     79  O   UNL A   1      37.683  35.235  41.428  1.00  0.00    -0.237 OA
ATOM     80  O   UNL A   1      36.689  33.286  40.293  1.00  0.00    -0.237 OA
ATOM     81  O   UNL A   1      38.803  33.038  41.515  1.00  0.00    -0.744 OA
ENDBRANCH  75  78
ENDBRANCH  47  71
BRANCH  59  82
ATOM     82  C   UNL A   1      43.908  28.855  35.265  1.00  0.00     0.023 A 
ATOM     83  C   UNL A   1      45.191  29.392  35.048  1.00  0.00     0.012 A 
ATOM     84  C   UNL A   1      43.743  27.807  36.192  1.00  0.00     0.148 A 
ATOM     85  C   UNL A   1      46.298  28.867  35.713  1.00  0.00     0.002 A 
ATOM     86  C   UNL A   1      44.841  27.327  36.892  1.00  0.00     0.091 A 
ATOM     87  F   UNL A   1      42.514  27.297  36.370  1.00  0.00    -0.205 F 
ATOM     88  C   UNL A   1      46.122  27.845  36.642  1.00  0.00     0.022 A 
BRANCH  86  89
ATOM     89  S   UNL A   1      44.687  26.090  38.185  1.00  0.00     0.127 S 
ATOM     90  O   UNL A   1      44.143  24.953  37.446  1.00  0.00    -0.237 OA
ATOM     91  O   UNL A   1      46.074  25.926  38.623  1.00  0.00    -0.237 OA
ATOM     92  O   UNL A   1      43.803  26.668  39.188  1.00  0.00    -0.744 OA
ENDBRANCH  86  89
ENDBRANCH  59  82
ENDBRANCH  33  34
ENDBRANCH  25  28
ENDBRANCH  23  24
ENDBRANCH   1  23
TORSDOF 16
ENDMDL
MODEL 3
REMARK VINA RESULT:     -11.8      2.551      3.682
REMARK SMILES COc1cccc([C@H]2SC[C@@H](C(=O)NCCCNC(=O)c3ccc(-c4c5nc(c(-c6cccc(S(=O)(=O)[O-])c6F)c6ccc([nH]6)c(-c6cccc(S(=O)(=O)[O-])c6F)c6nc(c(-c7cccc(S(=O)(=O)[O-])c7F)c7ccc4[nH]7)C=C6)C=C5)cc3)N2C(C)=O)c1
REMARK SMILES IDX 16 1 15 2 14 3 12 4 13 5 11 7 8 8 9 9 84 10 10 11 7 12 3 13
REMARK SMILES IDX 4 14 88 15 5 16 6 17 2 18 1 19 85 20 86 21 87 22 17 23 18 24
REMARK SMILES IDX 19 25 20 27 21 28 22 29 83 30 23 31 82 32 24 33 25 34 26 35
REMARK SMILES IDX 76 36 27 37 81 38 75 39 77 40 28 41 80 42 74 43 73 44 29 46
REMARK SMILES IDX 61 47 41 48 60 49 42 50 45 51 59 52 78 53 43 54 44 55 58 57
REMARK SMILES IDX 79 58 46 59 30 60 31 61 39 62 32 63 34 64 40 65 33 66 35 67
REMARK SMILES IDX 36 68 37 69 38 70 62 71 63 72 71 73 64 74 66 75 72 76 65 77
REMARK SMILES IDX 67 78 68 79 69 80 70 81 47 82 48 83 56 84 49 85 51 86 57 87
REMARK SMILES IDX 50 88 52 89 53 90 54 91 55 92
REMARK H PARENT 14 6 18 26 77 45 45 56
REMARK Flexibility Score: inf
ROOT
ATOM      1  C   UNL A   1      31.410  31.338  26.624  1.00  0.00     0.042 C 
ENDROOT
BRANCH   1   2
ATOM      2  C   UNL A   1      31.583  30.469  25.391  1.00  0.00     0.117 C 
BRANCH   2   3
ATOM      3  N   UNL A   1      32.750  29.623  25.406  1.00  0.00    -0.354 N 
ATOM      4  C   UNL A   1      32.868  28.340  24.966  1.00  0.00     0.243 C 
ATOM      5  O   UNL A   1      33.986  27.991  24.570  1.00  0.00    -0.273 OA
ATOM      6  H   UNL A   1      33.567  30.024  25.783  1.00  0.00     0.163 HD
BRANCH   4   7
ATOM      7  C   UNL A   1      31.672  27.359  24.835  1.00  0.00     0.185 C 
ATOM      8  C   UNL A   1      31.315  24.967  24.229  1.00  0.00     0.175 C 
ATOM      9  S   UNL A   1      30.406  25.262  25.793  1.00  0.00    -0.129 SA
ATOM     10  N   UNL A   1      31.706  26.321  23.787  1.00  0.00    -0.314 N 
ATOM     11  C   UNL A   1      31.395  26.721  26.191  1.00  0.00     0.107 C 
BRANCH   8  12
ATOM     12  C   UNL A   1      32.497  24.006  24.362  1.00  0.00    -0.012 A 
ATOM     13  C   UNL A   1      34.906  23.583  24.486  1.00  0.00     0.119 A 
ATOM     14  C   UNL A   1      34.696  22.233  24.228  1.00  0.00     0.046 A 
ATOM     15  C   UNL A   1      33.812  24.435  24.635  1.00  0.00     0.053 A 
ATOM     16  C   UNL A   1      33.397  21.754  24.058  1.00  0.00     0.004 A 
ATOM     17  C   UNL A   1      32.309  22.635  24.107  1.00  0.00     0.007 A 
BRANCH  13  18
ATOM     18  O   UNL A   1      36.198  24.007  24.633  1.00  0.00    -0.497 OA
ATOM     19  C   UNL A   1      36.809  23.710  25.888  1.00  0.00     0.278 C 
ENDBRANCH  13  18
ENDBRANCH   8  12
BRANCH  10  20
ATOM     20  C   UNL A   1      31.605  26.609  22.434  1.00  0.00     0.221 C 
ATOM     21  C   UNL A   1      32.564  25.957  21.461  1.00  0.00     0.114 C 
ATOM     22  O   UNL A   1      30.781  27.416  22.001  1.00  0.00    -0.275 OA
ENDBRANCH  10  20
ENDBRANCH   4   7
ENDBRANCH   2   3
ENDBRANCH   1   2
BRANCH   1  23
ATOM     23  C   UNL A   1      32.651  32.131  27.028  1.00  0.00     0.118 C 
BRANCH  23  24
ATOM     24  N   UNL A   1      32.413  33.493  27.501  1.00  0.00    -0.352 N 
ATOM     25  C   UNL A   1      33.083  34.296  28.394  1.00  0.00     0.251 C 
ATOM     26  H   UNL A   1      31.619  33.918  27.103  1.00  0.00     0.163 HD
ATOM     27  O   UNL A   1      32.661  35.433  28.599  1.00  0.00    -0.269 OA
BRANCH  25  28
ATOM     28  C   UNL A   1      34.283  33.823  29.117  1.00  0.00     0.039 A 
ATOM     29  C   UNL A   1      35.540  34.340  28.780  1.00  0.00     0.014 A 
ATOM     30  C   UNL A   1      34.185  32.843  30.100  1.00  0.00     0.014 A 
ATOM     31  C   UNL A   1      36.682  33.904  29.461  1.00  0.00     0.010 A 
ATOM     32  C   UNL A   1      35.286  32.524  30.874  1.00  0.00     0.010 A 
ATOM     33  C   UNL A   1      36.556  33.002  30.527  1.00  0.00    -0.014 A 
BRANCH  33  34
ATOM     34  C   UNL A   1      37.720  32.430  31.244  1.00  0.00     0.031 A 
ATOM     35  C   UNL A   1      38.479  31.294  30.601  1.00  0.00     0.074 A 
ATOM     36  C   UNL A   1      38.006  32.822  32.499  1.00  0.00     0.049 A 
ATOM     37  N   UNL A   1      39.402  30.520  31.106  1.00  0.00    -0.248 NA
ATOM     38  C   UNL A   1      38.097  30.942  29.220  1.00  0.00     0.031 C 
ATOM     39  C   UNL A   1      37.298  33.861  33.249  1.00  0.00     0.029 A 
ATOM     40  N   UNL A   1      38.956  32.365  33.376  1.00  0.00    -0.354 N 
ATOM     41  C   UNL A   1      39.651  29.552  30.138  1.00  0.00     0.074 A 
ATOM     42  C   UNL A   1      38.741  29.799  29.045  1.00  0.00     0.031 C 
ATOM     43  C   UNL A   1      37.850  33.975  34.468  1.00  0.00     0.029 A 
ATOM     44  C   UNL A   1      38.923  32.995  34.598  1.00  0.00     0.049 A 
ATOM     45  H   UNL A   1      39.598  31.653  33.154  1.00  0.00     0.167 HD
ATOM     46  C   UNL A   1      40.580  28.567  30.138  1.00  0.00     0.034 A 
ATOM     47  C   UNL A   1      39.681  32.798  35.694  1.00  0.00     0.034 A 
ATOM     48  C   UNL A   1      41.531  28.386  31.199  1.00  0.00     0.049 A 
ATOM     49  C   UNL A   1      40.758  31.746  35.648  1.00  0.00     0.074 A 
ATOM     50  C   UNL A   1      42.589  27.500  31.269  1.00  0.00     0.029 A 
ATOM     51  N   UNL A   1      41.537  29.116  32.379  1.00  0.00    -0.354 N 
ATOM     52  N   UNL A   1      41.072  30.927  34.674  1.00  0.00    -0.248 NA
ATOM     53  C   UNL A   1      41.608  31.620  36.839  1.00  0.00     0.031 C 
ATOM     54  C   UNL A   1      43.220  27.676  32.505  1.00  0.00     0.029 A 
ATOM     55  C   UNL A   1      42.578  28.699  33.188  1.00  0.00     0.049 A 
ATOM     56  H   UNL A   1      40.894  29.826  32.607  1.00  0.00     0.167 HD
ATOM     57  C   UNL A   1      42.190  30.224  35.112  1.00  0.00     0.074 A 
ATOM     58  C   UNL A   1      42.499  30.724  36.438  1.00  0.00     0.031 C 
ATOM     59  C   UNL A   1      42.895  29.252  34.481  1.00  0.00     0.034 A 
BRANCH  46  60
ATOM     60  C   UNL A   1      40.632  27.655  28.937  1.00  0.00     0.023 A 
ATOM     61  C   UNL A   1      39.721  26.582  28.824  1.00  0.00     0.012 A 
ATOM     62  C   UNL A   1      41.584  27.854  27.918  1.00  0.00     0.148 A 
ATOM     63  C   UNL A   1      39.798  25.686  27.758  1.00  0.00     0.002 A 
ATOM     64  C   UNL A   1      41.617  26.992  26.827  1.00  0.00     0.091 A 
ATOM     65  F   UNL A   1      42.458  28.862  28.044  1.00  0.00    -0.205 F 
ATOM     66  C   UNL A   1      40.741  25.896  26.756  1.00  0.00     0.022 A 
BRANCH  64  67
ATOM     67  S   UNL A   1      42.733  27.230  25.441  1.00  0.00     0.127 S 
ATOM     68  O   UNL A   1      44.016  27.407  26.122  1.00  0.00    -0.237 OA
ATOM     69  O   UNL A   1      42.599  25.965  24.716  1.00  0.00    -0.237 OA
ATOM     70  O   UNL A   1      42.237  28.394  24.723  1.00  0.00    -0.744 OA
ENDBRANCH  64  67
ENDBRANCH  46  60
BRANCH  47  71
ATOM     71  C   UNL A   1      39.527  33.692  36.876  1.00  0.00     0.023 A 
ATOM     72  C   UNL A   1      39.967  35.028  36.779  1.00  0.00     0.012 A 
ATOM     73  C   UNL A   1      38.918  33.257  38.068  1.00  0.00     0.148 A 
ATOM     74  C   UNL A   1      39.834  35.904  37.856  1.00  0.00     0.002 A 
ATOM     75  C   UNL A   1      38.742  34.149  39.120  1.00  0.00     0.091 A 
ATOM     76  F   UNL A   1      38.506  31.983  38.140  1.00  0.00    -0.205 F 
ATOM     77  C   UNL A   1      39.213  35.468  39.022  1.00  0.00     0.022 A 
BRANCH  75  78
ATOM     78  S   UNL A   1      37.850  33.719  40.619  1.00  0.00     0.127 S 
ATOM     79  O   UNL A   1      38.793  32.817  41.278  1.00  0.00    -0.237 OA
ATOM     80  O   UNL A   1      37.696  35.024  41.261  1.00  0.00    -0.237 OA
ATOM     81  O   UNL A   1      36.604  33.111  40.178  1.00  0.00    -0.744 OA
ENDBRANCH  75  78
ENDBRANCH  47  71
BRANCH  59  82
ATOM     82  C   UNL A   1      44.111  28.708  35.183  1.00  0.00     0.023 A 
ATOM     83  C   UNL A   1      45.382  29.257  34.928  1.00  0.00     0.012 A 
ATOM     84  C   UNL A   1      43.975  27.694  36.152  1.00  0.00     0.148 A 
ATOM     85  C   UNL A   1      46.507  28.776  35.598  1.00  0.00     0.002 A 
ATOM     86  C   UNL A   1      45.090  27.259  36.855  1.00  0.00     0.091 A 
ATOM     87  F   UNL A   1      42.758  27.171  36.366  1.00  0.00    -0.205 F 
ATOM     88  C   UNL A   1      46.359  27.788  36.568  1.00  0.00     0.022 A 
BRANCH  86  89
ATOM     89  S   UNL A   1      44.974  26.070  38.195  1.00  0.00     0.127 S 
ATOM     90  O   UNL A   1      46.369  25.954  38.613  1.00  0.00    -0.237 OA
ATOM     91  O   UNL A   1      44.106  26.763  39.150  1.00  0.00    -0.237 OA
ATOM     92  O   UNL A   1      44.391  24.868  37.615  1.00  0.00    -0.744 OA
ENDBRANCH  86  89
ENDBRANCH  59  82
ENDBRANCH  33  34
ENDBRANCH  25  28
ENDBRANCH  23  24
ENDBRANCH   1  23
TORSDOF 16
ENDMDL
