MODEL 1
REMARK VINA RESULT:     -13.4      0.000      0.000
REMARK SMILES O=C(CC[C@@]1(c2ccccc2)NC(=O)N(CC(=O)Nc2cccc(F)c2)C1=O)NCCCNC(=O)c1ccc(-c2c3nc(c(-c4cccc(S(=O)(=O)[O-])c4F)c4ccc([nH]4)c(-c4cccc(S(=O)(=O)[O-])c4F)c4nc(c(-c5cccc(S(=O)(=O)[O-])c5F)c5ccc2[nH]5)C=C4)C=C3)cc1
REMARK SMILES IDX 30 1 29 2 1 3 2 4 3 6 4 7 5 8 12 9 27 10 13 11 15 13 28 14
REMARK SMILES IDX 14 15 6 16 7 17 11 18 8 19 10 20 9 21 16 22 17 23 18 24
REMARK SMILES IDX 19 25 20 27 21 28 26 29 22 30 24 31 23 32 25 33 31 34 32 35
REMARK SMILES IDX 33 36 34 37 35 39 36 40 37 41 98 42 38 43 97 44 39 45 40 46
REMARK SMILES IDX 41 47 91 48 42 49 96 50 90 51 92 52 43 53 95 54 89 55 88 56
REMARK SMILES IDX 44 58 76 59 56 60 75 61 57 62 60 63 74 64 93 65 58 66 59 67
REMARK SMILES IDX 73 69 94 70 61 71 45 72 46 73 54 74 47 75 49 76 55 77 48 78
REMARK SMILES IDX 50 79 51 80 52 81 53 82 77 83 78 84 86 85 79 86 81 87 87 88
REMARK SMILES IDX 80 89 82 90 83 91 84 92 85 93 62 94 63 95 71 96 64 97 66 98
REMARK SMILES IDX 72 99 65 100 67 101 68 102 69 103 70 104
REMARK H PARENT 29 5 12 12 19 26 33 38 92 57 60 68
REMARK Flexibility Score: inf
ROOT
ATOM      1  C   UNL A   1      31.392  30.850  25.838  1.00  0.00     0.117 C 
ENDROOT
BRANCH   1   2
ATOM      2  N   UNL A   1      32.277  29.641  25.477  1.00  0.00    -0.356 N 
ATOM      3  O   UNL A   1      33.548  28.565  27.156  1.00  0.00    -0.275 OA
ATOM      4  C   UNL A   1      33.151  28.702  26.007  1.00  0.00     0.220 C 
ATOM      5  H   UNL A   1      32.190  29.470  24.511  1.00  0.00     0.163 HD
BRANCH   4   6
ATOM      6  C   UNL A   1      33.837  27.725  25.081  1.00  0.00     0.103 C 
BRANCH   6   7
ATOM      7  C   UNL A   1      34.246  26.398  25.675  1.00  0.00     0.053 C 
BRANCH   7   8
ATOM      8  C   UNL A   1      33.338  25.178  25.295  1.00  0.00     0.147 C 
ATOM      9  N   UNL A   1      32.185  25.171  26.169  1.00  0.00    -0.319 N 
ATOM     10  C   UNL A   1      32.542  25.448  23.956  1.00  0.00     0.261 C 
ATOM     11  C   UNL A   1      31.024  25.455  25.500  1.00  0.00     0.325 C 
ATOM     12  H   UNL A   1      32.229  24.982  27.134  1.00  0.00     0.166 HD
ATOM     13  N   UNL A   1      31.298  25.973  24.287  1.00  0.00    -0.252 N 
ATOM     14  O   UNL A   1      33.009  25.339  22.833  1.00  0.00    -0.271 OA
ATOM     15  O   UNL A   1      29.930  25.246  26.041  1.00  0.00    -0.248 OA
BRANCH   8  16
ATOM     16  C   UNL A   1      34.102  23.852  25.470  1.00  0.00    -0.013 A 
ATOM     17  C   UNL A   1      35.485  23.834  25.759  1.00  0.00     0.007 A 
ATOM     18  C   UNL A   1      33.503  22.605  25.203  1.00  0.00     0.007 A 
ATOM     19  C   UNL A   1      36.235  22.655  25.713  1.00  0.00     0.000 A 
ATOM     20  C   UNL A   1      34.256  21.424  25.145  1.00  0.00     0.000 A 
ATOM     21  C   UNL A   1      35.622  21.450  25.392  1.00  0.00     0.000 A 
ENDBRANCH   8  16
BRANCH  13  22
ATOM     22  C   UNL A   1      30.383  26.833  23.420  1.00  0.00     0.230 C 
BRANCH  22  23
ATOM     23  C   UNL A   1      28.824  27.579  23.371  1.00  0.00     0.244 C 
ATOM     24  O   UNL A   1      27.967  26.848  23.935  1.00  0.00    -0.273 OA
ATOM     25  N   UNL A   1      28.236  28.828  23.148  1.00  0.00    -0.324 N 
ATOM     26  H   UNL A   1      27.324  28.780  23.515  1.00  0.00     0.170 HD
BRANCH  25  27
ATOM     27  C   UNL A   1      28.399  30.169  22.607  1.00  0.00     0.044 A 
ATOM     28  C   UNL A   1      28.152  30.320  21.227  1.00  0.00     0.026 A 
ATOM     29  C   UNL A   1      28.804  31.346  23.249  1.00  0.00     0.065 A 
ATOM     30  C   UNL A   1      28.023  31.590  20.619  1.00  0.00     0.005 A 
ATOM     31  C   UNL A   1      28.636  32.613  22.667  1.00  0.00     0.125 A 
ATOM     32  C   UNL A   1      28.200  32.749  21.364  1.00  0.00     0.039 A 
ATOM     33  F   UNL A   1      28.838  33.715  23.408  1.00  0.00    -0.207 F 
ENDBRANCH  25  27
ENDBRANCH  22  23
ENDBRANCH  13  22
ENDBRANCH   7   8
ENDBRANCH   6   7
ENDBRANCH   4   6
ENDBRANCH   1   2
BRANCH   1  34
ATOM     34  C   UNL A   1      31.508  32.036  26.868  1.00  0.00     0.042 C 
BRANCH  34  35
ATOM     35  C   UNL A   1      32.762  32.817  27.308  1.00  0.00     0.118 C 
BRANCH  35  36
ATOM     36  N   UNL A   1      32.590  34.216  27.600  1.00  0.00    -0.352 N 
ATOM     37  C   UNL A   1      33.284  34.962  28.527  1.00  0.00     0.251 C 
ATOM     38  H   UNL A   1      31.902  34.691  27.081  1.00  0.00     0.163 HD
ATOM     39  O   UNL A   1      33.006  36.147  28.687  1.00  0.00    -0.269 OA
BRANCH  37  40
ATOM     40  C   UNL A   1      34.341  34.340  29.369  1.00  0.00     0.039 A 
ATOM     41  C   UNL A   1      35.667  34.410  28.930  1.00  0.00     0.014 A 
ATOM     42  C   UNL A   1      34.032  33.606  30.521  1.00  0.00     0.014 A 
ATOM     43  C   UNL A   1      36.680  33.759  29.645  1.00  0.00     0.010 A 
ATOM     44  C   UNL A   1      35.055  32.983  31.254  1.00  0.00     0.010 A 
ATOM     45  C   UNL A   1      36.388  33.038  30.814  1.00  0.00    -0.014 A 
BRANCH  45  46
ATOM     46  C   UNL A   1      37.480  32.330  31.546  1.00  0.00     0.031 A 
ATOM     47  C   UNL A   1      38.228  31.191  30.898  1.00  0.00     0.074 A 
ATOM     48  C   UNL A   1      37.803  32.709  32.798  1.00  0.00     0.049 A 
ATOM     49  N   UNL A   1      39.256  30.516  31.350  1.00  0.00    -0.248 NA
ATOM     50  C   UNL A   1      37.754  30.745  29.579  1.00  0.00     0.031 C 
ATOM     51  C   UNL A   1      37.117  33.750  33.564  1.00  0.00     0.029 A 
ATOM     52  N   UNL A   1      38.782  32.260  33.653  1.00  0.00    -0.354 N 
ATOM     53  C   UNL A   1      39.537  29.554  30.384  1.00  0.00     0.074 A 
ATOM     54  C   UNL A   1      38.552  29.714  29.336  1.00  0.00     0.031 C 
ATOM     55  C   UNL A   1      37.698  33.867  34.769  1.00  0.00     0.029 A 
ATOM     56  C   UNL A   1      38.790  32.902  34.871  1.00  0.00     0.049 A 
ATOM     57  H   UNL A   1      39.418  31.547  33.416  1.00  0.00     0.167 HD
ATOM     58  C   UNL A   1      40.538  28.640  30.355  1.00  0.00     0.034 A 
ATOM     59  C   UNL A   1      39.588  32.737  35.946  1.00  0.00     0.034 A 
ATOM     60  C   UNL A   1      41.535  28.502  31.385  1.00  0.00     0.049 A 
ATOM     61  C   UNL A   1      40.716  31.740  35.875  1.00  0.00     0.074 A 
ATOM     62  C   UNL A   1      42.636  27.663  31.413  1.00  0.00     0.029 A 
ATOM     63  N   UNL A   1      41.546  29.212  32.575  1.00  0.00    -0.354 N 
ATOM     64  N   UNL A   1      41.068  30.963  34.879  1.00  0.00    -0.248 NA
ATOM     65  C   UNL A   1      41.581  31.627  37.058  1.00  0.00     0.031 C 
ATOM     66  C   UNL A   1      43.297  27.848  32.631  1.00  0.00     0.029 A 
ATOM     67  C   UNL A   1      42.625  28.823  33.351  1.00  0.00     0.049 A 
ATOM     68  H   UNL A   1      40.884  29.894  32.831  1.00  0.00     0.167 HD
ATOM     69  C   UNL A   1      42.210  30.291  35.304  1.00  0.00     0.074 A 
ATOM     70  C   UNL A   1      42.506  30.775  36.637  1.00  0.00     0.031 C 
ATOM     71  C   UNL A   1      42.938  29.348  34.656  1.00  0.00     0.034 A 
BRANCH  58  72
ATOM     72  C   UNL A   1      40.636  27.744  29.144  1.00  0.00     0.023 A 
ATOM     73  C   UNL A   1      39.801  26.611  29.050  1.00  0.00     0.012 A 
ATOM     74  C   UNL A   1      41.510  28.046  28.080  1.00  0.00     0.148 A 
ATOM     75  C   UNL A   1      39.862  25.772  27.938  1.00  0.00     0.002 A 
ATOM     76  C   UNL A   1      41.534  27.228  26.955  1.00  0.00     0.091 A 
ATOM     77  F   UNL A   1      42.305  29.119  28.190  1.00  0.00    -0.205 F 
ATOM     78  C   UNL A   1      40.722  26.084  26.889  1.00  0.00     0.022 A 
BRANCH  76  79
ATOM     79  S   UNL A   1      42.549  27.583  25.516  1.00  0.00     0.127 S 
ATOM     80  O   UNL A   1      42.287  26.416  24.674  1.00  0.00    -0.237 OA
ATOM     81  O   UNL A   1      41.964  28.831  25.026  1.00  0.00    -0.237 OA
ATOM     82  O   UNL A   1      43.915  27.705  26.007  1.00  0.00    -0.744 OA
ENDBRANCH  76  79
ENDBRANCH  58  72
BRANCH  59  83
ATOM     83  C   UNL A   1      39.396  33.588  37.157  1.00  0.00     0.023 A 
ATOM     84  C   UNL A   1      39.904  34.901  37.171  1.00  0.00     0.012 A 
ATOM     85  C   UNL A   1      38.693  33.114  38.282  1.00  0.00     0.148 A 
ATOM     86  C   UNL A   1      39.745  35.716  38.293  1.00  0.00     0.002 A 
ATOM     87  C   UNL A   1      38.489  33.949  39.375  1.00  0.00     0.091 A 
ATOM     88  F   UNL A   1      38.230  31.856  38.259  1.00  0.00    -0.205 F 
ATOM     89  C   UNL A   1      39.029  35.245  39.390  1.00  0.00     0.022 A 
BRANCH  87  90
ATOM     90  S   UNL A   1      37.467  33.474  40.775  1.00  0.00     0.127 S 
ATOM     91  O   UNL A   1      36.322  32.856  40.114  1.00  0.00    -0.237 OA
ATOM     92  O   UNL A   1      38.345  32.544  41.487  1.00  0.00    -0.237 OA
ATOM     93  O   UNL A   1      37.194  34.710  41.497  1.00  0.00    -0.744 OA
ENDBRANCH  87  90
ENDBRANCH  59  83
BRANCH  71  94
ATOM     94  C   UNL A   1      44.142  28.784  35.365  1.00  0.00     0.023 A 
ATOM     95  C   UNL A   1      45.415  29.343  35.134  1.00  0.00     0.012 A 
ATOM     96  C   UNL A   1      44.002  27.755  36.317  1.00  0.00     0.148 A 
ATOM     97  C   UNL A   1      46.533  28.866  35.817  1.00  0.00     0.002 A 
ATOM     98  C   UNL A   1      45.112  27.319  37.030  1.00  0.00     0.091 A 
ATOM     99  F   UNL A   1      42.786  27.222  36.510  1.00  0.00    -0.205 F 
ATOM    100  C   UNL A   1      46.380  27.864  36.772  1.00  0.00     0.022 A 
BRANCH  98 101
ATOM    101  S   UNL A   1      44.995  26.102  38.348  1.00  0.00     0.127 S 
ATOM    102  O   UNL A   1      46.385  26.005  38.788  1.00  0.00    -0.237 OA
ATOM    103  O   UNL A   1      44.098  26.759  39.299  1.00  0.00    -0.237 OA
ATOM    104  O   UNL A   1      44.448  24.899  37.735  1.00  0.00    -0.744 OA
ENDBRANCH  98 101
ENDBRANCH  71  94
ENDBRANCH  45  46
ENDBRANCH  37  40
ENDBRANCH  35  36
ENDBRANCH  34  35
ENDBRANCH   1  34
TORSDOF 19
ENDMDL
MODEL 2
REMARK VINA RESULT:     -13.2      1.723      7.494
REMARK SMILES O=C(CC[C@@]1(c2ccccc2)NC(=O)N(CC(=O)Nc2cccc(F)c2)C1=O)NCCCNC(=O)c1ccc(-c2c3nc(c(-c4cccc(S(=O)(=O)[O-])c4F)c4ccc([nH]4)c(-c4cccc(S(=O)(=O)[O-])c4F)c4nc(c(-c5cccc(S(=O)(=O)[O-])c5F)c5ccc2[nH]5)C=C4)C=C3)cc1
REMARK SMILES IDX 30 1 29 2 1 3 2 4 3 6 4 7 5 8 12 9 27 10 13 11 15 13 28 14
REMARK SMILES IDX 14 15 6 16 7 17 11 18 8 19 10 20 9 21 16 22 17 23 18 24
REMARK SMILES IDX 19 25 20 27 21 28 26 29 22 30 24 31 23 32 25 33 31 34 32 35
REMARK SMILES IDX 33 36 34 37 35 39 36 40 37 41 98 42 38 43 97 44 39 45 40 46
REMARK SMILES IDX 41 47 91 48 42 49 96 50 90 51 92 52 43 53 95 54 89 55 88 56
REMARK SMILES IDX 44 58 76 59 56 60 75 61 57 62 60 63 74 64 93 65 58 66 59 67
REMARK SMILES IDX 73 69 94 70 61 71 45 72 46 73 54 74 47 75 49 76 55 77 48 78
REMARK SMILES IDX 50 79 51 80 52 81 53 82 77 83 78 84 86 85 79 86 81 87 87 88
REMARK SMILES IDX 80 89 82 90 83 91 84 92 85 93 62 94 63 95 71 96 64 97 66 98
REMARK SMILES IDX 72 99 65 100 67 101 68 102 69 103 70 104
REMARK H PARENT 29 5 12 12 19 26 33 38 92 57 60 68
REMARK Flexibility Score: inf
ROOT
ATOM      1  C   UNL A   1      31.312  30.149  25.263  1.00  0.00     0.117 C 
ENDROOT
BRANCH   1   2
ATOM      2  N   UNL A   1      32.188  28.898  25.058  1.00  0.00    -0.356 N 
ATOM      3  O   UNL A   1      33.936  28.418  26.577  1.00  0.00    -0.275 OA
ATOM      4  C   UNL A   1      33.252  28.183  25.590  1.00  0.00     0.220 C 
ATOM      5  H   UNL A   1      31.878  28.431  24.249  1.00  0.00     0.163 HD
BRANCH   4   6
ATOM      6  C   UNL A   1      33.772  26.972  24.851  1.00  0.00     0.103 C 
BRANCH   6   7
ATOM      7  C   UNL A   1      33.844  25.680  25.629  1.00  0.00     0.053 C 
BRANCH   7   8
ATOM      8  C   UNL A   1      32.661  24.679  25.392  1.00  0.00     0.147 C 
ATOM      9  N   UNL A   1      31.631  24.941  26.374  1.00  0.00    -0.319 N 
ATOM     10  C   UNL A   1      31.805  25.091  24.127  1.00  0.00     0.261 C 
ATOM     11  C   UNL A   1      30.494  25.458  25.811  1.00  0.00     0.325 C 
ATOM     12  H   UNL A   1      31.735  24.766  27.337  1.00  0.00     0.166 HD
ATOM     13  N   UNL A   1      30.745  25.880  24.556  1.00  0.00    -0.252 N 
ATOM     14  O   UNL A   1      32.117  24.860  22.969  1.00  0.00    -0.271 OA
ATOM     15  O   UNL A   1      29.444  25.503  26.465  1.00  0.00    -0.248 OA
BRANCH   8  16
ATOM     16  C   UNL A   1      33.136  23.223  25.546  1.00  0.00    -0.013 A 
ATOM     17  C   UNL A   1      32.585  22.184  24.762  1.00  0.00     0.007 A 
ATOM     18  C   UNL A   1      34.021  22.831  26.570  1.00  0.00     0.007 A 
ATOM     19  C   UNL A   1      32.846  20.837  25.031  1.00  0.00     0.000 A 
ATOM     20  C   UNL A   1      34.275  21.481  26.847  1.00  0.00     0.000 A 
ATOM     21  C   UNL A   1      33.682  20.484  26.083  1.00  0.00     0.000 A 
ENDBRANCH   8  16
BRANCH  13  22
ATOM     22  C   UNL A   1      29.950  26.901  23.748  1.00  0.00     0.230 C 
BRANCH  22  23
ATOM     23  C   UNL A   1      28.353  27.498  23.461  1.00  0.00     0.244 C 
ATOM     24  O   UNL A   1      27.494  26.682  23.889  1.00  0.00    -0.273 OA
ATOM     25  N   UNL A   1      27.689  28.689  23.150  1.00  0.00    -0.324 N 
ATOM     26  H   UNL A   1      26.740  28.550  23.374  1.00  0.00     0.170 HD
BRANCH  25  27
ATOM     27  C   UNL A   1      27.804  30.047  22.639  1.00  0.00     0.044 A 
ATOM     28  C   UNL A   1      27.839  31.076  23.602  1.00  0.00     0.026 A 
ATOM     29  C   UNL A   1      27.850  30.499  21.315  1.00  0.00     0.065 A 
ATOM     30  C   UNL A   1      28.198  32.403  23.274  1.00  0.00     0.005 A 
ATOM     31  C   UNL A   1      28.251  31.803  20.981  1.00  0.00     0.125 A 
ATOM     32  C   UNL A   1      28.474  32.753  21.958  1.00  0.00     0.039 A 
ATOM     33  F   UNL A   1      28.486  32.116  19.697  1.00  0.00    -0.207 F 
ENDBRANCH  25  27
ENDBRANCH  22  23
ENDBRANCH  13  22
ENDBRANCH   7   8
ENDBRANCH   6   7
ENDBRANCH   4   6
ENDBRANCH   1   2
BRANCH   1  34
ATOM     34  C   UNL A   1      31.418  31.436  26.165  1.00  0.00     0.042 C 
BRANCH  34  35
ATOM     35  C   UNL A   1      32.656  32.024  26.872  1.00  0.00     0.118 C 
BRANCH  35  36
ATOM     36  N   UNL A   1      32.527  33.349  27.419  1.00  0.00    -0.352 N 
ATOM     37  C   UNL A   1      33.402  33.983  28.272  1.00  0.00     0.251 C 
ATOM     38  H   UNL A   1      31.727  33.857  27.154  1.00  0.00     0.163 HD
ATOM     39  O   UNL A   1      33.144  35.111  28.682  1.00  0.00    -0.269 OA
BRANCH  37  40
ATOM     40  C   UNL A   1      34.639  33.302  28.741  1.00  0.00     0.039 A 
ATOM     41  C   UNL A   1      34.515  32.274  29.681  1.00  0.00     0.014 A 
ATOM     42  C   UNL A   1      35.913  33.731  28.349  1.00  0.00     0.014 A 
ATOM     43  C   UNL A   1      35.659  31.670  30.218  1.00  0.00     0.010 A 
ATOM     44  C   UNL A   1      37.057  33.100  28.863  1.00  0.00     0.010 A 
ATOM     45  C   UNL A   1      36.943  32.075  29.817  1.00  0.00    -0.014 A 
BRANCH  45  46
ATOM     46  C   UNL A   1      38.149  31.435  30.421  1.00  0.00     0.031 A 
ATOM     47  C   UNL A   1      38.607  31.812  31.808  1.00  0.00     0.074 A 
ATOM     48  C   UNL A   1      38.838  30.510  29.723  1.00  0.00     0.049 A 
ATOM     49  N   UNL A   1      39.580  31.304  32.523  1.00  0.00    -0.248 NA
ATOM     50  C   UNL A   1      37.887  32.909  32.474  1.00  0.00     0.031 C 
ATOM     51  C   UNL A   1      38.542  30.102  28.349  1.00  0.00     0.029 A 
ATOM     52  N   UNL A   1      39.934  29.753  30.064  1.00  0.00    -0.354 N 
ATOM     53  C   UNL A   1      39.604  32.031  33.710  1.00  0.00     0.074 A 
ATOM     54  C   UNL A   1      38.568  33.035  33.605  1.00  0.00     0.031 C 
ATOM     55  C   UNL A   1      39.426  29.166  27.967  1.00  0.00     0.029 A 
ATOM     56  C   UNL A   1      40.361  28.913  29.061  1.00  0.00     0.049 A 
ATOM     57  H   UNL A   1      40.371  29.806  30.945  1.00  0.00     0.167 HD
ATOM     58  C   UNL A   1      40.395  31.863  34.798  1.00  0.00     0.034 A 
ATOM     59  C   UNL A   1      41.385  28.036  29.025  1.00  0.00     0.034 A 
ATOM     60  C   UNL A   1      41.406  30.843  34.912  1.00  0.00     0.049 A 
ATOM     61  C   UNL A   1      42.225  27.841  30.261  1.00  0.00     0.074 A 
ATOM     62  C   UNL A   1      42.205  30.538  36.001  1.00  0.00     0.029 A 
ATOM     63  N   UNL A   1      41.767  29.971  33.897  1.00  0.00    -0.354 N 
ATOM     64  N   UNL A   1      42.116  28.419  31.432  1.00  0.00    -0.248 NA
ATOM     65  C   UNL A   1      43.304  26.844  30.183  1.00  0.00     0.031 C 
ATOM     66  C   UNL A   1      43.066  29.498  35.635  1.00  0.00     0.029 A 
ATOM     67  C   UNL A   1      42.785  29.137  34.327  1.00  0.00     0.049 A 
ATOM     68  H   UNL A   1      41.359  29.948  33.001  1.00  0.00     0.167 HD
ATOM     69  C   UNL A   1      43.090  27.838  32.238  1.00  0.00     0.074 A 
ATOM     70  C   UNL A   1      43.760  26.841  31.428  1.00  0.00     0.031 C 
ATOM     71  C   UNL A   1      43.411  28.114  33.527  1.00  0.00     0.034 A 
BRANCH  58  72
ATOM     72  C   UNL A   1      40.166  32.773  35.980  1.00  0.00     0.023 A 
ATOM     73  C   UNL A   1      40.840  34.011  36.043  1.00  0.00     0.012 A 
ATOM     74  C   UNL A   1      39.251  32.435  36.997  1.00  0.00     0.148 A 
ATOM     75  C   UNL A   1      40.641  34.877  37.117  1.00  0.00     0.002 A 
ATOM     76  C   UNL A   1      39.024  33.324  38.043  1.00  0.00     0.091 A 
ATOM     77  F   UNL A   1      38.627  31.251  36.929  1.00  0.00    -0.205 F 
ATOM     78  C   UNL A   1      39.728  34.537  38.112  1.00  0.00     0.022 A 
BRANCH  76  79
ATOM     79  S   UNL A   1      37.814  33.017  39.335  1.00  0.00     0.127 S 
ATOM     80  O   UNL A   1      37.933  34.229  40.146  1.00  0.00    -0.237 OA
ATOM     81  O   UNL A   1      36.569  32.915  38.573  1.00  0.00    -0.237 OA
ATOM     82  O   UNL A   1      38.228  31.784  39.990  1.00  0.00    -0.744 OA
ENDBRANCH  76  79
ENDBRANCH  58  72
BRANCH  59  83
ATOM     83  C   UNL A   1      41.626  27.219  27.800  1.00  0.00     0.023 A 
ATOM     84  C   UNL A   1      42.199  27.822  26.663  1.00  0.00     0.012 A 
ATOM     85  C   UNL A   1      41.315  25.845  27.762  1.00  0.00     0.148 A 
ATOM     86  C   UNL A   1      42.428  27.082  25.502  1.00  0.00     0.002 A 
ATOM     87  C   UNL A   1      41.598  25.101  26.622  1.00  0.00     0.091 A 
ATOM     88  F   UNL A   1      40.756  25.290  28.847  1.00  0.00    -0.205 F 
ATOM     89  C   UNL A   1      42.138  25.721  25.485  1.00  0.00     0.022 A 
BRANCH  87  90
ATOM     90  S   UNL A   1      41.381  23.318  26.554  1.00  0.00     0.127 S 
ATOM     91  O   UNL A   1      39.938  23.199  26.367  1.00  0.00    -0.237 OA
ATOM     92  O   UNL A   1      42.187  22.960  25.385  1.00  0.00    -0.237 OA
ATOM     93  O   UNL A   1      41.902  22.813  27.818  1.00  0.00    -0.744 OA
ENDBRANCH  87  90
ENDBRANCH  59  83
BRANCH  71  94
ATOM     94  C   UNL A   1      44.523  27.317  34.157  1.00  0.00     0.023 A 
ATOM     95  C   UNL A   1      45.846  27.799  34.106  1.00  0.00     0.012 A 
ATOM     96  C   UNL A   1      44.246  26.132  34.868  1.00  0.00     0.148 A 
ATOM     97  C   UNL A   1      46.880  27.098  34.725  1.00  0.00     0.002 A 
ATOM     98  C   UNL A   1      45.274  25.466  35.524  1.00  0.00     0.091 A 
ATOM     99  F   UNL A   1      42.984  25.679  34.890  1.00  0.00    -0.205 F 
ATOM    100  C   UNL A   1      46.593  25.940  35.444  1.00  0.00     0.022 A 
BRANCH  98 101
ATOM    101  S   UNL A   1      44.984  24.022  36.554  1.00  0.00     0.127 S 
ATOM    102  O   UNL A   1      46.347  23.630  36.909  1.00  0.00    -0.237 OA
ATOM    103  O   UNL A   1      44.202  24.580  37.659  1.00  0.00    -0.237 OA
ATOM    104  O   UNL A   1      44.258  23.074  35.720  1.00  0.00    -0.744 OA
ENDBRANCH  98 101
ENDBRANCH  71  94
ENDBRANCH  45  46
ENDBRANCH  37  40
ENDBRANCH  35  36
ENDBRANCH  34  35
ENDBRANCH   1  34
TORSDOF 19
ENDMDL
MODEL 3
REMARK VINA RESULT:     -12.7      1.681      2.169
REMARK SMILES O=C(CC[C@@]1(c2ccccc2)NC(=O)N(CC(=O)Nc2cccc(F)c2)C1=O)NCCCNC(=O)c1ccc(-c2c3nc(c(-c4cccc(S(=O)(=O)[O-])c4F)c4ccc([nH]4)c(-c4cccc(S(=O)(=O)[O-])c4F)c4nc(c(-c5cccc(S(=O)(=O)[O-])c5F)c5ccc2[nH]5)C=C4)C=C3)cc1
REMARK SMILES IDX 30 1 29 2 1 3 2 4 3 6 4 7 5 8 12 9 27 10 13 11 15 13 28 14
REMARK SMILES IDX 14 15 6 16 7 17 11 18 8 19 10 20 9 21 16 22 17 23 18 24
REMARK SMILES IDX 19 25 20 27 21 28 26 29 22 30 24 31 23 32 25 33 31 34 32 35
REMARK SMILES IDX 33 36 34 37 35 39 36 40 37 41 98 42 38 43 97 44 39 45 40 46
REMARK SMILES IDX 41 47 91 48 42 49 96 50 90 51 92 52 43 53 95 54 89 55 88 56
REMARK SMILES IDX 44 58 76 59 56 60 75 61 57 62 60 63 74 64 93 65 58 66 59 67
REMARK SMILES IDX 73 69 94 70 61 71 45 72 46 73 54 74 47 75 49 76 55 77 48 78
REMARK SMILES IDX 50 79 51 80 52 81 53 82 77 83 78 84 86 85 79 86 81 87 87 88
REMARK SMILES IDX 80 89 82 90 83 91 84 92 85 93 62 94 63 95 71 96 64 97 66 98
REMARK SMILES IDX 72 99 65 100 67 101 68 102 69 103 70 104
REMARK H PARENT 29 5 12 12 19 26 33 38 92 57 60 68
REMARK Flexibility Score: inf
ROOT
ATOM      1  C   UNL A   1      32.464  30.072  25.342  1.00  0.00     0.117 C 
ENDROOT
BRANCH   1   2
ATOM      2  N   UNL A   1      32.963  28.686  24.887  1.00  0.00    -0.356 N 
ATOM      3  O   UNL A   1      34.046  27.257  26.429  1.00  0.00    -0.275 OA
ATOM      4  C   UNL A   1      33.601  27.533  25.323  1.00  0.00     0.220 C 
ATOM      5  H   UNL A   1      32.750  28.578  23.932  1.00  0.00     0.163 HD
BRANCH   4   6
ATOM      6  C   UNL A   1      33.921  26.444  24.327  1.00  0.00     0.103 C 
BRANCH   6   7
ATOM      7  C   UNL A   1      34.003  25.034  24.864  1.00  0.00     0.053 C 
BRANCH   7   8
ATOM      8  C   UNL A   1      32.689  24.187  24.747  1.00  0.00     0.147 C 
ATOM      9  N   UNL A   1      31.882  24.424  25.924  1.00  0.00    -0.319 N 
ATOM     10  C   UNL A   1      31.681  24.829  23.711  1.00  0.00     0.261 C 
ATOM     11  C   UNL A   1      30.732  25.111  25.637  1.00  0.00     0.325 C 
ATOM     12  H   UNL A   1      32.130  24.124  26.829  1.00  0.00     0.166 HD
ATOM     13  N   UNL A   1      30.809  25.657  24.407  1.00  0.00    -0.252 N 
ATOM     14  O   UNL A   1      31.760  24.713  22.498  1.00  0.00    -0.271 OA
ATOM     15  O   UNL A   1      29.823  25.175  26.475  1.00  0.00    -0.248 OA
BRANCH   8  16
ATOM     16  C   UNL A   1      33.013  22.684  24.661  1.00  0.00    -0.013 A 
ATOM     17  C   UNL A   1      32.004  21.706  24.811  1.00  0.00     0.007 A 
ATOM     18  C   UNL A   1      34.338  22.209  24.583  1.00  0.00     0.007 A 
ATOM     19  C   UNL A   1      32.305  20.347  24.946  1.00  0.00     0.000 A 
ATOM     20  C   UNL A   1      34.642  20.849  24.730  1.00  0.00     0.000 A 
ATOM     21  C   UNL A   1      33.626  19.920  24.920  1.00  0.00     0.000 A 
ENDBRANCH   8  16
BRANCH  13  22
ATOM     22  C   UNL A   1      30.010  26.840  23.869  1.00  0.00     0.230 C 
BRANCH  22  23
ATOM     23  C   UNL A   1      28.406  27.378  23.513  1.00  0.00     0.244 C 
ATOM     24  O   UNL A   1      27.559  26.534  23.912  1.00  0.00    -0.273 OA
ATOM     25  N   UNL A   1      27.714  28.543  23.168  1.00  0.00    -0.324 N 
ATOM     26  H   UNL A   1      26.762  28.372  23.354  1.00  0.00     0.170 HD
BRANCH  25  27
ATOM     27  C   UNL A   1      27.801  29.902  22.653  1.00  0.00     0.044 A 
ATOM     28  C   UNL A   1      27.740  30.937  23.607  1.00  0.00     0.026 A 
ATOM     29  C   UNL A   1      27.903  30.347  21.329  1.00  0.00     0.065 A 
ATOM     30  C   UNL A   1      28.064  32.276  23.289  1.00  0.00     0.005 A 
ATOM     31  C   UNL A   1      28.269  31.664  21.008  1.00  0.00     0.125 A 
ATOM     32  C   UNL A   1      28.398  32.629  21.987  1.00  0.00     0.039 A 
ATOM     33  F   UNL A   1      28.563  31.979  19.736  1.00  0.00    -0.207 F 
ENDBRANCH  25  27
ENDBRANCH  22  23
ENDBRANCH  13  22
ENDBRANCH   7   8
ENDBRANCH   6   7
ENDBRANCH   4   6
ENDBRANCH   1   2
BRANCH   1  34
ATOM     34  C   UNL A   1      32.987  31.157  26.357  1.00  0.00     0.042 C 
BRANCH  34  35
ATOM     35  C   UNL A   1      32.192  31.974  27.395  1.00  0.00     0.118 C 
BRANCH  35  36
ATOM     36  N   UNL A   1      32.407  33.397  27.408  1.00  0.00    -0.352 N 
ATOM     37  C   UNL A   1      33.507  34.065  27.897  1.00  0.00     0.251 C 
ATOM     38  H   UNL A   1      31.690  33.953  27.027  1.00  0.00     0.163 HD
ATOM     39  O   UNL A   1      33.538  35.292  27.866  1.00  0.00    -0.269 OA
BRANCH  37  40
ATOM     40  C   UNL A   1      34.646  33.322  28.501  1.00  0.00     0.039 A 
ATOM     41  C   UNL A   1      34.374  32.417  29.532  1.00  0.00     0.014 A 
ATOM     42  C   UNL A   1      35.973  33.581  28.140  1.00  0.00     0.014 A 
ATOM     43  C   UNL A   1      35.425  31.765  30.191  1.00  0.00     0.010 A 
ATOM     44  C   UNL A   1      37.022  32.900  28.780  1.00  0.00     0.010 A 
ATOM     45  C   UNL A   1      36.760  31.999  29.825  1.00  0.00    -0.014 A 
BRANCH  45  46
ATOM     46  C   UNL A   1      37.865  31.314  30.558  1.00  0.00     0.031 A 
ATOM     47  C   UNL A   1      38.691  30.246  29.884  1.00  0.00     0.074 A 
ATOM     48  C   UNL A   1      38.132  31.650  31.836  1.00  0.00     0.049 A 
ATOM     49  N   UNL A   1      39.739  29.604  30.337  1.00  0.00    -0.248 NA
ATOM     50  C   UNL A   1      38.280  29.839  28.531  1.00  0.00     0.031 C 
ATOM     51  C   UNL A   1      37.369  32.618  32.626  1.00  0.00     0.029 A 
ATOM     52  N   UNL A   1      39.107  31.212  32.701  1.00  0.00    -0.354 N 
ATOM     53  C   UNL A   1      40.099  28.704  29.338  1.00  0.00     0.074 A 
ATOM     54  C   UNL A   1      39.138  28.862  28.268  1.00  0.00     0.031 C 
ATOM     55  C   UNL A   1      37.908  32.707  33.853  1.00  0.00     0.029 A 
ATOM     56  C   UNL A   1      39.045  31.795  33.946  1.00  0.00     0.049 A 
ATOM     57  H   UNL A   1      39.786  30.545  32.452  1.00  0.00     0.167 HD
ATOM     58  C   UNL A   1      41.147  27.844  29.300  1.00  0.00     0.034 A 
ATOM     59  C   UNL A   1      39.819  31.621  35.037  1.00  0.00     0.034 A 
ATOM     60  C   UNL A   1      42.119  27.710  30.353  1.00  0.00     0.049 A 
ATOM     61  C   UNL A   1      40.999  30.687  34.957  1.00  0.00     0.074 A 
ATOM     62  C   UNL A   1      43.261  26.927  30.378  1.00  0.00     0.029 A 
ATOM     63  N   UNL A   1      42.058  28.363  31.574  1.00  0.00    -0.354 N 
ATOM     64  N   UNL A   1      41.421  29.977  33.939  1.00  0.00    -0.248 NA
ATOM     65  C   UNL A   1      41.834  30.564  36.161  1.00  0.00     0.031 C 
ATOM     66  C   UNL A   1      43.876  27.089  31.624  1.00  0.00     0.029 A 
ATOM     67  C   UNL A   1      43.132  27.993  32.365  1.00  0.00     0.049 A 
ATOM     68  H   UNL A   1      41.353  28.997  31.840  1.00  0.00     0.167 HD
ATOM     69  C   UNL A   1      42.583  29.345  34.369  1.00  0.00     0.074 A 
ATOM     70  C   UNL A   1      42.814  29.780  35.731  1.00  0.00     0.031 C 
ATOM     71  C   UNL A   1      43.378  28.471  33.702  1.00  0.00     0.034 A 
BRANCH  58  72
ATOM     72  C   UNL A   1      41.328  27.013  28.053  1.00  0.00     0.023 A 
ATOM     73  C   UNL A   1      41.989  27.570  26.938  1.00  0.00     0.012 A 
ATOM     74  C   UNL A   1      40.896  25.673  27.998  1.00  0.00     0.148 A 
ATOM     75  C   UNL A   1      42.180  26.823  25.776  1.00  0.00     0.002 A 
ATOM     76  C   UNL A   1      41.129  24.921  26.851  1.00  0.00     0.091 A 
ATOM     77  F   UNL A   1      40.259  25.162  29.061  1.00  0.00    -0.205 F 
ATOM     78  C   UNL A   1      41.758  25.498  25.736  1.00  0.00     0.022 A 
BRANCH  76  79
ATOM     79  S   UNL A   1      40.692  23.182  26.723  1.00  0.00     0.127 S 
ATOM     80  O   UNL A   1      41.565  22.737  25.637  1.00  0.00    -0.237 OA
ATOM     81  O   UNL A   1      41.060  22.674  28.045  1.00  0.00    -0.237 OA
ATOM     82  O   UNL A   1      39.266  23.145  26.433  1.00  0.00    -0.744 OA
ENDBRANCH  76  79
ENDBRANCH  58  72
BRANCH  59  83
ATOM     83  C   UNL A   1      39.547  32.403  36.279  1.00  0.00     0.023 A 
ATOM     84  C   UNL A   1      40.228  33.616  36.500  1.00  0.00     0.012 A 
ATOM     85  C   UNL A   1      38.602  31.967  37.228  1.00  0.00     0.148 A 
ATOM     86  C   UNL A   1      39.998  34.364  37.656  1.00  0.00     0.002 A 
ATOM     87  C   UNL A   1      38.335  32.744  38.350  1.00  0.00     0.091 A 
ATOM     88  F   UNL A   1      37.973  30.803  37.010  1.00  0.00    -0.205 F 
ATOM     89  C   UNL A   1      39.045  33.934  38.574  1.00  0.00     0.022 A 
BRANCH  87  90
ATOM     90  S   UNL A   1      37.032  32.338  39.519  1.00  0.00     0.127 S 
ATOM     91  O   UNL A   1      37.399  30.981  39.916  1.00  0.00    -0.237 OA
ATOM     92  O   UNL A   1      37.225  33.357  40.552  1.00  0.00    -0.237 OA
ATOM     93  O   UNL A   1      35.786  32.467  38.776  1.00  0.00    -0.744 OA
ENDBRANCH  87  90
ENDBRANCH  59  83
BRANCH  71  94
ATOM     94  C   UNL A   1      44.590  27.938  34.423  1.00  0.00     0.023 A 
ATOM     95  C   UNL A   1      45.808  28.642  34.360  1.00  0.00     0.012 A 
ATOM     96  C   UNL A   1      44.499  26.783  35.225  1.00  0.00     0.148 A 
ATOM     97  C   UNL A   1      46.926  28.188  35.059  1.00  0.00     0.002 A 
ATOM     98  C   UNL A   1      45.603  26.364  35.958  1.00  0.00     0.091 A 
ATOM     99  F   UNL A   1      43.337  26.115  35.258  1.00  0.00    -0.205 F 
ATOM    100  C   UNL A   1      46.820  27.059  35.867  1.00  0.00     0.022 A 
BRANCH  98 101
ATOM    101  S   UNL A   1      45.533  24.979  37.100  1.00  0.00     0.127 S 
ATOM    102  O   UNL A   1      46.894  24.964  37.635  1.00  0.00    -0.237 OA
ATOM    103  O   UNL A   1      44.509  25.411  38.052  1.00  0.00    -0.237 OA
ATOM    104  O   UNL A   1      45.163  23.819  36.301  1.00  0.00    -0.744 OA
ENDBRANCH  98 101
ENDBRANCH  71  94
ENDBRANCH  45  46
ENDBRANCH  37  40
ENDBRANCH  35  36
ENDBRANCH  34  35
ENDBRANCH   1  34
TORSDOF 19
ENDMDL
