MODEL 1
REMARK VINA RESULT:     -12.6      0.000      0.000
REMARK SMILES CC(C)(C)c1csc(NC(=O)Cn2cccc2C(=O)NCCCNC(=O)c2ccc(-c3c4nc(c(-c5cccc(S(=O)(=O)[O-])c5F)c5ccc([nH]5)c(-c5cccc(S(=O)(=O)[O-])c5F)c5nc(c(-c6cccc(S(=O)(=O)[O-])c6F)c6ccc3[nH]6)C=C5)C=C4)cc2)n1
REMARK SMILES IDX 21 1 20 2 18 3 19 4 17 6 13 7 14 8 15 9 16 10 12 11 10 12
REMARK SMILES IDX 9 13 11 15 8 16 5 17 6 18 90 19 7 20 2 21 1 22 3 23 4 24
REMARK SMILES IDX 22 25 23 26 24 27 25 28 26 30 27 31 28 32 89 33 29 34 88 35
REMARK SMILES IDX 30 36 31 37 32 38 82 39 33 40 87 41 81 42 83 43 34 44 86 45
REMARK SMILES IDX 80 46 79 47 35 49 67 50 47 51 66 52 48 53 51 54 65 55 84 56
REMARK SMILES IDX 49 57 50 58 64 60 85 61 52 62 36 63 37 64 45 65 38 66 40 67
REMARK SMILES IDX 46 68 39 69 41 70 42 71 43 72 44 73 68 74 69 75 77 76 70 77
REMARK SMILES IDX 72 78 78 79 71 80 73 81 74 82 75 83 76 84 53 85 54 86 62 87
REMARK SMILES IDX 55 88 57 89 63 90 56 91 58 92 59 93 60 94 61 95
REMARK H PARENT 20 5 9 14 24 29 83 48 51 59
REMARK Flexibility Score: inf
ROOT
ATOM      1  C   UNL A   1      33.293  29.152  25.246  1.00  0.00     0.118 C 
ENDROOT
BRANCH   1   2
ATOM      2  N   UNL A   1      33.714  28.008  24.477  1.00  0.00    -0.351 N 
ATOM      3  C   UNL A   1      33.011  26.975  23.914  1.00  0.00     0.267 C 
ATOM      4  O   UNL A   1      33.683  26.186  23.243  1.00  0.00    -0.268 OA
ATOM      5  H   UNL A   1      34.686  27.960  24.329  1.00  0.00     0.163 HD
BRANCH   3   6
ATOM      6  C   UNL A   1      31.579  26.749  24.107  1.00  0.00     0.107 A 
ATOM      7  N   UNL A   1      30.830  26.079  25.070  1.00  0.00    -0.334 N 
ATOM      8  C   UNL A   1      29.490  26.134  24.732  1.00  0.00     0.087 A 
ATOM      9  C   UNL A   1      29.340  26.978  23.664  1.00  0.00     0.020 A 
ATOM     10  C   UNL A   1      30.634  27.376  23.289  1.00  0.00     0.033 A 
BRANCH   7  11
ATOM     11  C   UNL A   1      31.259  25.422  26.297  1.00  0.00     0.222 C 
BRANCH  11  12
ATOM     12  C   UNL A   1      30.723  24.018  26.478  1.00  0.00     0.246 C 
ATOM     13  N   UNL A   1      31.279  22.924  25.892  1.00  0.00    -0.300 N 
ATOM     14  H   UNL A   1      30.864  22.072  26.160  1.00  0.00     0.172 HD
ATOM     15  O   UNL A   1      29.740  23.833  27.209  1.00  0.00    -0.273 OA
BRANCH  13  16
ATOM     16  C   UNL A   1      32.305  22.781  24.999  1.00  0.00     0.189 A 
ATOM     17  C   UNL A   1      34.399  22.680  24.289  1.00  0.00     0.059 A 
ATOM     18  C   UNL A   1      33.739  22.694  23.073  1.00  0.00     0.093 A 
ATOM     19  N   UNL A   1      33.551  22.707  25.396  1.00  0.00    -0.224 NA
ATOM     20  S   UNL A   1      32.072  22.522  23.341  1.00  0.00    -0.105 S 
BRANCH  17  21
ATOM     21  C   UNL A   1      35.892  22.535  24.493  1.00  0.00     0.005 C 
ATOM     22  C   UNL A   1      36.673  22.954  23.234  1.00  0.00     0.017 C 
ATOM     23  C   UNL A   1      36.276  21.081  24.830  1.00  0.00     0.017 C 
ATOM     24  C   UNL A   1      36.297  23.454  25.662  1.00  0.00     0.017 C 
ENDBRANCH  17  21
ENDBRANCH  13  16
ENDBRANCH  11  12
ENDBRANCH   7  11
ENDBRANCH   3   6
ENDBRANCH   1   2
BRANCH   1  25
ATOM     25  C   UNL A   1      33.296  28.975  26.757  1.00  0.00     0.042 C 
BRANCH  25  26
ATOM     26  C   UNL A   1      34.690  29.046  27.375  1.00  0.00     0.118 C 
BRANCH  26  27
ATOM     27  N   UNL A   1      34.936  30.271  28.134  1.00  0.00    -0.352 N 
ATOM     28  C   UNL A   1      36.074  30.598  28.849  1.00  0.00     0.251 C 
ATOM     29  H   UNL A   1      34.211  30.938  28.137  1.00  0.00     0.163 HD
ATOM     30  O   UNL A   1      36.106  31.588  29.555  1.00  0.00    -0.269 OA
BRANCH  28  31
ATOM     31  C   UNL A   1      37.222  29.672  28.781  1.00  0.00     0.039 A 
ATOM     32  C   UNL A   1      38.099  29.784  27.699  1.00  0.00     0.014 A 
ATOM     33  C   UNL A   1      37.479  28.789  29.836  1.00  0.00     0.014 A 
ATOM     34  C   UNL A   1      39.299  29.086  27.732  1.00  0.00     0.010 A 
ATOM     35  C   UNL A   1      38.694  28.127  29.890  1.00  0.00     0.010 A 
ATOM     36  C   UNL A   1      39.612  28.295  28.849  1.00  0.00    -0.014 A 
BRANCH  36  37
ATOM     37  C   UNL A   1      40.969  27.715  28.953  1.00  0.00     0.031 A 
ATOM     38  C   UNL A   1      41.025  26.270  28.430  1.00  0.00     0.074 A 
ATOM     39  C   UNL A   1      41.921  28.511  29.524  1.00  0.00     0.049 A 
ATOM     40  N   UNL A   1      41.652  25.238  28.912  1.00  0.00    -0.248 NA
ATOM     41  C   UNL A   1      40.150  25.878  27.294  1.00  0.00     0.031 C 
ATOM     42  C   UNL A   1      41.692  29.912  29.937  1.00  0.00     0.029 A 
ATOM     43  N   UNL A   1      43.245  28.337  29.872  1.00  0.00    -0.354 N 
ATOM     44  C   UNL A   1      41.424  24.153  28.026  1.00  0.00     0.074 A 
ATOM     45  C   UNL A   1      40.373  24.568  27.148  1.00  0.00     0.031 C 
ATOM     46  C   UNL A   1      42.789  30.426  30.530  1.00  0.00     0.029 A 
ATOM     47  C   UNL A   1      43.840  29.427  30.552  1.00  0.00     0.049 A 
ATOM     48  H   UNL A   1      43.741  27.512  29.664  1.00  0.00     0.167 HD
ATOM     49  C   UNL A   1      42.234  23.050  27.979  1.00  0.00     0.034 A 
ATOM     50  C   UNL A   1      45.070  29.521  31.144  1.00  0.00     0.034 A 
ATOM     51  C   UNL A   1      43.347  23.265  28.846  1.00  0.00     0.049 A 
ATOM     52  C   UNL A   1      45.772  28.265  30.849  1.00  0.00     0.074 A 
ATOM     53  C   UNL A   1      43.518  23.219  30.202  1.00  0.00     0.029 A 
ATOM     54  N   UNL A   1      44.419  23.902  28.265  1.00  0.00    -0.354 N 
ATOM     55  N   UNL A   1      46.271  27.947  29.692  1.00  0.00    -0.248 NA
ATOM     56  C   UNL A   1      45.822  27.222  31.883  1.00  0.00     0.031 C 
ATOM     57  C   UNL A   1      44.513  24.189  30.445  1.00  0.00     0.029 A 
ATOM     58  C   UNL A   1      45.013  24.672  29.228  1.00  0.00     0.049 A 
ATOM     59  H   UNL A   1      44.708  23.819  27.327  1.00  0.00     0.167 HD
ATOM     60  C   UNL A   1      46.336  26.576  29.777  1.00  0.00     0.074 A 
ATOM     61  C   UNL A   1      46.401  26.253  31.182  1.00  0.00     0.031 C 
ATOM     62  C   UNL A   1      45.774  25.821  28.797  1.00  0.00     0.034 A 
BRANCH  49  63
ATOM     63  C   UNL A   1      42.362  21.841  27.070  1.00  0.00     0.023 A 
ATOM     64  C   UNL A   1      41.463  20.769  27.363  1.00  0.00     0.012 A 
ATOM     65  C   UNL A   1      43.411  21.561  26.182  1.00  0.00     0.148 A 
ATOM     66  C   UNL A   1      41.667  19.464  26.918  1.00  0.00     0.002 A 
ATOM     67  C   UNL A   1      43.582  20.258  25.692  1.00  0.00     0.091 A 
ATOM     68  F   UNL A   1      44.286  22.522  25.871  1.00  0.00    -0.205 F 
ATOM     69  C   UNL A   1      42.741  19.206  26.089  1.00  0.00     0.022 A 
BRANCH  67  70
ATOM     70  S   UNL A   1      44.879  19.814  24.528  1.00  0.00     0.127 S 
ATOM     71  O   UNL A   1      44.611  18.397  24.299  1.00  0.00    -0.237 OA
ATOM     72  O   UNL A   1      44.574  20.680  23.386  1.00  0.00    -0.237 OA
ATOM     73  O   UNL A   1      46.130  20.138  25.199  1.00  0.00    -0.744 OA
ENDBRANCH  67  70
ENDBRANCH  49  63
BRANCH  50  74
ATOM     74  C   UNL A   1      45.735  30.499  32.084  1.00  0.00     0.023 A 
ATOM     75  C   UNL A   1      45.306  30.741  33.398  1.00  0.00     0.012 A 
ATOM     76  C   UNL A   1      46.910  31.198  31.682  1.00  0.00     0.148 A 
ATOM     77  C   UNL A   1      46.067  31.525  34.288  1.00  0.00     0.002 A 
ATOM     78  C   UNL A   1      47.718  31.878  32.584  1.00  0.00     0.091 A 
ATOM     79  F   UNL A   1      47.242  31.251  30.389  1.00  0.00    -0.205 F 
ATOM     80  C   UNL A   1      47.296  32.053  33.897  1.00  0.00     0.022 A 
BRANCH  78  81
ATOM     81  S   UNL A   1      49.381  32.421  32.144  1.00  0.00     0.127 S 
ATOM     82  O   UNL A   1      49.115  33.522  31.221  1.00  0.00    -0.237 OA
ATOM     83  O   UNL A   1      49.910  32.823  33.447  1.00  0.00    -0.237 OA
ATOM     84  O   UNL A   1      50.048  31.266  31.554  1.00  0.00    -0.744 OA
ENDBRANCH  78  81
ENDBRANCH  50  74
BRANCH  62  85
ATOM     85  C   UNL A   1      45.721  26.502  27.431  1.00  0.00     0.023 A 
ATOM     86  C   UNL A   1      44.456  26.900  26.958  1.00  0.00     0.012 A 
ATOM     87  C   UNL A   1      46.818  26.646  26.548  1.00  0.00     0.148 A 
ATOM     88  C   UNL A   1      44.280  27.401  25.664  1.00  0.00     0.002 A 
ATOM     89  C   UNL A   1      46.643  27.136  25.250  1.00  0.00     0.091 A 
ATOM     90  F   UNL A   1      48.029  26.300  26.975  1.00  0.00    -0.205 F 
ATOM     91  C   UNL A   1      45.371  27.515  24.809  1.00  0.00     0.022 A 
BRANCH  89  92
ATOM     92  S   UNL A   1      47.977  27.250  24.035  1.00  0.00     0.127 S 
ATOM     93  O   UNL A   1      48.241  25.844  23.721  1.00  0.00    -0.237 OA
ATOM     94  O   UNL A   1      47.343  27.995  22.951  1.00  0.00    -0.237 OA
ATOM     95  O   UNL A   1      49.091  27.927  24.692  1.00  0.00    -0.744 OA
ENDBRANCH  89  92
ENDBRANCH  62  85
ENDBRANCH  36  37
ENDBRANCH  28  31
ENDBRANCH  26  27
ENDBRANCH  25  26
ENDBRANCH   1  25
TORSDOF 17
ENDMDL
MODEL 2
REMARK VINA RESULT:     -12.4      1.502      1.720
REMARK SMILES CC(C)(C)c1csc(NC(=O)Cn2cccc2C(=O)NCCCNC(=O)c2ccc(-c3c4nc(c(-c5cccc(S(=O)(=O)[O-])c5F)c5ccc([nH]5)c(-c5cccc(S(=O)(=O)[O-])c5F)c5nc(c(-c6cccc(S(=O)(=O)[O-])c6F)c6ccc3[nH]6)C=C5)C=C4)cc2)n1
REMARK SMILES IDX 21 1 20 2 18 3 19 4 17 6 13 7 14 8 15 9 16 10 12 11 10 12
REMARK SMILES IDX 9 13 11 15 8 16 5 17 6 18 90 19 7 20 2 21 1 22 3 23 4 24
REMARK SMILES IDX 22 25 23 26 24 27 25 28 26 30 27 31 28 32 89 33 29 34 88 35
REMARK SMILES IDX 30 36 31 37 32 38 82 39 33 40 87 41 81 42 83 43 34 44 86 45
REMARK SMILES IDX 80 46 79 47 35 49 67 50 47 51 66 52 48 53 51 54 65 55 84 56
REMARK SMILES IDX 49 57 50 58 64 60 85 61 52 62 36 63 37 64 45 65 38 66 40 67
REMARK SMILES IDX 46 68 39 69 41 70 42 71 43 72 44 73 68 74 69 75 77 76 70 77
REMARK SMILES IDX 72 78 78 79 71 80 73 81 74 82 75 83 76 84 53 85 54 86 62 87
REMARK SMILES IDX 55 88 57 89 63 90 56 91 58 92 59 93 60 94 61 95
REMARK H PARENT 20 5 9 14 24 29 83 48 51 59
REMARK Flexibility Score: inf
ROOT
ATOM      1  C   UNL A   1      33.117  29.220  25.338  1.00  0.00     0.118 C 
ENDROOT
BRANCH   1   2
ATOM      2  N   UNL A   1      33.576  28.122  24.526  1.00  0.00    -0.351 N 
ATOM      3  C   UNL A   1      32.910  27.073  23.944  1.00  0.00     0.267 C 
ATOM      4  O   UNL A   1      33.605  26.338  23.237  1.00  0.00    -0.268 OA
ATOM      5  H   UNL A   1      34.545  28.124  24.358  1.00  0.00     0.163 HD
BRANCH   3   6
ATOM      6  C   UNL A   1      31.494  26.774  24.156  1.00  0.00     0.107 A 
ATOM      7  N   UNL A   1      30.794  26.062  25.126  1.00  0.00    -0.334 N 
ATOM      8  C   UNL A   1      29.448  26.051  24.808  1.00  0.00     0.087 A 
ATOM      9  C   UNL A   1      29.240  26.892  23.747  1.00  0.00     0.020 A 
ATOM     10  C   UNL A   1      30.507  27.358  23.357  1.00  0.00     0.033 A 
BRANCH   7  11
ATOM     11  C   UNL A   1      31.274  25.420  26.342  1.00  0.00     0.222 C 
BRANCH  11  12
ATOM     12  C   UNL A   1      30.853  23.975  26.498  1.00  0.00     0.246 C 
ATOM     13  N   UNL A   1      31.482  22.941  25.879  1.00  0.00    -0.300 N 
ATOM     14  H   UNL A   1      31.139  22.053  26.133  1.00  0.00     0.172 HD
ATOM     15  O   UNL A   1      29.899  23.698  27.239  1.00  0.00    -0.273 OA
BRANCH  13  16
ATOM     16  C   UNL A   1      32.501  22.898  24.968  1.00  0.00     0.189 A 
ATOM     17  C   UNL A   1      34.589  22.856  24.236  1.00  0.00     0.059 A 
ATOM     18  C   UNL A   1      33.924  23.039  23.037  1.00  0.00     0.093 A 
ATOM     19  N   UNL A   1      33.748  22.754  25.343  1.00  0.00    -0.224 NA
ATOM     20  S   UNL A   1      32.256  22.860  23.291  1.00  0.00    -0.105 S 
BRANCH  17  21
ATOM     21  C   UNL A   1      36.081  22.663  24.409  1.00  0.00     0.005 C 
ATOM     22  C   UNL A   1      36.403  21.274  24.992  1.00  0.00     0.017 C 
ATOM     23  C   UNL A   1      36.681  23.725  25.350  1.00  0.00     0.017 C 
ATOM     24  C   UNL A   1      36.735  22.786  23.019  1.00  0.00     0.017 C 
ENDBRANCH  17  21
ENDBRANCH  13  16
ENDBRANCH  11  12
ENDBRANCH   7  11
ENDBRANCH   3   6
ENDBRANCH   1   2
BRANCH   1  25
ATOM     25  C   UNL A   1      33.327  29.071  26.837  1.00  0.00     0.042 C 
BRANCH  25  26
ATOM     26  C   UNL A   1      34.781  29.235  27.268  1.00  0.00     0.118 C 
BRANCH  26  27
ATOM     27  N   UNL A   1      35.017  30.401  28.118  1.00  0.00    -0.352 N 
ATOM     28  C   UNL A   1      36.125  30.652  28.906  1.00  0.00     0.251 C 
ATOM     29  H   UNL A   1      34.308  31.085  28.129  1.00  0.00     0.163 HD
ATOM     30  O   UNL A   1      36.144  31.593  29.676  1.00  0.00    -0.269 OA
BRANCH  28  31
ATOM     31  C   UNL A   1      37.254  29.703  28.833  1.00  0.00     0.039 A 
ATOM     32  C   UNL A   1      38.137  29.809  27.756  1.00  0.00     0.014 A 
ATOM     33  C   UNL A   1      37.488  28.804  29.879  1.00  0.00     0.014 A 
ATOM     34  C   UNL A   1      39.322  29.085  27.786  1.00  0.00     0.010 A 
ATOM     35  C   UNL A   1      38.689  28.117  29.931  1.00  0.00     0.010 A 
ATOM     36  C   UNL A   1      39.614  28.276  28.895  1.00  0.00    -0.014 A 
BRANCH  36  37
ATOM     37  C   UNL A   1      40.959  27.667  28.999  1.00  0.00     0.031 A 
ATOM     38  C   UNL A   1      41.002  26.251  28.402  1.00  0.00     0.074 A 
ATOM     39  C   UNL A   1      41.911  28.415  29.631  1.00  0.00     0.049 A 
ATOM     40  N   UNL A   1      41.601  25.184  28.843  1.00  0.00    -0.248 NA
ATOM     41  C   UNL A   1      40.147  25.935  27.228  1.00  0.00     0.031 C 
ATOM     42  C   UNL A   1      41.696  29.797  30.112  1.00  0.00     0.029 A 
ATOM     43  N   UNL A   1      43.223  28.199  29.999  1.00  0.00    -0.354 N 
ATOM     44  C   UNL A   1      41.374  24.151  27.896  1.00  0.00     0.074 A 
ATOM     45  C   UNL A   1      40.351  24.630  27.018  1.00  0.00     0.031 C 
ATOM     46  C   UNL A   1      42.787  30.259  30.755  1.00  0.00     0.029 A 
ATOM     47  C   UNL A   1      43.821  29.241  30.748  1.00  0.00     0.049 A 
ATOM     48  H   UNL A   1      43.710  27.378  29.758  1.00  0.00     0.167 HD
ATOM     49  C   UNL A   1      42.166  23.037  27.809  1.00  0.00     0.034 A 
ATOM     50  C   UNL A   1      45.038  29.283  31.371  1.00  0.00     0.034 A 
ATOM     51  C   UNL A   1      43.263  23.187  28.710  1.00  0.00     0.049 A 
ATOM     52  C   UNL A   1      45.725  28.031  31.026  1.00  0.00     0.074 A 
ATOM     53  C   UNL A   1      43.402  23.068  30.065  1.00  0.00     0.029 A 
ATOM     54  N   UNL A   1      44.359  23.834  28.187  1.00  0.00    -0.354 N 
ATOM     55  N   UNL A   1      46.245  27.765  29.865  1.00  0.00    -0.248 NA
ATOM     56  C   UNL A   1      45.735  26.935  32.005  1.00  0.00     0.031 C 
ATOM     57  C   UNL A   1      44.407  24.005  30.381  1.00  0.00     0.029 A 
ATOM     58  C   UNL A   1      44.944  24.541  29.202  1.00  0.00     0.049 A 
ATOM     59  H   UNL A   1      44.667  23.794  27.253  1.00  0.00     0.167 HD
ATOM     60  C   UNL A   1      46.286  26.391  29.879  1.00  0.00     0.074 A 
ATOM     61  C   UNL A   1      46.312  25.993  31.267  1.00  0.00     0.031 C 
ATOM     62  C   UNL A   1      45.733  25.698  28.849  1.00  0.00     0.034 A 
BRANCH  49  63
ATOM     63  C   UNL A   1      42.295  21.875  26.841  1.00  0.00     0.023 A 
ATOM     64  C   UNL A   1      41.237  20.917  26.906  1.00  0.00     0.012 A 
ATOM     65  C   UNL A   1      43.434  21.510  26.108  1.00  0.00     0.148 A 
ATOM     66  C   UNL A   1      41.351  19.624  26.398  1.00  0.00     0.002 A 
ATOM     67  C   UNL A   1      43.524  20.225  25.552  1.00  0.00     0.091 A 
ATOM     68  F   UNL A   1      44.459  22.363  26.014  1.00  0.00    -0.205 F 
ATOM     69  C   UNL A   1      42.507  19.273  25.731  1.00  0.00     0.022 A 
BRANCH  67  70
ATOM     70  S   UNL A   1      44.931  19.680  24.575  1.00  0.00     0.127 S 
ATOM     71  O   UNL A   1      44.913  18.236  24.794  1.00  0.00    -0.237 OA
ATOM     72  O   UNL A   1      44.543  20.092  23.224  1.00  0.00    -0.237 OA
ATOM     73  O   UNL A   1      46.078  20.404  25.107  1.00  0.00    -0.744 OA
ENDBRANCH  67  70
ENDBRANCH  49  63
BRANCH  50  74
ATOM     74  C   UNL A   1      45.698  30.198  32.376  1.00  0.00     0.023 A 
ATOM     75  C   UNL A   1      46.701  31.125  32.054  1.00  0.00     0.012 A 
ATOM     76  C   UNL A   1      45.269  30.201  33.736  1.00  0.00     0.148 A 
ATOM     77  C   UNL A   1      47.153  32.075  32.992  1.00  0.00     0.002 A 
ATOM     78  C   UNL A   1      45.629  31.204  34.627  1.00  0.00     0.091 A 
ATOM     79  F   UNL A   1      44.528  29.192  34.202  1.00  0.00    -0.205 F 
ATOM     80  C   UNL A   1      46.583  32.147  34.262  1.00  0.00     0.022 A 
BRANCH  78  81
ATOM     81  S   UNL A   1      44.784  31.414  36.207  1.00  0.00     0.127 S 
ATOM     82  O   UNL A   1      43.378  31.362  35.817  1.00  0.00    -0.237 OA
ATOM     83  O   UNL A   1      45.262  30.247  36.949  1.00  0.00    -0.237 OA
ATOM     84  O   UNL A   1      45.231  32.693  36.746  1.00  0.00    -0.744 OA
ENDBRANCH  78  81
ENDBRANCH  50  74
BRANCH  62  85
ATOM     85  C   UNL A   1      45.723  26.450  27.520  1.00  0.00     0.023 A 
ATOM     86  C   UNL A   1      44.481  26.928  27.059  1.00  0.00     0.012 A 
ATOM     87  C   UNL A   1      46.833  26.590  26.653  1.00  0.00     0.148 A 
ATOM     88  C   UNL A   1      44.340  27.502  25.792  1.00  0.00     0.002 A 
ATOM     89  C   UNL A   1      46.693  27.153  25.381  1.00  0.00     0.091 A 
ATOM     90  F   UNL A   1      48.023  26.168  27.069  1.00  0.00    -0.205 F 
ATOM     91  C   UNL A   1      45.442  27.611  24.952  1.00  0.00     0.022 A 
BRANCH  89  92
ATOM     92  S   UNL A   1      48.041  27.270  24.183  1.00  0.00     0.127 S 
ATOM     93  O   UNL A   1      48.417  25.867  23.990  1.00  0.00    -0.237 OA
ATOM     94  O   UNL A   1      47.377  27.873  23.030  1.00  0.00    -0.237 OA
ATOM     95  O   UNL A   1      49.085  28.081  24.799  1.00  0.00    -0.744 OA
ENDBRANCH  89  92
ENDBRANCH  62  85
ENDBRANCH  36  37
ENDBRANCH  28  31
ENDBRANCH  26  27
ENDBRANCH  25  26
ENDBRANCH   1  25
TORSDOF 17
ENDMDL
MODEL 3
REMARK VINA RESULT:     -11.7      4.503     10.111
REMARK SMILES CC(C)(C)c1csc(NC(=O)Cn2cccc2C(=O)NCCCNC(=O)c2ccc(-c3c4nc(c(-c5cccc(S(=O)(=O)[O-])c5F)c5ccc([nH]5)c(-c5cccc(S(=O)(=O)[O-])c5F)c5nc(c(-c6cccc(S(=O)(=O)[O-])c6F)c6ccc3[nH]6)C=C5)C=C4)cc2)n1
REMARK SMILES IDX 21 1 20 2 18 3 19 4 17 6 13 7 14 8 15 9 16 10 12 11 10 12
REMARK SMILES IDX 9 13 11 15 8 16 5 17 6 18 90 19 7 20 2 21 1 22 3 23 4 24
REMARK SMILES IDX 22 25 23 26 24 27 25 28 26 30 27 31 28 32 89 33 29 34 88 35
REMARK SMILES IDX 30 36 31 37 32 38 82 39 33 40 87 41 81 42 83 43 34 44 86 45
REMARK SMILES IDX 80 46 79 47 35 49 67 50 47 51 66 52 48 53 51 54 65 55 84 56
REMARK SMILES IDX 49 57 50 58 64 60 85 61 52 62 36 63 37 64 45 65 38 66 40 67
REMARK SMILES IDX 46 68 39 69 41 70 42 71 43 72 44 73 68 74 69 75 77 76 70 77
REMARK SMILES IDX 72 78 78 79 71 80 73 81 74 82 75 83 76 84 53 85 54 86 62 87
REMARK SMILES IDX 55 88 57 89 63 90 56 91 58 92 59 93 60 94 61 95
REMARK H PARENT 20 5 9 14 24 29 83 48 51 59
REMARK Flexibility Score: inf
ROOT
ATOM      1  C   UNL A   1      37.429  21.959  25.649  1.00  0.00     0.118 C 
ENDROOT
BRANCH   1   2
ATOM      2  N   UNL A   1      37.296  22.294  24.253  1.00  0.00    -0.351 N 
ATOM      3  C   UNL A   1      36.206  22.625  23.492  1.00  0.00     0.267 C 
ATOM      4  O   UNL A   1      36.456  22.935  22.323  1.00  0.00    -0.268 OA
ATOM      5  H   UNL A   1      38.145  22.282  23.755  1.00  0.00     0.163 HD
BRANCH   3   6
ATOM      6  C   UNL A   1      34.823  22.580  23.966  1.00  0.00     0.107 A 
ATOM      7  N   UNL A   1      33.752  23.467  23.902  1.00  0.00    -0.334 N 
ATOM      8  C   UNL A   1      32.668  22.930  24.571  1.00  0.00     0.087 A 
ATOM      9  C   UNL A   1      32.959  21.636  24.914  1.00  0.00     0.020 A 
ATOM     10  C   UNL A   1      34.289  21.412  24.519  1.00  0.00     0.033 A 
BRANCH   7  11
ATOM     11  C   UNL A   1      33.648  24.759  23.239  1.00  0.00     0.222 C 
BRANCH  11  12
ATOM     12  C   UNL A   1      32.937  24.726  21.903  1.00  0.00     0.246 C 
ATOM     13  N   UNL A   1      31.799  25.424  21.644  1.00  0.00    -0.300 N 
ATOM     14  H   UNL A   1      31.494  25.358  20.710  1.00  0.00     0.172 HD
ATOM     15  O   UNL A   1      33.410  24.047  20.981  1.00  0.00    -0.273 OA
BRANCH  13  16
ATOM     16  C   UNL A   1      30.998  26.201  22.433  1.00  0.00     0.189 A 
ATOM     17  C   UNL A   1      29.920  28.019  23.093  1.00  0.00     0.059 A 
ATOM     18  C   UNL A   1      29.735  27.219  24.207  1.00  0.00     0.093 A 
ATOM     19  N   UNL A   1      30.635  27.405  22.066  1.00  0.00    -0.224 NA
ATOM     20  S   UNL A   1      30.268  25.645  23.858  1.00  0.00    -0.105 S 
BRANCH  17  21
ATOM     21  C   UNL A   1      29.341  29.401  22.881  1.00  0.00     0.005 C 
ATOM     22  C   UNL A   1      29.760  29.982  21.518  1.00  0.00     0.017 C 
ATOM     23  C   UNL A   1      29.804  30.380  23.978  1.00  0.00     0.017 C 
ATOM     24  C   UNL A   1      27.805  29.278  22.922  1.00  0.00     0.017 C 
ENDBRANCH  17  21
ENDBRANCH  13  16
ENDBRANCH  11  12
ENDBRANCH   7  11
ENDBRANCH   3   6
ENDBRANCH   1   2
BRANCH   1  25
ATOM     25  C   UNL A   1      37.564  23.134  26.605  1.00  0.00     0.042 C 
BRANCH  25  26
ATOM     26  C   UNL A   1      38.470  24.245  26.081  1.00  0.00     0.118 C 
BRANCH  26  27
ATOM     27  N   UNL A   1      39.896  23.931  26.164  1.00  0.00    -0.352 N 
ATOM     28  C   UNL A   1      40.899  24.727  26.685  1.00  0.00     0.251 C 
ATOM     29  H   UNL A   1      40.173  23.054  25.810  1.00  0.00     0.163 HD
ATOM     30  O   UNL A   1      42.069  24.413  26.573  1.00  0.00    -0.269 OA
BRANCH  28  31
ATOM     31  C   UNL A   1      40.509  26.002  27.321  1.00  0.00     0.039 A 
ATOM     32  C   UNL A   1      40.063  25.971  28.645  1.00  0.00     0.014 A 
ATOM     33  C   UNL A   1      40.695  27.212  26.645  1.00  0.00     0.014 A 
ATOM     34  C   UNL A   1      39.910  27.169  29.329  1.00  0.00     0.010 A 
ATOM     35  C   UNL A   1      40.586  28.405  27.340  1.00  0.00     0.010 A 
ATOM     36  C   UNL A   1      40.216  28.380  28.688  1.00  0.00    -0.014 A 
BRANCH  36  37
ATOM     37  C   UNL A   1      40.233  29.625  29.487  1.00  0.00     0.031 A 
ATOM     38  C   UNL A   1      38.934  30.434  29.330  1.00  0.00     0.074 A 
ATOM     39  C   UNL A   1      41.382  29.880  30.180  1.00  0.00     0.049 A 
ATOM     40  N   UNL A   1      38.766  31.717  29.211  1.00  0.00    -0.248 NA
ATOM     41  C   UNL A   1      37.651  29.708  29.137  1.00  0.00     0.031 C 
ATOM     42  C   UNL A   1      42.532  28.953  30.248  1.00  0.00     0.029 A 
ATOM     43  N   UNL A   1      41.830  30.928  30.957  1.00  0.00    -0.354 N 
ATOM     44  C   UNL A   1      37.369  31.956  29.151  1.00  0.00     0.074 A 
ATOM     45  C   UNL A   1      36.752  30.681  28.951  1.00  0.00     0.031 C 
ATOM     46  C   UNL A   1      43.549  29.496  30.947  1.00  0.00     0.029 A 
ATOM     47  C   UNL A   1      43.165  30.815  31.414  1.00  0.00     0.049 A 
ATOM     48  H   UNL A   1      41.262  31.702  31.178  1.00  0.00     0.167 HD
ATOM     49  C   UNL A   1      36.811  33.175  29.434  1.00  0.00     0.034 A 
ATOM     50  C   UNL A   1      43.942  31.726  32.076  1.00  0.00     0.034 A 
ATOM     51  C   UNL A   1      37.840  34.049  29.898  1.00  0.00     0.049 A 
ATOM     52  C   UNL A   1      43.081  32.882  32.358  1.00  0.00     0.074 A 
ATOM     53  C   UNL A   1      38.839  34.752  29.283  1.00  0.00     0.029 A 
ATOM     54  N   UNL A   1      38.074  34.000  31.253  1.00  0.00    -0.354 N 
ATOM     55  N   UNL A   1      42.148  32.909  33.263  1.00  0.00    -0.248 NA
ATOM     56  C   UNL A   1      43.176  34.064  31.491  1.00  0.00     0.031 C 
ATOM     57  C   UNL A   1      39.870  34.774  30.244  1.00  0.00     0.029 A 
ATOM     58  C   UNL A   1      39.410  34.226  31.448  1.00  0.00     0.049 A 
ATOM     59  H   UNL A   1      37.404  33.833  31.954  1.00  0.00     0.167 HD
ATOM     60  C   UNL A   1      41.342  33.927  32.810  1.00  0.00     0.074 A 
ATOM     61  C   UNL A   1      42.174  34.778  31.993  1.00  0.00     0.031 C 
ATOM     62  C   UNL A   1      40.012  33.703  32.653  1.00  0.00     0.034 A 
BRANCH  49  63
ATOM     63  C   UNL A   1      35.400  33.701  29.620  1.00  0.00     0.023 A 
ATOM     64  C   UNL A   1      34.620  33.770  28.425  1.00  0.00     0.012 A 
ATOM     65  C   UNL A   1      34.887  34.359  30.748  1.00  0.00     0.148 A 
ATOM     66  C   UNL A   1      33.474  34.556  28.309  1.00  0.00     0.002 A 
ATOM     67  C   UNL A   1      33.704  35.106  30.643  1.00  0.00     0.091 A 
ATOM     68  F   UNL A   1      35.573  34.333  31.895  1.00  0.00    -0.205 F 
ATOM     69  C   UNL A   1      33.024  35.239  29.422  1.00  0.00     0.022 A 
BRANCH  67  70
ATOM     70  S   UNL A   1      32.959  35.957  32.040  1.00  0.00     0.127 S 
ATOM     71  O   UNL A   1      31.919  35.018  32.450  1.00  0.00    -0.237 OA
ATOM     72  O   UNL A   1      34.085  36.058  32.972  1.00  0.00    -0.237 OA
ATOM     73  O   UNL A   1      32.507  37.240  31.518  1.00  0.00    -0.744 OA
ENDBRANCH  67  70
ENDBRANCH  49  63
BRANCH  50  74
ATOM     74  C   UNL A   1      45.412  31.841  32.409  1.00  0.00     0.023 A 
ATOM     75  C   UNL A   1      45.910  32.057  33.702  1.00  0.00     0.012 A 
ATOM     76  C   UNL A   1      46.396  31.666  31.391  1.00  0.00     0.148 A 
ATOM     77  C   UNL A   1      47.289  31.978  33.982  1.00  0.00     0.002 A 
ATOM     78  C   UNL A   1      47.741  31.476  31.681  1.00  0.00     0.091 A 
ATOM     79  F   UNL A   1      46.039  31.725  30.105  1.00  0.00    -0.205 F 
ATOM     80  C   UNL A   1      48.199  31.638  32.983  1.00  0.00     0.022 A 
BRANCH  78  81
ATOM     81  S   UNL A   1      48.901  30.874  30.438  1.00  0.00     0.127 S 
ATOM     82  O   UNL A   1      49.026  32.025  29.547  1.00  0.00    -0.237 OA
ATOM     83  O   UNL A   1      50.083  30.595  31.254  1.00  0.00    -0.237 OA
ATOM     84  O   UNL A   1      48.289  29.693  29.841  1.00  0.00    -0.744 OA
ENDBRANCH  78  81
ENDBRANCH  50  74
BRANCH  62  85
ATOM     85  C   UNL A   1      39.442  32.629  33.577  1.00  0.00     0.023 A 
ATOM     86  C   UNL A   1      39.092  31.396  32.993  1.00  0.00     0.012 A 
ATOM     87  C   UNL A   1      39.114  32.815  34.941  1.00  0.00     0.148 A 
ATOM     88  C   UNL A   1      38.433  30.400  33.720  1.00  0.00     0.002 A 
ATOM     89  C   UNL A   1      38.445  31.825  35.667  1.00  0.00     0.091 A 
ATOM     90  F   UNL A   1      39.452  33.961  35.526  1.00  0.00    -0.205 F 
ATOM     91  C   UNL A   1      38.106  30.615  35.054  1.00  0.00     0.022 A 
BRANCH  89  92
ATOM     92  S   UNL A   1      37.904  32.034  37.380  1.00  0.00     0.127 S 
ATOM     93  O   UNL A   1      39.150  32.387  38.065  1.00  0.00    -0.237 OA
ATOM     94  O   UNL A   1      36.951  33.134  37.270  1.00  0.00    -0.237 OA
ATOM     95  O   UNL A   1      37.340  30.757  37.803  1.00  0.00    -0.744 OA
ENDBRANCH  89  92
ENDBRANCH  62  85
ENDBRANCH  36  37
ENDBRANCH  28  31
ENDBRANCH  26  27
ENDBRANCH  25  26
ENDBRANCH   1  25
TORSDOF 17
ENDMDL
