MODEL 1
REMARK VINA RESULT:     -10.9      0.000      0.000
REMARK SMILES O=C(CCNC(=O)C1CCCC1)NCCCNC(=O)c1ccc(-c2c3nc(c(-c4cccc(S(=O)(=O)[O-])c4F)c4ccc([nH]4)c(-c4cccc(S(=O)(=O)[O-])c4F)c4nc(c(-c5cccc(S(=O)(=O)[O-])c5F)c5ccc2[nH]5)C=C4)C=C3)cc1
REMARK SMILES IDX 15 1 14 2 13 3 1 4 2 5 3 7 4 8 5 9 6 10 7 12 8 13 9 14 12 15
REMARK SMILES IDX 10 16 11 17 16 18 17 19 18 20 19 22 20 23 21 24 82 25 22 26
REMARK SMILES IDX 81 27 23 28 24 29 25 30 75 31 26 32 80 33 74 34 76 35 27 36
REMARK SMILES IDX 79 37 73 38 72 39 28 41 60 42 40 43 59 44 41 45 44 46 58 47
REMARK SMILES IDX 77 48 42 49 43 50 57 52 78 53 45 54 29 55 30 56 38 57 31 58
REMARK SMILES IDX 33 59 39 60 32 61 34 62 35 63 36 64 37 65 61 66 62 67 70 68
REMARK SMILES IDX 63 69 65 70 71 71 64 72 66 73 67 74 68 75 69 76 46 77 47 78
REMARK SMILES IDX 55 79 48 80 50 81 56 82 49 83 51 84 52 85 53 86 54 87
REMARK H PARENT 13 6 5 11 17 21 76 40 44 51
REMARK Flexibility Score: inf
ROOT
ATOM      1  C   UNL A   1      42.223  19.117  27.154  1.00  0.00     0.042 C 
ENDROOT
BRANCH   1   2
ATOM      2  C   UNL A   1      43.242  18.437  26.250  1.00  0.00     0.117 C 
BRANCH   2   3
ATOM      3  N   UNL A   1      44.204  19.367  25.694  1.00  0.00    -0.356 N 
ATOM      4  O   UNL A   1      45.870  17.827  25.294  1.00  0.00    -0.275 OA
ATOM      5  C   UNL A   1      45.436  18.970  25.226  1.00  0.00     0.221 C 
ATOM      6  H   UNL A   1      43.967  20.322  25.649  1.00  0.00     0.163 HD
BRANCH   5   7
ATOM      7  C   UNL A   1      46.203  20.076  24.540  1.00  0.00     0.121 C 
BRANCH   7   8
ATOM      8  C   UNL A   1      45.228  21.099  23.964  1.00  0.00     0.125 C 
BRANCH   8   9
ATOM      9  N   UNL A   1      45.820  22.430  23.899  1.00  0.00    -0.355 N 
ATOM     10  C   UNL A   1      46.079  23.356  24.859  1.00  0.00     0.223 C 
ATOM     11  H   UNL A   1      46.080  22.710  22.992  1.00  0.00     0.163 HD
ATOM     12  O   UNL A   1      46.450  24.469  24.474  1.00  0.00    -0.275 OA
BRANCH  10  13
ATOM     13  C   UNL A   1      46.001  23.046  26.346  1.00  0.00     0.078 C 
ATOM     14  C   UNL A   1      46.587  24.081  27.295  1.00  0.00     0.013 C 
ATOM     15  C   UNL A   1      44.563  22.819  26.803  1.00  0.00     0.013 C 
ATOM     16  C   UNL A   1      45.808  23.938  28.595  1.00  0.00     0.001 C 
ATOM     17  C   UNL A   1      44.535  23.164  28.283  1.00  0.00     0.001 C 
ENDBRANCH  10  13
ENDBRANCH   8   9
ENDBRANCH   7   8
ENDBRANCH   5   7
ENDBRANCH   2   3
ENDBRANCH   1   2
BRANCH   1  18
ATOM     18  C   UNL A   1      41.731  20.475  26.659  1.00  0.00     0.118 C 
BRANCH  18  19
ATOM     19  N   UNL A   1      40.352  20.458  26.193  1.00  0.00    -0.352 N 
ATOM     20  C   UNL A   1      39.392  21.444  26.234  1.00  0.00     0.251 C 
ATOM     21  H   UNL A   1      40.060  19.610  25.785  1.00  0.00     0.163 HD
ATOM     22  O   UNL A   1      38.240  21.181  25.909  1.00  0.00    -0.269 OA
BRANCH  20  23
ATOM     23  C   UNL A   1      39.737  22.806  26.703  1.00  0.00     0.039 A 
ATOM     24  C   UNL A   1      40.628  22.940  27.772  1.00  0.00     0.014 A 
ATOM     25  C   UNL A   1      39.198  23.943  26.097  1.00  0.00     0.014 A 
ATOM     26  C   UNL A   1      41.049  24.211  28.170  1.00  0.00     0.010 A 
ATOM     27  C   UNL A   1      39.674  25.206  26.448  1.00  0.00     0.010 A 
ATOM     28  C   UNL A   1      40.614  25.353  27.478  1.00  0.00    -0.014 A 
BRANCH  28  29
ATOM     29  C   UNL A   1      41.175  26.698  27.780  1.00  0.00     0.031 A 
ATOM     30  C   UNL A   1      42.600  27.033  27.432  1.00  0.00     0.074 A 
ATOM     31  C   UNL A   1      40.425  27.587  28.460  1.00  0.00     0.049 A 
ATOM     32  N   UNL A   1      43.275  28.123  27.690  1.00  0.00    -0.248 NA
ATOM     33  C   UNL A   1      43.374  26.001  26.724  1.00  0.00     0.031 C 
ATOM     34  C   UNL A   1      39.053  27.360  28.921  1.00  0.00     0.029 A 
ATOM     35  N   UNL A   1      40.719  28.850  28.915  1.00  0.00    -0.354 N 
ATOM     36  C   UNL A   1      44.559  27.900  27.208  1.00  0.00     0.074 A 
ATOM     37  C   UNL A   1      44.576  26.558  26.664  1.00  0.00     0.031 C 
ATOM     38  C   UNL A   1      38.627  28.442  29.591  1.00  0.00     0.029 A 
ATOM     39  C   UNL A   1      39.704  29.424  29.644  1.00  0.00     0.049 A 
ATOM     40  H   UNL A   1      41.576  29.301  28.736  1.00  0.00     0.167 HD
ATOM     41  C   UNL A   1      45.621  28.741  27.196  1.00  0.00     0.034 A 
ATOM     42  C   UNL A   1      39.649  30.600  30.301  1.00  0.00     0.034 A 
ATOM     43  C   UNL A   1      45.595  30.085  27.710  1.00  0.00     0.049 A 
ATOM     44  C   UNL A   1      40.839  31.520  30.262  1.00  0.00     0.074 A 
ATOM     45  C   UNL A   1      46.593  31.043  27.661  1.00  0.00     0.029 A 
ATOM     46  N   UNL A   1      44.526  30.659  28.380  1.00  0.00    -0.354 N 
ATOM     47  N   UNL A   1      41.991  31.354  29.658  1.00  0.00    -0.248 NA
ATOM     48  C   UNL A   1      40.711  32.803  30.968  1.00  0.00     0.031 C 
ATOM     49  C   UNL A   1      46.141  32.183  28.333  1.00  0.00     0.029 A 
ATOM     50  C   UNL A   1      44.847  31.949  28.770  1.00  0.00     0.049 A 
ATOM     51  H   UNL A   1      43.665  30.215  28.554  1.00  0.00     0.167 HD
ATOM     52  C   UNL A   1      42.712  32.519  29.887  1.00  0.00     0.074 A 
ATOM     53  C   UNL A   1      41.857  33.395  30.662  1.00  0.00     0.031 C 
ATOM     54  C   UNL A   1      43.976  32.831  29.504  1.00  0.00     0.034 A 
BRANCH  41  55
ATOM     55  C   UNL A   1      46.900  28.248  26.568  1.00  0.00     0.023 A 
ATOM     56  C   UNL A   1      47.926  27.733  27.386  1.00  0.00     0.012 A 
ATOM     57  C   UNL A   1      47.061  28.232  25.168  1.00  0.00     0.148 A 
ATOM     58  C   UNL A   1      49.104  27.242  26.827  1.00  0.00     0.002 A 
ATOM     59  C   UNL A   1      48.219  27.699  24.615  1.00  0.00     0.091 A 
ATOM     60  F   UNL A   1      46.083  28.743  24.406  1.00  0.00    -0.205 F 
ATOM     61  C   UNL A   1      49.246  27.215  25.442  1.00  0.00     0.022 A 
BRANCH  59  62
ATOM     62  S   UNL A   1      48.466  27.545  22.842  1.00  0.00     0.127 S 
ATOM     63  O   UNL A   1      48.375  26.097  22.655  1.00  0.00    -0.237 OA
ATOM     64  O   UNL A   1      47.333  28.301  22.307  1.00  0.00    -0.237 OA
ATOM     65  O   UNL A   1      49.771  28.129  22.565  1.00  0.00    -0.744 OA
ENDBRANCH  59  62
ENDBRANCH  41  55
BRANCH  42  66
ATOM     66  C   UNL A   1      38.403  30.995  31.019  1.00  0.00     0.023 A 
ATOM     67  C   UNL A   1      38.282  30.724  32.396  1.00  0.00     0.012 A 
ATOM     68  C   UNL A   1      37.351  31.652  30.353  1.00  0.00     0.148 A 
ATOM     69  C   UNL A   1      37.122  31.072  33.090  1.00  0.00     0.002 A 
ATOM     70  C   UNL A   1      36.223  32.047  31.062  1.00  0.00     0.091 A 
ATOM     71  F   UNL A   1      37.481  31.891  29.040  1.00  0.00    -0.205 F 
ATOM     72  C   UNL A   1      36.098  31.742  32.426  1.00  0.00     0.022 A 
BRANCH  70  73
ATOM     73  S   UNL A   1      34.914  33.030  30.322  1.00  0.00     0.127 S 
ATOM     74  O   UNL A   1      34.047  33.287  31.468  1.00  0.00    -0.237 OA
ATOM     75  O   UNL A   1      35.652  34.194  29.833  1.00  0.00    -0.237 OA
ATOM     76  O   UNL A   1      34.342  32.197  29.271  1.00  0.00    -0.744 OA
ENDBRANCH  70  73
ENDBRANCH  42  66
BRANCH  54  77
ATOM     77  C   UNL A   1      44.511  34.185  29.893  1.00  0.00     0.023 A 
ATOM     78  C   UNL A   1      45.257  34.330  31.080  1.00  0.00     0.012 A 
ATOM     79  C   UNL A   1      44.331  35.300  29.051  1.00  0.00     0.148 A 
ATOM     80  C   UNL A   1      45.785  35.570  31.439  1.00  0.00     0.002 A 
ATOM     81  C   UNL A   1      44.904  36.520  29.389  1.00  0.00     0.091 A 
ATOM     82  F   UNL A   1      43.604  35.147  27.934  1.00  0.00    -0.205 F 
ATOM     83  C   UNL A   1      45.619  36.660  30.589  1.00  0.00     0.022 A 
BRANCH  81  84
ATOM     84  S   UNL A   1      44.825  37.956  28.313  1.00  0.00     0.127 S 
ATOM     85  O   UNL A   1      45.609  37.510  27.162  1.00  0.00    -0.237 OA
ATOM     86  O   UNL A   1      43.389  38.076  28.062  1.00  0.00    -0.237 OA
ATOM     87  O   UNL A   1      45.401  39.059  29.070  1.00  0.00    -0.744 OA
ENDBRANCH  81  84
ENDBRANCH  54  77
ENDBRANCH  28  29
ENDBRANCH  20  23
ENDBRANCH  18  19
ENDBRANCH   1  18
TORSDOF 16
ENDMDL
MODEL 2
REMARK VINA RESULT:     -10.8      1.923      2.356
REMARK SMILES O=C(CCNC(=O)C1CCCC1)NCCCNC(=O)c1ccc(-c2c3nc(c(-c4cccc(S(=O)(=O)[O-])c4F)c4ccc([nH]4)c(-c4cccc(S(=O)(=O)[O-])c4F)c4nc(c(-c5cccc(S(=O)(=O)[O-])c5F)c5ccc2[nH]5)C=C4)C=C3)cc1
REMARK SMILES IDX 15 1 14 2 13 3 1 4 2 5 3 7 4 8 5 9 6 10 7 12 8 13 9 14 12 15
REMARK SMILES IDX 10 16 11 17 16 18 17 19 18 20 19 22 20 23 21 24 82 25 22 26
REMARK SMILES IDX 81 27 23 28 24 29 25 30 75 31 26 32 80 33 74 34 76 35 27 36
REMARK SMILES IDX 79 37 73 38 72 39 28 41 60 42 40 43 59 44 41 45 44 46 58 47
REMARK SMILES IDX 77 48 42 49 43 50 57 52 78 53 45 54 29 55 30 56 38 57 31 58
REMARK SMILES IDX 33 59 39 60 32 61 34 62 35 63 36 64 37 65 61 66 62 67 70 68
REMARK SMILES IDX 63 69 65 70 71 71 64 72 66 73 67 74 68 75 69 76 46 77 47 78
REMARK SMILES IDX 55 79 48 80 50 81 56 82 49 83 51 84 52 85 53 86 54 87
REMARK H PARENT 13 6 5 11 17 21 76 40 44 51
REMARK Flexibility Score: inf
ROOT
ATOM      1  C   UNL A   1      42.005  20.402  27.532  1.00  0.00     0.042 C 
ENDROOT
BRANCH   1   2
ATOM      2  C   UNL A   1      41.860  19.585  26.256  1.00  0.00     0.117 C 
BRANCH   2   3
ATOM      3  N   UNL A   1      42.944  19.810  25.322  1.00  0.00    -0.356 N 
ATOM      4  O   UNL A   1      44.242  18.022  25.977  1.00  0.00    -0.275 OA
ATOM      5  C   UNL A   1      44.038  18.979  25.239  1.00  0.00     0.221 C 
ATOM      6  H   UNL A   1      42.898  20.590  24.723  1.00  0.00     0.163 HD
BRANCH   5   7
ATOM      7  C   UNL A   1      44.957  19.308  24.087  1.00  0.00     0.121 C 
BRANCH   7   8
ATOM      8  C   UNL A   1      46.291  19.822  24.622  1.00  0.00     0.125 C 
BRANCH   8   9
ATOM      9  N   UNL A   1      46.561  21.184  24.177  1.00  0.00    -0.355 N 
ATOM     10  C   UNL A   1      46.041  22.382  24.552  1.00  0.00     0.223 C 
ATOM     11  H   UNL A   1      47.247  21.248  23.473  1.00  0.00     0.163 HD
ATOM     12  O   UNL A   1      46.361  23.364  23.877  1.00  0.00    -0.275 OA
BRANCH  10  13
ATOM     13  C   UNL A   1      45.165  22.551  25.784  1.00  0.00     0.078 C 
ATOM     14  C   UNL A   1      45.798  23.234  26.987  1.00  0.00     0.013 C 
ATOM     15  C   UNL A   1      43.893  23.334  25.472  1.00  0.00     0.013 C 
ATOM     16  C   UNL A   1      44.652  23.900  27.735  1.00  0.00     0.001 C 
ATOM     17  C   UNL A   1      43.466  23.977  26.782  1.00  0.00     0.001 C 
ENDBRANCH  10  13
ENDBRANCH   8   9
ENDBRANCH   7   8
ENDBRANCH   5   7
ENDBRANCH   2   3
ENDBRANCH   1   2
BRANCH   1  18
ATOM     18  C   UNL A   1      41.186  21.690  27.567  1.00  0.00     0.118 C 
BRANCH  18  19
ATOM     19  N   UNL A   1      40.026  21.664  26.688  1.00  0.00    -0.352 N 
ATOM     20  C   UNL A   1      39.156  22.674  26.342  1.00  0.00     0.251 C 
ATOM     21  H   UNL A   1      39.834  20.790  26.277  1.00  0.00     0.163 HD
ATOM     22  O   UNL A   1      38.154  22.411  25.688  1.00  0.00    -0.269 OA
BRANCH  20  23
ATOM     23  C   UNL A   1      39.407  24.064  26.787  1.00  0.00     0.039 A 
ATOM     24  C   UNL A   1      39.017  24.433  28.078  1.00  0.00     0.014 A 
ATOM     25  C   UNL A   1      40.025  24.996  25.951  1.00  0.00     0.014 A 
ATOM     26  C   UNL A   1      39.329  25.707  28.560  1.00  0.00     0.010 A 
ATOM     27  C   UNL A   1      40.401  26.240  26.458  1.00  0.00     0.010 A 
ATOM     28  C   UNL A   1      40.070  26.604  27.772  1.00  0.00    -0.014 A 
BRANCH  28  29
ATOM     29  C   UNL A   1      40.553  27.898  28.323  1.00  0.00     0.031 A 
ATOM     30  C   UNL A   1      42.023  28.144  28.532  1.00  0.00     0.074 A 
ATOM     31  C   UNL A   1      39.656  28.817  28.732  1.00  0.00     0.049 A 
ATOM     32  N   UNL A   1      42.616  29.178  29.072  1.00  0.00    -0.248 NA
ATOM     33  C   UNL A   1      42.945  27.082  28.100  1.00  0.00     0.031 C 
ATOM     34  C   UNL A   1      38.201  28.671  28.653  1.00  0.00     0.029 A 
ATOM     35  N   UNL A   1      39.832  30.043  29.326  1.00  0.00    -0.354 N 
ATOM     36  C   UNL A   1      43.973  28.881  29.075  1.00  0.00     0.074 A 
ATOM     37  C   UNL A   1      44.115  27.557  28.507  1.00  0.00     0.031 C 
ATOM     38  C   UNL A   1      37.619  29.761  29.178  1.00  0.00     0.029 A 
ATOM     39  C   UNL A   1      38.654  30.665  29.667  1.00  0.00     0.049 A 
ATOM     40  H   UNL A   1      40.719  30.440  29.492  1.00  0.00     0.167 HD
ATOM     41  C   UNL A   1      45.010  29.647  29.491  1.00  0.00     0.034 A 
ATOM     42  C   UNL A   1      38.426  31.823  30.319  1.00  0.00     0.034 A 
ATOM     43  C   UNL A   1      44.871  30.975  30.028  1.00  0.00     0.049 A 
ATOM     44  C   UNL A   1      39.596  32.660  30.759  1.00  0.00     0.074 A 
ATOM     45  C   UNL A   1      45.869  31.863  30.392  1.00  0.00     0.029 A 
ATOM     46  N   UNL A   1      43.664  31.602  30.295  1.00  0.00    -0.354 N 
ATOM     47  N   UNL A   1      40.879  32.433  30.604  1.00  0.00    -0.248 NA
ATOM     48  C   UNL A   1      39.290  33.928  31.436  1.00  0.00     0.031 C 
ATOM     49  C   UNL A   1      45.264  33.012  30.912  1.00  0.00     0.029 A 
ATOM     50  C   UNL A   1      43.890  32.855  30.840  1.00  0.00     0.049 A 
ATOM     51  H   UNL A   1      42.776  31.213  30.123  1.00  0.00     0.167 HD
ATOM     52  C   UNL A   1      41.529  33.539  31.138  1.00  0.00     0.074 A 
ATOM     53  C   UNL A   1      40.499  34.449  31.595  1.00  0.00     0.031 C 
ATOM     54  C   UNL A   1      42.860  33.773  31.253  1.00  0.00     0.034 A 
BRANCH  41  55
ATOM     55  C   UNL A   1      46.402  29.086  29.343  1.00  0.00     0.023 A 
ATOM     56  C   UNL A   1      46.946  28.291  30.372  1.00  0.00     0.012 A 
ATOM     57  C   UNL A   1      47.143  29.288  28.161  1.00  0.00     0.148 A 
ATOM     58  C   UNL A   1      48.217  27.735  30.245  1.00  0.00     0.002 A 
ATOM     59  C   UNL A   1      48.391  28.691  28.022  1.00  0.00     0.091 A 
ATOM     60  F   UNL A   1      46.617  30.061  27.201  1.00  0.00    -0.205 F 
ATOM     61  C   UNL A   1      48.935  27.926  29.066  1.00  0.00     0.022 A 
BRANCH  59  62
ATOM     62  S   UNL A   1      49.360  28.810  26.515  1.00  0.00     0.127 S 
ATOM     63  O   UNL A   1      50.404  27.815  26.755  1.00  0.00    -0.237 OA
ATOM     64  O   UNL A   1      48.384  28.434  25.491  1.00  0.00    -0.237 OA
ATOM     65  O   UNL A   1      49.819  30.190  26.438  1.00  0.00    -0.744 OA
ENDBRANCH  59  62
ENDBRANCH  41  55
BRANCH  42  66
ATOM     66  C   UNL A   1      37.028  32.282  30.557  1.00  0.00     0.023 A 
ATOM     67  C   UNL A   1      36.456  32.123  31.834  1.00  0.00     0.012 A 
ATOM     68  C   UNL A   1      36.272  32.890  29.537  1.00  0.00     0.148 A 
ATOM     69  C   UNL A   1      35.145  32.533  32.082  1.00  0.00     0.002 A 
ATOM     70  C   UNL A   1      34.988  33.348  29.806  1.00  0.00     0.091 A 
ATOM     71  F   UNL A   1      36.832  33.021  28.325  1.00  0.00    -0.205 F 
ATOM     72  C   UNL A   1      34.415  33.154  31.071  1.00  0.00     0.022 A 
BRANCH  70  73
ATOM     73  S   UNL A   1      34.025  34.275  28.606  1.00  0.00     0.127 S 
ATOM     74  O   UNL A   1      34.872  35.442  28.379  1.00  0.00    -0.237 OA
ATOM     75  O   UNL A   1      33.955  33.336  27.486  1.00  0.00    -0.237 OA
ATOM     76  O   UNL A   1      32.744  34.539  29.248  1.00  0.00    -0.744 OA
ENDBRANCH  70  73
ENDBRANCH  42  66
BRANCH  54  77
ATOM     77  C   UNL A   1      43.288  35.077  31.878  1.00  0.00     0.023 A 
ATOM     78  C   UNL A   1      43.454  35.164  33.275  1.00  0.00     0.012 A 
ATOM     79  C   UNL A   1      43.590  36.195  31.076  1.00  0.00     0.148 A 
ATOM     80  C   UNL A   1      43.879  36.353  33.866  1.00  0.00     0.002 A 
ATOM     81  C   UNL A   1      44.064  37.360  31.667  1.00  0.00     0.091 A 
ATOM     82  F   UNL A   1      43.411  36.099  29.751  1.00  0.00    -0.205 F 
ATOM     83  C   UNL A   1      44.195  37.446  33.063  1.00  0.00     0.022 A 
BRANCH  81  84
ATOM     84  S   UNL A   1      44.586  38.787  30.709  1.00  0.00     0.127 S 
ATOM     85  O   UNL A   1      45.648  38.217  29.880  1.00  0.00    -0.237 OA
ATOM     86  O   UNL A   1      43.366  39.135  29.981  1.00  0.00    -0.237 OA
ATOM     87  O   UNL A   1      45.020  39.786  31.676  1.00  0.00    -0.744 OA
ENDBRANCH  81  84
ENDBRANCH  54  77
ENDBRANCH  28  29
ENDBRANCH  20  23
ENDBRANCH  18  19
ENDBRANCH   1  18
TORSDOF 16
ENDMDL
MODEL 3
REMARK VINA RESULT:     -10.7      5.079     12.384
REMARK SMILES O=C(CCNC(=O)C1CCCC1)NCCCNC(=O)c1ccc(-c2c3nc(c(-c4cccc(S(=O)(=O)[O-])c4F)c4ccc([nH]4)c(-c4cccc(S(=O)(=O)[O-])c4F)c4nc(c(-c5cccc(S(=O)(=O)[O-])c5F)c5ccc2[nH]5)C=C4)C=C3)cc1
REMARK SMILES IDX 15 1 14 2 13 3 1 4 2 5 3 7 4 8 5 9 6 10 7 12 8 13 9 14 12 15
REMARK SMILES IDX 10 16 11 17 16 18 17 19 18 20 19 22 20 23 21 24 82 25 22 26
REMARK SMILES IDX 81 27 23 28 24 29 25 30 75 31 26 32 80 33 74 34 76 35 27 36
REMARK SMILES IDX 79 37 73 38 72 39 28 41 60 42 40 43 59 44 41 45 44 46 58 47
REMARK SMILES IDX 77 48 42 49 43 50 57 52 78 53 45 54 29 55 30 56 38 57 31 58
REMARK SMILES IDX 33 59 39 60 32 61 34 62 35 63 36 64 37 65 61 66 62 67 70 68
REMARK SMILES IDX 63 69 65 70 71 71 64 72 66 73 67 74 68 75 69 76 46 77 47 78
REMARK SMILES IDX 55 79 48 80 50 81 56 82 49 83 51 84 52 85 53 86 54 87
REMARK H PARENT 13 6 5 11 17 21 76 40 44 51
REMARK Flexibility Score: inf
ROOT
ATOM      1  C   UNL A   1      34.323  34.365  28.557  1.00  0.00     0.042 C 
ENDROOT
BRANCH   1   2
ATOM      2  C   UNL A   1      33.260  35.301  29.114  1.00  0.00     0.117 C 
BRANCH   2   3
ATOM      3  N   UNL A   1      33.774  36.179  30.146  1.00  0.00    -0.356 N 
ATOM      4  O   UNL A   1      31.809  36.384  31.331  1.00  0.00    -0.275 OA
ATOM      5  C   UNL A   1      33.003  36.621  31.197  1.00  0.00     0.221 C 
ATOM      6  H   UNL A   1      34.713  36.471  30.093  1.00  0.00     0.163 HD
BRANCH   5   7
ATOM      7  C   UNL A   1      33.787  37.386  32.237  1.00  0.00     0.121 C 
BRANCH   7   8
ATOM      8  C   UNL A   1      34.445  36.409  33.208  1.00  0.00     0.125 C 
BRANCH   8   9
ATOM      9  N   UNL A   1      33.684  35.170  33.323  1.00  0.00    -0.355 N 
ATOM     10  C   UNL A   1      34.050  33.866  33.217  1.00  0.00     0.223 C 
ATOM     11  H   UNL A   1      32.726  35.304  33.512  1.00  0.00     0.163 HD
ATOM     12  O   UNL A   1      33.140  33.031  33.210  1.00  0.00    -0.275 OA
BRANCH  10  13
ATOM     13  C   UNL A   1      35.503  33.418  33.184  1.00  0.00     0.078 C 
ATOM     14  C   UNL A   1      36.238  33.378  34.515  1.00  0.00     0.013 C 
ATOM     15  C   UNL A   1      35.653  32.027  32.575  1.00  0.00     0.013 C 
ATOM     16  C   UNL A   1      37.306  32.304  34.366  1.00  0.00     0.001 C 
ATOM     17  C   UNL A   1      36.930  31.449  33.163  1.00  0.00     0.001 C 
ENDBRANCH  10  13
ENDBRANCH   8   9
ENDBRANCH   7   8
ENDBRANCH   5   7
ENDBRANCH   2   3
ENDBRANCH   1   2
BRANCH   1  18
ATOM     18  C   UNL A   1      34.353  32.976  29.191  1.00  0.00     0.118 C 
BRANCH  18  19
ATOM     19  N   UNL A   1      33.965  31.912  28.276  1.00  0.00    -0.352 N 
ATOM     20  C   UNL A   1      34.663  30.797  27.870  1.00  0.00     0.251 C 
ATOM     21  H   UNL A   1      33.065  32.003  27.888  1.00  0.00     0.163 HD
ATOM     22  O   UNL A   1      34.207  30.089  26.980  1.00  0.00    -0.269 OA
BRANCH  20  23
ATOM     23  C   UNL A   1      35.975  30.472  28.477  1.00  0.00     0.039 A 
ATOM     24  C   UNL A   1      36.002  29.684  29.631  1.00  0.00     0.014 A 
ATOM     25  C   UNL A   1      37.170  30.930  27.916  1.00  0.00     0.014 A 
ATOM     26  C   UNL A   1      37.227  29.279  30.168  1.00  0.00     0.010 A 
ATOM     27  C   UNL A   1      38.389  30.465  28.409  1.00  0.00     0.010 A 
ATOM     28  C   UNL A   1      38.430  29.624  29.531  1.00  0.00    -0.014 A 
BRANCH  28  29
ATOM     29  C   UNL A   1      39.733  29.070  29.990  1.00  0.00     0.031 A 
ATOM     30  C   UNL A   1      40.513  29.744  31.085  1.00  0.00     0.074 A 
ATOM     31  C   UNL A   1      40.261  28.010  29.346  1.00  0.00     0.049 A 
ATOM     32  N   UNL A   1      41.697  29.445  31.556  1.00  0.00    -0.248 NA
ATOM     33  C   UNL A   1      39.895  30.921  31.718  1.00  0.00     0.031 C 
ATOM     34  C   UNL A   1      39.640  27.309  28.220  1.00  0.00     0.029 A 
ATOM     35  N   UNL A   1      41.456  27.355  29.523  1.00  0.00    -0.354 N 
ATOM     36  C   UNL A   1      41.981  30.411  32.514  1.00  0.00     0.074 A 
ATOM     37  C   UNL A   1      40.855  31.321  32.539  1.00  0.00     0.031 C 
ATOM     38  C   UNL A   1      40.456  26.326  27.807  1.00  0.00     0.029 A 
ATOM     39  C   UNL A   1      41.674  26.350  28.609  1.00  0.00     0.049 A 
ATOM     40  H   UNL A   1      42.095  27.583  30.236  1.00  0.00     0.167 HD
ATOM     41  C   UNL A   1      43.067  30.518  33.317  1.00  0.00     0.034 A 
ATOM     42  C   UNL A   1      42.742  25.548  28.421  1.00  0.00     0.034 A 
ATOM     43  C   UNL A   1      44.171  29.595  33.312  1.00  0.00     0.049 A 
ATOM     44  C   UNL A   1      43.930  25.682  29.334  1.00  0.00     0.074 A 
ATOM     45  C   UNL A   1      45.273  29.570  34.150  1.00  0.00     0.029 A 
ATOM     46  N   UNL A   1      44.327  28.546  32.419  1.00  0.00    -0.354 N 
ATOM     47  N   UNL A   1      44.108  26.500  30.344  1.00  0.00    -0.248 NA
ATOM     48  C   UNL A   1      45.052  24.761  29.104  1.00  0.00     0.031 C 
ATOM     49  C   UNL A   1      46.111  28.528  33.741  1.00  0.00     0.029 A 
ATOM     50  C   UNL A   1      45.515  27.881  32.670  1.00  0.00     0.049 A 
ATOM     51  H   UNL A   1      43.686  28.309  31.711  1.00  0.00     0.167 HD
ATOM     52  C   UNL A   1      45.346  26.174  30.885  1.00  0.00     0.074 A 
ATOM     53  C   UNL A   1      45.862  25.065  30.108  1.00  0.00     0.031 C 
ATOM     54  C   UNL A   1      46.003  26.752  31.921  1.00  0.00     0.034 A 
BRANCH  41  55
ATOM     55  C   UNL A   1      43.099  31.656  34.306  1.00  0.00     0.023 A 
ATOM     56  C   UNL A   1      43.677  32.886  33.934  1.00  0.00     0.012 A 
ATOM     57  C   UNL A   1      42.500  31.530  35.576  1.00  0.00     0.148 A 
ATOM     58  C   UNL A   1      43.691  33.962  34.820  1.00  0.00     0.002 A 
ATOM     59  C   UNL A   1      42.476  32.621  36.435  1.00  0.00     0.091 A 
ATOM     60  F   UNL A   1      41.971  30.347  35.918  1.00  0.00    -0.205 F 
ATOM     61  C   UNL A   1      43.081  33.833  36.065  1.00  0.00     0.022 A 
BRANCH  59  62
ATOM     62  S   UNL A   1      41.648  32.583  38.029  1.00  0.00     0.127 S 
ATOM     63  O   UNL A   1      41.835  33.957  38.493  1.00  0.00    -0.237 OA
ATOM     64  O   UNL A   1      40.273  32.249  37.653  1.00  0.00    -0.237 OA
ATOM     65  O   UNL A   1      42.328  31.561  38.813  1.00  0.00    -0.744 OA
ENDBRANCH  59  62
ENDBRANCH  41  55
BRANCH  42  66
ATOM     66  C   UNL A   1      42.719  24.517  27.346  1.00  0.00     0.023 A 
ATOM     67  C   UNL A   1      43.330  24.794  26.107  1.00  0.00     0.012 A 
ATOM     68  C   UNL A   1      42.116  23.261  27.548  1.00  0.00     0.148 A 
ATOM     69  C   UNL A   1      43.313  23.850  25.079  1.00  0.00     0.002 A 
ATOM     70  C   UNL A   1      42.152  22.305  26.540  1.00  0.00     0.091 A 
ATOM     71  F   UNL A   1      41.529  23.021  28.730  1.00  0.00    -0.205 F 
ATOM     72  C   UNL A   1      42.733  22.603  25.299  1.00  0.00     0.022 A 
BRANCH  70  73
ATOM     73  S   UNL A   1      41.549  20.629  26.778  1.00  0.00     0.127 S 
ATOM     74  O   UNL A   1      42.335  20.189  27.928  1.00  0.00    -0.237 OA
ATOM     75  O   UNL A   1      40.130  20.857  27.052  1.00  0.00    -0.237 OA
ATOM     76  O   UNL A   1      41.815  19.932  25.527  1.00  0.00    -0.744 OA
ENDBRANCH  70  73
ENDBRANCH  42  66
BRANCH  54  77
ATOM     77  C   UNL A   1      47.348  26.184  32.299  1.00  0.00     0.023 A 
ATOM     78  C   UNL A   1      47.436  25.200  33.304  1.00  0.00     0.012 A 
ATOM     79  C   UNL A   1      48.514  26.577  31.614  1.00  0.00     0.148 A 
ATOM     80  C   UNL A   1      48.667  24.641  33.645  1.00  0.00     0.002 A 
ATOM     81  C   UNL A   1      49.730  25.979  31.922  1.00  0.00     0.091 A 
ATOM     82  F   UNL A   1      48.414  27.526  30.672  1.00  0.00    -0.205 F 
ATOM     83  C   UNL A   1      49.811  25.022  32.947  1.00  0.00     0.022 A 
BRANCH  81  84
ATOM     84  S   UNL A   1      51.240  26.333  31.016  1.00  0.00     0.127 S 
ATOM     85  O   UNL A   1      50.811  26.130  29.632  1.00  0.00    -0.237 OA
ATOM     86  O   UNL A   1      51.496  27.728  31.375  1.00  0.00    -0.237 OA
ATOM     87  O   UNL A   1      52.235  25.389  31.504  1.00  0.00    -0.744 OA
ENDBRANCH  81  84
ENDBRANCH  54  77
ENDBRANCH  28  29
ENDBRANCH  20  23
ENDBRANCH  18  19
ENDBRANCH   1  18
TORSDOF 16
ENDMDL
