MODEL 1
REMARK VINA RESULT:     -12.4      0.000      0.000
REMARK SMILES CC[NH2+][C@@]1(C(=O)NCCCNC(=O)c2ccc(-c3c4nc(c(-c5cccc(S(=O)(=O)[O-])c5F)c5ccc([nH]5)c(-c5cccc(S(=O)(=O)[O-])c5F)c5nc(c(-c6cccc(S(=O)(=O)[O-])c6F)c6ccc3[nH]6)C=C5)C=C4)cc2)CC[C@H](Oc2ccc3c(c2)OCO3)C1
REMARK SMILES IDX 9 1 8 2 7 3 5 4 6 5 4 7 77 8 90 9 78 10 79 11 3 12 2 15 1 16
REMARK SMILES IDX 80 17 81 18 82 19 86 20 83 21 85 22 84 23 87 24 89 25 88 26
REMARK SMILES IDX 10 27 11 28 12 29 13 31 14 32 15 33 76 34 16 35 75 36 17 37
REMARK SMILES IDX 18 38 19 39 69 40 20 41 74 42 68 43 70 44 21 45 73 46 67 47
REMARK SMILES IDX 66 48 22 50 54 51 34 52 53 53 35 54 38 55 52 56 71 57 36 58
REMARK SMILES IDX 37 59 51 61 72 62 39 63 23 64 24 65 32 66 25 67 27 68 33 69
REMARK SMILES IDX 26 70 28 71 29 72 30 73 31 74 55 75 56 76 64 77 57 78 59 79
REMARK SMILES IDX 65 80 58 81 60 82 61 83 62 84 63 85 40 86 41 87 49 88 42 89
REMARK SMILES IDX 44 90 50 91 43 92 45 93 46 94 47 95 48 96
REMARK H PARENT 7 6 3 13 3 14 11 30 70 49 38 60
REMARK Flexibility Score: inf
ROOT
ATOM      1  C   UNL A   1      31.371  31.728  26.468  1.00  0.00     0.042 C 
ENDROOT
BRANCH   1   2
ATOM      2  C   UNL A   1      31.543  30.442  25.679  1.00  0.00     0.118 C 
BRANCH   2   3
ATOM      3  N   UNL A   1      31.665  29.293  26.544  1.00  0.00    -0.351 N 
ATOM      4  C   UNL A   1      31.621  27.955  26.326  1.00  0.00     0.281 C 
ATOM      5  O   UNL A   1      31.487  27.300  27.371  1.00  0.00    -0.268 OA
ATOM      6  H   UNL A   1      31.810  29.530  27.488  1.00  0.00     0.163 HD
BRANCH   4   7
ATOM      7  C   UNL A   1      31.716  27.235  24.908  1.00  0.00     0.179 C 
ATOM      8  C   UNL A   1      32.500  27.933  23.789  1.00  0.00     0.083 C 
ATOM      9  C   UNL A   1      30.304  27.017  24.337  1.00  0.00     0.124 C 
ATOM     10  C   UNL A   1      31.498  28.503  22.789  1.00  0.00     0.052 C 
ATOM     11  C   UNL A   1      30.173  27.784  23.009  1.00  0.00     0.180 C 
BRANCH   7  12
ATOM     12  N   UNL A   1      32.321  25.885  25.145  1.00  0.00    -0.334 N 
ATOM     13  H   UNL A   1      32.894  25.937  25.987  1.00  0.00     0.347 HD
ATOM     14  H   UNL A   1      31.540  25.232  25.228  1.00  0.00     0.347 HD
BRANCH  12  15
ATOM     15  C   UNL A   1      33.158  25.386  24.054  1.00  0.00     0.257 C 
ATOM     16  C   UNL A   1      34.442  24.808  24.628  1.00  0.00     0.071 C 
ENDBRANCH  12  15
ENDBRANCH   7  12
BRANCH  11  17
ATOM     17  O   UNL A   1      28.964  28.520  23.147  1.00  0.00    -0.490 OA
BRANCH  17  18
ATOM     18  C   UNL A   1      28.755  29.822  22.854  1.00  0.00     0.123 A 
ATOM     19  C   UNL A   1      28.938  30.925  23.698  1.00  0.00     0.050 A 
ATOM     20  C   UNL A   1      28.301  30.013  21.542  1.00  0.00     0.097 A 
ATOM     21  C   UNL A   1      28.588  32.214  23.267  1.00  0.00     0.054 A 
ATOM     22  C   UNL A   1      27.971  31.285  21.142  1.00  0.00     0.169 A 
ATOM     23  C   UNL A   1      28.110  32.360  21.983  1.00  0.00     0.166 A 
ATOM     24  O   UNL A   1      27.470  31.635  19.932  1.00  0.00    -0.453 OA
ATOM     25  O   UNL A   1      27.747  33.528  21.386  1.00  0.00    -0.454 OA
ATOM     26  C   UNL A   1      27.553  33.069  20.032  1.00  0.00     0.468 C 
ENDBRANCH  17  18
ENDBRANCH  11  17
ENDBRANCH   4   7
ENDBRANCH   2   3
ENDBRANCH   1   2
BRANCH   1  27
ATOM     27  C   UNL A   1      32.663  32.268  27.059  1.00  0.00     0.118 C 
BRANCH  27  28
ATOM     28  N   UNL A   1      32.494  33.612  27.609  1.00  0.00    -0.352 N 
ATOM     29  C   UNL A   1      33.149  34.281  28.620  1.00  0.00     0.251 C 
ATOM     30  H   UNL A   1      31.783  34.136  27.176  1.00  0.00     0.163 HD
ATOM     31  O   UNL A   1      32.673  35.341  29.020  1.00  0.00    -0.269 OA
BRANCH  29  32
ATOM     32  C   UNL A   1      34.386  33.750  29.249  1.00  0.00     0.039 A 
ATOM     33  C   UNL A   1      35.630  34.267  28.855  1.00  0.00     0.014 A 
ATOM     34  C   UNL A   1      34.356  32.724  30.190  1.00  0.00     0.014 A 
ATOM     35  C   UNL A   1      36.810  33.842  29.482  1.00  0.00     0.010 A 
ATOM     36  C   UNL A   1      35.509  32.374  30.886  1.00  0.00     0.010 A 
ATOM     37  C   UNL A   1      36.750  32.924  30.536  1.00  0.00    -0.014 A 
BRANCH  37  38
ATOM     38  C   UNL A   1      37.957  32.413  31.234  1.00  0.00     0.031 A 
ATOM     39  C   UNL A   1      38.689  31.251  30.628  1.00  0.00     0.074 A 
ATOM     40  C   UNL A   1      38.307  32.871  32.451  1.00  0.00     0.049 A 
ATOM     41  N   UNL A   1      39.643  30.520  31.136  1.00  0.00    -0.248 NA
ATOM     42  C   UNL A   1      38.255  30.832  29.283  1.00  0.00     0.031 C 
ATOM     43  C   UNL A   1      37.635  33.951  33.168  1.00  0.00     0.029 A 
ATOM     44  N   UNL A   1      39.279  32.452  33.326  1.00  0.00    -0.354 N 
ATOM     45  C   UNL A   1      39.890  29.527  30.199  1.00  0.00     0.074 A 
ATOM     46  C   UNL A   1      38.964  29.728  29.107  1.00  0.00     0.031 C 
ATOM     47  C   UNL A   1      38.198  34.103  34.378  1.00  0.00     0.029 A 
ATOM     48  C   UNL A   1      39.247  33.102  34.541  1.00  0.00     0.049 A 
ATOM     49  H   UNL A   1      39.938  31.754  33.105  1.00  0.00     0.167 HD
ATOM     50  C   UNL A   1      40.819  28.545  30.233  1.00  0.00     0.034 A 
ATOM     51  C   UNL A   1      39.964  32.895  35.665  1.00  0.00     0.034 A 
ATOM     52  C   UNL A   1      41.750  28.364  31.310  1.00  0.00     0.049 A 
ATOM     53  C   UNL A   1      41.002  31.801  35.672  1.00  0.00     0.074 A 
ATOM     54  C   UNL A   1      42.779  27.446  31.410  1.00  0.00     0.029 A 
ATOM     55  N   UNL A   1      41.758  29.106  32.480  1.00  0.00    -0.354 N 
ATOM     56  N   UNL A   1      41.320  30.959  34.721  1.00  0.00    -0.248 NA
ATOM     57  C   UNL A   1      41.805  31.651  36.896  1.00  0.00     0.031 C 
ATOM     58  C   UNL A   1      43.389  27.612  32.657  1.00  0.00     0.029 A 
ATOM     59  C   UNL A   1      42.770  28.666  33.311  1.00  0.00     0.049 A 
ATOM     60  H   UNL A   1      41.134  29.840  32.688  1.00  0.00     0.167 HD
ATOM     61  C   UNL A   1      42.393  30.219  35.206  1.00  0.00     0.074 A 
ATOM     62  C   UNL A   1      42.673  30.713  36.538  1.00  0.00     0.031 C 
ATOM     63  C   UNL A   1      43.082  29.219  34.605  1.00  0.00     0.034 A 
BRANCH  50  64
ATOM     64  C   UNL A   1      40.886  27.616  29.052  1.00  0.00     0.023 A 
ATOM     65  C   UNL A   1      40.031  26.497  28.994  1.00  0.00     0.012 A 
ATOM     66  C   UNL A   1      41.778  27.863  27.992  1.00  0.00     0.148 A 
ATOM     67  C   UNL A   1      40.094  25.610  27.921  1.00  0.00     0.002 A 
ATOM     68  C   UNL A   1      41.798  27.004  26.901  1.00  0.00     0.091 A 
ATOM     69  F   UNL A   1      42.599  28.919  28.078  1.00  0.00    -0.205 F 
ATOM     70  C   UNL A   1      40.970  25.870  26.871  1.00  0.00     0.022 A 
BRANCH  68  71
ATOM     71  S   UNL A   1      42.830  27.293  25.460  1.00  0.00     0.127 S 
ATOM     72  O   UNL A   1      42.162  28.438  24.845  1.00  0.00    -0.237 OA
ATOM     73  O   UNL A   1      44.125  27.595  26.069  1.00  0.00    -0.237 OA
ATOM     74  O   UNL A   1      42.794  26.060  24.684  1.00  0.00    -0.744 OA
ENDBRANCH  68  71
ENDBRANCH  50  64
BRANCH  51  75
ATOM     75  C   UNL A   1      39.772  33.766  36.861  1.00  0.00     0.023 A 
ATOM     76  C   UNL A   1      40.283  35.080  36.842  1.00  0.00     0.012 A 
ATOM     77  C   UNL A   1      39.101  33.310  38.012  1.00  0.00     0.148 A 
ATOM     78  C   UNL A   1      40.170  35.907  37.960  1.00  0.00     0.002 A 
ATOM     79  C   UNL A   1      38.945  34.157  39.104  1.00  0.00     0.091 A 
ATOM     80  F   UNL A   1      38.626  32.057  38.015  1.00  0.00    -0.205 F 
ATOM     81  C   UNL A   1      39.496  35.449  39.088  1.00  0.00     0.022 A 
BRANCH  79  82
ATOM     82  S   UNL A   1      38.000  33.703  40.562  1.00  0.00     0.127 S 
ATOM     83  O   UNL A   1      37.940  34.967  41.287  1.00  0.00    -0.237 OA
ATOM     84  O   UNL A   1      36.733  33.267  39.974  1.00  0.00    -0.237 OA
ATOM     85  O   UNL A   1      38.762  32.640  41.210  1.00  0.00    -0.744 OA
ENDBRANCH  79  82
ENDBRANCH  51  75
BRANCH  63  86
ATOM     86  C   UNL A   1      44.266  28.636  35.328  1.00  0.00     0.023 A 
ATOM     87  C   UNL A   1      45.560  29.143  35.103  1.00  0.00     0.012 A 
ATOM     88  C   UNL A   1      44.067  27.658  36.323  1.00  0.00     0.148 A 
ATOM     89  C   UNL A   1      46.642  28.670  35.846  1.00  0.00     0.002 A 
ATOM     90  C   UNL A   1      45.139  27.232  37.095  1.00  0.00     0.091 A 
ATOM     91  F   UNL A   1      42.829  27.176  36.506  1.00  0.00    -0.205 F 
ATOM     92  C   UNL A   1      46.429  27.727  36.850  1.00  0.00     0.022 A 
BRANCH  90  93
ATOM     93  S   UNL A   1      44.940  26.106  38.481  1.00  0.00     0.127 S 
ATOM     94  O   UNL A   1      46.215  26.265  39.178  1.00  0.00    -0.237 OA
ATOM     95  O   UNL A   1      43.788  26.676  39.178  1.00  0.00    -0.237 OA
ATOM     96  O   UNL A   1      44.709  24.789  37.903  1.00  0.00    -0.744 OA
ENDBRANCH  90  93
ENDBRANCH  63  86
ENDBRANCH  37  38
ENDBRANCH  29  32
ENDBRANCH  27  28
ENDBRANCH   1  27
TORSDOF 17
ENDMDL
MODEL 2
REMARK VINA RESULT:     -12.2      6.598     12.798
REMARK SMILES CC[NH2+][C@@]1(C(=O)NCCCNC(=O)c2ccc(-c3c4nc(c(-c5cccc(S(=O)(=O)[O-])c5F)c5ccc([nH]5)c(-c5cccc(S(=O)(=O)[O-])c5F)c5nc(c(-c6cccc(S(=O)(=O)[O-])c6F)c6ccc3[nH]6)C=C5)C=C4)cc2)CC[C@H](Oc2ccc3c(c2)OCO3)C1
REMARK SMILES IDX 9 1 8 2 7 3 5 4 6 5 4 7 77 8 90 9 78 10 79 11 3 12 2 15 1 16
REMARK SMILES IDX 80 17 81 18 82 19 86 20 83 21 85 22 84 23 87 24 89 25 88 26
REMARK SMILES IDX 10 27 11 28 12 29 13 31 14 32 15 33 76 34 16 35 75 36 17 37
REMARK SMILES IDX 18 38 19 39 69 40 20 41 74 42 68 43 70 44 21 45 73 46 67 47
REMARK SMILES IDX 66 48 22 50 54 51 34 52 53 53 35 54 38 55 52 56 71 57 36 58
REMARK SMILES IDX 37 59 51 61 72 62 39 63 23 64 24 65 32 66 25 67 27 68 33 69
REMARK SMILES IDX 26 70 28 71 29 72 30 73 31 74 55 75 56 76 64 77 57 78 59 79
REMARK SMILES IDX 65 80 58 81 60 82 61 83 62 84 63 85 40 86 41 87 49 88 42 89
REMARK SMILES IDX 44 90 50 91 43 92 45 93 46 94 47 95 48 96
REMARK H PARENT 7 6 3 13 3 14 11 30 70 49 38 60
REMARK Flexibility Score: inf
ROOT
ATOM      1  C   UNL A   1      38.200  19.888  24.891  1.00  0.00     0.042 C 
ENDROOT
BRANCH   1   2
ATOM      2  C   UNL A   1      36.886  20.628  25.068  1.00  0.00     0.118 C 
BRANCH   2   3
ATOM      3  N   UNL A   1      36.776  21.750  24.167  1.00  0.00    -0.351 N 
ATOM      4  C   UNL A   1      35.792  22.650  23.917  1.00  0.00     0.281 C 
ATOM      5  O   UNL A   1      35.978  23.289  22.869  1.00  0.00    -0.268 OA
ATOM      6  H   UNL A   1      37.582  21.891  23.620  1.00  0.00     0.163 HD
BRANCH   4   7
ATOM      7  C   UNL A   1      34.507  22.906  24.822  1.00  0.00     0.179 C 
ATOM      8  C   UNL A   1      34.527  22.407  26.273  1.00  0.00     0.083 C 
ATOM      9  C   UNL A   1      33.276  22.239  24.183  1.00  0.00     0.124 C 
ATOM     10  C   UNL A   1      33.637  21.170  26.364  1.00  0.00     0.052 C 
ATOM     11  C   UNL A   1      32.719  21.176  25.148  1.00  0.00     0.180 C 
BRANCH   7  12
ATOM     12  N   UNL A   1      34.266  24.385  24.828  1.00  0.00    -0.334 N 
ATOM     13  H   UNL A   1      35.168  24.853  24.908  1.00  0.00     0.347 HD
ATOM     14  H   UNL A   1      33.775  24.599  23.960  1.00  0.00     0.347 HD
BRANCH  12  15
ATOM     15  C   UNL A   1      33.408  24.863  25.912  1.00  0.00     0.257 C 
ATOM     16  C   UNL A   1      33.425  26.384  25.935  1.00  0.00     0.071 C 
ENDBRANCH  12  15
ENDBRANCH   7  12
BRANCH  11  17
ATOM     17  O   UNL A   1      32.576  20.013  24.344  1.00  0.00    -0.490 OA
BRANCH  17  18
ATOM     18  C   UNL A   1      33.138  18.800  24.542  1.00  0.00     0.123 A 
ATOM     19  C   UNL A   1      34.468  18.429  24.304  1.00  0.00     0.050 A 
ATOM     20  C   UNL A   1      32.228  17.859  25.039  1.00  0.00     0.097 A 
ATOM     21  C   UNL A   1      34.875  17.097  24.479  1.00  0.00     0.054 A 
ATOM     22  C   UNL A   1      32.652  16.564  25.208  1.00  0.00     0.169 A 
ATOM     23  C   UNL A   1      33.943  16.190  24.934  1.00  0.00     0.166 A 
ATOM     24  O   UNL A   1      31.890  15.523  25.627  1.00  0.00    -0.453 OA
ATOM     25  O   UNL A   1      34.160  14.871  25.187  1.00  0.00    -0.454 OA
ATOM     26  C   UNL A   1      32.911  14.527  25.822  1.00  0.00     0.468 C 
ENDBRANCH  17  18
ENDBRANCH  11  17
ENDBRANCH   4   7
ENDBRANCH   2   3
ENDBRANCH   1   2
BRANCH   1  27
ATOM     27  C   UNL A   1      39.225  20.180  25.973  1.00  0.00     0.118 C 
BRANCH  27  28
ATOM     28  N   UNL A   1      40.315  19.205  25.973  1.00  0.00    -0.352 N 
ATOM     29  C   UNL A   1      41.682  19.354  26.054  1.00  0.00     0.251 C 
ATOM     30  H   UNL A   1      40.016  18.270  25.904  1.00  0.00     0.163 HD
ATOM     31  O   UNL A   1      42.389  18.374  25.827  1.00  0.00    -0.269 OA
BRANCH  29  32
ATOM     32  C   UNL A   1      42.319  20.657  26.377  1.00  0.00     0.039 A 
ATOM     33  C   UNL A   1      42.780  21.471  25.331  1.00  0.00     0.014 A 
ATOM     34  C   UNL A   1      42.515  21.080  27.689  1.00  0.00     0.014 A 
ATOM     35  C   UNL A   1      43.319  22.738  25.598  1.00  0.00     0.010 A 
ATOM     36  C   UNL A   1      42.951  22.374  27.953  1.00  0.00     0.010 A 
ATOM     37  C   UNL A   1      43.364  23.216  26.912  1.00  0.00    -0.014 A 
BRANCH  37  38
ATOM     38  C   UNL A   1      43.937  24.537  27.273  1.00  0.00     0.031 A 
ATOM     39  C   UNL A   1      43.009  25.598  27.789  1.00  0.00     0.074 A 
ATOM     40  C   UNL A   1      45.224  24.836  27.008  1.00  0.00     0.049 A 
ATOM     41  N   UNL A   1      43.235  26.867  27.991  1.00  0.00    -0.248 NA
ATOM     42  C   UNL A   1      41.626  25.176  28.074  1.00  0.00     0.031 C 
ATOM     43  C   UNL A   1      46.205  23.910  26.450  1.00  0.00     0.029 A 
ATOM     44  N   UNL A   1      45.916  26.017  27.122  1.00  0.00    -0.354 N 
ATOM     45  C   UNL A   1      42.017  27.405  28.377  1.00  0.00     0.074 A 
ATOM     46  C   UNL A   1      41.046  26.333  28.350  1.00  0.00     0.031 C 
ATOM     47  C   UNL A   1      47.366  24.555  26.252  1.00  0.00     0.029 A 
ATOM     48  C   UNL A   1      47.202  25.954  26.631  1.00  0.00     0.049 A 
ATOM     49  H   UNL A   1      45.529  26.832  27.518  1.00  0.00     0.167 HD
ATOM     50  C   UNL A   1      41.732  28.675  28.745  1.00  0.00     0.034 A 
ATOM     51  C   UNL A   1      48.130  26.920  26.480  1.00  0.00     0.034 A 
ATOM     52  C   UNL A   1      42.704  29.730  28.791  1.00  0.00     0.049 A 
ATOM     53  C   UNL A   1      47.792  28.326  26.908  1.00  0.00     0.074 A 
ATOM     54  C   UNL A   1      42.536  31.034  29.218  1.00  0.00     0.029 A 
ATOM     55  N   UNL A   1      44.023  29.605  28.386  1.00  0.00    -0.354 N 
ATOM     56  N   UNL A   1      46.673  28.790  27.406  1.00  0.00    -0.248 NA
ATOM     57  C   UNL A   1      48.855  29.336  26.785  1.00  0.00     0.031 C 
ATOM     58  C   UNL A   1      43.748  31.708  29.040  1.00  0.00     0.029 A 
ATOM     59  C   UNL A   1      44.682  30.810  28.547  1.00  0.00     0.049 A 
ATOM     60  H   UNL A   1      44.432  28.780  28.035  1.00  0.00     0.167 HD
ATOM     61  C   UNL A   1      46.912  30.126  27.710  1.00  0.00     0.074 A 
ATOM     62  C   UNL A   1      48.285  30.398  27.339  1.00  0.00     0.031 C 
ATOM     63  C   UNL A   1      46.070  31.044  28.242  1.00  0.00     0.034 A 
BRANCH  50  64
ATOM     64  C   UNL A   1      40.316  28.975  29.152  1.00  0.00     0.023 A 
ATOM     65  C   UNL A   1      39.372  29.350  28.174  1.00  0.00     0.012 A 
ATOM     66  C   UNL A   1      39.914  28.866  30.496  1.00  0.00     0.148 A 
ATOM     67  C   UNL A   1      38.061  29.657  28.532  1.00  0.00     0.002 A 
ATOM     68  C   UNL A   1      38.593  29.123  30.839  1.00  0.00     0.091 A 
ATOM     69  F   UNL A   1      40.833  28.533  31.414  1.00  0.00    -0.205 F 
ATOM     70  C   UNL A   1      37.670  29.533  29.864  1.00  0.00     0.022 A 
BRANCH  68  71
ATOM     71  S   UNL A   1      37.969  28.913  32.509  1.00  0.00     0.127 S 
ATOM     72  O   UNL A   1      38.848  29.801  33.266  1.00  0.00    -0.237 OA
ATOM     73  O   UNL A   1      36.589  29.383  32.380  1.00  0.00    -0.237 OA
ATOM     74  O   UNL A   1      38.103  27.494  32.815  1.00  0.00    -0.744 OA
ENDBRANCH  68  71
ENDBRANCH  50  64
BRANCH  51  75
ATOM     75  C   UNL A   1      49.487  26.595  25.950  1.00  0.00     0.023 A 
ATOM     76  C   UNL A   1      50.375  25.848  26.750  1.00  0.00     0.012 A 
ATOM     77  C   UNL A   1      49.909  27.022  24.676  1.00  0.00     0.148 A 
ATOM     78  C   UNL A   1      51.670  25.569  26.312  1.00  0.00     0.002 A 
ATOM     79  C   UNL A   1      51.183  26.695  24.223  1.00  0.00     0.091 A 
ATOM     80  F   UNL A   1      49.054  27.735  23.931  1.00  0.00    -0.205 F 
ATOM     81  C   UNL A   1      52.072  25.986  25.047  1.00  0.00     0.022 A 
BRANCH  79  82
ATOM     82  S   UNL A   1      51.759  27.091  22.568  1.00  0.00     0.127 S 
ATOM     83  O   UNL A   1      52.919  26.217  22.437  1.00  0.00    -0.237 OA
ATOM     84  O   UNL A   1      50.606  26.713  21.751  1.00  0.00    -0.237 OA
ATOM     85  O   UNL A   1      52.045  28.522  22.583  1.00  0.00    -0.744 OA
ENDBRANCH  79  82
ENDBRANCH  51  75
BRANCH  63  86
ATOM     86  C   UNL A   1      46.614  32.414  28.548  1.00  0.00     0.023 A 
ATOM     87  C   UNL A   1      47.185  32.691  29.805  1.00  0.00     0.012 A 
ATOM     88  C   UNL A   1      46.659  33.392  27.534  1.00  0.00     0.148 A 
ATOM     89  C   UNL A   1      47.777  33.929  30.053  1.00  0.00     0.002 A 
ATOM     90  C   UNL A   1      47.298  34.602  27.772  1.00  0.00     0.091 A 
ATOM     91  F   UNL A   1      46.091  33.113  26.352  1.00  0.00    -0.205 F 
ATOM     92  C   UNL A   1      47.847  34.877  29.033  1.00  0.00     0.022 A 
BRANCH  90  93
ATOM     93  S   UNL A   1      47.532  35.834  26.486  1.00  0.00     0.127 S 
ATOM     94  O   UNL A   1      46.156  36.246  26.214  1.00  0.00    -0.237 OA
ATOM     95  O   UNL A   1      48.347  36.839  27.168  1.00  0.00    -0.237 OA
ATOM     96  O   UNL A   1      48.204  35.152  25.388  1.00  0.00    -0.744 OA
ENDBRANCH  90  93
ENDBRANCH  63  86
ENDBRANCH  37  38
ENDBRANCH  29  32
ENDBRANCH  27  28
ENDBRANCH   1  27
TORSDOF 17
ENDMDL
MODEL 3
REMARK VINA RESULT:     -12.0      5.948     11.081
REMARK SMILES CC[NH2+][C@@]1(C(=O)NCCCNC(=O)c2ccc(-c3c4nc(c(-c5cccc(S(=O)(=O)[O-])c5F)c5ccc([nH]5)c(-c5cccc(S(=O)(=O)[O-])c5F)c5nc(c(-c6cccc(S(=O)(=O)[O-])c6F)c6ccc3[nH]6)C=C5)C=C4)cc2)CC[C@H](Oc2ccc3c(c2)OCO3)C1
REMARK SMILES IDX 9 1 8 2 7 3 5 4 6 5 4 7 77 8 90 9 78 10 79 11 3 12 2 15 1 16
REMARK SMILES IDX 80 17 81 18 82 19 86 20 83 21 85 22 84 23 87 24 89 25 88 26
REMARK SMILES IDX 10 27 11 28 12 29 13 31 14 32 15 33 76 34 16 35 75 36 17 37
REMARK SMILES IDX 18 38 19 39 69 40 20 41 74 42 68 43 70 44 21 45 73 46 67 47
REMARK SMILES IDX 66 48 22 50 54 51 34 52 53 53 35 54 38 55 52 56 71 57 36 58
REMARK SMILES IDX 37 59 51 61 72 62 39 63 23 64 24 65 32 66 25 67 27 68 33 69
REMARK SMILES IDX 26 70 28 71 29 72 30 73 31 74 55 75 56 76 64 77 57 78 59 79
REMARK SMILES IDX 65 80 58 81 60 82 61 83 62 84 63 85 40 86 41 87 49 88 42 89
REMARK SMILES IDX 44 90 50 91 43 92 45 93 46 94 47 95 48 96
REMARK H PARENT 7 6 3 13 3 14 11 30 70 49 38 60
REMARK Flexibility Score: inf
ROOT
ATOM      1  C   UNL A   1      35.454  23.036  24.613  1.00  0.00     0.042 C 
ENDROOT
BRANCH   1   2
ATOM      2  C   UNL A   1      34.610  24.288  24.773  1.00  0.00     0.118 C 
BRANCH   2   3
ATOM      3  N   UNL A   1      34.471  25.004  23.527  1.00  0.00    -0.351 N 
ATOM      4  C   UNL A   1      33.604  25.951  23.090  1.00  0.00     0.281 C 
ATOM      5  O   UNL A   1      33.643  26.110  21.859  1.00  0.00    -0.268 OA
ATOM      6  H   UNL A   1      35.145  24.753  22.856  1.00  0.00     0.163 HD
BRANCH   4   7
ATOM      7  C   UNL A   1      32.608  26.799  23.999  1.00  0.00     0.179 C 
ATOM      8  C   UNL A   1      32.957  26.986  25.482  1.00  0.00     0.083 C 
ATOM      9  C   UNL A   1      31.213  26.151  23.991  1.00  0.00     0.124 C 
ATOM     10  C   UNL A   1      32.034  26.092  26.305  1.00  0.00     0.052 C 
ATOM     11  C   UNL A   1      30.843  25.732  25.426  1.00  0.00     0.180 C 
BRANCH   7  12
ATOM     12  N   UNL A   1      32.482  28.150  23.364  1.00  0.00    -0.334 N 
ATOM     13  H   UNL A   1      33.182  28.764  23.781  1.00  0.00     0.347 HD
ATOM     14  H   UNL A   1      32.614  28.010  22.362  1.00  0.00     0.347 HD
BRANCH  12  15
ATOM     15  C   UNL A   1      31.172  28.782  23.519  1.00  0.00     0.257 C 
ATOM     16  C   UNL A   1      30.693  29.289  22.168  1.00  0.00     0.071 C 
ENDBRANCH  12  15
ENDBRANCH   7  12
BRANCH  11  17
ATOM     17  O   UNL A   1      30.420  24.381  25.299  1.00  0.00    -0.490 OA
BRANCH  17  18
ATOM     18  C   UNL A   1      31.097  23.355  24.737  1.00  0.00     0.123 A 
ATOM     19  C   UNL A   1      31.289  23.106  23.372  1.00  0.00     0.050 A 
ATOM     20  C   UNL A   1      31.637  22.481  25.689  1.00  0.00     0.097 A 
ATOM     21  C   UNL A   1      31.945  21.941  22.948  1.00  0.00     0.054 A 
ATOM     22  C   UNL A   1      32.281  21.350  25.249  1.00  0.00     0.169 A 
ATOM     23  C   UNL A   1      32.431  21.085  23.912  1.00  0.00     0.166 A 
ATOM     24  O   UNL A   1      32.813  20.379  26.032  1.00  0.00    -0.453 OA
ATOM     25  O   UNL A   1      33.113  19.928  23.692  1.00  0.00    -0.454 OA
ATOM     26  C   UNL A   1      33.525  19.618  25.039  1.00  0.00     0.468 C 
ENDBRANCH  17  18
ENDBRANCH  11  17
ENDBRANCH   4   7
ENDBRANCH   2   3
ENDBRANCH   1   2
BRANCH   1  27
ATOM     27  C   UNL A   1      35.873  22.401  25.928  1.00  0.00     0.118 C 
BRANCH  27  28
ATOM     28  N   UNL A   1      36.843  21.325  25.732  1.00  0.00    -0.352 N 
ATOM     29  C   UNL A   1      38.219  21.303  25.803  1.00  0.00     0.251 C 
ATOM     30  H   UNL A   1      36.438  20.456  25.510  1.00  0.00     0.163 HD
ATOM     31  O   UNL A   1      38.807  20.303  25.393  1.00  0.00    -0.269 OA
BRANCH  29  32
ATOM     32  C   UNL A   1      39.004  22.449  26.330  1.00  0.00     0.039 A 
ATOM     33  C   UNL A   1      40.079  22.199  27.197  1.00  0.00     0.014 A 
ATOM     34  C   UNL A   1      38.682  23.769  26.026  1.00  0.00     0.014 A 
ATOM     35  C   UNL A   1      40.886  23.253  27.653  1.00  0.00     0.010 A 
ATOM     36  C   UNL A   1      39.538  24.803  26.390  1.00  0.00     0.010 A 
ATOM     37  C   UNL A   1      40.646  24.558  27.212  1.00  0.00    -0.014 A 
BRANCH  37  38
ATOM     38  C   UNL A   1      41.445  25.724  27.667  1.00  0.00     0.031 A 
ATOM     39  C   UNL A   1      40.754  26.789  28.469  1.00  0.00     0.074 A 
ATOM     40  C   UNL A   1      42.713  25.907  27.252  1.00  0.00     0.049 A 
ATOM     41  N   UNL A   1      41.184  27.972  28.814  1.00  0.00    -0.248 NA
ATOM     42  C   UNL A   1      39.376  26.494  28.901  1.00  0.00     0.031 C 
ATOM     43  C   UNL A   1      43.468  24.975  26.420  1.00  0.00     0.029 A 
ATOM     44  N   UNL A   1      43.575  26.963  27.425  1.00  0.00    -0.354 N 
ATOM     45  C   UNL A   1      40.117  28.581  29.459  1.00  0.00     0.074 A 
ATOM     46  C   UNL A   1      39.010  27.651  29.428  1.00  0.00     0.031 C 
ATOM     47  C   UNL A   1      44.672  25.501  26.138  1.00  0.00     0.029 A 
ATOM     48  C   UNL A   1      44.760  26.828  26.737  1.00  0.00     0.049 A 
ATOM     49  H   UNL A   1      43.364  27.742  27.990  1.00  0.00     0.167 HD
ATOM     50  C   UNL A   1      40.067  29.799  30.046  1.00  0.00     0.034 A 
ATOM     51  C   UNL A   1      45.787  27.689  26.584  1.00  0.00     0.034 A 
ATOM     52  C   UNL A   1      41.177  30.708  30.093  1.00  0.00     0.049 A 
ATOM     53  C   UNL A   1      45.713  29.036  27.258  1.00  0.00     0.074 A 
ATOM     54  C   UNL A   1      41.254  31.936  30.724  1.00  0.00     0.029 A 
ATOM     55  N   UNL A   1      42.398  30.495  29.473  1.00  0.00    -0.354 N 
ATOM     56  N   UNL A   1      44.748  29.542  27.986  1.00  0.00    -0.248 NA
ATOM     57  C   UNL A   1      46.882  29.919  27.119  1.00  0.00     0.031 C 
ATOM     58  C   UNL A   1      42.514  32.481  30.459  1.00  0.00     0.029 A 
ATOM     59  C   UNL A   1      43.236  31.571  29.703  1.00  0.00     0.049 A 
ATOM     60  H   UNL A   1      42.634  29.696  28.948  1.00  0.00     0.167 HD
ATOM     61  C   UNL A   1      45.213  30.772  28.438  1.00  0.00     0.074 A 
ATOM     62  C   UNL A   1      46.548  30.936  27.902  1.00  0.00     0.031 C 
ATOM     63  C   UNL A   1      44.589  31.685  29.223  1.00  0.00     0.034 A 
BRANCH  50  64
ATOM     64  C   UNL A   1      38.776  30.195  30.707  1.00  0.00     0.023 A 
ATOM     65  C   UNL A   1      38.539  29.834  32.049  1.00  0.00     0.012 A 
ATOM     66  C   UNL A   1      37.808  30.940  30.008  1.00  0.00     0.148 A 
ATOM     67  C   UNL A   1      37.339  30.169  32.673  1.00  0.00     0.002 A 
ATOM     68  C   UNL A   1      36.636  31.316  30.653  1.00  0.00     0.091 A 
ATOM     69  F   UNL A   1      38.042  31.251  28.725  1.00  0.00    -0.205 F 
ATOM     70  C   UNL A   1      36.393  30.919  31.978  1.00  0.00     0.022 A 
BRANCH  68  71
ATOM     71  S   UNL A   1      35.392  32.349  29.875  1.00  0.00     0.127 S 
ATOM     72  O   UNL A   1      34.931  31.488  28.788  1.00  0.00    -0.237 OA
ATOM     73  O   UNL A   1      34.428  32.534  30.959  1.00  0.00    -0.237 OA
ATOM     74  O   UNL A   1      36.080  33.564  29.457  1.00  0.00    -0.744 OA
ENDBRANCH  68  71
ENDBRANCH  50  64
BRANCH  51  75
ATOM     75  C   UNL A   1      47.000  27.296  25.809  1.00  0.00     0.023 A 
ATOM     76  C   UNL A   1      48.011  26.550  26.448  1.00  0.00     0.012 A 
ATOM     77  C   UNL A   1      47.167  27.657  24.458  1.00  0.00     0.148 A 
ATOM     78  C   UNL A   1      49.183  26.209  25.772  1.00  0.00     0.002 A 
ATOM     79  C   UNL A   1      48.314  27.269  23.774  1.00  0.00     0.091 A 
ATOM     80  F   UNL A   1      46.199  28.370  23.867  1.00  0.00    -0.205 F 
ATOM     81  C   UNL A   1      49.333  26.562  24.434  1.00  0.00     0.022 A 
BRANCH  79  82
ATOM     82  S   UNL A   1      48.555  27.578  22.021  1.00  0.00     0.127 S 
ATOM     83  O   UNL A   1      49.704  28.476  22.029  1.00  0.00    -0.237 OA
ATOM     84  O   UNL A   1      48.825  26.233  21.514  1.00  0.00    -0.237 OA
ATOM     85  O   UNL A   1      47.303  28.161  21.549  1.00  0.00    -0.744 OA
ENDBRANCH  79  82
ENDBRANCH  51  75
BRANCH  63  86
ATOM     86  C   UNL A   1      45.358  32.911  29.635  1.00  0.00     0.023 A 
ATOM     87  C   UNL A   1      46.173  32.891  30.782  1.00  0.00     0.012 A 
ATOM     88  C   UNL A   1      45.357  34.051  28.804  1.00  0.00     0.148 A 
ATOM     89  C   UNL A   1      46.960  33.995  31.108  1.00  0.00     0.002 A 
ATOM     90  C   UNL A   1      46.184  35.124  29.106  1.00  0.00     0.091 A 
ATOM     91  F   UNL A   1      44.558  34.054  27.727  1.00  0.00    -0.205 F 
ATOM     92  C   UNL A   1      46.978  35.103  30.263  1.00  0.00     0.022 A 
BRANCH  90  93
ATOM     93  S   UNL A   1      46.354  36.543  28.018  1.00  0.00     0.127 S 
ATOM     94  O   UNL A   1      47.312  37.368  28.752  1.00  0.00    -0.237 OA
ATOM     95  O   UNL A   1      46.881  35.934  26.797  1.00  0.00    -0.237 OA
ATOM     96  O   UNL A   1      45.020  37.113  27.884  1.00  0.00    -0.744 OA
ENDBRANCH  90  93
ENDBRANCH  63  86
ENDBRANCH  37  38
ENDBRANCH  29  32
ENDBRANCH  27  28
ENDBRANCH   1  27
TORSDOF 17
ENDMDL
