MODEL 1
REMARK VINA RESULT:     -11.6      0.000      0.000
REMARK SMILES C[NH+](C)[C@@H]1CC[N@@H+](Cc2ccc(C(=O)NCCCNC(=O)c3ccc(-c4c5nc(c(-c6cccc(S(=O)(=O)[O-])c6F)c6ccc([nH]6)c(-c6cccc(S(=O)(=O)[O-])c6F)c6nc(c(-c7cccc(S(=O)(=O)[O-])c7F)c7ccc4[nH]7)C=C6)C=C5)cc3)cn2)C1
REMARK SMILES IDX 17 1 16 2 15 3 13 4 14 5 12 7 9 8 10 9 86 10 11 11 85 12
REMARK SMILES IDX 8 13 7 14 4 15 5 16 87 17 6 18 2 20 1 21 3 22 18 24 19 25
REMARK SMILES IDX 20 26 21 28 22 29 23 30 84 31 24 32 83 33 25 34 26 35 27 36
REMARK SMILES IDX 77 37 28 38 82 39 76 40 78 41 29 42 81 43 75 44 74 45 30 47
REMARK SMILES IDX 62 48 42 49 61 50 43 51 46 52 60 53 79 54 44 55 45 56 59 58
REMARK SMILES IDX 80 59 47 60 31 61 32 62 40 63 33 64 35 65 41 66 34 67 36 68
REMARK SMILES IDX 37 69 38 70 39 71 63 72 64 73 72 74 65 75 67 76 73 77 66 78
REMARK SMILES IDX 68 79 69 80 70 81 71 82 48 83 49 84 57 85 50 86 52 87 58 88
REMARK SMILES IDX 51 89 53 90 54 91 55 92 56 93
REMARK H PARENT 15 6 7 19 2 23 19 27 78 46 46 57
REMARK Flexibility Score: inf
ROOT
ATOM      1  C   UNL A   1      31.523  32.090  26.669  1.00  0.00     0.042 C 
ENDROOT
BRANCH   1   2
ATOM      2  C   UNL A   1      31.702  30.640  26.228  1.00  0.00     0.118 C 
BRANCH   2   3
ATOM      3  N   UNL A   1      31.046  30.379  24.957  1.00  0.00    -0.352 N 
ATOM      4  C   UNL A   1      30.990  29.249  24.182  1.00  0.00     0.252 C 
ATOM      5  O   UNL A   1      30.249  29.247  23.200  1.00  0.00    -0.269 OA
ATOM      6  H   UNL A   1      30.556  31.150  24.589  1.00  0.00     0.163 HD
BRANCH   4   7
ATOM      7  C   UNL A   1      31.726  28.016  24.529  1.00  0.00     0.058 A 
ATOM      8  C   UNL A   1      33.244  25.742  24.892  1.00  0.00     0.095 A 
ATOM      9  C   UNL A   1      31.966  25.801  25.442  1.00  0.00     0.030 A 
ATOM     10  N   UNL A   1      33.804  26.801  24.252  1.00  0.00    -0.255 NA
ATOM     11  C   UNL A   1      31.206  26.955  25.266  1.00  0.00     0.017 A 
ATOM     12  C   UNL A   1      33.040  27.911  24.099  1.00  0.00     0.125 A 
BRANCH   8  13
ATOM     13  C   UNL A   1      34.026  24.443  24.913  1.00  0.00     0.319 C 
BRANCH  13  14
ATOM     14  N   UNL A   1      33.373  23.265  25.509  1.00  0.00    -0.325 N 
ATOM     15  C   UNL A   1      34.458  21.075  25.274  1.00  0.00     0.245 C 
ATOM     16  C   UNL A   1      34.916  21.776  26.561  1.00  0.00     0.132 C 
ATOM     17  C   UNL A   1      33.393  22.045  24.692  1.00  0.00     0.328 C 
ATOM     18  C   UNL A   1      33.898  22.871  26.818  1.00  0.00     0.269 C 
ATOM     19  H   UNL A   1      32.418  23.614  25.589  1.00  0.00     0.348 HD
BRANCH  15  20
ATOM     20  N   UNL A   1      33.888  19.711  25.355  1.00  0.00    -0.333 N 
ATOM     21  C   UNL A   1      32.464  19.723  25.004  1.00  0.00     0.332 C 
ATOM     22  C   UNL A   1      34.583  18.687  24.590  1.00  0.00     0.332 C 
ATOM     23  H   UNL A   1      34.015  19.443  26.331  1.00  0.00     0.348 HD
ENDBRANCH  15  20
ENDBRANCH  13  14
ENDBRANCH   8  13
ENDBRANCH   4   7
ENDBRANCH   2   3
ENDBRANCH   1   2
BRANCH   1  24
ATOM     24  C   UNL A   1      32.781  32.706  27.272  1.00  0.00     0.118 C 
BRANCH  24  25
ATOM     25  N   UNL A   1      32.572  34.083  27.696  1.00  0.00    -0.352 N 
ATOM     26  C   UNL A   1      33.144  34.783  28.730  1.00  0.00     0.251 C 
ATOM     27  H   UNL A   1      31.922  34.591  27.159  1.00  0.00     0.163 HD
ATOM     28  O   UNL A   1      32.670  35.870  29.052  1.00  0.00    -0.269 OA
BRANCH  26  29
ATOM     29  C   UNL A   1      34.309  34.237  29.463  1.00  0.00     0.039 A 
ATOM     30  C   UNL A   1      34.087  33.502  30.631  1.00  0.00     0.014 A 
ATOM     31  C   UNL A   1      35.615  34.479  29.030  1.00  0.00     0.014 A 
ATOM     32  C   UNL A   1      35.171  32.967  31.332  1.00  0.00     0.010 A 
ATOM     33  C   UNL A   1      36.688  33.878  29.684  1.00  0.00     0.010 A 
ATOM     34  C   UNL A   1      36.480  33.125  30.849  1.00  0.00    -0.014 A 
BRANCH  34  35
ATOM     35  C   UNL A   1      37.641  32.512  31.544  1.00  0.00     0.031 A 
ATOM     36  C   UNL A   1      38.390  31.368  30.912  1.00  0.00     0.074 A 
ATOM     37  C   UNL A   1      37.965  32.925  32.784  1.00  0.00     0.049 A 
ATOM     38  N   UNL A   1      39.388  30.672  31.390  1.00  0.00    -0.248 NA
ATOM     39  C   UNL A   1      37.937  30.931  29.581  1.00  0.00     0.031 C 
ATOM     40  C   UNL A   1      37.270  33.972  33.535  1.00  0.00     0.029 A 
ATOM     41  N   UNL A   1      38.948  32.498  33.643  1.00  0.00    -0.354 N 
ATOM     42  C   UNL A   1      39.658  29.694  30.441  1.00  0.00     0.074 A 
ATOM     43  C   UNL A   1      38.694  29.864  29.375  1.00  0.00     0.031 C 
ATOM     44  C   UNL A   1      37.850  34.111  34.737  1.00  0.00     0.029 A 
ATOM     45  C   UNL A   1      38.937  33.145  34.857  1.00  0.00     0.049 A 
ATOM     46  H   UNL A   1      39.596  31.795  33.413  1.00  0.00     0.167 HD
ATOM     47  C   UNL A   1      40.636  28.756  30.439  1.00  0.00     0.034 A 
ATOM     48  C   UNL A   1      39.713  32.977  35.946  1.00  0.00     0.034 A 
ATOM     49  C   UNL A   1      41.617  28.617  31.483  1.00  0.00     0.049 A 
ATOM     50  C   UNL A   1      40.816  31.956  35.907  1.00  0.00     0.074 A 
ATOM     51  C   UNL A   1      42.704  27.763  31.534  1.00  0.00     0.029 A 
ATOM     52  N   UNL A   1      41.623  29.343  32.664  1.00  0.00    -0.354 N 
ATOM     53  N   UNL A   1      41.156  31.146  34.934  1.00  0.00    -0.248 NA
ATOM     54  C   UNL A   1      41.663  31.847  37.102  1.00  0.00     0.031 C 
ATOM     55  C   UNL A   1      43.353  27.954  32.759  1.00  0.00     0.029 A 
ATOM     56  C   UNL A   1      42.686  28.950  33.458  1.00  0.00     0.049 A 
ATOM     57  H   UNL A   1      40.968  30.038  32.902  1.00  0.00     0.167 HD
ATOM     58  C   UNL A   1      42.278  30.459  35.383  1.00  0.00     0.074 A 
ATOM     59  C   UNL A   1      42.569  30.961  36.710  1.00  0.00     0.031 C 
ATOM     60  C   UNL A   1      42.994  29.490  34.758  1.00  0.00     0.034 A 
BRANCH  47  61
ATOM     61  C   UNL A   1      40.719  27.837  29.246  1.00  0.00     0.023 A 
ATOM     62  C   UNL A   1      39.924  26.672  29.207  1.00  0.00     0.012 A 
ATOM     63  C   UNL A   1      41.552  28.139  28.151  1.00  0.00     0.148 A 
ATOM     64  C   UNL A   1      39.992  25.799  28.122  1.00  0.00     0.002 A 
ATOM     65  C   UNL A   1      41.578  27.287  27.050  1.00  0.00     0.091 A 
ATOM     66  F   UNL A   1      42.317  29.238  28.211  1.00  0.00    -0.205 F 
ATOM     67  C   UNL A   1      40.811  26.111  27.042  1.00  0.00     0.022 A 
BRANCH  65  68
ATOM     68  S   UNL A   1      42.539  27.646  25.576  1.00  0.00     0.127 S 
ATOM     69  O   UNL A   1      43.892  27.740  26.121  1.00  0.00    -0.237 OA
ATOM     70  O   UNL A   1      42.295  26.461  24.753  1.00  0.00    -0.237 OA
ATOM     71  O   UNL A   1      41.992  28.882  25.034  1.00  0.00    -0.744 OA
ENDBRANCH  65  68
ENDBRANCH  47  61
BRANCH  48  72
ATOM     72  C   UNL A   1      39.519  33.858  37.132  1.00  0.00     0.023 A 
ATOM     73  C   UNL A   1      39.905  35.210  37.055  1.00  0.00     0.012 A 
ATOM     74  C   UNL A   1      38.912  33.382  38.311  1.00  0.00     0.148 A 
ATOM     75  C   UNL A   1      39.712  36.068  38.138  1.00  0.00     0.002 A 
ATOM     76  C   UNL A   1      38.674  34.255  39.365  1.00  0.00     0.091 A 
ATOM     77  F   UNL A   1      38.559  32.090  38.366  1.00  0.00    -0.205 F 
ATOM     78  C   UNL A   1      39.088  35.594  39.289  1.00  0.00     0.022 A 
BRANCH  76  79
ATOM     79  S   UNL A   1      37.754  33.771  40.832  1.00  0.00     0.127 S 
ATOM     80  O   UNL A   1      37.561  35.054  41.501  1.00  0.00    -0.237 OA
ATOM     81  O   UNL A   1      36.544  33.191  40.249  1.00  0.00    -0.237 OA
ATOM     82  O   UNL A   1      38.602  32.816  41.532  1.00  0.00    -0.744 OA
ENDBRANCH  76  79
ENDBRANCH  48  72
BRANCH  60  83
ATOM     83  C   UNL A   1      44.188  28.928  35.484  1.00  0.00     0.023 A 
ATOM     84  C   UNL A   1      45.455  29.520  35.316  1.00  0.00     0.012 A 
ATOM     85  C   UNL A   1      44.040  27.857  36.388  1.00  0.00     0.148 A 
ATOM     86  C   UNL A   1      46.562  29.036  36.013  1.00  0.00     0.002 A 
ATOM     87  C   UNL A   1      45.137  27.413  37.116  1.00  0.00     0.091 A 
ATOM     88  F   UNL A   1      42.830  27.293  36.519  1.00  0.00    -0.205 F 
ATOM     89  C   UNL A   1      46.401  27.992  36.921  1.00  0.00     0.022 A 
BRANCH  87  90
ATOM     90  S   UNL A   1      45.003  26.140  38.378  1.00  0.00     0.127 S 
ATOM     91  O   UNL A   1      46.392  26.001  38.809  1.00  0.00    -0.237 OA
ATOM     92  O   UNL A   1      44.120  26.770  39.360  1.00  0.00    -0.237 OA
ATOM     93  O   UNL A   1      44.433  24.976  37.714  1.00  0.00    -0.744 OA
ENDBRANCH  87  90
ENDBRANCH  60  83
ENDBRANCH  34  35
ENDBRANCH  26  29
ENDBRANCH  24  25
ENDBRANCH   1  24
TORSDOF 16
ENDMDL
MODEL 2
REMARK VINA RESULT:     -11.6      3.822      8.970
REMARK SMILES C[NH+](C)[C@@H]1CC[N@@H+](Cc2ccc(C(=O)NCCCNC(=O)c3ccc(-c4c5nc(c(-c6cccc(S(=O)(=O)[O-])c6F)c6ccc([nH]6)c(-c6cccc(S(=O)(=O)[O-])c6F)c6nc(c(-c7cccc(S(=O)(=O)[O-])c7F)c7ccc4[nH]7)C=C6)C=C5)cc3)cn2)C1
REMARK SMILES IDX 17 1 16 2 15 3 13 4 14 5 12 7 9 8 10 9 86 10 11 11 85 12
REMARK SMILES IDX 8 13 7 14 4 15 5 16 87 17 6 18 2 20 1 21 3 22 18 24 19 25
REMARK SMILES IDX 20 26 21 28 22 29 23 30 84 31 24 32 83 33 25 34 26 35 27 36
REMARK SMILES IDX 77 37 28 38 82 39 76 40 78 41 29 42 81 43 75 44 74 45 30 47
REMARK SMILES IDX 62 48 42 49 61 50 43 51 46 52 60 53 79 54 44 55 45 56 59 58
REMARK SMILES IDX 80 59 47 60 31 61 32 62 40 63 33 64 35 65 41 66 34 67 36 68
REMARK SMILES IDX 37 69 38 70 39 71 63 72 64 73 72 74 65 75 67 76 73 77 66 78
REMARK SMILES IDX 68 79 69 80 70 81 71 82 48 83 49 84 57 85 50 86 52 87 58 88
REMARK SMILES IDX 51 89 53 90 54 91 55 92 56 93
REMARK H PARENT 15 6 7 19 2 23 19 27 78 46 46 57
REMARK Flexibility Score: inf
ROOT
ATOM      1  C   UNL A   1      33.235  29.209  24.772  1.00  0.00     0.042 C 
ENDROOT
BRANCH   1   2
ATOM      2  C   UNL A   1      31.743  29.494  24.926  1.00  0.00     0.118 C 
BRANCH   2   3
ATOM      3  N   UNL A   1      31.106  29.736  23.643  1.00  0.00    -0.352 N 
ATOM      4  C   UNL A   1      30.608  28.870  22.701  1.00  0.00     0.252 C 
ATOM      5  O   UNL A   1      29.991  29.336  21.745  1.00  0.00    -0.269 OA
ATOM      6  H   UNL A   1      31.018  30.687  23.407  1.00  0.00     0.163 HD
BRANCH   4   7
ATOM      7  C   UNL A   1      30.720  27.404  22.840  1.00  0.00     0.058 A 
ATOM      8  C   UNL A   1      30.838  24.707  23.403  1.00  0.00     0.095 A 
ATOM      9  C   UNL A   1      31.732  25.248  22.484  1.00  0.00     0.030 A 
ATOM     10  N   UNL A   1      29.850  25.446  23.972  1.00  0.00    -0.255 NA
ATOM     11  C   UNL A   1      31.663  26.609  22.194  1.00  0.00     0.017 A 
ATOM     12  C   UNL A   1      29.807  26.767  23.667  1.00  0.00     0.125 A 
BRANCH   8  13
ATOM     13  C   UNL A   1      30.998  23.273  23.872  1.00  0.00     0.319 C 
BRANCH  13  14
ATOM     14  N   UNL A   1      32.336  22.667  23.761  1.00  0.00    -0.325 N 
ATOM     15  C   UNL A   1      32.720  20.472  24.792  1.00  0.00     0.245 C 
ATOM     16  C   UNL A   1      32.261  20.317  23.334  1.00  0.00     0.132 C 
ATOM     17  C   UNL A   1      32.839  22.010  24.974  1.00  0.00     0.328 C 
ATOM     18  C   UNL A   1      32.471  21.676  22.691  1.00  0.00     0.269 C 
ATOM     19  H   UNL A   1      32.891  23.499  23.560  1.00  0.00     0.348 HD
BRANCH  15  20
ATOM     20  N   UNL A   1      33.979  19.826  25.227  1.00  0.00    -0.333 N 
ATOM     21  C   UNL A   1      34.158  18.534  24.557  1.00  0.00     0.332 C 
ATOM     22  C   UNL A   1      35.184  20.632  25.090  1.00  0.00     0.332 C 
ATOM     23  H   UNL A   1      33.861  19.697  26.232  1.00  0.00     0.348 HD
ENDBRANCH  15  20
ENDBRANCH  13  14
ENDBRANCH   8  13
ENDBRANCH   4   7
ENDBRANCH   2   3
ENDBRANCH   1   2
BRANCH   1  24
ATOM     24  C   UNL A   1      34.006  29.250  26.087  1.00  0.00     0.118 C 
BRANCH  24  25
ATOM     25  N   UNL A   1      33.796  30.497  26.809  1.00  0.00    -0.352 N 
ATOM     26  C   UNL A   1      34.481  31.022  27.878  1.00  0.00     0.251 C 
ATOM     27  H   UNL A   1      33.050  31.049  26.481  1.00  0.00     0.163 HD
ATOM     28  O   UNL A   1      34.009  31.985  28.476  1.00  0.00    -0.269 OA
BRANCH  26  29
ATOM     29  C   UNL A   1      35.767  30.434  28.317  1.00  0.00     0.039 A 
ATOM     30  C   UNL A   1      36.914  30.673  27.554  1.00  0.00     0.014 A 
ATOM     31  C   UNL A   1      35.841  29.617  29.448  1.00  0.00     0.014 A 
ATOM     32  C   UNL A   1      38.140  30.139  27.956  1.00  0.00     0.010 A 
ATOM     33  C   UNL A   1      37.077  29.152  29.892  1.00  0.00     0.010 A 
ATOM     34  C   UNL A   1      38.239  29.397  29.145  1.00  0.00    -0.014 A 
BRANCH  34  35
ATOM     35  C   UNL A   1      39.544  28.873  29.624  1.00  0.00     0.031 A 
ATOM     36  C   UNL A   1      40.280  29.567  30.739  1.00  0.00     0.074 A 
ATOM     37  C   UNL A   1      40.108  27.824  28.995  1.00  0.00     0.049 A 
ATOM     38  N   UNL A   1      41.451  29.290  31.251  1.00  0.00    -0.248 NA
ATOM     39  C   UNL A   1      39.628  30.743  31.336  1.00  0.00     0.031 C 
ATOM     40  C   UNL A   1      39.530  27.113  27.853  1.00  0.00     0.029 A 
ATOM     41  N   UNL A   1      41.306  27.188  29.210  1.00  0.00    -0.354 N 
ATOM     42  C   UNL A   1      41.694  30.276  32.200  1.00  0.00     0.074 A 
ATOM     43  C   UNL A   1      40.564  31.179  32.167  1.00  0.00     0.031 C 
ATOM     44  C   UNL A   1      40.368  26.136  27.473  1.00  0.00     0.029 A 
ATOM     45  C   UNL A   1      41.555  26.169  28.321  1.00  0.00     0.049 A 
ATOM     46  H   UNL A   1      41.927  27.439  29.930  1.00  0.00     0.167 HD
ATOM     47  C   UNL A   1      42.747  30.405  33.043  1.00  0.00     0.034 A 
ATOM     48  C   UNL A   1      42.622  25.355  28.199  1.00  0.00     0.034 A 
ATOM     49  C   UNL A   1      43.848  29.482  33.099  1.00  0.00     0.049 A 
ATOM     50  C   UNL A   1      43.762  25.493  29.169  1.00  0.00     0.074 A 
ATOM     51  C   UNL A   1      44.917  29.469  33.978  1.00  0.00     0.029 A 
ATOM     52  N   UNL A   1      44.030  28.413  32.234  1.00  0.00    -0.354 N 
ATOM     53  N   UNL A   1      43.900  26.335  30.165  1.00  0.00    -0.248 NA
ATOM     54  C   UNL A   1      44.878  24.548  29.023  1.00  0.00     0.031 C 
ATOM     55  C   UNL A   1      45.759  28.407  33.627  1.00  0.00     0.029 A 
ATOM     56  C   UNL A   1      45.198  27.741  32.548  1.00  0.00     0.049 A 
ATOM     57  H   UNL A   1      43.417  28.168  31.504  1.00  0.00     0.167 HD
ATOM     58  C   UNL A   1      45.097  25.999  30.786  1.00  0.00     0.074 A 
ATOM     59  C   UNL A   1      45.637  24.865  30.064  1.00  0.00     0.031 C 
ATOM     60  C   UNL A   1      45.702  26.584  31.850  1.00  0.00     0.034 A 
BRANCH  47  61
ATOM     61  C   UNL A   1      42.730  31.566  34.007  1.00  0.00     0.023 A 
ATOM     62  C   UNL A   1      43.292  32.800  33.620  1.00  0.00     0.012 A 
ATOM     63  C   UNL A   1      42.129  31.450  35.276  1.00  0.00     0.148 A 
ATOM     64  C   UNL A   1      43.301  33.884  34.497  1.00  0.00     0.002 A 
ATOM     65  C   UNL A   1      42.100  32.550  36.127  1.00  0.00     0.091 A 
ATOM     66  F   UNL A   1      41.618  30.264  35.637  1.00  0.00    -0.205 F 
ATOM     67  C   UNL A   1      42.698  33.761  35.745  1.00  0.00     0.022 A 
BRANCH  65  68
ATOM     68  S   UNL A   1      41.275  32.515  37.721  1.00  0.00     0.127 S 
ATOM     69  O   UNL A   1      41.307  33.926  38.101  1.00  0.00    -0.237 OA
ATOM     70  O   UNL A   1      39.947  32.009  37.371  1.00  0.00    -0.237 OA
ATOM     71  O   UNL A   1      42.060  31.620  38.559  1.00  0.00    -0.744 OA
ENDBRANCH  65  68
ENDBRANCH  47  61
BRANCH  48  72
ATOM     72  C   UNL A   1      42.618  24.284  27.162  1.00  0.00     0.023 A 
ATOM     73  C   UNL A   1      43.297  24.500  25.947  1.00  0.00     0.012 A 
ATOM     74  C   UNL A   1      41.993  23.043  27.389  1.00  0.00     0.148 A 
ATOM     75  C   UNL A   1      43.335  23.508  24.967  1.00  0.00     0.002 A 
ATOM     76  C   UNL A   1      42.081  22.040  26.431  1.00  0.00     0.091 A 
ATOM     77  F   UNL A   1      41.345  22.861  28.549  1.00  0.00    -0.205 F 
ATOM     78  C   UNL A   1      42.736  22.275  25.212  1.00  0.00     0.022 A 
BRANCH  76  79
ATOM     79  S   UNL A   1      41.461  20.376  26.712  1.00  0.00     0.127 S 
ATOM     80  O   UNL A   1      40.035  20.618  26.912  1.00  0.00    -0.237 OA
ATOM     81  O   UNL A   1      41.805  19.712  25.455  1.00  0.00    -0.237 OA
ATOM     82  O   UNL A   1      42.184  19.877  27.874  1.00  0.00    -0.744 OA
ENDBRANCH  76  79
ENDBRANCH  48  72
BRANCH  60  83
ATOM     83  C   UNL A   1      47.002  25.992  32.328  1.00  0.00     0.023 A 
ATOM     84  C   UNL A   1      47.009  25.102  33.420  1.00  0.00     0.012 A 
ATOM     85  C   UNL A   1      48.206  26.261  31.647  1.00  0.00     0.148 A 
ATOM     86  C   UNL A   1      48.200  24.514  33.847  1.00  0.00     0.002 A 
ATOM     87  C   UNL A   1      49.379  25.633  32.046  1.00  0.00     0.091 A 
ATOM     88  F   UNL A   1      48.182  27.126  30.622  1.00  0.00    -0.205 F 
ATOM     89  C   UNL A   1      49.381  24.769  33.153  1.00  0.00     0.022 A 
BRANCH  87  90
ATOM     90  S   UNL A   1      50.926  25.826  31.153  1.00  0.00     0.127 S 
ATOM     91  O   UNL A   1      51.759  24.798  31.775  1.00  0.00    -0.237 OA
ATOM     92  O   UNL A   1      50.527  25.537  29.775  1.00  0.00    -0.237 OA
ATOM     93  O   UNL A   1      51.352  27.199  31.382  1.00  0.00    -0.744 OA
ENDBRANCH  87  90
ENDBRANCH  60  83
ENDBRANCH  34  35
ENDBRANCH  26  29
ENDBRANCH  24  25
ENDBRANCH   1  24
TORSDOF 16
ENDMDL
MODEL 3
REMARK VINA RESULT:     -11.5      5.843      9.143
REMARK SMILES C[NH+](C)[C@@H]1CC[N@@H+](Cc2ccc(C(=O)NCCCNC(=O)c3ccc(-c4c5nc(c(-c6cccc(S(=O)(=O)[O-])c6F)c6ccc([nH]6)c(-c6cccc(S(=O)(=O)[O-])c6F)c6nc(c(-c7cccc(S(=O)(=O)[O-])c7F)c7ccc4[nH]7)C=C6)C=C5)cc3)cn2)C1
REMARK SMILES IDX 17 1 16 2 15 3 13 4 14 5 12 7 9 8 10 9 86 10 11 11 85 12
REMARK SMILES IDX 8 13 7 14 4 15 5 16 87 17 6 18 2 20 1 21 3 22 18 24 19 25
REMARK SMILES IDX 20 26 21 28 22 29 23 30 84 31 24 32 83 33 25 34 26 35 27 36
REMARK SMILES IDX 77 37 28 38 82 39 76 40 78 41 29 42 81 43 75 44 74 45 30 47
REMARK SMILES IDX 62 48 42 49 61 50 43 51 46 52 60 53 79 54 44 55 45 56 59 58
REMARK SMILES IDX 80 59 47 60 31 61 32 62 40 63 33 64 35 65 41 66 34 67 36 68
REMARK SMILES IDX 37 69 38 70 39 71 63 72 64 73 72 74 65 75 67 76 73 77 66 78
REMARK SMILES IDX 68 79 69 80 70 81 71 82 48 83 49 84 57 85 50 86 52 87 58 88
REMARK SMILES IDX 51 89 53 90 54 91 55 92 56 93
REMARK H PARENT 15 6 7 19 2 23 19 27 78 46 46 57
REMARK Flexibility Score: inf
ROOT
ATOM      1  C   UNL A   1      35.628  21.549  25.852  1.00  0.00     0.042 C 
ENDROOT
BRANCH   1   2
ATOM      2  C   UNL A   1      35.516  20.360  24.901  1.00  0.00     0.118 C 
BRANCH   2   3
ATOM      3  N   UNL A   1      34.382  19.513  25.232  1.00  0.00    -0.352 N 
ATOM      4  C   UNL A   1      33.032  19.705  25.078  1.00  0.00     0.252 C 
ATOM      5  O   UNL A   1      32.275  18.767  25.320  1.00  0.00    -0.269 OA
ATOM      6  H   UNL A   1      34.626  18.650  25.638  1.00  0.00     0.163 HD
BRANCH   4   7
ATOM      7  C   UNL A   1      32.469  20.968  24.559  1.00  0.00     0.058 A 
ATOM      8  C   UNL A   1      31.178  23.284  23.800  1.00  0.00     0.095 A 
ATOM      9  C   UNL A   1      31.894  22.563  22.848  1.00  0.00     0.030 A 
ATOM     10  N   UNL A   1      31.162  22.933  25.112  1.00  0.00    -0.255 NA
ATOM     11  C   UNL A   1      32.554  21.399  23.238  1.00  0.00     0.017 A 
ATOM     12  C   UNL A   1      31.817  21.797  25.460  1.00  0.00     0.125 A 
BRANCH   8  13
ATOM     13  C   UNL A   1      30.307  24.452  23.378  1.00  0.00     0.319 C 
BRANCH  13  14
ATOM     14  N   UNL A   1      30.035  25.496  24.382  1.00  0.00    -0.325 N 
ATOM     15  C   UNL A   1      31.139  27.675  24.138  1.00  0.00     0.245 C 
ATOM     16  C   UNL A   1      29.781  27.668  23.421  1.00  0.00     0.132 C 
ATOM     17  C   UNL A   1      31.199  26.279  24.816  1.00  0.00     0.328 C 
ATOM     18  C   UNL A   1      29.026  26.478  23.984  1.00  0.00     0.269 C 
ATOM     19  H   UNL A   1      29.699  24.917  25.151  1.00  0.00     0.348 HD
BRANCH  15  20
ATOM     20  N   UNL A   1      31.421  28.723  25.146  1.00  0.00    -0.333 N 
ATOM     21  C   UNL A   1      31.449  28.149  26.496  1.00  0.00     0.332 C 
ATOM     22  C   UNL A   1      32.617  29.519  24.915  1.00  0.00     0.332 C 
ATOM     23  H   UNL A   1      30.645  29.378  25.051  1.00  0.00     0.348 HD
ENDBRANCH  15  20
ENDBRANCH  13  14
ENDBRANCH   8  13
ENDBRANCH   4   7
ENDBRANCH   2   3
ENDBRANCH   1   2
BRANCH   1  24
ATOM     24  C   UNL A   1      36.999  22.217  25.838  1.00  0.00     0.118 C 
BRANCH  24  25
ATOM     25  N   UNL A   1      38.077  21.266  26.068  1.00  0.00    -0.352 N 
ATOM     26  C   UNL A   1      39.394  21.487  26.389  1.00  0.00     0.251 C 
ATOM     27  H   UNL A   1      37.823  20.318  25.981  1.00  0.00     0.163 HD
ATOM     28  O   UNL A   1      40.190  20.554  26.328  1.00  0.00    -0.269 OA
BRANCH  26  29
ATOM     29  C   UNL A   1      39.859  22.833  26.795  1.00  0.00     0.039 A 
ATOM     30  C   UNL A   1      40.722  22.947  27.889  1.00  0.00     0.014 A 
ATOM     31  C   UNL A   1      39.420  23.982  26.132  1.00  0.00     0.014 A 
ATOM     32  C   UNL A   1      41.184  24.205  28.283  1.00  0.00     0.010 A 
ATOM     33  C   UNL A   1      39.944  25.227  26.475  1.00  0.00     0.010 A 
ATOM     34  C   UNL A   1      40.822  25.354  27.561  1.00  0.00    -0.014 A 
BRANCH  34  35
ATOM     35  C   UNL A   1      41.352  26.694  27.922  1.00  0.00     0.031 A 
ATOM     36  C   UNL A   1      42.796  27.036  27.670  1.00  0.00     0.074 A 
ATOM     37  C   UNL A   1      40.553  27.572  28.561  1.00  0.00     0.049 A 
ATOM     38  N   UNL A   1      43.449  28.130  27.969  1.00  0.00    -0.248 NA
ATOM     39  C   UNL A   1      43.622  26.003  27.025  1.00  0.00     0.031 C 
ATOM     40  C   UNL A   1      39.158  27.331  28.931  1.00  0.00     0.029 A 
ATOM     41  N   UNL A   1      40.809  28.835  29.035  1.00  0.00    -0.354 N 
ATOM     42  C   UNL A   1      44.765  27.903  27.585  1.00  0.00     0.074 A 
ATOM     43  C   UNL A   1      44.826  26.554  27.065  1.00  0.00     0.031 C 
ATOM     44  C   UNL A   1      38.677  28.411  29.565  1.00  0.00     0.029 A 
ATOM     45  C   UNL A   1      39.736  29.408  29.677  1.00  0.00     0.049 A 
ATOM     46  H   UNL A   1      41.676  29.286  28.927  1.00  0.00     0.167 HD
ATOM     47  C   UNL A   1      45.823  28.748  27.633  1.00  0.00     0.034 A 
ATOM     48  C   UNL A   1      39.619  30.603  30.291  1.00  0.00     0.034 A 
ATOM     49  C   UNL A   1      45.748  30.102  28.114  1.00  0.00     0.049 A 
ATOM     50  C   UNL A   1      40.796  31.539  30.299  1.00  0.00     0.074 A 
ATOM     51  C   UNL A   1      46.737  31.070  28.119  1.00  0.00     0.029 A 
ATOM     52  N   UNL A   1      44.623  30.677  28.687  1.00  0.00    -0.354 N 
ATOM     53  N   UNL A   1      41.991  31.366  29.787  1.00  0.00    -0.248 NA
ATOM     54  C   UNL A   1      40.600  32.847  30.937  1.00  0.00     0.031 C 
ATOM     55  C   UNL A   1      46.217  32.222  28.719  1.00  0.00     0.029 A 
ATOM     56  C   UNL A   1      44.895  31.982  29.060  1.00  0.00     0.049 A 
ATOM     57  H   UNL A   1      43.759  30.224  28.807  1.00  0.00     0.167 HD
ATOM     58  C   UNL A   1      42.677  32.555  30.009  1.00  0.00     0.074 A 
ATOM     59  C   UNL A   1      41.757  33.446  30.686  1.00  0.00     0.031 C 
ATOM     60  C   UNL A   1      43.956  32.875  29.692  1.00  0.00     0.034 A 
BRANCH  47  61
ATOM     61  C   UNL A   1      47.144  28.243  27.107  1.00  0.00     0.023 A 
ATOM     62  C   UNL A   1      48.199  27.985  28.006  1.00  0.00     0.012 A 
ATOM     63  C   UNL A   1      47.332  27.990  25.734  1.00  0.00     0.148 A 
ATOM     64  C   UNL A   1      49.434  27.530  27.544  1.00  0.00     0.002 A 
ATOM     65  C   UNL A   1      48.551  27.491  25.286  1.00  0.00     0.091 A 
ATOM     66  F   UNL A   1      46.327  28.260  24.889  1.00  0.00    -0.205 F 
ATOM     67  C   UNL A   1      49.606  27.275  26.187  1.00  0.00     0.022 A 
BRANCH  65  68
ATOM     68  S   UNL A   1      48.842  27.053  23.569  1.00  0.00     0.127 S 
ATOM     69  O   UNL A   1      48.360  28.246  22.875  1.00  0.00    -0.237 OA
ATOM     70  O   UNL A   1      50.294  26.877  23.537  1.00  0.00    -0.237 OA
ATOM     71  O   UNL A   1      48.080  25.836  23.332  1.00  0.00    -0.744 OA
ENDBRANCH  65  68
ENDBRANCH  47  61
BRANCH  48  72
ATOM     72  C   UNL A   1      38.309  31.006  30.875  1.00  0.00     0.023 A 
ATOM     73  C   UNL A   1      38.054  30.748  32.236  1.00  0.00     0.012 A 
ATOM     74  C   UNL A   1      37.340  31.684  30.110  1.00  0.00     0.148 A 
ATOM     75  C   UNL A   1      36.849  31.137  32.820  1.00  0.00     0.002 A 
ATOM     76  C   UNL A   1      36.165  32.117  30.712  1.00  0.00     0.091 A 
ATOM     77  F   UNL A   1      37.599  31.913  28.815  1.00  0.00    -0.205 F 
ATOM     78  C   UNL A   1      35.909  31.830  32.063  1.00  0.00     0.022 A 
BRANCH  76  79
ATOM     79  S   UNL A   1      34.957  33.135  29.855  1.00  0.00     0.127 S 
ATOM     80  O   UNL A   1      34.300  32.157  28.992  1.00  0.00    -0.237 OA
ATOM     81  O   UNL A   1      34.139  33.628  30.963  1.00  0.00    -0.237 OA
ATOM     82  O   UNL A   1      35.725  34.166  29.169  1.00  0.00    -0.744 OA
ENDBRANCH  76  79
ENDBRANCH  48  72
BRANCH  60  83
ATOM     83  C   UNL A   1      44.436  34.259  30.040  1.00  0.00     0.023 A 
ATOM     84  C   UNL A   1      45.117  34.482  31.253  1.00  0.00     0.012 A 
ATOM     85  C   UNL A   1      44.278  35.324  29.130  1.00  0.00     0.148 A 
ATOM     86  C   UNL A   1      45.603  35.751  31.571  1.00  0.00     0.002 A 
ATOM     87  C   UNL A   1      44.809  36.572  29.431  1.00  0.00     0.091 A 
ATOM     88  F   UNL A   1      43.610  35.097  27.990  1.00  0.00    -0.205 F 
ATOM     89  C   UNL A   1      45.461  36.791  30.655  1.00  0.00     0.022 A 
BRANCH  87  90
ATOM     90  S   UNL A   1      44.759  37.944  28.271  1.00  0.00     0.127 S 
ATOM     91  O   UNL A   1      43.322  38.193  28.167  1.00  0.00    -0.237 OA
ATOM     92  O   UNL A   1      45.507  38.980  28.984  1.00  0.00    -0.237 OA
ATOM     93  O   UNL A   1      45.401  37.465  27.055  1.00  0.00    -0.744 OA
ENDBRANCH  87  90
ENDBRANCH  60  83
ENDBRANCH  34  35
ENDBRANCH  26  29
ENDBRANCH  24  25
ENDBRANCH   1  24
TORSDOF 16
ENDMDL
