MODEL 1
REMARK VINA RESULT:     -13.3      0.000      0.000
REMARK SMILES COc1ccc(-c2c(C(=O)NCCCNC(=O)c3ccc(-c4c5nc(c(-c6cccc(S(=O)(=O)[O-])c6F)c6ccc([nH]6)c(-c6cccc(S(=O)(=O)[O-])c6F)c6nc(c(-c7cccc(S(=O)(=O)[O-])c7F)c7ccc4[nH]7)C=C6)C=C5)cc3)sc3c2N=C(O)C[C@H]3c2ccc(OC)c(OC)c2)cc1
REMARK SMILES IDX 13 1 12 2 11 3 9 4 10 5 8 7 7 8 83 9 81 10 82 11 84 12 88 13
REMARK SMILES IDX 85 14 87 15 6 16 3 17 4 18 100 19 5 20 99 21 2 22 1 23 89 24
REMARK SMILES IDX 90 25 98 26 91 27 95 28 92 29 96 30 97 31 93 32 94 33 86 34
REMARK SMILES IDX 14 36 15 37 16 38 17 40 18 41 19 42 80 43 20 44 79 45 21 46
REMARK SMILES IDX 22 47 23 48 73 49 24 50 78 51 72 52 74 53 25 54 77 55 71 56
REMARK SMILES IDX 70 57 26 59 58 60 38 61 57 62 39 63 42 64 56 65 75 66 40 67
REMARK SMILES IDX 41 68 55 70 76 71 43 72 27 73 28 74 36 75 29 76 31 77 37 78
REMARK SMILES IDX 30 79 32 80 33 81 34 82 35 83 59 84 60 85 68 86 61 87 63 88
REMARK SMILES IDX 69 89 62 90 64 91 65 92 66 93 67 94 44 95 45 96 53 97 46 98
REMARK SMILES IDX 48 99 54 100 47 101 49 102 50 103 51 104 52 105
REMARK H PARENT 11 6 86 35 15 39 74 58 42 69
REMARK Flexibility Score: inf
ROOT
ATOM      1  C   UNL A   1      34.431  28.475  26.045  1.00  0.00     0.042 C 
ENDROOT
BRANCH   1   2
ATOM      2  C   UNL A   1      33.910  29.161  24.801  1.00  0.00     0.118 C 
BRANCH   2   3
ATOM      3  N   UNL A   1      34.230  28.628  23.507  1.00  0.00    -0.351 N 
ATOM      4  C   UNL A   1      33.653  27.515  22.918  1.00  0.00     0.262 C 
ATOM      5  O   UNL A   1      33.921  27.330  21.729  1.00  0.00    -0.268 OA
ATOM      6  H   UNL A   1      34.924  29.097  22.989  1.00  0.00     0.163 HD
BRANCH   4   7
ATOM      7  C   UNL A   1      32.844  26.569  23.698  1.00  0.00     0.102 A 
ATOM      8  C   UNL A   1      31.520  26.520  24.155  1.00  0.00     0.031 A 
ATOM      9  C   UNL A   1      31.309  25.374  24.982  1.00  0.00     0.090 A 
ATOM     10  S   UNL A   1      33.710  25.143  24.197  1.00  0.00    -0.131 S 
ATOM     11  C   UNL A   1      32.393  24.551  25.076  1.00  0.00     0.040 A 
ATOM     12  N   UNL A   1      30.091  25.119  25.629  1.00  0.00    -0.216 NA
ATOM     13  C   UNL A   1      32.420  23.280  25.850  1.00  0.00     0.071 C 
ATOM     14  C   UNL A   1      30.117  24.156  26.486  1.00  0.00     0.186 C 
ATOM     15  C   UNL A   1      31.284  23.286  26.886  1.00  0.00     0.111 C 
BRANCH   8  16
ATOM     16  C   UNL A   1      30.516  27.560  23.942  1.00  0.00    -0.014 A 
ATOM     17  C   UNL A   1      28.830  29.674  23.198  1.00  0.00     0.118 A 
ATOM     18  C   UNL A   1      28.421  28.345  23.029  1.00  0.00     0.047 A 
ATOM     19  C   UNL A   1      30.039  29.948  23.829  1.00  0.00     0.047 A 
ATOM     20  C   UNL A   1      29.262  27.284  23.393  1.00  0.00     0.012 A 
ATOM     21  C   UNL A   1      30.868  28.895  24.217  1.00  0.00     0.012 A 
BRANCH  17  22
ATOM     22  O   UNL A   1      27.986  30.625  22.694  1.00  0.00    -0.497 OA
ATOM     23  C   UNL A   1      28.315  31.980  23.006  1.00  0.00     0.278 C 
ENDBRANCH  17  22
ENDBRANCH   8  16
BRANCH  13  24
ATOM     24  C   UNL A   1      32.362  22.047  24.957  1.00  0.00    -0.035 A 
ATOM     25  C   UNL A   1      32.409  22.140  23.564  1.00  0.00     0.008 A 
ATOM     26  C   UNL A   1      32.259  20.774  25.545  1.00  0.00     0.054 A 
ATOM     27  C   UNL A   1      32.362  20.983  22.786  1.00  0.00     0.051 A 
ATOM     28  C   UNL A   1      32.201  19.602  24.772  1.00  0.00     0.161 A 
ATOM     29  C   UNL A   1      32.260  19.713  23.373  1.00  0.00     0.160 A 
BRANCH  28  30
ATOM     30  O   UNL A   1      32.063  18.356  25.326  1.00  0.00    -0.493 OA
ATOM     31  C   UNL A   1      33.228  17.701  25.809  1.00  0.00     0.278 C 
ENDBRANCH  28  30
BRANCH  29  32
ATOM     32  O   UNL A   1      32.212  18.716  22.431  1.00  0.00    -0.493 OA
ATOM     33  C   UNL A   1      33.224  17.722  22.444  1.00  0.00     0.278 C 
ENDBRANCH  29  32
ENDBRANCH  13  24
BRANCH  14  34
ATOM     34  O   UNL A   1      28.991  23.911  27.189  1.00  0.00    -0.496 OA
ATOM     35  H   UNL A   1      28.210  24.395  27.006  1.00  0.00     0.294 HD
ENDBRANCH  14  34
ENDBRANCH   4   7
ENDBRANCH   2   3
ENDBRANCH   1   2
BRANCH   1  36
ATOM     36  C   UNL A   1      35.276  29.379  26.921  1.00  0.00     0.118 C 
BRANCH  36  37
ATOM     37  N   UNL A   1      34.782  30.754  27.101  1.00  0.00    -0.352 N 
ATOM     38  C   UNL A   1      35.121  31.634  28.124  1.00  0.00     0.251 C 
ATOM     39  H   UNL A   1      34.146  31.085  26.425  1.00  0.00     0.163 HD
ATOM     40  O   UNL A   1      34.569  32.707  28.285  1.00  0.00    -0.269 OA
BRANCH  38  41
ATOM     41  C   UNL A   1      36.186  31.184  29.037  1.00  0.00     0.039 A 
ATOM     42  C   UNL A   1      36.149  29.897  29.570  1.00  0.00     0.014 A 
ATOM     43  C   UNL A   1      37.349  31.941  29.036  1.00  0.00     0.014 A 
ATOM     44  C   UNL A   1      37.351  29.301  29.947  1.00  0.00     0.010 A 
ATOM     45  C   UNL A   1      38.540  31.283  29.233  1.00  0.00     0.010 A 
ATOM     46  C   UNL A   1      38.565  29.967  29.702  1.00  0.00    -0.014 A 
BRANCH  46  47
ATOM     47  C   UNL A   1      39.838  29.235  29.788  1.00  0.00     0.031 A 
ATOM     48  C   UNL A   1      40.394  29.003  31.158  1.00  0.00     0.074 A 
ATOM     49  C   UNL A   1      40.420  28.591  28.753  1.00  0.00     0.049 A 
ATOM     50  N   UNL A   1      41.479  29.502  31.659  1.00  0.00    -0.248 NA
ATOM     51  C   UNL A   1      39.632  28.178  32.107  1.00  0.00     0.031 C 
ATOM     52  C   UNL A   1      39.899  28.408  27.391  1.00  0.00     0.029 A 
ATOM     53  N   UNL A   1      41.554  27.831  28.744  1.00  0.00    -0.354 N 
ATOM     54  C   UNL A   1      41.656  28.882  32.897  1.00  0.00     0.074 A 
ATOM     55  C   UNL A   1      40.417  28.209  33.187  1.00  0.00     0.031 C 
ATOM     56  C   UNL A   1      40.536  27.378  26.799  1.00  0.00     0.029 A 
ATOM     57  C   UNL A   1      41.656  27.002  27.637  1.00  0.00     0.049 A 
ATOM     58  H   UNL A   1      42.234  27.868  29.455  1.00  0.00     0.167 HD
ATOM     59  C   UNL A   1      42.888  28.779  33.471  1.00  0.00     0.034 A 
ATOM     60  C   UNL A   1      42.604  26.079  27.379  1.00  0.00     0.034 A 
ATOM     61  C   UNL A   1      43.860  29.583  32.777  1.00  0.00     0.049 A 
ATOM     62  C   UNL A   1      43.818  26.468  28.121  1.00  0.00     0.074 A 
ATOM     63  C   UNL A   1      44.130  30.920  32.598  1.00  0.00     0.029 A 
ATOM     64  N   UNL A   1      44.591  28.892  31.847  1.00  0.00    -0.354 N 
ATOM     65  N   UNL A   1      44.490  27.560  27.875  1.00  0.00    -0.248 NA
ATOM     66  C   UNL A   1      44.171  25.782  29.355  1.00  0.00     0.031 C 
ATOM     67  C   UNL A   1      44.811  31.010  31.348  1.00  0.00     0.029 A 
ATOM     68  C   UNL A   1      44.937  29.724  30.819  1.00  0.00     0.049 A 
ATOM     69  H   UNL A   1      44.830  27.939  31.909  1.00  0.00     0.167 HD
ATOM     70  C   UNL A   1      45.004  27.925  29.105  1.00  0.00     0.074 A 
ATOM     71  C   UNL A   1      44.958  26.711  29.907  1.00  0.00     0.031 C 
ATOM     72  C   UNL A   1      45.109  29.239  29.462  1.00  0.00     0.034 A 
BRANCH  59  73
ATOM     73  C   UNL A   1      43.374  27.671  34.392  1.00  0.00     0.023 A 
ATOM     74  C   UNL A   1      43.929  28.066  35.638  1.00  0.00     0.012 A 
ATOM     75  C   UNL A   1      43.602  26.337  33.997  1.00  0.00     0.148 A 
ATOM     76  C   UNL A   1      44.715  27.203  36.410  1.00  0.00     0.002 A 
ATOM     77  C   UNL A   1      44.319  25.458  34.808  1.00  0.00     0.091 A 
ATOM     78  F   UNL A   1      43.253  25.934  32.771  1.00  0.00    -0.205 F 
ATOM     79  C   UNL A   1      44.905  25.893  35.998  1.00  0.00     0.022 A 
BRANCH  77  80
ATOM     80  S   UNL A   1      44.542  23.736  34.343  1.00  0.00     0.127 S 
ATOM     81  O   UNL A   1      45.373  23.242  35.436  1.00  0.00    -0.237 OA
ATOM     82  O   UNL A   1      43.166  23.240  34.337  1.00  0.00    -0.237 OA
ATOM     83  O   UNL A   1      45.162  23.780  33.024  1.00  0.00    -0.744 OA
ENDBRANCH  77  80
ENDBRANCH  59  73
BRANCH  60  84
ATOM     84  C   UNL A   1      42.514  24.863  26.552  1.00  0.00     0.023 A 
ATOM     85  C   UNL A   1      43.467  24.617  25.551  1.00  0.00     0.012 A 
ATOM     86  C   UNL A   1      41.619  23.829  26.909  1.00  0.00     0.148 A 
ATOM     87  C   UNL A   1      43.552  23.361  24.940  1.00  0.00     0.002 A 
ATOM     88  C   UNL A   1      41.709  22.582  26.301  1.00  0.00     0.091 A 
ATOM     89  F   UNL A   1      40.738  24.054  27.894  1.00  0.00    -0.205 F 
ATOM     90  C   UNL A   1      42.682  22.342  25.323  1.00  0.00     0.022 A 
BRANCH  88  91
ATOM     91  S   UNL A   1      40.646  21.206  26.758  1.00  0.00     0.127 S 
ATOM     92  O   UNL A   1      39.342  21.655  26.268  1.00  0.00    -0.237 OA
ATOM     93  O   UNL A   1      41.237  20.105  26.001  1.00  0.00    -0.237 OA
ATOM     94  O   UNL A   1      40.737  21.097  28.209  1.00  0.00    -0.744 OA
ENDBRANCH  88  91
ENDBRANCH  60  84
BRANCH  72  95
ATOM     95  C   UNL A   1      45.120  30.272  28.368  1.00  0.00     0.023 A 
ATOM     96  C   UNL A   1      43.939  30.721  27.744  1.00  0.00     0.012 A 
ATOM     97  C   UNL A   1      46.336  30.906  28.057  1.00  0.00     0.148 A 
ATOM     98  C   UNL A   1      43.973  31.761  26.812  1.00  0.00     0.002 A 
ATOM     99  C   UNL A   1      46.359  31.972  27.166  1.00  0.00     0.091 A 
ATOM    100  F   UNL A   1      47.453  30.470  28.659  1.00  0.00    -0.205 F 
ATOM    101  C   UNL A   1      45.181  32.395  26.532  1.00  0.00     0.022 A 
BRANCH  99 102
ATOM    102  S   UNL A   1      47.862  32.907  26.870  1.00  0.00     0.127 S 
ATOM    103  O   UNL A   1      48.803  31.862  26.476  1.00  0.00    -0.237 OA
ATOM    104  O   UNL A   1      47.467  33.814  25.790  1.00  0.00    -0.237 OA
ATOM    105  O   UNL A   1      48.158  33.583  28.128  1.00  0.00    -0.744 OA
ENDBRANCH  99 102
ENDBRANCH  72  95
ENDBRANCH  46  47
ENDBRANCH  38  41
ENDBRANCH  36  37
ENDBRANCH   1  36
TORSDOF 19
ENDMDL
MODEL 2
REMARK VINA RESULT:     -12.7      2.609      7.195
REMARK SMILES COc1ccc(-c2c(C(=O)NCCCNC(=O)c3ccc(-c4c5nc(c(-c6cccc(S(=O)(=O)[O-])c6F)c6ccc([nH]6)c(-c6cccc(S(=O)(=O)[O-])c6F)c6nc(c(-c7cccc(S(=O)(=O)[O-])c7F)c7ccc4[nH]7)C=C6)C=C5)cc3)sc3c2N=C(O)C[C@H]3c2ccc(OC)c(OC)c2)cc1
REMARK SMILES IDX 13 1 12 2 11 3 9 4 10 5 8 7 7 8 83 9 81 10 82 11 84 12 88 13
REMARK SMILES IDX 85 14 87 15 6 16 3 17 4 18 100 19 5 20 99 21 2 22 1 23 89 24
REMARK SMILES IDX 90 25 98 26 91 27 95 28 92 29 96 30 97 31 93 32 94 33 86 34
REMARK SMILES IDX 14 36 15 37 16 38 17 40 18 41 19 42 80 43 20 44 79 45 21 46
REMARK SMILES IDX 22 47 23 48 73 49 24 50 78 51 72 52 74 53 25 54 77 55 71 56
REMARK SMILES IDX 70 57 26 59 58 60 38 61 57 62 39 63 42 64 56 65 75 66 40 67
REMARK SMILES IDX 41 68 55 70 76 71 43 72 27 73 28 74 36 75 29 76 31 77 37 78
REMARK SMILES IDX 30 79 32 80 33 81 34 82 35 83 59 84 60 85 68 86 61 87 63 88
REMARK SMILES IDX 69 89 62 90 64 91 65 92 66 93 67 94 44 95 45 96 53 97 46 98
REMARK SMILES IDX 48 99 54 100 47 101 49 102 50 103 51 104 52 105
REMARK H PARENT 11 6 86 35 15 39 74 58 42 69
REMARK Flexibility Score: inf
ROOT
ATOM      1  C   UNL A   1      34.965  29.292  26.703  1.00  0.00     0.042 C 
ENDROOT
BRANCH   1   2
ATOM      2  C   UNL A   1      33.913  28.378  26.113  1.00  0.00     0.118 C 
BRANCH   2   3
ATOM      3  N   UNL A   1      32.674  28.178  26.810  1.00  0.00    -0.351 N 
ATOM      4  C   UNL A   1      31.940  27.004  26.849  1.00  0.00     0.262 C 
ATOM      5  O   UNL A   1      31.008  26.973  27.657  1.00  0.00    -0.268 OA
ATOM      6  H   UNL A   1      32.313  28.946  27.309  1.00  0.00     0.163 HD
BRANCH   4   7
ATOM      7  C   UNL A   1      32.208  25.902  25.916  1.00  0.00     0.102 A 
ATOM      8  C   UNL A   1      32.081  25.704  24.534  1.00  0.00     0.031 A 
ATOM      9  C   UNL A   1      32.403  24.358  24.182  1.00  0.00     0.090 A 
ATOM     10  S   UNL A   1      32.842  24.470  26.678  1.00  0.00    -0.131 S 
ATOM     11  C   UNL A   1      32.835  23.598  25.229  1.00  0.00     0.040 A 
ATOM     12  N   UNL A   1      32.291  23.869  22.872  1.00  0.00    -0.216 NA
ATOM     13  C   UNL A   1      33.261  22.175  25.118  1.00  0.00     0.071 C 
ATOM     14  C   UNL A   1      32.433  22.593  22.748  1.00  0.00     0.186 C 
ATOM     15  C   UNL A   1      32.688  21.568  23.828  1.00  0.00     0.111 C 
BRANCH   8  16
ATOM     16  C   UNL A   1      31.558  26.686  23.586  1.00  0.00    -0.014 A 
ATOM     17  C   UNL A   1      30.450  28.800  22.115  1.00  0.00     0.118 A 
ATOM     18  C   UNL A   1      31.833  28.576  22.106  1.00  0.00     0.047 A 
ATOM     19  C   UNL A   1      29.611  27.910  22.777  1.00  0.00     0.047 A 
ATOM     20  C   UNL A   1      32.393  27.525  22.845  1.00  0.00     0.012 A 
ATOM     21  C   UNL A   1      30.163  26.847  23.493  1.00  0.00     0.012 A 
BRANCH  17  22
ATOM     22  O   UNL A   1      30.025  29.925  21.463  1.00  0.00    -0.497 OA
ATOM     23  C   UNL A   1      28.673  30.315  21.707  1.00  0.00     0.278 C 
ENDBRANCH  17  22
ENDBRANCH   8  16
BRANCH  13  24
ATOM     24  C   UNL A   1      34.772  22.006  25.199  1.00  0.00    -0.035 A 
ATOM     25  C   UNL A   1      35.380  20.749  25.148  1.00  0.00     0.008 A 
ATOM     26  C   UNL A   1      35.588  23.145  25.328  1.00  0.00     0.054 A 
ATOM     27  C   UNL A   1      36.769  20.644  25.217  1.00  0.00     0.051 A 
ATOM     28  C   UNL A   1      36.987  23.051  25.409  1.00  0.00     0.161 A 
ATOM     29  C   UNL A   1      37.582  21.779  25.345  1.00  0.00     0.160 A 
BRANCH  28  30
ATOM     30  O   UNL A   1      37.795  24.145  25.573  1.00  0.00    -0.493 OA
ATOM     31  C   UNL A   1      38.369  24.372  26.853  1.00  0.00     0.278 C 
ENDBRANCH  28  30
BRANCH  29  32
ATOM     32  O   UNL A   1      38.913  21.452  25.412  1.00  0.00    -0.493 OA
ATOM     33  C   UNL A   1      39.267  20.092  25.614  1.00  0.00     0.278 C 
ENDBRANCH  29  32
ENDBRANCH  13  24
BRANCH  14  34
ATOM     34  O   UNL A   1      32.267  22.058  21.520  1.00  0.00    -0.496 OA
ATOM     35  H   UNL A   1      31.756  21.280  21.415  1.00  0.00     0.294 HD
ENDBRANCH  14  34
ENDBRANCH   4   7
ENDBRANCH   2   3
ENDBRANCH   1   2
BRANCH   1  36
ATOM     36  C   UNL A   1      34.944  29.334  28.219  1.00  0.00     0.118 C 
BRANCH  36  37
ATOM     37  N   UNL A   1      35.578  30.507  28.843  1.00  0.00    -0.352 N 
ATOM     38  C   UNL A   1      36.923  30.650  29.173  1.00  0.00     0.251 C 
ATOM     39  H   UNL A   1      34.989  31.270  29.047  1.00  0.00     0.163 HD
ATOM     40  O   UNL A   1      37.352  31.593  29.811  1.00  0.00    -0.269 OA
BRANCH  38  41
ATOM     41  C   UNL A   1      37.817  29.569  28.723  1.00  0.00     0.039 A 
ATOM     42  C   UNL A   1      38.489  29.681  27.507  1.00  0.00     0.014 A 
ATOM     43  C   UNL A   1      38.214  28.663  29.697  1.00  0.00     0.014 A 
ATOM     44  C   UNL A   1      39.688  28.989  27.348  1.00  0.00     0.010 A 
ATOM     45  C   UNL A   1      39.481  28.137  29.602  1.00  0.00     0.010 A 
ATOM     46  C   UNL A   1      40.231  28.276  28.431  1.00  0.00    -0.014 A 
BRANCH  46  47
ATOM     47  C   UNL A   1      41.628  27.819  28.388  1.00  0.00     0.031 A 
ATOM     48  C   UNL A   1      41.886  26.489  27.751  1.00  0.00     0.074 A 
ATOM     49  C   UNL A   1      42.694  28.593  28.689  1.00  0.00     0.049 A 
ATOM     50  N   UNL A   1      42.309  25.411  28.330  1.00  0.00    -0.248 NA
ATOM     51  C   UNL A   1      41.579  26.310  26.324  1.00  0.00     0.031 C 
ATOM     52  C   UNL A   1      42.710  30.022  29.028  1.00  0.00     0.029 A 
ATOM     53  N   UNL A   1      44.023  28.288  28.613  1.00  0.00    -0.354 N 
ATOM     54  C   UNL A   1      42.537  24.486  27.310  1.00  0.00     0.074 A 
ATOM     55  C   UNL A   1      41.921  25.033  26.130  1.00  0.00     0.031 C 
ATOM     56  C   UNL A   1      43.949  30.517  28.837  1.00  0.00     0.029 A 
ATOM     57  C   UNL A   1      44.846  29.403  28.607  1.00  0.00     0.049 A 
ATOM     58  H   UNL A   1      44.364  27.366  28.568  1.00  0.00     0.167 HD
ATOM     59  C   UNL A   1      43.417  23.456  27.467  1.00  0.00     0.034 A 
ATOM     60  C   UNL A   1      46.186  29.443  28.459  1.00  0.00     0.034 A 
ATOM     61  C   UNL A   1      43.841  23.331  28.837  1.00  0.00     0.049 A 
ATOM     62  C   UNL A   1      46.720  28.136  28.889  1.00  0.00     0.074 A 
ATOM     63  C   UNL A   1      43.289  22.954  30.039  1.00  0.00     0.029 A 
ATOM     64  N   UNL A   1      45.025  23.961  29.113  1.00  0.00    -0.354 N 
ATOM     65  N   UNL A   1      46.639  27.697  30.115  1.00  0.00    -0.248 NA
ATOM     66  C   UNL A   1      47.123  27.151  27.897  1.00  0.00     0.031 C 
ATOM     67  C   UNL A   1      44.041  23.639  31.039  1.00  0.00     0.029 A 
ATOM     68  C   UNL A   1      45.026  24.401  30.407  1.00  0.00     0.049 A 
ATOM     69  H   UNL A   1      45.766  24.080  28.475  1.00  0.00     0.167 HD
ATOM     70  C   UNL A   1      46.539  26.325  29.976  1.00  0.00     0.074 A 
ATOM     71  C   UNL A   1      47.049  26.044  28.642  1.00  0.00     0.031 C 
ATOM     72  C   UNL A   1      45.754  25.587  30.816  1.00  0.00     0.034 A 
BRANCH  59  73
ATOM     73  C   UNL A   1      44.246  22.793  26.379  1.00  0.00     0.023 A 
ATOM     74  C   UNL A   1      45.034  23.643  25.560  1.00  0.00     0.012 A 
ATOM     75  C   UNL A   1      44.066  21.470  25.923  1.00  0.00     0.148 A 
ATOM     76  C   UNL A   1      45.556  23.220  24.332  1.00  0.00     0.002 A 
ATOM     77  C   UNL A   1      44.654  21.031  24.738  1.00  0.00     0.091 A 
ATOM     78  F   UNL A   1      43.210  20.658  26.550  1.00  0.00    -0.205 F 
ATOM     79  C   UNL A   1      45.373  21.908  23.923  1.00  0.00     0.022 A 
BRANCH  77  80
ATOM     80  S   UNL A   1      44.492  19.324  24.195  1.00  0.00     0.127 S 
ATOM     81  O   UNL A   1      45.580  18.680  24.921  1.00  0.00    -0.237 OA
ATOM     82  O   UNL A   1      43.147  18.983  24.661  1.00  0.00    -0.237 OA
ATOM     83  O   UNL A   1      44.620  19.378  22.744  1.00  0.00    -0.744 OA
ENDBRANCH  77  80
ENDBRANCH  59  73
BRANCH  60  84
ATOM     84  C   UNL A   1      47.031  30.532  27.940  1.00  0.00     0.023 A 
ATOM     85  C   UNL A   1      46.576  31.337  26.883  1.00  0.00     0.012 A 
ATOM     86  C   UNL A   1      48.191  30.926  28.646  1.00  0.00     0.148 A 
ATOM     87  C   UNL A   1      47.238  32.524  26.555  1.00  0.00     0.002 A 
ATOM     88  C   UNL A   1      48.844  32.109  28.317  1.00  0.00     0.091 A 
ATOM     89  F   UNL A   1      48.598  30.179  29.681  1.00  0.00    -0.205 F 
ATOM     90  C   UNL A   1      48.363  32.916  27.277  1.00  0.00     0.022 A 
BRANCH  88  91
ATOM     91  S   UNL A   1      50.282  32.700  29.219  1.00  0.00     0.127 S 
ATOM     92  O   UNL A   1      51.379  32.057  28.494  1.00  0.00    -0.237 OA
ATOM     93  O   UNL A   1      50.186  34.145  29.024  1.00  0.00    -0.237 OA
ATOM     94  O   UNL A   1      50.113  32.234  30.589  1.00  0.00    -0.744 OA
ENDBRANCH  88  91
ENDBRANCH  60  84
BRANCH  72  95
ATOM     95  C   UNL A   1      45.391  26.182  32.150  1.00  0.00     0.023 A 
ATOM     96  C   UNL A   1      46.265  26.141  33.255  1.00  0.00     0.012 A 
ATOM     97  C   UNL A   1      44.199  26.920  32.254  1.00  0.00     0.148 A 
ATOM     98  C   UNL A   1      45.945  26.800  34.445  1.00  0.00     0.002 A 
ATOM     99  C   UNL A   1      43.907  27.613  33.422  1.00  0.00     0.091 A 
ATOM    100  F   UNL A   1      43.377  26.951  31.194  1.00  0.00    -0.205 F 
ATOM    101  C   UNL A   1      44.773  27.547  34.524  1.00  0.00     0.022 A 
BRANCH  99 102
ATOM    102  S   UNL A   1      42.479  28.695  33.531  1.00  0.00     0.127 S 
ATOM    103  O   UNL A   1      42.743  29.662  32.469  1.00  0.00    -0.237 OA
ATOM    104  O   UNL A   1      41.366  27.782  33.263  1.00  0.00    -0.237 OA
ATOM    105  O   UNL A   1      42.491  29.226  34.889  1.00  0.00    -0.744 OA
ENDBRANCH  99 102
ENDBRANCH  72  95
ENDBRANCH  46  47
ENDBRANCH  38  41
ENDBRANCH  36  37
ENDBRANCH   1  36
TORSDOF 19
ENDMDL
MODEL 3
REMARK VINA RESULT:     -11.8      5.717     10.766
REMARK SMILES COc1ccc(-c2c(C(=O)NCCCNC(=O)c3ccc(-c4c5nc(c(-c6cccc(S(=O)(=O)[O-])c6F)c6ccc([nH]6)c(-c6cccc(S(=O)(=O)[O-])c6F)c6nc(c(-c7cccc(S(=O)(=O)[O-])c7F)c7ccc4[nH]7)C=C6)C=C5)cc3)sc3c2N=C(O)C[C@H]3c2ccc(OC)c(OC)c2)cc1
REMARK SMILES IDX 13 1 12 2 11 3 9 4 10 5 8 7 7 8 83 9 81 10 82 11 84 12 88 13
REMARK SMILES IDX 85 14 87 15 6 16 3 17 4 18 100 19 5 20 99 21 2 22 1 23 89 24
REMARK SMILES IDX 90 25 98 26 91 27 95 28 92 29 96 30 97 31 93 32 94 33 86 34
REMARK SMILES IDX 14 36 15 37 16 38 17 40 18 41 19 42 80 43 20 44 79 45 21 46
REMARK SMILES IDX 22 47 23 48 73 49 24 50 78 51 72 52 74 53 25 54 77 55 71 56
REMARK SMILES IDX 70 57 26 59 58 60 38 61 57 62 39 63 42 64 56 65 75 66 40 67
REMARK SMILES IDX 41 68 55 70 76 71 43 72 27 73 28 74 36 75 29 76 31 77 37 78
REMARK SMILES IDX 30 79 32 80 33 81 34 82 35 83 59 84 60 85 68 86 61 87 63 88
REMARK SMILES IDX 69 89 62 90 64 91 65 92 66 93 67 94 44 95 45 96 53 97 46 98
REMARK SMILES IDX 48 99 54 100 47 101 49 102 50 103 51 104 52 105
REMARK H PARENT 11 6 86 35 15 39 74 58 42 69
REMARK Flexibility Score: inf
ROOT
ATOM      1  C   UNL A   1      36.785  31.152  32.670  1.00  0.00     0.042 C 
ENDROOT
BRANCH   1   2
ATOM      2  C   UNL A   1      38.053  30.650  33.328  1.00  0.00     0.118 C 
BRANCH   2   3
ATOM      3  N   UNL A   1      38.000  30.118  34.660  1.00  0.00    -0.351 N 
ATOM      4  C   UNL A   1      38.477  30.736  35.804  1.00  0.00     0.262 C 
ATOM      5  O   UNL A   1      38.165  30.209  36.875  1.00  0.00    -0.268 OA
ATOM      6  H   UNL A   1      37.584  29.233  34.772  1.00  0.00     0.163 HD
BRANCH   4   7
ATOM      7  C   UNL A   1      39.374  31.896  35.730  1.00  0.00     0.102 A 
ATOM      8  C   UNL A   1      39.258  33.229  35.313  1.00  0.00     0.031 A 
ATOM      9  C   UNL A   1      40.523  33.891  35.368  1.00  0.00     0.090 A 
ATOM     10  S   UNL A   1      40.991  31.575  36.291  1.00  0.00    -0.131 S 
ATOM     11  C   UNL A   1      41.528  33.126  35.883  1.00  0.00     0.040 A 
ATOM     12  N   UNL A   1      40.707  35.213  34.938  1.00  0.00    -0.216 NA
ATOM     13  C   UNL A   1      42.929  33.593  36.074  1.00  0.00     0.071 C 
ATOM     14  C   UNL A   1      41.934  35.603  34.873  1.00  0.00     0.186 C 
ATOM     15  C   UNL A   1      43.186  34.819  35.185  1.00  0.00     0.111 C 
BRANCH   8  16
ATOM     16  C   UNL A   1      38.050  33.838  34.761  1.00  0.00    -0.014 A 
ATOM     17  C   UNL A   1      35.725  34.670  33.432  1.00  0.00     0.118 A 
ATOM     18  C   UNL A   1      35.663  34.211  34.755  1.00  0.00     0.047 A 
ATOM     19  C   UNL A   1      36.960  34.806  32.807  1.00  0.00     0.047 A 
ATOM     20  C   UNL A   1      36.821  33.787  35.422  1.00  0.00     0.012 A 
ATOM     21  C   UNL A   1      38.118  34.410  33.477  1.00  0.00     0.012 A 
BRANCH  17  22
ATOM     22  O   UNL A   1      34.522  34.937  32.838  1.00  0.00    -0.497 OA
ATOM     23  C   UNL A   1      34.311  34.340  31.559  1.00  0.00     0.278 C 
ENDBRANCH  17  22
ENDBRANCH   8  16
BRANCH  13  24
ATOM     24  C   UNL A   1      43.259  33.875  37.534  1.00  0.00    -0.035 A 
ATOM     25  C   UNL A   1      44.289  33.208  38.203  1.00  0.00     0.008 A 
ATOM     26  C   UNL A   1      42.511  34.837  38.237  1.00  0.00     0.054 A 
ATOM     27  C   UNL A   1      44.561  33.506  39.537  1.00  0.00     0.051 A 
ATOM     28  C   UNL A   1      42.770  35.139  39.584  1.00  0.00     0.161 A 
ATOM     29  C   UNL A   1      43.815  34.465  40.238  1.00  0.00     0.160 A 
BRANCH  28  30
ATOM     30  O   UNL A   1      42.028  36.045  40.296  1.00  0.00    -0.493 OA
ATOM     31  C   UNL A   1      41.191  36.942  39.577  1.00  0.00     0.278 C 
ENDBRANCH  28  30
BRANCH  29  32
ATOM     32  O   UNL A   1      44.236  34.591  41.538  1.00  0.00    -0.493 OA
ATOM     33  C   UNL A   1      45.331  33.802  41.976  1.00  0.00     0.278 C 
ENDBRANCH  29  32
ENDBRANCH  13  24
BRANCH  14  34
ATOM     34  O   UNL A   1      42.175  36.844  34.400  1.00  0.00    -0.496 OA
ATOM     35  H   UNL A   1      41.462  37.389  34.132  1.00  0.00     0.294 HD
ENDBRANCH  14  34
ENDBRANCH   4   7
ENDBRANCH   2   3
ENDBRANCH   1   2
BRANCH   1  36
ATOM     36  C   UNL A   1      36.333  30.294  31.504  1.00  0.00     0.118 C 
BRANCH  36  37
ATOM     37  N   UNL A   1      35.578  30.986  30.446  1.00  0.00    -0.352 N 
ATOM     38  C   UNL A   1      36.076  31.438  29.227  1.00  0.00     0.251 C 
ATOM     39  H   UNL A   1      34.621  31.144  30.618  1.00  0.00     0.163 HD
ATOM     40  O   UNL A   1      35.426  32.123  28.459  1.00  0.00    -0.269 OA
BRANCH  38  41
ATOM     41  C   UNL A   1      37.466  31.061  28.917  1.00  0.00     0.039 A 
ATOM     42  C   UNL A   1      38.523  31.713  29.549  1.00  0.00     0.014 A 
ATOM     43  C   UNL A   1      37.637  29.840  28.280  1.00  0.00     0.014 A 
ATOM     44  C   UNL A   1      39.731  31.034  29.690  1.00  0.00     0.010 A 
ATOM     45  C   UNL A   1      38.763  29.111  28.586  1.00  0.00     0.010 A 
ATOM     46  C   UNL A   1      39.828  29.693  29.278  1.00  0.00    -0.014 A 
BRANCH  46  47
ATOM     47  C   UNL A   1      40.970  28.871  29.707  1.00  0.00     0.031 A 
ATOM     48  C   UNL A   1      41.252  28.817  31.176  1.00  0.00     0.074 A 
ATOM     49  C   UNL A   1      41.637  28.013  28.904  1.00  0.00     0.049 A 
ATOM     50  N   UNL A   1      42.288  29.289  31.793  1.00  0.00    -0.248 NA
ATOM     51  C   UNL A   1      40.245  28.235  32.075  1.00  0.00     0.031 C 
ATOM     52  C   UNL A   1      41.339  27.657  27.510  1.00  0.00     0.029 A 
ATOM     53  N   UNL A   1      42.656  27.159  29.219  1.00  0.00    -0.354 N 
ATOM     54  C   UNL A   1      42.175  28.868  33.120  1.00  0.00     0.074 A 
ATOM     55  C   UNL A   1      40.833  28.371  33.267  1.00  0.00     0.031 C 
ATOM     56  C   UNL A   1      41.937  26.488  27.205  1.00  0.00     0.029 A 
ATOM     57  C   UNL A   1      42.844  26.154  28.284  1.00  0.00     0.049 A 
ATOM     58  H   UNL A   1      43.204  27.250  30.032  1.00  0.00     0.167 HD
ATOM     59  C   UNL A   1      43.270  28.748  33.923  1.00  0.00     0.034 A 
ATOM     60  C   UNL A   1      43.703  25.116  28.345  1.00  0.00     0.034 A 
ATOM     61  C   UNL A   1      44.436  29.332  33.313  1.00  0.00     0.049 A 
ATOM     62  C   UNL A   1      44.811  25.508  29.237  1.00  0.00     0.074 A 
ATOM     63  C   UNL A   1      44.892  30.590  32.995  1.00  0.00     0.029 A 
ATOM     64  N   UNL A   1      45.225  28.432  32.647  1.00  0.00    -0.354 N 
ATOM     65  N   UNL A   1      45.642  26.477  28.964  1.00  0.00    -0.248 NA
ATOM     66  C   UNL A   1      44.862  25.006  30.601  1.00  0.00     0.031 C 
ATOM     67  C   UNL A   1      45.783  30.409  31.895  1.00  0.00     0.029 A 
ATOM     68  C   UNL A   1      45.840  29.047  31.592  1.00  0.00     0.049 A 
ATOM     69  H   UNL A   1      45.333  27.484  32.891  1.00  0.00     0.167 HD
ATOM     70  C   UNL A   1      45.980  26.991  30.202  1.00  0.00     0.074 A 
ATOM     71  C   UNL A   1      45.650  25.936  31.149  1.00  0.00     0.031 C 
ATOM     72  C   UNL A   1      46.181  28.331  30.378  1.00  0.00     0.034 A 
BRANCH  59  73
ATOM     73  C   UNL A   1      43.454  27.767  35.070  1.00  0.00     0.023 A 
ATOM     74  C   UNL A   1      43.710  28.318  36.353  1.00  0.00     0.012 A 
ATOM     75  C   UNL A   1      43.696  26.386  34.918  1.00  0.00     0.148 A 
ATOM     76  C   UNL A   1      44.234  27.552  37.401  1.00  0.00     0.002 A 
ATOM     77  C   UNL A   1      44.143  25.612  35.988  1.00  0.00     0.091 A 
ATOM     78  F   UNL A   1      43.634  25.826  33.707  1.00  0.00    -0.205 F 
ATOM     79  C   UNL A   1      44.445  26.194  37.221  1.00  0.00     0.022 A 
BRANCH  77  80
ATOM     80  S   UNL A   1      44.376  23.837  35.818  1.00  0.00     0.127 S 
ATOM     81  O   UNL A   1      43.035  23.398  35.451  1.00  0.00    -0.237 OA
ATOM     82  O   UNL A   1      45.370  23.761  34.747  1.00  0.00    -0.237 OA
ATOM     83  O   UNL A   1      44.871  23.398  37.117  1.00  0.00    -0.744 OA
ENDBRANCH  77  80
ENDBRANCH  59  73
BRANCH  60  84
ATOM     84  C   UNL A   1      43.609  23.794  27.702  1.00  0.00     0.023 A 
ATOM     85  C   UNL A   1      42.535  22.939  27.998  1.00  0.00     0.012 A 
ATOM     86  C   UNL A   1      44.458  23.472  26.618  1.00  0.00     0.148 A 
ATOM     87  C   UNL A   1      42.289  21.807  27.214  1.00  0.00     0.002 A 
ATOM     88  C   UNL A   1      44.206  22.347  25.841  1.00  0.00     0.091 A 
ATOM     89  F   UNL A   1      45.456  24.312  26.313  1.00  0.00    -0.205 F 
ATOM     90  C   UNL A   1      43.116  21.517  26.131  1.00  0.00     0.022 A 
BRANCH  88  91
ATOM     91  S   UNL A   1      45.206  21.920  24.409  1.00  0.00     0.127 S 
ATOM     92  O   UNL A   1      46.484  21.565  25.027  1.00  0.00    -0.237 OA
ATOM     93  O   UNL A   1      44.463  20.793  23.849  1.00  0.00    -0.237 OA
ATOM     94  O   UNL A   1      45.251  23.120  23.583  1.00  0.00    -0.744 OA
ENDBRANCH  88  91
ENDBRANCH  60  84
BRANCH  72  95
ATOM     95  C   UNL A   1      46.504  29.163  29.166  1.00  0.00     0.023 A 
ATOM     96  C   UNL A   1      47.743  29.076  28.501  1.00  0.00     0.012 A 
ATOM     97  C   UNL A   1      45.483  29.948  28.601  1.00  0.00     0.148 A 
ATOM     98  C   UNL A   1      47.969  29.779  27.314  1.00  0.00     0.002 A 
ATOM     99  C   UNL A   1      45.695  30.607  27.396  1.00  0.00     0.091 A 
ATOM    100  F   UNL A   1      44.307  30.021  29.244  1.00  0.00    -0.205 F 
ATOM    101  C   UNL A   1      46.941  30.533  26.755  1.00  0.00     0.022 A 
BRANCH  99 102
ATOM    102  S   UNL A   1      44.367  31.483  26.566  1.00  0.00     0.127 S 
ATOM    103  O   UNL A   1      43.420  30.407  26.282  1.00  0.00    -0.237 OA
ATOM    104  O   UNL A   1      43.924  32.433  27.588  1.00  0.00    -0.237 OA
ATOM    105  O   UNL A   1      44.978  32.112  25.402  1.00  0.00    -0.744 OA
ENDBRANCH  99 102
ENDBRANCH  72  95
ENDBRANCH  46  47
ENDBRANCH  38  41
ENDBRANCH  36  37
ENDBRANCH   1  36
TORSDOF 19
ENDMDL
