MODEL 1
REMARK VINA RESULT:     -10.8      0.000      0.000
REMARK SMILES CC(C)(C[NH+]1CCC(C(N)=S)CC1)C(=O)NCCCNC(=O)c1ccc(-c2c3nc(c(-c4cccc(S(=O)(=O)[O-])c4F)c4ccc([nH]4)c(-c4cccc(S(=O)(=O)[O-])c4F)c4nc(c(-c5cccc(S(=O)(=O)[O-])c5F)c5ccc2[nH]5)C=C4)C=C3)cc1
REMARK SMILES IDX 17 1 16 2 14 3 15 4 2 6 1 7 3 8 4 9 5 10 6 11 13 12 7 14
REMARK SMILES IDX 12 15 8 16 9 17 11 18 10 19 18 22 19 23 20 24 21 25 22 27
REMARK SMILES IDX 23 28 24 29 85 30 25 31 84 32 26 33 27 34 28 35 78 36 29 37
REMARK SMILES IDX 83 38 77 39 79 40 30 41 82 42 76 43 75 44 31 46 63 47 43 48
REMARK SMILES IDX 62 49 44 50 47 51 61 52 80 53 45 54 46 55 60 57 81 58 48 59
REMARK SMILES IDX 32 60 33 61 41 62 34 63 36 64 42 65 35 66 37 67 38 68 39 69
REMARK SMILES IDX 40 70 64 71 65 72 73 73 66 74 68 75 74 76 67 77 69 78 70 79
REMARK SMILES IDX 71 80 72 81 49 82 50 83 58 84 51 85 53 86 59 87 52 88 54 89
REMARK SMILES IDX 55 90 56 91 57 92
REMARK H PARENT 16 5 5 13 10 20 10 21 20 26 79 45 47 56
REMARK Flexibility Score: inf
ROOT
ATOM      1  C   UNL A   1      31.857  28.292  27.084  1.00  0.00     0.117 C 
ENDROOT
BRANCH   1   2
ATOM      2  N   UNL A   1      31.013  27.109  27.028  1.00  0.00    -0.355 N 
ATOM      3  C   UNL A   1      30.557  26.334  26.010  1.00  0.00     0.231 C 
ATOM      4  O   UNL A   1      29.960  25.308  26.361  1.00  0.00    -0.274 OA
ATOM      5  H   UNL A   1      30.709  26.806  27.914  1.00  0.00     0.163 HD
BRANCH   3   6
ATOM      6  C   UNL A   1      30.748  26.671  24.518  1.00  0.00     0.092 C 
ATOM      7  C   UNL A   1      30.648  28.205  24.345  1.00  0.00     0.027 C 
ATOM      8  C   UNL A   1      29.554  26.110  23.710  1.00  0.00     0.027 C 
BRANCH   6   9
ATOM      9  C   UNL A   1      32.098  26.134  23.940  1.00  0.00     0.278 C 
BRANCH   9  10
ATOM     10  N   UNL A   1      32.882  25.064  24.587  1.00  0.00    -0.334 N 
ATOM     11  C   UNL A   1      32.469  23.702  24.242  1.00  0.00     0.262 C 
ATOM     12  C   UNL A   1      34.331  25.269  24.587  1.00  0.00     0.262 C 
ATOM     13  H   UNL A   1      32.625  25.158  25.569  1.00  0.00     0.348 HD
ATOM     14  C   UNL A   1      33.196  22.638  25.071  1.00  0.00     0.072 C 
ATOM     15  C   UNL A   1      35.068  24.231  25.438  1.00  0.00     0.072 C 
ATOM     16  C   UNL A   1      34.709  22.825  24.955  1.00  0.00     0.058 C 
BRANCH  16  17
ATOM     17  C   UNL A   1      35.524  21.739  25.642  1.00  0.00     0.076 C 
ATOM     18  S   UNL A   1      36.812  20.922  24.975  1.00  0.00    -0.066 S 
BRANCH  17  19
ATOM     19  N   UNL A   1      35.124  21.423  26.912  1.00  0.00    -0.393 N 
ATOM     20  H   UNL A   1      34.168  21.303  27.111  1.00  0.00     0.157 HD
ATOM     21  H   UNL A   1      35.793  21.318  27.627  1.00  0.00     0.157 HD
ENDBRANCH  17  19
ENDBRANCH  16  17
ENDBRANCH   9  10
ENDBRANCH   6   9
ENDBRANCH   3   6
ENDBRANCH   1   2
BRANCH   1  22
ATOM     22  C   UNL A   1      33.332  28.012  26.825  1.00  0.00     0.042 C 
BRANCH  22  23
ATOM     23  C   UNL A   1      34.088  29.148  26.149  1.00  0.00     0.118 C 
BRANCH  23  24
ATOM     24  N   UNL A   1      33.935  30.416  26.850  1.00  0.00    -0.352 N 
ATOM     25  C   UNL A   1      34.665  30.953  27.883  1.00  0.00     0.251 C 
ATOM     26  H   UNL A   1      33.191  30.978  26.532  1.00  0.00     0.163 HD
ATOM     27  O   UNL A   1      34.234  31.940  28.472  1.00  0.00    -0.269 OA
BRANCH  25  28
ATOM     28  C   UNL A   1      35.951  30.346  28.295  1.00  0.00     0.039 A 
ATOM     29  C   UNL A   1      37.059  30.464  27.451  1.00  0.00     0.014 A 
ATOM     30  C   UNL A   1      36.062  29.634  29.491  1.00  0.00     0.014 A 
ATOM     31  C   UNL A   1      38.290  29.926  27.839  1.00  0.00     0.010 A 
ATOM     32  C   UNL A   1      37.306  29.175  29.915  1.00  0.00     0.010 A 
ATOM     33  C   UNL A   1      38.433  29.306  29.090  1.00  0.00    -0.014 A 
BRANCH  33  34
ATOM     34  C   UNL A   1      39.743  28.779  29.557  1.00  0.00     0.031 A 
ATOM     35  C   UNL A   1      40.500  29.495  30.646  1.00  0.00     0.074 A 
ATOM     36  C   UNL A   1      40.293  27.713  28.942  1.00  0.00     0.049 A 
ATOM     37  N   UNL A   1      41.692  29.248  31.121  1.00  0.00    -0.248 NA
ATOM     38  C   UNL A   1      39.838  30.656  31.266  1.00  0.00     0.031 C 
ATOM     39  C   UNL A   1      39.692  26.971  27.831  1.00  0.00     0.029 A 
ATOM     40  N   UNL A   1      41.496  27.083  29.145  1.00  0.00    -0.354 N 
ATOM     41  C   UNL A   1      41.937  30.237  32.069  1.00  0.00     0.074 A 
ATOM     42  C   UNL A   1      40.787  31.112  32.072  1.00  0.00     0.031 C 
ATOM     43  C   UNL A   1      40.524  25.987  27.456  1.00  0.00     0.029 A 
ATOM     44  C   UNL A   1      41.732  26.046  28.272  1.00  0.00     0.049 A 
ATOM     45  H   UNL A   1      42.130  27.349  29.850  1.00  0.00     0.167 HD
ATOM     46  C   UNL A   1      43.006  30.384  32.887  1.00  0.00     0.034 A 
ATOM     47  C   UNL A   1      42.804  25.240  28.139  1.00  0.00     0.034 A 
ATOM     48  C   UNL A   1      44.131  29.489  32.912  1.00  0.00     0.049 A 
ATOM     49  C   UNL A   1      43.971  25.419  29.073  1.00  0.00     0.074 A 
ATOM     50  C   UNL A   1      45.235  29.518  33.746  1.00  0.00     0.029 A 
ATOM     51  N   UNL A   1      44.294  28.401  32.069  1.00  0.00    -0.354 N 
ATOM     52  N   UNL A   1      44.122  26.277  30.053  1.00  0.00    -0.248 NA
ATOM     53  C   UNL A   1      45.103  24.495  28.907  1.00  0.00     0.031 C 
ATOM     54  C   UNL A   1      46.074  28.454  33.396  1.00  0.00     0.029 A 
ATOM     55  C   UNL A   1      45.478  27.749  32.362  1.00  0.00     0.049 A 
ATOM     56  H   UNL A   1      43.659  28.132  31.366  1.00  0.00     0.167 HD
ATOM     57  C   UNL A   1      45.339  25.966  30.648  1.00  0.00     0.074 A 
ATOM     58  C   UNL A   1      45.877  24.830  29.929  1.00  0.00     0.031 C 
ATOM     59  C   UNL A   1      45.965  26.575  31.685  1.00  0.00     0.034 A 
BRANCH  46  60
ATOM     60  C   UNL A   1      42.979  31.522  33.877  1.00  0.00     0.023 A 
ATOM     61  C   UNL A   1      43.378  32.809  33.459  1.00  0.00     0.012 A 
ATOM     62  C   UNL A   1      42.500  31.341  35.189  1.00  0.00     0.148 A 
ATOM     63  C   UNL A   1      43.338  33.889  34.339  1.00  0.00     0.002 A 
ATOM     64  C   UNL A   1      42.420  32.432  36.049  1.00  0.00     0.091 A 
ATOM     65  F   UNL A   1      42.140  30.109  35.575  1.00  0.00    -0.205 F 
ATOM     66  C   UNL A   1      42.848  33.702  35.629  1.00  0.00     0.022 A 
BRANCH  64  67
ATOM     67  S   UNL A   1      41.733  32.318  37.704  1.00  0.00     0.127 S 
ATOM     68  O   UNL A   1      40.342  31.965  37.422  1.00  0.00    -0.237 OA
ATOM     69  O   UNL A   1      42.528  31.240  38.293  1.00  0.00    -0.237 OA
ATOM     70  O   UNL A   1      41.932  33.625  38.315  1.00  0.00    -0.744 OA
ENDBRANCH  64  67
ENDBRANCH  46  60
BRANCH  47  71
ATOM     71  C   UNL A   1      42.804  24.144  27.127  1.00  0.00     0.023 A 
ATOM     72  C   UNL A   1      43.462  24.345  25.897  1.00  0.00     0.012 A 
ATOM     73  C   UNL A   1      42.162  22.914  27.367  1.00  0.00     0.148 A 
ATOM     74  C   UNL A   1      43.443  23.361  24.908  1.00  0.00     0.002 A 
ATOM     75  C   UNL A   1      42.193  21.917  26.398  1.00  0.00     0.091 A 
ATOM     76  F   UNL A   1      41.529  22.744  28.536  1.00  0.00    -0.205 F 
ATOM     77  C   UNL A   1      42.816  22.145  25.162  1.00  0.00     0.022 A 
BRANCH  75  78
ATOM     78  S   UNL A   1      41.525  20.274  26.690  1.00  0.00     0.127 S 
ATOM     79  O   UNL A   1      42.230  19.875  27.904  1.00  0.00    -0.237 OA
ATOM     80  O   UNL A   1      40.099  20.553  26.867  1.00  0.00    -0.237 OA
ATOM     81  O   UNL A   1      41.837  19.510  25.490  1.00  0.00    -0.744 OA
ENDBRANCH  75  78
ENDBRANCH  47  71
BRANCH  59  82
ATOM     82  C   UNL A   1      47.274  25.996  32.153  1.00  0.00     0.023 A 
ATOM     83  C   UNL A   1      48.481  26.416  31.559  1.00  0.00     0.012 A 
ATOM     84  C   UNL A   1      47.311  25.091  33.232  1.00  0.00     0.148 A 
ATOM     85  C   UNL A   1      49.702  25.921  32.013  1.00  0.00     0.002 A 
ATOM     86  C   UNL A   1      48.534  24.640  33.711  1.00  0.00     0.091 A 
ATOM     87  F   UNL A   1      46.149  24.689  33.770  1.00  0.00    -0.205 F 
ATOM     88  C   UNL A   1      49.730  25.043  33.096  1.00  0.00     0.022 A 
BRANCH  86  89
ATOM     89  S   UNL A   1      48.672  23.588  35.161  1.00  0.00     0.127 S 
ATOM     90  O   UNL A   1      48.148  22.318  34.658  1.00  0.00    -0.237 OA
ATOM     91  O   UNL A   1      50.113  23.595  35.413  1.00  0.00    -0.237 OA
ATOM     92  O   UNL A   1      47.874  24.226  36.199  1.00  0.00    -0.744 OA
ENDBRANCH  86  89
ENDBRANCH  59  82
ENDBRANCH  33  34
ENDBRANCH  25  28
ENDBRANCH  23  24
ENDBRANCH  22  23
ENDBRANCH   1  22
TORSDOF 17
ENDMDL
MODEL 2
REMARK VINA RESULT:     -10.6      2.261      3.076
REMARK SMILES CC(C)(C[NH+]1CCC(C(N)=S)CC1)C(=O)NCCCNC(=O)c1ccc(-c2c3nc(c(-c4cccc(S(=O)(=O)[O-])c4F)c4ccc([nH]4)c(-c4cccc(S(=O)(=O)[O-])c4F)c4nc(c(-c5cccc(S(=O)(=O)[O-])c5F)c5ccc2[nH]5)C=C4)C=C3)cc1
REMARK SMILES IDX 17 1 16 2 14 3 15 4 2 6 1 7 3 8 4 9 5 10 6 11 13 12 7 14
REMARK SMILES IDX 12 15 8 16 9 17 11 18 10 19 18 22 19 23 20 24 21 25 22 27
REMARK SMILES IDX 23 28 24 29 85 30 25 31 84 32 26 33 27 34 28 35 78 36 29 37
REMARK SMILES IDX 83 38 77 39 79 40 30 41 82 42 76 43 75 44 31 46 63 47 43 48
REMARK SMILES IDX 62 49 44 50 47 51 61 52 80 53 45 54 46 55 60 57 81 58 48 59
REMARK SMILES IDX 32 60 33 61 41 62 34 63 36 64 42 65 35 66 37 67 38 68 39 69
REMARK SMILES IDX 40 70 64 71 65 72 73 73 66 74 68 75 74 76 67 77 69 78 70 79
REMARK SMILES IDX 71 80 72 81 49 82 50 83 58 84 51 85 53 86 59 87 52 88 54 89
REMARK SMILES IDX 55 90 56 91 57 92
REMARK H PARENT 16 5 5 13 10 20 10 21 20 26 79 45 47 56
REMARK Flexibility Score: inf
ROOT
ATOM      1  C   UNL A   1      31.607  28.892  23.732  1.00  0.00     0.117 C 
ENDROOT
BRANCH   1   2
ATOM      2  N   UNL A   1      31.771  27.880  22.702  1.00  0.00    -0.355 N 
ATOM      3  C   UNL A   1      31.421  26.570  22.614  1.00  0.00     0.231 C 
ATOM      4  O   UNL A   1      31.606  26.053  21.505  1.00  0.00    -0.274 OA
ATOM      5  H   UNL A   1      32.231  28.213  21.898  1.00  0.00     0.163 HD
BRANCH   3   6
ATOM      6  C   UNL A   1      30.834  25.755  23.784  1.00  0.00     0.092 C 
ATOM      7  C   UNL A   1      30.390  24.375  23.245  1.00  0.00     0.027 C 
ATOM      8  C   UNL A   1      29.525  26.423  24.267  1.00  0.00     0.027 C 
BRANCH   6   9
ATOM      9  C   UNL A   1      31.834  25.590  24.974  1.00  0.00     0.278 C 
BRANCH   9  10
ATOM     10  N   UNL A   1      32.991  24.674  24.933  1.00  0.00    -0.334 N 
ATOM     11  C   UNL A   1      34.287  25.307  25.185  1.00  0.00     0.262 C 
ATOM     12  C   UNL A   1      32.800  23.401  25.627  1.00  0.00     0.262 C 
ATOM     13  H   UNL A   1      33.034  24.409  23.949  1.00  0.00     0.348 HD
ATOM     14  C   UNL A   1      35.464  24.351  24.958  1.00  0.00     0.072 C 
ATOM     15  C   UNL A   1      33.954  22.424  25.383  1.00  0.00     0.072 C 
ATOM     16  C   UNL A   1      35.274  23.080  25.787  1.00  0.00     0.058 C 
BRANCH  16  17
ATOM     17  C   UNL A   1      36.453  22.119  25.728  1.00  0.00     0.076 C 
ATOM     18  S   UNL A   1      36.433  20.598  25.050  1.00  0.00    -0.066 S 
BRANCH  17  19
ATOM     19  N   UNL A   1      37.607  22.572  26.306  1.00  0.00    -0.393 N 
ATOM     20  H   UNL A   1      37.654  22.694  27.282  1.00  0.00     0.157 HD
ATOM     21  H   UNL A   1      38.390  22.779  25.746  1.00  0.00     0.157 HD
ENDBRANCH  17  19
ENDBRANCH  16  17
ENDBRANCH   9  10
ENDBRANCH   6   9
ENDBRANCH   3   6
ENDBRANCH   1   2
BRANCH   1  22
ATOM     22  C   UNL A   1      32.868  29.156  24.545  1.00  0.00     0.042 C 
BRANCH  22  23
ATOM     23  C   UNL A   1      32.627  29.457  26.018  1.00  0.00     0.118 C 
BRANCH  23  24
ATOM     24  N   UNL A   1      32.493  30.883  26.284  1.00  0.00    -0.352 N 
ATOM     25  C   UNL A   1      33.200  31.699  27.134  1.00  0.00     0.251 C 
ATOM     26  H   UNL A   1      31.781  31.334  25.773  1.00  0.00     0.163 HD
ATOM     27  O   UNL A   1      32.782  32.829  27.368  1.00  0.00    -0.269 OA
BRANCH  25  28
ATOM     28  C   UNL A   1      34.447  31.222  27.775  1.00  0.00     0.039 A 
ATOM     29  C   UNL A   1      35.506  32.118  27.950  1.00  0.00     0.014 A 
ATOM     30  C   UNL A   1      34.590  29.892  28.175  1.00  0.00     0.014 A 
ATOM     31  C   UNL A   1      36.678  31.694  28.583  1.00  0.00     0.010 A 
ATOM     32  C   UNL A   1      35.721  29.495  28.881  1.00  0.00     0.010 A 
ATOM     33  C   UNL A   1      36.783  30.388  29.086  1.00  0.00    -0.014 A 
BRANCH  33  34
ATOM     34  C   UNL A   1      37.993  29.927  29.818  1.00  0.00     0.031 A 
ATOM     35  C   UNL A   1      38.298  30.472  31.189  1.00  0.00     0.074 A 
ATOM     36  C   UNL A   1      38.861  29.089  29.216  1.00  0.00     0.049 A 
ATOM     37  N   UNL A   1      39.346  30.268  31.944  1.00  0.00    -0.248 NA
ATOM     38  C   UNL A   1      37.306  31.388  31.780  1.00  0.00     0.031 C 
ATOM     39  C   UNL A   1      38.713  28.541  27.866  1.00  0.00     0.029 A 
ATOM     40  N   UNL A   1      40.057  28.573  29.652  1.00  0.00    -0.354 N 
ATOM     41  C   UNL A   1      39.157  31.050  33.079  1.00  0.00     0.074 A 
ATOM     42  C   UNL A   1      37.914  31.765  32.896  1.00  0.00     0.031 C 
ATOM     43  C   UNL A   1      39.772  27.764  27.587  1.00  0.00     0.029 A 
ATOM     44  C   UNL A   1      40.691  27.784  28.719  1.00  0.00     0.049 A 
ATOM     45  H   UNL A   1      40.425  28.752  30.547  1.00  0.00     0.167 HD
ATOM     46  C   UNL A   1      39.928  31.139  34.189  1.00  0.00     0.034 A 
ATOM     47  C   UNL A   1      41.882  27.155  28.770  1.00  0.00     0.034 A 
ATOM     48  C   UNL A   1      41.142  30.395  34.387  1.00  0.00     0.049 A 
ATOM     49  C   UNL A   1      42.710  27.261  30.023  1.00  0.00     0.074 A 
ATOM     50  C   UNL A   1      41.963  30.370  35.501  1.00  0.00     0.029 A 
ATOM     51  N   UNL A   1      41.707  29.541  33.454  1.00  0.00    -0.354 N 
ATOM     52  N   UNL A   1      42.446  27.899  31.138  1.00  0.00    -0.248 NA
ATOM     53  C   UNL A   1      43.987  26.532  30.039  1.00  0.00     0.031 C 
ATOM     54  C   UNL A   1      43.034  29.510  35.234  1.00  0.00     0.029 A 
ATOM     55  C   UNL A   1      42.865  28.982  33.964  1.00  0.00     0.049 A 
ATOM     56  H   UNL A   1      41.339  29.359  32.559  1.00  0.00     0.167 HD
ATOM     57  C   UNL A   1      43.496  27.609  32.001  1.00  0.00     0.074 A 
ATOM     58  C   UNL A   1      44.392  26.724  31.286  1.00  0.00     0.031 C 
ATOM     59  C   UNL A   1      43.709  28.047  33.267  1.00  0.00     0.034 A 
BRANCH  46  60
ATOM     60  C   UNL A   1      39.443  32.024  35.309  1.00  0.00     0.023 A 
ATOM     61  C   UNL A   1      38.569  31.491  36.280  1.00  0.00     0.012 A 
ATOM     62  C   UNL A   1      39.895  33.351  35.443  1.00  0.00     0.148 A 
ATOM     63  C   UNL A   1      38.125  32.274  37.345  1.00  0.00     0.002 A 
ATOM     64  C   UNL A   1      39.484  34.112  36.532  1.00  0.00     0.091 A 
ATOM     65  F   UNL A   1      40.712  33.847  34.502  1.00  0.00    -0.205 F 
ATOM     66  C   UNL A   1      38.591  33.579  37.476  1.00  0.00     0.022 A 
BRANCH  64  67
ATOM     67  S   UNL A   1      40.084  35.777  36.839  1.00  0.00     0.127 S 
ATOM     68  O   UNL A   1      41.530  35.563  36.896  1.00  0.00    -0.237 OA
ATOM     69  O   UNL A   1      39.620  36.495  35.651  1.00  0.00    -0.237 OA
ATOM     70  O   UNL A   1      39.467  36.205  38.087  1.00  0.00    -0.744 OA
ENDBRANCH  64  67
ENDBRANCH  46  60
BRANCH  47  71
ATOM     71  C   UNL A   1      42.339  26.311  27.628  1.00  0.00     0.023 A 
ATOM     72  C   UNL A   1      43.157  26.886  26.634  1.00  0.00     0.012 A 
ATOM     73  C   UNL A   1      41.973  24.956  27.514  1.00  0.00     0.148 A 
ATOM     74  C   UNL A   1      43.565  26.141  25.527  1.00  0.00     0.002 A 
ATOM     75  C   UNL A   1      42.429  24.205  26.437  1.00  0.00     0.091 A 
ATOM     76  F   UNL A   1      41.184  24.429  28.461  1.00  0.00    -0.205 F 
ATOM     77  C   UNL A   1      43.208  24.799  25.433  1.00  0.00     0.022 A 
BRANCH  75  78
ATOM     78  S   UNL A   1      42.126  22.439  26.302  1.00  0.00     0.127 S 
ATOM     79  O   UNL A   1      40.668  22.389  26.235  1.00  0.00    -0.237 OA
ATOM     80  O   UNL A   1      42.813  22.106  25.053  1.00  0.00    -0.237 OA
ATOM     81  O   UNL A   1      42.730  21.850  27.490  1.00  0.00    -0.744 OA
ENDBRANCH  75  78
ENDBRANCH  47  71
BRANCH  59  82
ATOM     82  C   UNL A   1      44.926  27.535  33.990  1.00  0.00     0.023 A 
ATOM     83  C   UNL A   1      46.140  28.246  33.915  1.00  0.00     0.012 A 
ATOM     84  C   UNL A   1      44.844  26.389  34.806  1.00  0.00     0.148 A 
ATOM     85  C   UNL A   1      47.262  27.807  34.617  1.00  0.00     0.002 A 
ATOM     86  C   UNL A   1      45.951  25.985  35.540  1.00  0.00     0.091 A 
ATOM     87  F   UNL A   1      43.685  25.715  34.848  1.00  0.00    -0.205 F 
ATOM     88  C   UNL A   1      47.164  26.685  35.438  1.00  0.00     0.022 A 
BRANCH  86  89
ATOM     89  S   UNL A   1      45.892  24.613  36.699  1.00  0.00     0.127 S 
ATOM     90  O   UNL A   1      45.794  23.466  35.796  1.00  0.00    -0.237 OA
ATOM     91  O   UNL A   1      47.174  24.735  37.391  1.00  0.00    -0.237 OA
ATOM     92  O   UNL A   1      44.727  24.847  37.540  1.00  0.00    -0.744 OA
ENDBRANCH  86  89
ENDBRANCH  59  82
ENDBRANCH  33  34
ENDBRANCH  25  28
ENDBRANCH  23  24
ENDBRANCH  22  23
ENDBRANCH   1  22
TORSDOF 17
ENDMDL
MODEL 3
REMARK VINA RESULT:     -10.5      4.838      9.589
REMARK SMILES CC(C)(C[NH+]1CCC(C(N)=S)CC1)C(=O)NCCCNC(=O)c1ccc(-c2c3nc(c(-c4cccc(S(=O)(=O)[O-])c4F)c4ccc([nH]4)c(-c4cccc(S(=O)(=O)[O-])c4F)c4nc(c(-c5cccc(S(=O)(=O)[O-])c5F)c5ccc2[nH]5)C=C4)C=C3)cc1
REMARK SMILES IDX 17 1 16 2 14 3 15 4 2 6 1 7 3 8 4 9 5 10 6 11 13 12 7 14
REMARK SMILES IDX 12 15 8 16 9 17 11 18 10 19 18 22 19 23 20 24 21 25 22 27
REMARK SMILES IDX 23 28 24 29 85 30 25 31 84 32 26 33 27 34 28 35 78 36 29 37
REMARK SMILES IDX 83 38 77 39 79 40 30 41 82 42 76 43 75 44 31 46 63 47 43 48
REMARK SMILES IDX 62 49 44 50 47 51 61 52 80 53 45 54 46 55 60 57 81 58 48 59
REMARK SMILES IDX 32 60 33 61 41 62 34 63 36 64 42 65 35 66 37 67 38 68 39 69
REMARK SMILES IDX 40 70 64 71 65 72 73 73 66 74 68 75 74 76 67 77 69 78 70 79
REMARK SMILES IDX 71 80 72 81 49 82 50 83 58 84 51 85 53 86 59 87 52 88 54 89
REMARK SMILES IDX 55 90 56 91 57 92
REMARK H PARENT 16 5 5 13 10 20 10 21 20 26 79 45 47 56
REMARK Flexibility Score: inf
ROOT
ATOM      1  C   UNL A   1      35.019  21.545  25.924  1.00  0.00     0.117 C 
ENDROOT
BRANCH   1   2
ATOM      2  N   UNL A   1      34.206  21.996  27.042  1.00  0.00    -0.355 N 
ATOM      3  C   UNL A   1      32.909  22.382  27.159  1.00  0.00     0.231 C 
ATOM      4  O   UNL A   1      32.522  22.573  28.319  1.00  0.00    -0.274 OA
ATOM      5  H   UNL A   1      34.699  22.029  27.894  1.00  0.00     0.163 HD
BRANCH   3   6
ATOM      6  C   UNL A   1      31.958  22.578  25.962  1.00  0.00     0.092 C 
ATOM      7  C   UNL A   1      30.502  22.571  26.486  1.00  0.00     0.027 C 
ATOM      8  C   UNL A   1      32.042  21.343  25.034  1.00  0.00     0.027 C 
BRANCH   6   9
ATOM      9  C   UNL A   1      32.251  23.885  25.157  1.00  0.00     0.278 C 
BRANCH   9  10
ATOM     10  N   UNL A   1      32.521  25.185  25.803  1.00  0.00    -0.334 N 
ATOM     11  C   UNL A   1      33.696  25.895  25.295  1.00  0.00     0.262 C 
ATOM     12  C   UNL A   1      31.347  26.035  26.002  1.00  0.00     0.262 C 
ATOM     13  H   UNL A   1      32.787  24.916  26.750  1.00  0.00     0.348 HD
ATOM     14  C   UNL A   1      34.029  27.146  26.114  1.00  0.00     0.072 C 
ATOM     15  C   UNL A   1      31.658  27.274  26.846  1.00  0.00     0.072 C 
ATOM     16  C   UNL A   1      32.804  28.056  26.204  1.00  0.00     0.058 C 
BRANCH  16  17
ATOM     17  C   UNL A   1      33.068  29.387  26.892  1.00  0.00     0.076 C 
ATOM     18  S   UNL A   1      32.143  30.763  26.736  1.00  0.00    -0.066 S 
BRANCH  17  19
ATOM     19  N   UNL A   1      34.180  29.424  27.689  1.00  0.00    -0.393 N 
ATOM     20  H   UNL A   1      34.668  28.593  27.890  1.00  0.00     0.157 HD
ATOM     21  H   UNL A   1      34.490  30.280  28.064  1.00  0.00     0.157 HD
ENDBRANCH  17  19
ENDBRANCH  16  17
ENDBRANCH   9  10
ENDBRANCH   6   9
ENDBRANCH   3   6
ENDBRANCH   1   2
BRANCH   1  22
ATOM     22  C   UNL A   1      36.038  22.572  25.447  1.00  0.00     0.042 C 
BRANCH  22  23
ATOM     23  C   UNL A   1      37.194  21.997  24.639  1.00  0.00     0.118 C 
BRANCH  23  24
ATOM     24  N   UNL A   1      37.929  20.971  25.367  1.00  0.00    -0.352 N 
ATOM     25  C   UNL A   1      39.069  21.067  26.129  1.00  0.00     0.251 C 
ATOM     26  H   UNL A   1      37.549  20.065  25.302  1.00  0.00     0.163 HD
ATOM     27  O   UNL A   1      39.646  20.041  26.477  1.00  0.00    -0.269 OA
BRANCH  25  28
ATOM     28  C   UNL A   1      39.608  22.390  26.519  1.00  0.00     0.039 A 
ATOM     29  C   UNL A   1      40.662  22.450  27.435  1.00  0.00     0.014 A 
ATOM     30  C   UNL A   1      39.058  23.570  26.015  1.00  0.00     0.014 A 
ATOM     31  C   UNL A   1      41.206  23.688  27.791  1.00  0.00     0.010 A 
ATOM     32  C   UNL A   1      39.655  24.794  26.302  1.00  0.00     0.010 A 
ATOM     33  C   UNL A   1      40.730  24.869  27.201  1.00  0.00    -0.014 A 
BRANCH  33  34
ATOM     34  C   UNL A   1      41.329  26.195  27.512  1.00  0.00     0.031 A 
ATOM     35  C   UNL A   1      42.761  26.482  27.141  1.00  0.00     0.074 A 
ATOM     36  C   UNL A   1      40.616  27.105  28.205  1.00  0.00     0.049 A 
ATOM     37  N   UNL A   1      43.488  27.534  27.410  1.00  0.00    -0.248 NA
ATOM     38  C   UNL A   1      43.479  25.436  26.391  1.00  0.00     0.031 C 
ATOM     39  C   UNL A   1      39.242  26.925  28.679  1.00  0.00     0.029 A 
ATOM     40  N   UNL A   1      40.958  28.356  28.657  1.00  0.00    -0.354 N 
ATOM     41  C   UNL A   1      44.752  27.267  26.893  1.00  0.00     0.074 A 
ATOM     42  C   UNL A   1      44.705  25.936  26.331  1.00  0.00     0.031 C 
ATOM     43  C   UNL A   1      38.858  28.023  29.348  1.00  0.00     0.029 A 
ATOM     44  C   UNL A   1      39.965  28.972  29.384  1.00  0.00     0.049 A 
ATOM     45  H   UNL A   1      41.832  28.772  28.478  1.00  0.00     0.167 HD
ATOM     46  C   UNL A   1      45.843  28.069  26.856  1.00  0.00     0.034 A 
ATOM     47  C   UNL A   1      39.953  30.164  30.014  1.00  0.00     0.034 A 
ATOM     48  C   UNL A   1      45.875  29.408  27.378  1.00  0.00     0.049 A 
ATOM     49  C   UNL A   1      41.176  31.039  29.944  1.00  0.00     0.074 A 
ATOM     50  C   UNL A   1      46.913  30.323  27.337  1.00  0.00     0.029 A 
ATOM     51  N   UNL A   1      44.822  30.027  28.033  1.00  0.00    -0.354 N 
ATOM     52  N   UNL A   1      42.315  30.821  29.332  1.00  0.00    -0.248 NA
ATOM     53  C   UNL A   1      41.100  32.341  30.622  1.00  0.00     0.031 C 
ATOM     54  C   UNL A   1      46.492  31.491  27.980  1.00  0.00     0.029 A 
ATOM     55  C   UNL A   1      45.183  31.311  28.399  1.00  0.00     0.049 A 
ATOM     56  H   UNL A   1      43.946  29.614  28.211  1.00  0.00     0.167 HD
ATOM     57  C   UNL A   1      43.070  31.974  29.510  1.00  0.00     0.074 A 
ATOM     58  C   UNL A   1      42.253  32.895  30.273  1.00  0.00     0.031 C 
ATOM     59  C   UNL A   1      44.332  32.242  29.094  1.00  0.00     0.034 A 
BRANCH  46  60
ATOM     60  C   UNL A   1      47.076  27.542  26.166  1.00  0.00     0.023 A 
ATOM     61  C   UNL A   1      47.263  27.808  24.793  1.00  0.00     0.012 A 
ATOM     62  C   UNL A   1      48.074  26.848  26.876  1.00  0.00     0.148 A 
ATOM     63  C   UNL A   1      48.405  27.361  24.131  1.00  0.00     0.002 A 
ATOM     64  C   UNL A   1      49.232  26.445  26.219  1.00  0.00     0.091 A 
ATOM     65  F   UNL A   1      47.872  26.589  28.176  1.00  0.00    -0.205 F 
ATOM     66  C   UNL A   1      49.393  26.690  24.846  1.00  0.00     0.022 A 
BRANCH  64  67
ATOM     67  S   UNL A   1      50.600  25.642  27.062  1.00  0.00     0.127 S 
ATOM     68  O   UNL A   1      49.953  24.447  27.602  1.00  0.00    -0.237 OA
ATOM     69  O   UNL A   1      51.532  25.388  25.963  1.00  0.00    -0.237 OA
ATOM     70  O   UNL A   1      51.077  26.595  28.055  1.00  0.00    -0.744 OA
ENDBRANCH  64  67
ENDBRANCH  46  60
BRANCH  47  71
ATOM     71  C   UNL A   1      38.722  30.636  30.712  1.00  0.00     0.023 A 
ATOM     72  C   UNL A   1      38.564  30.364  32.086  1.00  0.00     0.012 A 
ATOM     73  C   UNL A   1      37.711  31.344  30.034  1.00  0.00     0.148 A 
ATOM     74  C   UNL A   1      37.405  30.748  32.761  1.00  0.00     0.002 A 
ATOM     75  C   UNL A   1      36.583  31.772  30.726  1.00  0.00     0.091 A 
ATOM     76  F   UNL A   1      37.870  31.583  28.725  1.00  0.00    -0.205 F 
ATOM     77  C   UNL A   1      36.419  31.459  32.083  1.00  0.00     0.022 A 
BRANCH  75  78
ATOM     78  S   UNL A   1      35.325  32.805  29.964  1.00  0.00     0.127 S 
ATOM     79  O   UNL A   1      34.832  31.939  28.897  1.00  0.00    -0.237 OA
ATOM     80  O   UNL A   1      34.391  33.013  31.071  1.00  0.00    -0.237 OA
ATOM     81  O   UNL A   1      36.020  34.012  29.537  1.00  0.00    -0.744 OA
ENDBRANCH  75  78
ENDBRANCH  47  71
BRANCH  59  82
ATOM     82  C   UNL A   1      44.896  33.605  29.399  1.00  0.00     0.023 A 
ATOM     83  C   UNL A   1      45.601  33.824  30.599  1.00  0.00     0.012 A 
ATOM     84  C   UNL A   1      44.790  34.649  28.458  1.00  0.00     0.148 A 
ATOM     85  C   UNL A   1      46.165  35.069  30.871  1.00  0.00     0.002 A 
ATOM     86  C   UNL A   1      45.398  35.871  28.714  1.00  0.00     0.091 A 
ATOM     87  F   UNL A   1      44.099  34.426  27.330  1.00  0.00    -0.205 F 
ATOM     88  C   UNL A   1      46.074  36.088  29.925  1.00  0.00     0.022 A 
BRANCH  86  89
ATOM     89  S   UNL A   1      45.418  37.208  27.513  1.00  0.00     0.127 S 
ATOM     90  O   UNL A   1      43.991  37.486  27.355  1.00  0.00    -0.237 OA
ATOM     91  O   UNL A   1      46.167  38.247  28.219  1.00  0.00    -0.237 OA
ATOM     92  O   UNL A   1      46.086  36.678  26.333  1.00  0.00    -0.744 OA
ENDBRANCH  86  89
ENDBRANCH  59  82
ENDBRANCH  33  34
ENDBRANCH  25  28
ENDBRANCH  23  24
ENDBRANCH  22  23
ENDBRANCH   1  22
TORSDOF 17
ENDMDL
