MODEL 1
REMARK VINA RESULT:     -11.0      0.000      0.000
REMARK SMILES C=C(CC)C[C@@]1(C(=O)NCCCNC(=O)c2ccc(-c3c4nc(c(-c5cccc(S(=O)(=O)[O-])c5F)c5ccc([nH]5)c(-c5cccc(S(=O)(=O)[O-])c5F)c5nc(c(-c6cccc(S(=O)(=O)[O-])c6F)c6ccc3[nH]6)C=C5)C=C4)cc2)C[C@H]2CC[C@@H]1C2
REMARK SMILES IDX 11 1 10 2 9 3 7 4 8 5 6 7 79 8 83 9 80 10 82 11 84 12 81 13
REMARK SMILES IDX 5 14 2 15 1 16 3 17 4 18 12 19 13 20 14 21 15 23 16 24 17 25
REMARK SMILES IDX 78 26 18 27 77 28 19 29 20 30 21 31 71 32 22 33 76 34 70 35
REMARK SMILES IDX 72 36 23 37 75 38 69 39 68 40 24 42 56 43 36 44 55 45 37 46
REMARK SMILES IDX 40 47 54 48 73 49 38 50 39 51 53 53 74 54 41 55 25 56 26 57
REMARK SMILES IDX 34 58 27 59 29 60 35 61 28 62 30 63 31 64 32 65 33 66 57 67
REMARK SMILES IDX 58 68 66 69 59 70 61 71 67 72 60 73 62 74 63 75 64 76 65 77
REMARK SMILES IDX 42 78 43 79 51 80 44 81 46 82 52 83 45 84 47 85 48 86 49 87
REMARK SMILES IDX 50 88
REMARK H PARENT 9 6 13 22 72 41 40 52
REMARK Flexibility Score: inf
ROOT
ATOM      1  C   UNL A   1      32.945  29.316  23.832  1.00  0.00     0.042 C 
ENDROOT
BRANCH   1   2
ATOM      2  C   UNL A   1      34.126  28.517  23.282  1.00  0.00     0.117 C 
BRANCH   2   3
ATOM      3  N   UNL A   1      33.669  27.533  22.325  1.00  0.00    -0.356 N 
ATOM      4  C   UNL A   1      33.471  26.196  22.374  1.00  0.00     0.226 C 
ATOM      5  O   UNL A   1      33.404  25.684  21.245  1.00  0.00    -0.274 OA
ATOM      6  H   UNL A   1      33.454  27.921  21.446  1.00  0.00     0.163 HD
BRANCH   4   7
ATOM      7  C   UNL A   1      33.175  25.344  23.650  1.00  0.00     0.056 C 
ATOM      8  C   UNL A   1      32.833  23.876  23.209  1.00  0.00     0.021 C 
ATOM      9  C   UNL A   1      31.762  25.801  24.207  1.00  0.00     0.005 C 
ATOM     10  C   UNL A   1      31.332  23.724  23.534  1.00  0.00    -0.010 C 
ATOM     11  C   UNL A   1      31.378  25.071  25.518  1.00  0.00     0.005 C 
ATOM     12  C   UNL A   1      30.774  25.115  23.255  1.00  0.00     0.008 C 
ATOM     13  C   UNL A   1      31.176  23.619  25.060  1.00  0.00     0.004 C 
BRANCH   7  14
ATOM     14  C   UNL A   1      34.220  25.362  24.800  1.00  0.00     0.047 C 
BRANCH  14  15
ATOM     15  C   UNL A   1      34.993  24.146  25.259  1.00  0.00    -0.077 C 
ATOM     16  C   UNL A   1      34.606  23.361  26.280  1.00  0.00     0.008 C 
BRANCH  15  17
ATOM     17  C   UNL A   1      36.327  23.877  24.555  1.00  0.00     0.027 C 
ATOM     18  C   UNL A   1      36.338  22.839  23.429  1.00  0.00     0.008 C 
ENDBRANCH  15  17
ENDBRANCH  14  15
ENDBRANCH   7  14
ENDBRANCH   4   7
ENDBRANCH   2   3
ENDBRANCH   1   2
BRANCH   1  19
ATOM     19  C   UNL A   1      32.732  29.246  25.333  1.00  0.00     0.118 C 
BRANCH  19  20
ATOM     20  N   UNL A   1      32.430  30.523  25.959  1.00  0.00    -0.352 N 
ATOM     21  C   UNL A   1      33.075  31.260  26.923  1.00  0.00     0.251 C 
ATOM     22  H   UNL A   1      31.602  30.939  25.629  1.00  0.00     0.163 HD
ATOM     23  O   UNL A   1      32.559  32.323  27.267  1.00  0.00    -0.269 OA
BRANCH  21  24
ATOM     24  C   UNL A   1      34.334  30.815  27.579  1.00  0.00     0.039 A 
ATOM     25  C   UNL A   1      35.356  31.756  27.760  1.00  0.00     0.014 A 
ATOM     26  C   UNL A   1      34.554  29.504  27.998  1.00  0.00     0.014 A 
ATOM     27  C   UNL A   1      36.549  31.397  28.399  1.00  0.00     0.010 A 
ATOM     28  C   UNL A   1      35.675  29.184  28.760  1.00  0.00     0.010 A 
ATOM     29  C   UNL A   1      36.706  30.114  28.942  1.00  0.00    -0.014 A 
BRANCH  29  30
ATOM     30  C   UNL A   1      37.941  29.703  29.663  1.00  0.00     0.031 A 
ATOM     31  C   UNL A   1      38.218  30.227  31.052  1.00  0.00     0.074 A 
ATOM     32  C   UNL A   1      38.860  28.933  29.044  1.00  0.00     0.049 A 
ATOM     33  N   UNL A   1      39.274  30.061  31.805  1.00  0.00    -0.248 NA
ATOM     34  C   UNL A   1      37.188  31.089  31.660  1.00  0.00     0.031 C 
ATOM     35  C   UNL A   1      38.756  28.426  27.673  1.00  0.00     0.029 A 
ATOM     36  N   UNL A   1      40.073  28.461  29.479  1.00  0.00    -0.354 N 
ATOM     37  C   UNL A   1      39.060  30.834  32.942  1.00  0.00     0.074 A 
ATOM     38  C   UNL A   1      37.798  31.514  32.755  1.00  0.00     0.031 C 
ATOM     39  C   UNL A   1      39.845  27.693  27.390  1.00  0.00     0.029 A 
ATOM     40  C   UNL A   1      40.743  27.711  28.540  1.00  0.00     0.049 A 
ATOM     41  H   UNL A   1      40.430  28.641  30.378  1.00  0.00     0.167 HD
ATOM     42  C   UNL A   1      39.817  30.942  34.060  1.00  0.00     0.034 A 
ATOM     43  C   UNL A   1      41.947  27.107  28.597  1.00  0.00     0.034 A 
ATOM     44  C   UNL A   1      41.040  30.216  34.268  1.00  0.00     0.049 A 
ATOM     45  C   UNL A   1      42.751  27.201  29.866  1.00  0.00     0.074 A 
ATOM     46  C   UNL A   1      41.837  30.178  35.398  1.00  0.00     0.029 A 
ATOM     47  N   UNL A   1      41.643  29.398  33.324  1.00  0.00    -0.354 N 
ATOM     48  N   UNL A   1      42.460  27.822  30.983  1.00  0.00    -0.248 NA
ATOM     49  C   UNL A   1      44.031  26.481  29.894  1.00  0.00     0.031 C 
ATOM     50  C   UNL A   1      42.938  29.358  35.126  1.00  0.00     0.029 A 
ATOM     51  C   UNL A   1      42.807  28.857  33.841  1.00  0.00     0.049 A 
ATOM     52  H   UNL A   1      41.294  29.230  32.419  1.00  0.00     0.167 HD
ATOM     53  C   UNL A   1      43.499  27.535  31.861  1.00  0.00     0.074 A 
ATOM     54  C   UNL A   1      44.417  26.669  31.148  1.00  0.00     0.031 C 
ATOM     55  C   UNL A   1      43.682  27.955  33.136  1.00  0.00     0.034 A 
BRANCH  42  56
ATOM     56  C   UNL A   1      39.309  31.836  35.165  1.00  0.00     0.023 A 
ATOM     57  C   UNL A   1      38.336  31.351  36.065  1.00  0.00     0.012 A 
ATOM     58  C   UNL A   1      39.810  33.141  35.335  1.00  0.00     0.148 A 
ATOM     59  C   UNL A   1      37.829  32.166  37.077  1.00  0.00     0.002 A 
ATOM     60  C   UNL A   1      39.340  33.930  36.379  1.00  0.00     0.091 A 
ATOM     61  F   UNL A   1      40.722  33.596  34.463  1.00  0.00    -0.205 F 
ATOM     62  C   UNL A   1      38.338  33.450  37.239  1.00  0.00     0.022 A 
BRANCH  60  63
ATOM     63  S   UNL A   1      39.991  35.567  36.729  1.00  0.00     0.127 S 
ATOM     64  O   UNL A   1      39.347  35.874  38.005  1.00  0.00    -0.237 OA
ATOM     65  O   UNL A   1      41.429  35.313  36.818  1.00  0.00    -0.237 OA
ATOM     66  O   UNL A   1      39.591  36.406  35.608  1.00  0.00    -0.744 OA
ENDBRANCH  60  63
ENDBRANCH  42  56
BRANCH  43  67
ATOM     67  C   UNL A   1      42.423  26.286  27.446  1.00  0.00     0.023 A 
ATOM     68  C   UNL A   1      43.260  26.878  26.481  1.00  0.00     0.012 A 
ATOM     69  C   UNL A   1      42.086  24.924  27.321  1.00  0.00     0.148 A 
ATOM     70  C   UNL A   1      43.728  26.139  25.393  1.00  0.00     0.002 A 
ATOM     71  C   UNL A   1      42.600  24.180  26.266  1.00  0.00     0.091 A 
ATOM     72  F   UNL A   1      41.284  24.381  28.247  1.00  0.00    -0.205 F 
ATOM     73  C   UNL A   1      43.407  24.788  25.291  1.00  0.00     0.022 A 
BRANCH  71  74
ATOM     74  S   UNL A   1      42.348  22.407  26.117  1.00  0.00     0.127 S 
ATOM     75  O   UNL A   1      43.109  22.096  24.911  1.00  0.00    -0.237 OA
ATOM     76  O   UNL A   1      42.934  21.915  27.362  1.00  0.00    -0.237 OA
ATOM     77  O   UNL A   1      40.904  22.221  26.017  1.00  0.00    -0.744 OA
ENDBRANCH  71  74
ENDBRANCH  43  67
BRANCH  55  78
ATOM     78  C   UNL A   1      44.896  27.451  33.872  1.00  0.00     0.023 A 
ATOM     79  C   UNL A   1      46.089  28.200  33.863  1.00  0.00     0.012 A 
ATOM     80  C   UNL A   1      44.826  26.271  34.638  1.00  0.00     0.148 A 
ATOM     81  C   UNL A   1      47.205  27.763  34.576  1.00  0.00     0.002 A 
ATOM     82  C   UNL A   1      45.924  25.869  35.389  1.00  0.00     0.091 A 
ATOM     83  F   UNL A   1      43.687  25.563  34.620  1.00  0.00    -0.205 F 
ATOM     84  C   UNL A   1      47.118  26.606  35.348  1.00  0.00     0.022 A 
BRANCH  82  85
ATOM     85  S   UNL A   1      45.871  24.452  36.491  1.00  0.00     0.127 S 
ATOM     86  O   UNL A   1      47.191  24.514  37.118  1.00  0.00    -0.237 OA
ATOM     87  O   UNL A   1      44.758  24.792  37.378  1.00  0.00    -0.237 OA
ATOM     88  O   UNL A   1      45.638  23.291  35.644  1.00  0.00    -0.744 OA
ENDBRANCH  82  85
ENDBRANCH  55  78
ENDBRANCH  29  30
ENDBRANCH  21  24
ENDBRANCH  19  20
ENDBRANCH   1  19
TORSDOF 16
ENDMDL
MODEL 2
REMARK VINA RESULT:     -10.9      1.502      2.308
REMARK SMILES C=C(CC)C[C@@]1(C(=O)NCCCNC(=O)c2ccc(-c3c4nc(c(-c5cccc(S(=O)(=O)[O-])c5F)c5ccc([nH]5)c(-c5cccc(S(=O)(=O)[O-])c5F)c5nc(c(-c6cccc(S(=O)(=O)[O-])c6F)c6ccc3[nH]6)C=C5)C=C4)cc2)C[C@H]2CC[C@@H]1C2
REMARK SMILES IDX 11 1 10 2 9 3 7 4 8 5 6 7 79 8 83 9 80 10 82 11 84 12 81 13
REMARK SMILES IDX 5 14 2 15 1 16 3 17 4 18 12 19 13 20 14 21 15 23 16 24 17 25
REMARK SMILES IDX 78 26 18 27 77 28 19 29 20 30 21 31 71 32 22 33 76 34 70 35
REMARK SMILES IDX 72 36 23 37 75 38 69 39 68 40 24 42 56 43 36 44 55 45 37 46
REMARK SMILES IDX 40 47 54 48 73 49 38 50 39 51 53 53 74 54 41 55 25 56 26 57
REMARK SMILES IDX 34 58 27 59 29 60 35 61 28 62 30 63 31 64 32 65 33 66 57 67
REMARK SMILES IDX 58 68 66 69 59 70 61 71 67 72 60 73 62 74 63 75 64 76 65 77
REMARK SMILES IDX 42 78 43 79 51 80 44 81 46 82 52 83 45 84 47 85 48 86 49 87
REMARK SMILES IDX 50 88
REMARK H PARENT 9 6 13 22 72 41 40 52
REMARK Flexibility Score: inf
ROOT
ATOM      1  C   UNL A   1      33.017  29.096  24.630  1.00  0.00     0.042 C 
ENDROOT
BRANCH   1   2
ATOM      2  C   UNL A   1      33.856  27.819  24.634  1.00  0.00     0.117 C 
BRANCH   2   3
ATOM      3  N   UNL A   1      33.641  27.071  23.414  1.00  0.00    -0.356 N 
ATOM      4  C   UNL A   1      33.646  25.755  23.106  1.00  0.00     0.226 C 
ATOM      5  O   UNL A   1      33.759  25.552  21.886  1.00  0.00    -0.274 OA
ATOM      6  H   UNL A   1      33.449  27.646  22.638  1.00  0.00     0.163 HD
BRANCH   4   7
ATOM      7  C   UNL A   1      33.371  24.568  24.085  1.00  0.00     0.056 C 
ATOM      8  C   UNL A   1      34.081  24.867  25.454  1.00  0.00     0.021 C 
ATOM      9  C   UNL A   1      34.238  23.336  23.589  1.00  0.00     0.005 C 
ATOM     10  C   UNL A   1      35.221  23.828  25.524  1.00  0.00    -0.010 C 
ATOM     11  C   UNL A   1      34.005  22.065  24.444  1.00  0.00     0.005 C 
ATOM     12  C   UNL A   1      35.652  23.688  24.067  1.00  0.00     0.008 C 
ATOM     13  C   UNL A   1      34.601  22.450  25.806  1.00  0.00     0.004 C 
BRANCH   7  14
ATOM     14  C   UNL A   1      31.899  24.118  24.297  1.00  0.00     0.047 C 
BRANCH  14  15
ATOM     15  C   UNL A   1      31.101  24.398  25.550  1.00  0.00    -0.077 C 
ATOM     16  C   UNL A   1      30.855  23.474  26.495  1.00  0.00     0.008 C 
BRANCH  15  17
ATOM     17  C   UNL A   1      30.485  25.795  25.672  1.00  0.00     0.027 C 
ATOM     18  C   UNL A   1      30.108  26.520  24.376  1.00  0.00     0.008 C 
ENDBRANCH  15  17
ENDBRANCH  14  15
ENDBRANCH   7  14
ENDBRANCH   4   7
ENDBRANCH   2   3
ENDBRANCH   1   2
BRANCH   1  19
ATOM     19  C   UNL A   1      32.179  29.349  25.872  1.00  0.00     0.118 C 
BRANCH  19  20
ATOM     20  N   UNL A   1      32.075  30.748  26.254  1.00  0.00    -0.352 N 
ATOM     21  C   UNL A   1      32.874  31.562  27.020  1.00  0.00     0.251 C 
ATOM     22  H   UNL A   1      31.278  31.198  25.894  1.00  0.00     0.163 HD
ATOM     23  O   UNL A   1      32.512  32.728  27.179  1.00  0.00    -0.269 OA
BRANCH  21  24
ATOM     24  C   UNL A   1      34.120  31.090  27.681  1.00  0.00     0.039 A 
ATOM     25  C   UNL A   1      35.100  32.038  28.003  1.00  0.00     0.014 A 
ATOM     26  C   UNL A   1      34.369  29.750  27.972  1.00  0.00     0.014 A 
ATOM     27  C   UNL A   1      36.279  31.651  28.653  1.00  0.00     0.010 A 
ATOM     28  C   UNL A   1      35.470  29.386  28.744  1.00  0.00     0.010 A 
ATOM     29  C   UNL A   1      36.459  30.324  29.066  1.00  0.00    -0.014 A 
BRANCH  29  30
ATOM     30  C   UNL A   1      37.678  29.877  29.794  1.00  0.00     0.031 A 
ATOM     31  C   UNL A   1      37.937  30.355  31.203  1.00  0.00     0.074 A 
ATOM     32  C   UNL A   1      38.598  29.117  29.166  1.00  0.00     0.049 A 
ATOM     33  N   UNL A   1      38.979  30.155  31.968  1.00  0.00    -0.248 NA
ATOM     34  C   UNL A   1      36.906  31.209  31.821  1.00  0.00     0.031 C 
ATOM     35  C   UNL A   1      38.512  28.653  27.779  1.00  0.00     0.029 A 
ATOM     36  N   UNL A   1      39.799  28.619  29.607  1.00  0.00    -0.354 N 
ATOM     37  C   UNL A   1      38.754  30.896  33.124  1.00  0.00     0.074 A 
ATOM     38  C   UNL A   1      37.502  31.594  32.938  1.00  0.00     0.031 C 
ATOM     39  C   UNL A   1      39.598  27.918  27.492  1.00  0.00     0.029 A 
ATOM     40  C   UNL A   1      40.477  27.891  28.656  1.00  0.00     0.049 A 
ATOM     41  H   UNL A   1      40.143  28.768  30.516  1.00  0.00     0.167 HD
ATOM     42  C   UNL A   1      39.493  30.961  34.257  1.00  0.00     0.034 A 
ATOM     43  C   UNL A   1      41.673  27.273  28.713  1.00  0.00     0.034 A 
ATOM     44  C   UNL A   1      40.705  30.215  34.462  1.00  0.00     0.049 A 
ATOM     45  C   UNL A   1      42.457  27.319  29.997  1.00  0.00     0.074 A 
ATOM     46  C   UNL A   1      41.484  30.134  35.603  1.00  0.00     0.029 A 
ATOM     47  N   UNL A   1      41.315  29.421  33.503  1.00  0.00    -0.354 N 
ATOM     48  N   UNL A   1      42.155  27.908  31.128  1.00  0.00    -0.248 NA
ATOM     49  C   UNL A   1      43.730  26.585  30.024  1.00  0.00     0.031 C 
ATOM     50  C   UNL A   1      42.580  29.311  35.323  1.00  0.00     0.029 A 
ATOM     51  C   UNL A   1      42.465  28.852  34.022  1.00  0.00     0.049 A 
ATOM     52  H   UNL A   1      40.980  29.284  32.588  1.00  0.00     0.167 HD
ATOM     53  C   UNL A   1      43.176  27.583  32.013  1.00  0.00     0.074 A 
ATOM     54  C   UNL A   1      44.097  26.730  31.289  1.00  0.00     0.031 C 
ATOM     55  C   UNL A   1      43.343  27.962  33.304  1.00  0.00     0.034 A 
BRANCH  42  56
ATOM     56  C   UNL A   1      38.977  31.825  35.381  1.00  0.00     0.023 A 
ATOM     57  C   UNL A   1      39.149  33.225  35.322  1.00  0.00     0.012 A 
ATOM     58  C   UNL A   1      38.299  31.263  36.480  1.00  0.00     0.148 A 
ATOM     59  C   UNL A   1      38.707  34.044  36.361  1.00  0.00     0.002 A 
ATOM     60  C   UNL A   1      37.813  32.091  37.487  1.00  0.00     0.091 A 
ATOM     61  F   UNL A   1      38.157  29.931  36.532  1.00  0.00    -0.205 F 
ATOM     62  C   UNL A   1      38.032  33.477  37.438  1.00  0.00     0.022 A 
BRANCH  60  63
ATOM     63  S   UNL A   1      36.853  31.472  38.873  1.00  0.00     0.127 S 
ATOM     64  O   UNL A   1      37.814  31.582  39.970  1.00  0.00    -0.237 OA
ATOM     65  O   UNL A   1      35.748  32.428  38.934  1.00  0.00    -0.237 OA
ATOM     66  O   UNL A   1      36.463  30.115  38.517  1.00  0.00    -0.744 OA
ENDBRANCH  60  63
ENDBRANCH  42  56
BRANCH  43  67
ATOM     67  C   UNL A   1      42.160  26.482  27.546  1.00  0.00     0.023 A 
ATOM     68  C   UNL A   1      42.942  27.120  26.563  1.00  0.00     0.012 A 
ATOM     69  C   UNL A   1      41.888  25.106  27.421  1.00  0.00     0.148 A 
ATOM     70  C   UNL A   1      43.418  26.410  25.460  1.00  0.00     0.002 A 
ATOM     71  C   UNL A   1      42.411  24.394  26.348  1.00  0.00     0.091 A 
ATOM     72  F   UNL A   1      41.138  24.519  28.363  1.00  0.00    -0.205 F 
ATOM     73  C   UNL A   1      43.161  25.046  25.357  1.00  0.00     0.022 A 
BRANCH  71  74
ATOM     74  S   UNL A   1      42.243  22.611  26.193  1.00  0.00     0.127 S 
ATOM     75  O   UNL A   1      42.931  22.353  24.933  1.00  0.00    -0.237 OA
ATOM     76  O   UNL A   1      42.942  22.140  27.388  1.00  0.00    -0.237 OA
ATOM     77  O   UNL A   1      40.807  22.349  26.193  1.00  0.00    -0.744 OA
ENDBRANCH  71  74
ENDBRANCH  43  67
BRANCH  55  78
ATOM     78  C   UNL A   1      44.539  27.423  34.043  1.00  0.00     0.023 A 
ATOM     79  C   UNL A   1      45.734  28.167  34.092  1.00  0.00     0.012 A 
ATOM     80  C   UNL A   1      44.449  26.211  34.756  1.00  0.00     0.148 A 
ATOM     81  C   UNL A   1      46.833  27.697  34.809  1.00  0.00     0.002 A 
ATOM     82  C   UNL A   1      45.530  25.774  35.513  1.00  0.00     0.091 A 
ATOM     83  F   UNL A   1      43.309  25.508  34.683  1.00  0.00    -0.205 F 
ATOM     84  C   UNL A   1      46.727  26.507  35.529  1.00  0.00     0.022 A 
BRANCH  82  85
ATOM     85  S   UNL A   1      45.450  24.311  36.551  1.00  0.00     0.127 S 
ATOM     86  O   UNL A   1      46.829  24.208  37.026  1.00  0.00    -0.237 OA
ATOM     87  O   UNL A   1      44.481  24.710  37.573  1.00  0.00    -0.237 OA
ATOM     88  O   UNL A   1      45.006  23.227  35.686  1.00  0.00    -0.744 OA
ENDBRANCH  82  85
ENDBRANCH  55  78
ENDBRANCH  29  30
ENDBRANCH  21  24
ENDBRANCH  19  20
ENDBRANCH   1  19
TORSDOF 16
ENDMDL
MODEL 3
REMARK VINA RESULT:     -10.8      5.323     10.029
REMARK SMILES C=C(CC)C[C@@]1(C(=O)NCCCNC(=O)c2ccc(-c3c4nc(c(-c5cccc(S(=O)(=O)[O-])c5F)c5ccc([nH]5)c(-c5cccc(S(=O)(=O)[O-])c5F)c5nc(c(-c6cccc(S(=O)(=O)[O-])c6F)c6ccc3[nH]6)C=C5)C=C4)cc2)C[C@H]2CC[C@@H]1C2
REMARK SMILES IDX 11 1 10 2 9 3 7 4 8 5 6 7 79 8 83 9 80 10 82 11 84 12 81 13
REMARK SMILES IDX 5 14 2 15 1 16 3 17 4 18 12 19 13 20 14 21 15 23 16 24 17 25
REMARK SMILES IDX 78 26 18 27 77 28 19 29 20 30 21 31 71 32 22 33 76 34 70 35
REMARK SMILES IDX 72 36 23 37 75 38 69 39 68 40 24 42 56 43 36 44 55 45 37 46
REMARK SMILES IDX 40 47 54 48 73 49 38 50 39 51 53 53 74 54 41 55 25 56 26 57
REMARK SMILES IDX 34 58 27 59 29 60 35 61 28 62 30 63 31 64 32 65 33 66 57 67
REMARK SMILES IDX 58 68 66 69 59 70 61 71 67 72 60 73 62 74 63 75 64 76 65 77
REMARK SMILES IDX 42 78 43 79 51 80 44 81 46 82 52 83 45 84 47 85 48 86 49 87
REMARK SMILES IDX 50 88
REMARK H PARENT 9 6 13 22 72 41 40 52
REMARK Flexibility Score: inf
ROOT
ATOM      1  C   UNL A   1      35.066  21.915  26.364  1.00  0.00     0.042 C 
ENDROOT
BRANCH   1   2
ATOM      2  C   UNL A   1      34.506  23.312  26.632  1.00  0.00     0.117 C 
BRANCH   2   3
ATOM      3  N   UNL A   1      33.079  23.248  26.863  1.00  0.00    -0.356 N 
ATOM      4  C   UNL A   1      32.044  24.067  26.573  1.00  0.00     0.226 C 
ATOM      5  O   UNL A   1      31.032  23.810  27.245  1.00  0.00    -0.274 OA
ATOM      6  H   UNL A   1      32.801  22.430  27.333  1.00  0.00     0.163 HD
BRANCH   4   7
ATOM      7  C   UNL A   1      31.984  25.122  25.422  1.00  0.00     0.056 C 
ATOM      8  C   UNL A   1      33.343  25.909  25.385  1.00  0.00     0.021 C 
ATOM      9  C   UNL A   1      31.008  26.281  25.892  1.00  0.00     0.005 C 
ATOM     10  C   UNL A   1      32.968  27.332  25.850  1.00  0.00    -0.010 C 
ATOM     11  C   UNL A   1      30.810  27.366  24.804  1.00  0.00     0.005 C 
ATOM     12  C   UNL A   1      31.867  27.084  26.876  1.00  0.00     0.008 C 
ATOM     13  C   UNL A   1      32.195  28.024  24.715  1.00  0.00     0.004 C 
BRANCH   7  14
ATOM     14  C   UNL A   1      31.573  24.637  24.004  1.00  0.00     0.047 C 
BRANCH  14  15
ATOM     15  C   UNL A   1      32.544  24.445  22.861  1.00  0.00    -0.077 C 
ATOM     16  C   UNL A   1      32.645  25.292  21.822  1.00  0.00     0.008 C 
BRANCH  15  17
ATOM     17  C   UNL A   1      33.377  23.160  22.879  1.00  0.00     0.027 C 
ATOM     18  C   UNL A   1      32.672  21.862  23.287  1.00  0.00     0.008 C 
ENDBRANCH  15  17
ENDBRANCH  14  15
ENDBRANCH   7  14
ENDBRANCH   4   7
ENDBRANCH   2   3
ENDBRANCH   1   2
BRANCH   1  19
ATOM     19  C   UNL A   1      35.957  21.775  25.143  1.00  0.00     0.118 C 
BRANCH  19  20
ATOM     20  N   UNL A   1      37.039  20.815  25.293  1.00  0.00    -0.352 N 
ATOM     21  C   UNL A   1      38.337  20.941  25.725  1.00  0.00     0.251 C 
ATOM     22  H   UNL A   1      36.793  19.898  25.035  1.00  0.00     0.163 HD
ATOM     23  O   UNL A   1      39.035  19.927  25.730  1.00  0.00    -0.269 OA
BRANCH  21  24
ATOM     24  C   UNL A   1      38.932  22.238  26.145  1.00  0.00     0.039 A 
ATOM     25  C   UNL A   1      40.075  22.211  26.956  1.00  0.00     0.014 A 
ATOM     26  C   UNL A   1      38.395  23.474  25.793  1.00  0.00     0.014 A 
ATOM     27  C   UNL A   1      40.691  23.403  27.355  1.00  0.00     0.010 A 
ATOM     28  C   UNL A   1      39.087  24.651  26.067  1.00  0.00     0.010 A 
ATOM     29  C   UNL A   1      40.226  24.637  26.881  1.00  0.00    -0.014 A 
BRANCH  29  30
ATOM     30  C   UNL A   1      40.876  25.925  27.249  1.00  0.00     0.031 A 
ATOM     31  C   UNL A   1      42.301  26.202  26.831  1.00  0.00     0.074 A 
ATOM     32  C   UNL A   1      40.226  26.810  28.032  1.00  0.00     0.049 A 
ATOM     33  N   UNL A   1      43.070  27.217  27.129  1.00  0.00    -0.248 NA
ATOM     34  C   UNL A   1      42.966  25.180  26.002  1.00  0.00     0.031 C 
ATOM     35  C   UNL A   1      38.876  26.631  28.574  1.00  0.00     0.029 A 
ATOM     36  N   UNL A   1      40.621  28.028  28.527  1.00  0.00    -0.354 N 
ATOM     37  C   UNL A   1      44.313  26.931  26.574  1.00  0.00     0.074 A 
ATOM     38  C   UNL A   1      44.212  25.623  25.969  1.00  0.00     0.031 C 
ATOM     39  C   UNL A   1      38.547  27.710  29.303  1.00  0.00     0.029 A 
ATOM     40  C   UNL A   1      39.673  28.638  29.316  1.00  0.00     0.049 A 
ATOM     41  H   UNL A   1      41.499  28.427  28.336  1.00  0.00     0.167 HD
ATOM     42  C   UNL A   1      45.428  27.699  26.530  1.00  0.00     0.034 A 
ATOM     43  C   UNL A   1      39.706  29.811  29.978  1.00  0.00     0.034 A 
ATOM     44  C   UNL A   1      45.505  29.026  27.078  1.00  0.00     0.049 A 
ATOM     45  C   UNL A   1      40.938  30.670  29.878  1.00  0.00     0.074 A 
ATOM     46  C   UNL A   1      46.552  29.927  27.010  1.00  0.00     0.029 A 
ATOM     47  N   UNL A   1      44.492  29.643  27.797  1.00  0.00    -0.354 N 
ATOM     48  N   UNL A   1      42.052  30.443  29.226  1.00  0.00    -0.248 NA
ATOM     49  C   UNL A   1      40.903  31.964  30.574  1.00  0.00     0.031 C 
ATOM     50  C   UNL A   1      46.181  31.079  27.712  1.00  0.00     0.029 A 
ATOM     51  C   UNL A   1      44.891  30.910  28.186  1.00  0.00     0.049 A 
ATOM     52  H   UNL A   1      43.618  29.237  28.002  1.00  0.00     0.167 HD
ATOM     53  C   UNL A   1      42.834  31.579  29.399  1.00  0.00     0.074 A 
ATOM     54  C   UNL A   1      42.057  32.500  30.203  1.00  0.00     0.031 C 
ATOM     55  C   UNL A   1      44.085  31.834  28.942  1.00  0.00     0.034 A 
BRANCH  42  56
ATOM     56  C   UNL A   1      46.634  27.142  25.815  1.00  0.00     0.023 A 
ATOM     57  C   UNL A   1      47.421  26.150  26.439  1.00  0.00     0.012 A 
ATOM     58  C   UNL A   1      46.978  27.574  24.519  1.00  0.00     0.148 A 
ATOM     59  C   UNL A   1      48.557  25.639  25.813  1.00  0.00     0.002 A 
ATOM     60  C   UNL A   1      48.081  27.021  23.878  1.00  0.00     0.091 A 
ATOM     61  F   UNL A   1      46.233  28.529  23.944  1.00  0.00    -0.205 F 
ATOM     62  C   UNL A   1      48.881  26.067  24.529  1.00  0.00     0.022 A 
BRANCH  60  63
ATOM     63  S   UNL A   1      48.534  27.440  22.191  1.00  0.00     0.127 S 
ATOM     64  O   UNL A   1      48.655  26.117  21.581  1.00  0.00    -0.237 OA
ATOM     65  O   UNL A   1      47.375  28.213  21.744  1.00  0.00    -0.237 OA
ATOM     66  O   UNL A   1      49.771  28.202  22.286  1.00  0.00    -0.744 OA
ENDBRANCH  60  63
ENDBRANCH  42  56
BRANCH  43  67
ATOM     67  C   UNL A   1      38.501  30.282  30.720  1.00  0.00     0.023 A 
ATOM     68  C   UNL A   1      38.356  29.942  32.079  1.00  0.00     0.012 A 
ATOM     69  C   UNL A   1      37.524  31.089  30.105  1.00  0.00     0.148 A 
ATOM     70  C   UNL A   1      37.243  30.370  32.806  1.00  0.00     0.002 A 
ATOM     71  C   UNL A   1      36.446  31.556  30.849  1.00  0.00     0.091 A 
ATOM     72  F   UNL A   1      37.677  31.396  28.810  1.00  0.00    -0.205 F 
ATOM     73  C   UNL A   1      36.295  31.184  32.194  1.00  0.00     0.022 A 
BRANCH  71  74
ATOM     74  S   UNL A   1      35.240  32.712  30.188  1.00  0.00     0.127 S 
ATOM     75  O   UNL A   1      34.613  31.921  29.135  1.00  0.00    -0.237 OA
ATOM     76  O   UNL A   1      34.398  32.968  31.355  1.00  0.00    -0.237 OA
ATOM     77  O   UNL A   1      36.009  33.868  29.736  1.00  0.00    -0.744 OA
ENDBRANCH  71  74
ENDBRANCH  43  67
BRANCH  55  78
ATOM     78  C   UNL A   1      44.682  33.181  29.253  1.00  0.00     0.023 A 
ATOM     79  C   UNL A   1      45.401  33.375  30.449  1.00  0.00     0.012 A 
ATOM     80  C   UNL A   1      44.597  34.232  28.319  1.00  0.00     0.148 A 
ATOM     81  C   UNL A   1      45.994  34.606  30.728  1.00  0.00     0.002 A 
ATOM     82  C   UNL A   1      45.236  35.439  28.578  1.00  0.00     0.091 A 
ATOM     83  F   UNL A   1      43.894  34.034  27.194  1.00  0.00    -0.205 F 
ATOM     84  C   UNL A   1      45.922  35.632  29.787  1.00  0.00     0.022 A 
BRANCH  82  85
ATOM     85  S   UNL A   1      45.284  36.779  27.384  1.00  0.00     0.127 S 
ATOM     86  O   UNL A   1      45.959  36.145  26.252  1.00  0.00    -0.237 OA
ATOM     87  O   UNL A   1      43.862  37.054  27.171  1.00  0.00    -0.237 OA
ATOM     88  O   UNL A   1      46.021  37.862  28.022  1.00  0.00    -0.744 OA
ENDBRANCH  82  85
ENDBRANCH  55  78
ENDBRANCH  29  30
ENDBRANCH  21  24
ENDBRANCH  19  20
ENDBRANCH   1  19
TORSDOF 16
ENDMDL
