MODEL 1
REMARK VINA RESULT:     -14.4      0.000      0.000
REMARK SMILES C[C@]12CC[C@H]3[C@@H](CCC4=CC(=O)C=C[C@@]43C)[C@@H]1CC[C@H]2O[C@@H]1O[C@H](C(=O)NCCCNC(=O)c2ccc(-c3c4nc(c(-c5cccc(S(=O)(=O)[O-])c5F)c5ccc([nH]5)c(-c5cccc(S(=O)(=O)[O-])c5F)c5nc(c(-c6cccc(S(=O)(=O)[O-])c6F)c6ccc3[nH]6)C=C5)C=C4)cc2)[C@@H](O)[C@H](O)[C@H]1O
REMARK SMILES IDX 29 1 28 2 27 3 25 4 26 5 24 7 22 8 23 9 101 10 99 11 97 12
REMARK SMILES IDX 21 13 20 14 1 15 2 16 3 17 17 18 4 19 6 20 18 21 19 22 5 23
REMARK SMILES IDX 7 24 15 25 8 26 9 27 14 28 16 29 10 30 13 31 11 32 12 33
REMARK SMILES IDX 102 34 100 36 98 38 30 40 31 41 32 42 33 44 34 45 35 46
REMARK SMILES IDX 96 47 36 48 95 49 37 50 38 51 39 52 89 53 40 54 94 55 88 56
REMARK SMILES IDX 90 57 41 58 93 59 87 60 86 61 42 63 74 64 54 65 73 66 55 67
REMARK SMILES IDX 58 68 72 69 91 70 56 71 57 72 71 74 92 75 59 76 43 77 44 78
REMARK SMILES IDX 52 79 45 80 47 81 53 82 46 83 48 84 49 85 50 86 51 87 75 88
REMARK SMILES IDX 76 89 84 90 77 91 79 92 85 93 78 94 80 95 81 96 82 97 83 98
REMARK SMILES IDX 60 99 61 100 69 101 62 102 64 103 70 104 63 105 65 106
REMARK SMILES IDX 66 107 67 108 68 109
REMARK H PARENT 27 6 102 35 100 37 98 39 31 43 90 62 58 73
REMARK Flexibility Score: inf
ROOT
ATOM      1  C   UNL A   1      31.794  31.423  26.753  1.00  0.00     0.042 C 
ENDROOT
BRANCH   1   2
ATOM      2  C   UNL A   1      31.022  30.388  25.091  1.00  0.00     0.117 C 
BRANCH   2   3
ATOM      3  N   UNL A   1      30.496  30.682  23.691  1.00  0.00    -0.354 N 
ATOM      4  C   UNL A   1      29.957  29.896  22.699  1.00  0.00     0.252 C 
ATOM      5  O   UNL A   1      29.513  30.496  21.708  1.00  0.00    -0.272 OA
ATOM      6  H   UNL A   1      30.554  31.634  23.446  1.00  0.00     0.163 HD
BRANCH   4   7
ATOM      7  C   UNL A   1      29.854  28.341  22.742  1.00  0.00     0.241 C 
ATOM      8  C   UNL A   1      30.999  26.247  23.167  1.00  0.00     0.282 C 
ATOM      9  O   UNL A   1      31.035  27.675  23.180  1.00  0.00    -0.334 OA
ATOM     10  C   UNL A   1      29.684  25.592  23.673  1.00  0.00     0.202 C 
ATOM     11  C   UNL A   1      28.421  26.383  23.313  1.00  0.00     0.180 C 
ATOM     12  C   UNL A   1      28.617  27.888  23.523  1.00  0.00     0.184 C 
BRANCH   8  13
ATOM     13  O   UNL A   1      32.176  25.630  23.747  1.00  0.00    -0.346 OA
BRANCH  13  14
ATOM     14  C   UNL A   1      32.558  25.581  25.142  1.00  0.00     0.127 C 
ATOM     15  C   UNL A   1      32.633  24.349  27.392  1.00  0.00     0.014 C 
ATOM     16  C   UNL A   1      32.638  24.191  25.830  1.00  0.00    -0.003 C 
ATOM     17  C   UNL A   1      31.465  23.216  25.530  1.00  0.00     0.010 C 
ATOM     18  C   UNL A   1      34.052  23.818  25.320  1.00  0.00     0.001 C 
ATOM     19  C   UNL A   1      31.710  21.731  25.930  1.00  0.00     0.006 C 
ATOM     20  C   UNL A   1      34.450  22.428  25.690  1.00  0.00    -0.003 C 
ATOM     21  C   UNL A   1      34.924  25.018  25.661  1.00  0.00     0.007 C 
ATOM     22  C   UNL A   1      33.943  26.206  25.476  1.00  0.00     0.033 C 
ATOM     23  C   UNL A   1      32.948  21.254  25.179  1.00  0.00     0.006 C 
ATOM     24  C   UNL A   1      36.272  21.856  25.226  1.00  0.00     0.009 C 
ATOM     25  C   UNL A   1      33.250  19.332  24.965  1.00  0.00     0.010 C 
ATOM     26  C   UNL A   1      36.547  19.924  24.969  1.00  0.00     0.032 C 
ATOM     27  C   UNL A   1      35.046  18.762  24.660  1.00  0.00    -0.056 C 
ATOM     28  C   UNL A   1      32.383  18.699  23.856  1.00  0.00    -0.012 C 
ATOM     29  C   UNL A   1      32.592  18.462  26.107  1.00  0.00     0.021 C 
ATOM     30  C   UNL A   1      35.219  17.693  23.860  1.00  0.00     0.052 C 
ATOM     31  C   UNL A   1      32.746  17.616  23.146  1.00  0.00     0.048 C 
ATOM     32  C   UNL A   1      34.089  16.976  23.203  1.00  0.00     0.178 C 
ATOM     33  O   UNL A   1      34.297  15.927  22.601  1.00  0.00    -0.290 OA
ENDBRANCH  13  14
ENDBRANCH   8  13
BRANCH  10  34
ATOM     34  O   UNL A   1      29.557  24.253  23.158  1.00  0.00    -0.385 OA
ATOM     35  H   UNL A   1      29.933  23.626  23.795  1.00  0.00     0.211 HD
ENDBRANCH  10  34
BRANCH  11  36
ATOM     36  O   UNL A   1      27.298  25.948  24.107  1.00  0.00    -0.387 OA
ATOM     37  H   UNL A   1      27.247  24.980  24.091  1.00  0.00     0.211 HD
ENDBRANCH  11  36
BRANCH  12  38
ATOM     38  O   UNL A   1      27.445  28.616  23.150  1.00  0.00    -0.387 OA
ATOM     39  H   UNL A   1      26.669  28.220  23.578  1.00  0.00     0.211 HD
ENDBRANCH  12  38
ENDBRANCH   4   7
ENDBRANCH   2   3
ENDBRANCH   1   2
BRANCH   1  40
ATOM     40  C   UNL A   1      32.710  32.587  27.418  1.00  0.00     0.118 C 
BRANCH  40  41
ATOM     41  N   UNL A   1      32.545  34.009  27.478  1.00  0.00    -0.352 N 
ATOM     42  C   UNL A   1      33.132  34.760  28.492  1.00  0.00     0.251 C 
ATOM     43  H   UNL A   1      32.007  34.463  26.790  1.00  0.00     0.163 HD
ATOM     44  O   UNL A   1      32.708  35.876  28.782  1.00  0.00    -0.269 OA
BRANCH  42  45
ATOM     45  C   UNL A   1      34.275  34.162  29.241  1.00  0.00     0.039 A 
ATOM     46  C   UNL A   1      35.587  34.287  28.782  1.00  0.00     0.014 A 
ATOM     47  C   UNL A   1      34.024  33.529  30.463  1.00  0.00     0.014 A 
ATOM     48  C   UNL A   1      36.637  33.760  29.546  1.00  0.00     0.010 A 
ATOM     49  C   UNL A   1      35.076  33.134  31.281  1.00  0.00     0.010 A 
ATOM     50  C   UNL A   1      36.389  33.172  30.801  1.00  0.00    -0.014 A 
BRANCH  50  51
ATOM     51  C   UNL A   1      37.466  32.481  31.561  1.00  0.00     0.031 A 
ATOM     52  C   UNL A   1      38.220  31.345  30.905  1.00  0.00     0.074 A 
ATOM     53  C   UNL A   1      37.751  32.844  32.826  1.00  0.00     0.049 A 
ATOM     54  N   UNL A   1      39.206  30.627  31.374  1.00  0.00    -0.248 NA
ATOM     55  C   UNL A   1      37.787  30.937  29.555  1.00  0.00     0.031 C 
ATOM     56  C   UNL A   1      37.034  33.860  33.598  1.00  0.00     0.029 A 
ATOM     57  N   UNL A   1      38.719  32.396  33.691  1.00  0.00    -0.354 N 
ATOM     58  C   UNL A   1      39.476  29.669  30.401  1.00  0.00     0.074 A 
ATOM     59  C   UNL A   1      38.511  29.851  29.345  1.00  0.00     0.031 C 
ATOM     60  C   UNL A   1      37.605  33.982  34.808  1.00  0.00     0.029 A 
ATOM     61  C   UNL A   1      38.714  33.037  34.910  1.00  0.00     0.049 A 
ATOM     62  H   UNL A   1      39.358  31.684  33.461  1.00  0.00     0.167 HD
ATOM     63  C   UNL A   1      40.467  28.748  30.361  1.00  0.00     0.034 A 
ATOM     64  C   UNL A   1      39.518  32.882  35.980  1.00  0.00     0.034 A 
ATOM     65  C   UNL A   1      41.461  28.615  31.389  1.00  0.00     0.049 A 
ATOM     66  C   UNL A   1      40.651  31.895  35.892  1.00  0.00     0.074 A 
ATOM     67  C   UNL A   1      42.564  27.784  31.419  1.00  0.00     0.029 A 
ATOM     68  N   UNL A   1      41.463  29.334  32.574  1.00  0.00    -0.354 N 
ATOM     69  N   UNL A   1      40.982  31.107  34.897  1.00  0.00    -0.248 NA
ATOM     70  C   UNL A   1      41.545  31.802  37.055  1.00  0.00     0.031 C 
ATOM     71  C   UNL A   1      43.217  27.977  32.640  1.00  0.00     0.029 A 
ATOM     72  C   UNL A   1      42.542  28.960  33.350  1.00  0.00     0.049 A 
ATOM     73  H   UNL A   1      40.794  30.012  32.824  1.00  0.00     0.167 HD
ATOM     74  C   UNL A   1      42.140  30.451  35.297  1.00  0.00     0.074 A 
ATOM     75  C   UNL A   1      42.465  30.952  36.617  1.00  0.00     0.031 C 
ATOM     76  C   UNL A   1      42.865  29.510  34.642  1.00  0.00     0.034 A 
BRANCH  63  77
ATOM     77  C   UNL A   1      40.549  27.852  29.149  1.00  0.00     0.023 A 
ATOM     78  C   UNL A   1      39.703  26.727  29.047  1.00  0.00     0.012 A 
ATOM     79  C   UNL A   1      41.439  28.140  28.097  1.00  0.00     0.148 A 
ATOM     80  C   UNL A   1      39.776  25.878  27.944  1.00  0.00     0.002 A 
ATOM     81  C   UNL A   1      41.468  27.320  26.975  1.00  0.00     0.091 A 
ATOM     82  F   UNL A   1      42.251  29.200  28.219  1.00  0.00    -0.205 F 
ATOM     83  C   UNL A   1      40.650  26.180  26.903  1.00  0.00     0.022 A 
BRANCH  81  84
ATOM     84  S   UNL A   1      42.495  27.668  25.544  1.00  0.00     0.127 S 
ATOM     85  O   UNL A   1      42.256  26.487  24.714  1.00  0.00    -0.237 OA
ATOM     86  O   UNL A   1      41.900  28.903  25.033  1.00  0.00    -0.237 OA
ATOM     87  O   UNL A   1      43.854  27.809  26.047  1.00  0.00    -0.744 OA
ENDBRANCH  81  84
ENDBRANCH  63  77
BRANCH  64  88
ATOM     88  C   UNL A   1      39.323  33.729  37.193  1.00  0.00     0.023 A 
ATOM     89  C   UNL A   1      39.789  35.059  37.200  1.00  0.00     0.012 A 
ATOM     90  C   UNL A   1      38.648  33.235  38.325  1.00  0.00     0.148 A 
ATOM     91  C   UNL A   1      39.617  35.869  38.325  1.00  0.00     0.002 A 
ATOM     92  C   UNL A   1      38.428  34.065  39.420  1.00  0.00     0.091 A 
ATOM     93  F   UNL A   1      38.220  31.965  38.305  1.00  0.00    -0.205 F 
ATOM     94  C   UNL A   1      38.928  35.376  39.430  1.00  0.00     0.022 A 
BRANCH  92  95
ATOM     95  S   UNL A   1      37.429  33.558  40.825  1.00  0.00     0.127 S 
ATOM     96  O   UNL A   1      38.283  32.553  41.453  1.00  0.00    -0.237 OA
ATOM     97  O   UNL A   1      37.298  34.811  41.569  1.00  0.00    -0.237 OA
ATOM     98  O   UNL A   1      36.179  33.064  40.262  1.00  0.00    -0.744 OA
ENDBRANCH  92  95
ENDBRANCH  64  88
BRANCH  76  99
ATOM     99  C   UNL A   1      44.102  28.988  35.320  1.00  0.00     0.023 A 
ATOM    100  C   UNL A   1      45.348  29.602  35.086  1.00  0.00     0.012 A 
ATOM    101  C   UNL A   1      44.009  27.939  36.256  1.00  0.00     0.148 A 
ATOM    102  C   UNL A   1      46.489  29.155  35.747  1.00  0.00     0.002 A 
ATOM    103  C   UNL A   1      45.140  27.537  36.951  1.00  0.00     0.091 A 
ATOM    104  F   UNL A   1      42.814  27.360  36.451  1.00  0.00    -0.205 F 
ATOM    105  C   UNL A   1      46.385  28.133  36.688  1.00  0.00     0.022 A 
BRANCH 103 106
ATOM    106  S   UNL A   1      45.080  26.304  38.255  1.00  0.00     0.127 S 
ATOM    107  O   UNL A   1      44.559  25.140  37.538  1.00  0.00    -0.237 OA
ATOM    108  O   UNL A   1      46.485  26.201  38.646  1.00  0.00    -0.237 OA
ATOM    109  O   UNL A   1      44.202  26.847  39.283  1.00  0.00    -0.744 OA
ENDBRANCH 103 106
ENDBRANCH  76  99
ENDBRANCH  50  51
ENDBRANCH  42  45
ENDBRANCH  40  41
ENDBRANCH   1  40
TORSDOF 18
ENDMDL
MODEL 2
REMARK VINA RESULT:     -14.2      1.552      7.288
REMARK SMILES C[C@]12CC[C@H]3[C@@H](CCC4=CC(=O)C=C[C@@]43C)[C@@H]1CC[C@H]2O[C@@H]1O[C@H](C(=O)NCCCNC(=O)c2ccc(-c3c4nc(c(-c5cccc(S(=O)(=O)[O-])c5F)c5ccc([nH]5)c(-c5cccc(S(=O)(=O)[O-])c5F)c5nc(c(-c6cccc(S(=O)(=O)[O-])c6F)c6ccc3[nH]6)C=C5)C=C4)cc2)[C@@H](O)[C@H](O)[C@H]1O
REMARK SMILES IDX 29 1 28 2 27 3 25 4 26 5 24 7 22 8 23 9 101 10 99 11 97 12
REMARK SMILES IDX 21 13 20 14 1 15 2 16 3 17 17 18 4 19 6 20 18 21 19 22 5 23
REMARK SMILES IDX 7 24 15 25 8 26 9 27 14 28 16 29 10 30 13 31 11 32 12 33
REMARK SMILES IDX 102 34 100 36 98 38 30 40 31 41 32 42 33 44 34 45 35 46
REMARK SMILES IDX 96 47 36 48 95 49 37 50 38 51 39 52 89 53 40 54 94 55 88 56
REMARK SMILES IDX 90 57 41 58 93 59 87 60 86 61 42 63 74 64 54 65 73 66 55 67
REMARK SMILES IDX 58 68 72 69 91 70 56 71 57 72 71 74 92 75 59 76 43 77 44 78
REMARK SMILES IDX 52 79 45 80 47 81 53 82 46 83 48 84 49 85 50 86 51 87 75 88
REMARK SMILES IDX 76 89 84 90 77 91 79 92 85 93 78 94 80 95 81 96 82 97 83 98
REMARK SMILES IDX 60 99 61 100 69 101 62 102 64 103 70 104 63 105 65 106
REMARK SMILES IDX 66 107 67 108 68 109
REMARK H PARENT 27 6 102 35 100 37 98 39 31 43 90 62 58 73
REMARK Flexibility Score: inf
ROOT
ATOM      1  C   UNL A   1      31.689  31.405  26.636  1.00  0.00     0.042 C 
ENDROOT
BRANCH   1   2
ATOM      2  C   UNL A   1      30.691  30.444  25.051  1.00  0.00     0.117 C 
BRANCH   2   3
ATOM      3  N   UNL A   1      30.368  30.680  23.580  1.00  0.00    -0.354 N 
ATOM      4  C   UNL A   1      29.977  29.851  22.554  1.00  0.00     0.252 C 
ATOM      5  O   UNL A   1      29.675  30.408  21.487  1.00  0.00    -0.272 OA
ATOM      6  H   UNL A   1      30.457  31.622  23.308  1.00  0.00     0.163 HD
BRANCH   4   7
ATOM      7  C   UNL A   1      29.873  28.298  22.643  1.00  0.00     0.241 C 
ATOM      8  C   UNL A   1      31.020  26.216  23.122  1.00  0.00     0.282 C 
ATOM      9  O   UNL A   1      31.056  27.645  23.093  1.00  0.00    -0.334 OA
ATOM     10  C   UNL A   1      29.708  25.578  23.657  1.00  0.00     0.202 C 
ATOM     11  C   UNL A   1      28.443  26.359  23.283  1.00  0.00     0.180 C 
ATOM     12  C   UNL A   1      28.641  27.869  23.447  1.00  0.00     0.184 C 
BRANCH   8  13
ATOM     13  O   UNL A   1      32.200  25.616  23.712  1.00  0.00    -0.346 OA
BRANCH  13  14
ATOM     14  C   UNL A   1      32.569  25.566  25.110  1.00  0.00     0.127 C 
ATOM     15  C   UNL A   1      32.617  24.331  27.359  1.00  0.00     0.014 C 
ATOM     16  C   UNL A   1      32.638  24.174  25.798  1.00  0.00    -0.003 C 
ATOM     17  C   UNL A   1      31.465  23.202  25.485  1.00  0.00     0.010 C 
ATOM     18  C   UNL A   1      34.056  23.798  25.302  1.00  0.00     0.001 C 
ATOM     19  C   UNL A   1      31.703  21.717  25.887  1.00  0.00     0.006 C 
ATOM     20  C   UNL A   1      34.447  22.408  25.675  1.00  0.00    -0.003 C 
ATOM     21  C   UNL A   1      34.927  24.996  25.653  1.00  0.00     0.007 C 
ATOM     22  C   UNL A   1      33.952  26.187  25.459  1.00  0.00     0.033 C 
ATOM     23  C   UNL A   1      32.947  21.237  25.148  1.00  0.00     0.006 C 
ATOM     24  C   UNL A   1      36.272  21.831  25.229  1.00  0.00     0.009 C 
ATOM     25  C   UNL A   1      33.248  19.315  24.936  1.00  0.00     0.010 C 
ATOM     26  C   UNL A   1      36.545  19.899  24.974  1.00  0.00     0.032 C 
ATOM     27  C   UNL A   1      35.045  18.741  24.648  1.00  0.00    -0.056 C 
ATOM     28  C   UNL A   1      32.390  18.685  23.818  1.00  0.00    -0.012 C 
ATOM     29  C   UNL A   1      32.576  18.446  26.070  1.00  0.00     0.021 C 
ATOM     30  C   UNL A   1      35.224  17.672  23.850  1.00  0.00     0.052 C 
ATOM     31  C   UNL A   1      32.758  17.602  23.111  1.00  0.00     0.048 C 
ATOM     32  C   UNL A   1      34.099  16.958  23.181  1.00  0.00     0.178 C 
ATOM     33  O   UNL A   1      34.310  15.909  22.580  1.00  0.00    -0.290 OA
ENDBRANCH  13  14
ENDBRANCH   8  13
BRANCH  10  34
ATOM     34  O   UNL A   1      29.577  24.224  23.183  1.00  0.00    -0.385 OA
ATOM     35  H   UNL A   1      28.930  24.197  22.461  1.00  0.00     0.211 HD
ENDBRANCH  10  34
BRANCH  11  36
ATOM     36  O   UNL A   1      27.325  25.948  24.097  1.00  0.00    -0.387 OA
ATOM     37  H   UNL A   1      27.127  25.015  23.926  1.00  0.00     0.211 HD
ENDBRANCH  11  36
BRANCH  12  38
ATOM     38  O   UNL A   1      27.467  28.587  23.062  1.00  0.00    -0.387 OA
ATOM     39  H   UNL A   1      27.289  29.287  23.710  1.00  0.00     0.211 HD
ENDBRANCH  12  38
ENDBRANCH   4   7
ENDBRANCH   2   3
ENDBRANCH   1   2
BRANCH   1  40
ATOM     40  C   UNL A   1      32.765  32.475  27.214  1.00  0.00     0.118 C 
BRANCH  40  41
ATOM     41  N   UNL A   1      32.640  33.863  27.545  1.00  0.00    -0.352 N 
ATOM     42  C   UNL A   1      33.330  34.413  28.622  1.00  0.00     0.251 C 
ATOM     43  H   UNL A   1      32.056  34.440  27.001  1.00  0.00     0.163 HD
ATOM     44  O   UNL A   1      32.960  35.460  29.145  1.00  0.00    -0.269 OA
BRANCH  42  45
ATOM     45  C   UNL A   1      34.518  33.678  29.145  1.00  0.00     0.039 A 
ATOM     46  C   UNL A   1      34.377  32.620  30.045  1.00  0.00     0.014 A 
ATOM     47  C   UNL A   1      35.787  34.017  28.664  1.00  0.00     0.014 A 
ATOM     48  C   UNL A   1      35.515  31.919  30.467  1.00  0.00     0.010 A 
ATOM     49  C   UNL A   1      36.891  33.232  28.976  1.00  0.00     0.010 A 
ATOM     50  C   UNL A   1      36.785  32.224  29.940  1.00  0.00    -0.014 A 
BRANCH  50  51
ATOM     51  C   UNL A   1      38.020  31.594  30.479  1.00  0.00     0.031 A 
ATOM     52  C   UNL A   1      38.546  32.032  31.827  1.00  0.00     0.074 A 
ATOM     53  C   UNL A   1      38.678  30.660  29.764  1.00  0.00     0.049 A 
ATOM     54  N   UNL A   1      39.586  31.598  32.491  1.00  0.00    -0.248 NA
ATOM     55  C   UNL A   1      37.831  33.129  32.507  1.00  0.00     0.031 C 
ATOM     56  C   UNL A   1      38.323  30.221  28.414  1.00  0.00     0.029 A 
ATOM     57  N   UNL A   1      39.788  29.913  30.072  1.00  0.00    -0.354 N 
ATOM     58  C   UNL A   1      39.666  32.391  33.632  1.00  0.00     0.074 A 
ATOM     59  C   UNL A   1      38.616  33.374  33.543  1.00  0.00     0.031 C 
ATOM     60  C   UNL A   1      39.176  29.260  28.022  1.00  0.00     0.029 A 
ATOM     61  C   UNL A   1      40.155  29.030  29.081  1.00  0.00     0.049 A 
ATOM     62  H   UNL A   1      40.277  30.000  30.922  1.00  0.00     0.167 HD
ATOM     63  C   UNL A   1      40.507  32.285  34.687  1.00  0.00     0.034 A 
ATOM     64  C   UNL A   1      41.161  28.134  29.039  1.00  0.00     0.034 A 
ATOM     65  C   UNL A   1      41.511  31.265  34.796  1.00  0.00     0.049 A 
ATOM     66  C   UNL A   1      42.047  27.991  30.247  1.00  0.00     0.074 A 
ATOM     67  C   UNL A   1      42.360  30.999  35.853  1.00  0.00     0.029 A 
ATOM     68  N   UNL A   1      41.801  30.343  33.802  1.00  0.00    -0.354 N 
ATOM     69  N   UNL A   1      42.007  28.648  31.382  1.00  0.00    -0.248 NA
ATOM     70  C   UNL A   1      43.091  26.958  30.189  1.00  0.00     0.031 C 
ATOM     71  C   UNL A   1      43.189  29.935  35.484  1.00  0.00     0.029 A 
ATOM     72  C   UNL A   1      42.825  29.512  34.214  1.00  0.00     0.049 A 
ATOM     73  H   UNL A   1      41.344  30.288  32.931  1.00  0.00     0.167 HD
ATOM     74  C   UNL A   1      42.993  28.088  32.184  1.00  0.00     0.074 A 
ATOM     75  C   UNL A   1      43.599  27.021  31.413  1.00  0.00     0.031 C 
ATOM     76  C   UNL A   1      43.376  28.429  33.440  1.00  0.00     0.034 A 
BRANCH  63  77
ATOM     77  C   UNL A   1      40.343  33.268  35.822  1.00  0.00     0.023 A 
ATOM     78  C   UNL A   1      40.886  34.566  35.713  1.00  0.00     0.012 A 
ATOM     79  C   UNL A   1      39.625  32.918  36.981  1.00  0.00     0.148 A 
ATOM     80  C   UNL A   1      40.759  35.482  36.757  1.00  0.00     0.002 A 
ATOM     81  C   UNL A   1      39.455  33.854  37.995  1.00  0.00     0.091 A 
ATOM     82  F   UNL A   1      39.133  31.675  37.077  1.00  0.00    -0.205 F 
ATOM     83  C   UNL A   1      40.034  35.129  37.893  1.00  0.00     0.022 A 
BRANCH  81  84
ATOM     84  S   UNL A   1      38.469  33.530  39.460  1.00  0.00     0.127 S 
ATOM     85  O   UNL A   1      38.568  34.805  40.171  1.00  0.00    -0.237 OA
ATOM     86  O   UNL A   1      37.151  33.253  38.886  1.00  0.00    -0.237 OA
ATOM     87  O   UNL A   1      39.094  32.397  40.126  1.00  0.00    -0.744 OA
ENDBRANCH  81  84
ENDBRANCH  63  77
BRANCH  64  88
ATOM     88  C   UNL A   1      41.336  27.258  27.844  1.00  0.00     0.023 A 
ATOM     89  C   UNL A   1      41.971  27.764  26.692  1.00  0.00     0.012 A 
ATOM     90  C   UNL A   1      40.906  25.918  27.854  1.00  0.00     0.148 A 
ATOM     91  C   UNL A   1      42.143  26.961  25.562  1.00  0.00     0.002 A 
ATOM     92  C   UNL A   1      41.134  25.106  26.748  1.00  0.00     0.091 A 
ATOM     93  F   UNL A   1      40.296  25.456  28.955  1.00  0.00    -0.205 F 
ATOM     94  C   UNL A   1      41.735  25.630  25.593  1.00  0.00     0.022 A 
BRANCH  92  95
ATOM     95  S   UNL A   1      40.770  23.346  26.756  1.00  0.00     0.127 S 
ATOM     96  O   UNL A   1      39.331  23.337  26.505  1.00  0.00    -0.237 OA
ATOM     97  O   UNL A   1      41.594  22.864  25.647  1.00  0.00    -0.237 OA
ATOM     98  O   UNL A   1      41.187  22.863  28.065  1.00  0.00    -0.744 OA
ENDBRANCH  92  95
ENDBRANCH  64  88
BRANCH  76  99
ATOM     99  C   UNL A   1      44.472  27.620  34.077  1.00  0.00     0.023 A 
ATOM    100  C   UNL A   1      45.813  28.035  33.965  1.00  0.00     0.012 A 
ATOM    101  C   UNL A   1      44.158  26.490  34.859  1.00  0.00     0.148 A 
ATOM    102  C   UNL A   1      46.829  27.317  34.591  1.00  0.00     0.002 A 
ATOM    103  C   UNL A   1      45.168  25.813  35.525  1.00  0.00     0.091 A 
ATOM    104  F   UNL A   1      42.875  26.105  34.938  1.00  0.00    -0.205 F 
ATOM    105  C   UNL A   1      46.507  26.215  35.381  1.00  0.00     0.022 A 
BRANCH 103 106
ATOM    106  S   UNL A   1      44.836  24.451  36.646  1.00  0.00     0.127 S 
ATOM    107  O   UNL A   1      43.964  25.086  37.634  1.00  0.00    -0.237 OA
ATOM    108  O   UNL A   1      44.168  23.488  35.771  1.00  0.00    -0.237 OA
ATOM    109  O   UNL A   1      46.132  24.016  37.148  1.00  0.00    -0.744 OA
ENDBRANCH 103 106
ENDBRANCH  76  99
ENDBRANCH  50  51
ENDBRANCH  42  45
ENDBRANCH  40  41
ENDBRANCH   1  40
TORSDOF 18
ENDMDL
MODEL 3
REMARK VINA RESULT:     -13.6      6.507     10.515
REMARK SMILES C[C@]12CC[C@H]3[C@@H](CCC4=CC(=O)C=C[C@@]43C)[C@@H]1CC[C@H]2O[C@@H]1O[C@H](C(=O)NCCCNC(=O)c2ccc(-c3c4nc(c(-c5cccc(S(=O)(=O)[O-])c5F)c5ccc([nH]5)c(-c5cccc(S(=O)(=O)[O-])c5F)c5nc(c(-c6cccc(S(=O)(=O)[O-])c6F)c6ccc3[nH]6)C=C5)C=C4)cc2)[C@@H](O)[C@H](O)[C@H]1O
REMARK SMILES IDX 29 1 28 2 27 3 25 4 26 5 24 7 22 8 23 9 101 10 99 11 97 12
REMARK SMILES IDX 21 13 20 14 1 15 2 16 3 17 17 18 4 19 6 20 18 21 19 22 5 23
REMARK SMILES IDX 7 24 15 25 8 26 9 27 14 28 16 29 10 30 13 31 11 32 12 33
REMARK SMILES IDX 102 34 100 36 98 38 30 40 31 41 32 42 33 44 34 45 35 46
REMARK SMILES IDX 96 47 36 48 95 49 37 50 38 51 39 52 89 53 40 54 94 55 88 56
REMARK SMILES IDX 90 57 41 58 93 59 87 60 86 61 42 63 74 64 54 65 73 66 55 67
REMARK SMILES IDX 58 68 72 69 91 70 56 71 57 72 71 74 92 75 59 76 43 77 44 78
REMARK SMILES IDX 52 79 45 80 47 81 53 82 46 83 48 84 49 85 50 86 51 87 75 88
REMARK SMILES IDX 76 89 84 90 77 91 79 92 85 93 78 94 80 95 81 96 82 97 83 98
REMARK SMILES IDX 60 99 61 100 69 101 62 102 64 103 70 104 63 105 65 106
REMARK SMILES IDX 66 107 67 108 68 109
REMARK H PARENT 27 6 102 35 100 37 98 39 31 43 90 62 58 73
REMARK Flexibility Score: inf
ROOT
ATOM      1  C   UNL A   1      35.371  33.280  32.595  1.00  0.00     0.042 C 
ENDROOT
BRANCH   1   2
ATOM      2  C   UNL A   1      33.955  34.487  31.611  1.00  0.00     0.117 C 
BRANCH   2   3
ATOM      3  N   UNL A   1      33.328  34.635  30.230  1.00  0.00    -0.354 N 
ATOM      4  C   UNL A   1      33.419  33.906  29.066  1.00  0.00     0.252 C 
ATOM      5  O   UNL A   1      32.662  34.249  28.146  1.00  0.00    -0.272 OA
ATOM      6  H   UNL A   1      32.732  35.415  30.155  1.00  0.00     0.163 HD
BRANCH   4   7
ATOM      7  C   UNL A   1      34.376  32.697  28.837  1.00  0.00     0.241 C 
ATOM      8  C   UNL A   1      34.753  30.606  27.670  1.00  0.00     0.282 C 
ATOM      9  O   UNL A   1      33.935  31.762  27.857  1.00  0.00    -0.334 OA
ATOM     10  C   UNL A   1      36.287  30.849  27.659  1.00  0.00     0.202 C 
ATOM     11  C   UNL A   1      36.745  31.952  28.622  1.00  0.00     0.180 C 
ATOM     12  C   UNL A   1      35.812  33.165  28.577  1.00  0.00     0.184 C 
BRANCH   8  13
ATOM     13  O   UNL A   1      34.326  29.762  26.571  1.00  0.00    -0.346 OA
BRANCH  13  14
ATOM     14  C   UNL A   1      32.979  29.548  26.085  1.00  0.00     0.127 C 
ATOM     15  C   UNL A   1      31.356  28.452  24.427  1.00  0.00     0.014 C 
ATOM     16  C   UNL A   1      32.711  28.297  25.203  1.00  0.00    -0.003 C 
ATOM     17  C   UNL A   1      33.766  28.004  24.100  1.00  0.00     0.010 C 
ATOM     18  C   UNL A   1      32.565  27.285  26.368  1.00  0.00     0.001 C 
ATOM     19  C   UNL A   1      33.685  26.588  23.457  1.00  0.00     0.006 C 
ATOM     20  C   UNL A   1      32.413  25.879  25.893  1.00  0.00    -0.003 C 
ATOM     21  C   UNL A   1      31.561  27.921  27.320  1.00  0.00     0.007 C 
ATOM     22  C   UNL A   1      31.884  29.433  27.183  1.00  0.00     0.033 C 
ATOM     23  C   UNL A   1      33.851  25.567  24.577  1.00  0.00     0.006 C 
ATOM     24  C   UNL A   1      32.084  24.497  27.250  1.00  0.00     0.009 C 
ATOM     25  C   UNL A   1      34.372  23.735  24.127  1.00  0.00     0.010 C 
ATOM     26  C   UNL A   1      32.657  22.668  26.798  1.00  0.00     0.032 C 
ATOM     27  C   UNL A   1      33.921  22.369  25.381  1.00  0.00    -0.056 C 
ATOM     28  C   UNL A   1      35.878  23.588  23.822  1.00  0.00    -0.012 C 
ATOM     29  C   UNL A   1      33.939  23.299  22.672  1.00  0.00     0.021 C 
ATOM     30  C   UNL A   1      34.783  21.341  25.499  1.00  0.00     0.052 C 
ATOM     31  C   UNL A   1      36.577  22.457  24.027  1.00  0.00     0.048 C 
ATOM     32  C   UNL A   1      36.053  21.250  24.724  1.00  0.00     0.178 C 
ATOM     33  O   UNL A   1      36.726  20.225  24.770  1.00  0.00    -0.290 OA
ENDBRANCH  13  14
ENDBRANCH   8  13
BRANCH  10  34
ATOM     34  O   UNL A   1      36.993  29.634  27.974  1.00  0.00    -0.385 OA
ATOM     35  H   UNL A   1      37.502  29.759  28.789  1.00  0.00     0.211 HD
ENDBRANCH  10  34
BRANCH  11  36
ATOM     36  O   UNL A   1      38.084  32.387  28.307  1.00  0.00    -0.387 OA
ATOM     37  H   UNL A   1      38.049  33.061  27.610  1.00  0.00     0.211 HD
ENDBRANCH  11  36
BRANCH  12  38
ATOM     38  O   UNL A   1      36.229  34.170  29.504  1.00  0.00    -0.387 OA
ATOM     39  H   UNL A   1      37.193  34.271  29.458  1.00  0.00     0.211 HD
ENDBRANCH  12  38
ENDBRANCH   4   7
ENDBRANCH   2   3
ENDBRANCH   1   2
BRANCH   1  40
ATOM     40  C   UNL A   1      36.505  32.118  32.606  1.00  0.00     0.118 C 
BRANCH  40  41
ATOM     41  N   UNL A   1      36.593  30.882  33.325  1.00  0.00    -0.352 N 
ATOM     42  C   UNL A   1      37.537  29.917  32.987  1.00  0.00     0.251 C 
ATOM     43  H   UNL A   1      35.975  30.712  34.072  1.00  0.00     0.163 HD
ATOM     44  O   UNL A   1      37.389  28.742  33.314  1.00  0.00    -0.269 OA
BRANCH  42  45
ATOM     45  C   UNL A   1      38.724  30.342  32.189  1.00  0.00     0.039 A 
ATOM     46  C   UNL A   1      38.795  30.106  30.815  1.00  0.00     0.014 A 
ATOM     47  C   UNL A   1      39.746  31.053  32.827  1.00  0.00     0.014 A 
ATOM     48  C   UNL A   1      39.901  30.574  30.093  1.00  0.00     0.010 A 
ATOM     49  C   UNL A   1      40.768  31.633  32.084  1.00  0.00     0.010 A 
ATOM     50  C   UNL A   1      40.902  31.337  30.724  1.00  0.00    -0.014 A 
BRANCH  50  51
ATOM     51  C   UNL A   1      42.152  31.719  30.012  1.00  0.00     0.031 A 
ATOM     52  C   UNL A   1      42.401  33.174  29.687  1.00  0.00     0.074 A 
ATOM     53  C   UNL A   1      43.041  30.778  29.639  1.00  0.00     0.049 A 
ATOM     54  N   UNL A   1      43.430  33.727  29.099  1.00  0.00    -0.248 NA
ATOM     55  C   UNL A   1      41.339  34.136  30.037  1.00  0.00     0.031 C 
ATOM     56  C   UNL A   1      42.870  29.334  29.813  1.00  0.00     0.029 A 
ATOM     57  N   UNL A   1      44.266  30.893  29.031  1.00  0.00    -0.354 N 
ATOM     58  C   UNL A   1      43.117  35.078  28.976  1.00  0.00     0.074 A 
ATOM     59  C   UNL A   1      41.781  35.254  29.487  1.00  0.00     0.031 C 
ATOM     60  C   UNL A   1      43.963  28.701  29.355  1.00  0.00     0.029 A 
ATOM     61  C   UNL A   1      44.902  29.688  28.830  1.00  0.00     0.049 A 
ATOM     62  H   UNL A   1      44.655  31.757  28.763  1.00  0.00     0.167 HD
ATOM     63  C   UNL A   1      43.888  36.094  28.523  1.00  0.00     0.034 A 
ATOM     64  C   UNL A   1      46.108  29.417  28.292  1.00  0.00     0.034 A 
ATOM     65  C   UNL A   1      45.240  35.918  28.073  1.00  0.00     0.049 A 
ATOM     66  C   UNL A   1      46.973  30.566  27.850  1.00  0.00     0.074 A 
ATOM     67  C   UNL A   1      46.150  36.880  27.678  1.00  0.00     0.029 A 
ATOM     68  N   UNL A   1      45.872  34.690  27.955  1.00  0.00    -0.354 N 
ATOM     69  N   UNL A   1      46.718  31.853  27.887  1.00  0.00    -0.248 NA
ATOM     70  C   UNL A   1      48.307  30.234  27.330  1.00  0.00     0.031 C 
ATOM     71  C   UNL A   1      47.324  36.229  27.287  1.00  0.00     0.029 A 
ATOM     72  C   UNL A   1      47.158  34.865  27.481  1.00  0.00     0.049 A 
ATOM     73  H   UNL A   1      45.465  33.821  28.176  1.00  0.00     0.167 HD
ATOM     74  C   UNL A   1      47.868  32.484  27.430  1.00  0.00     0.074 A 
ATOM     75  C   UNL A   1      48.829  31.439  27.143  1.00  0.00     0.031 C 
ATOM     76  C   UNL A   1      48.107  33.807  27.249  1.00  0.00     0.034 A 
BRANCH  63  77
ATOM     77  C   UNL A   1      43.302  37.485  28.538  1.00  0.00     0.023 A 
ATOM     78  C   UNL A   1      42.438  37.897  27.502  1.00  0.00     0.012 A 
ATOM     79  C   UNL A   1      43.580  38.374  29.594  1.00  0.00     0.148 A 
ATOM     80  C   UNL A   1      41.899  39.183  27.490  1.00  0.00     0.002 A 
ATOM     81  C   UNL A   1      42.997  39.636  29.604  1.00  0.00     0.091 A 
ATOM     82  F   UNL A   1      44.420  37.976  30.560  1.00  0.00    -0.205 F 
ATOM     83  C   UNL A   1      42.171  40.048  28.546  1.00  0.00     0.022 A 
BRANCH  81  84
ATOM     84  S   UNL A   1      43.214  40.795  30.959  1.00  0.00     0.127 S 
ATOM     85  O   UNL A   1      44.652  41.053  30.900  1.00  0.00    -0.237 OA
ATOM     86  O   UNL A   1      42.374  41.917  30.538  1.00  0.00    -0.237 OA
ATOM     87  O   UNL A   1      42.754  40.107  32.157  1.00  0.00    -0.744 OA
ENDBRANCH  81  84
ENDBRANCH  63  77
BRANCH  64  88
ATOM     88  C   UNL A   1      46.592  28.008  28.210  1.00  0.00     0.023 A 
ATOM     89  C   UNL A   1      47.312  27.451  29.285  1.00  0.00     0.012 A 
ATOM     90  C   UNL A   1      46.312  27.206  27.087  1.00  0.00     0.148 A 
ATOM     91  C   UNL A   1      47.775  26.134  29.228  1.00  0.00     0.002 A 
ATOM     92  C   UNL A   1      46.724  25.878  27.061  1.00  0.00     0.091 A 
ATOM     93  F   UNL A   1      45.633  27.755  26.069  1.00  0.00    -0.205 F 
ATOM     94  C   UNL A   1      47.472  25.345  28.122  1.00  0.00     0.022 A 
BRANCH  92  95
ATOM     95  S   UNL A   1      46.255  24.752  25.742  1.00  0.00     0.127 S 
ATOM     96  O   UNL A   1      46.926  25.346  24.589  1.00  0.00    -0.237 OA
ATOM     97  O   UNL A   1      46.828  23.488  26.208  1.00  0.00    -0.237 OA
ATOM     98  O   UNL A   1      44.799  24.771  25.706  1.00  0.00    -0.744 OA
ENDBRANCH  92  95
ENDBRANCH  64  88
BRANCH  76  99
ATOM     99  C   UNL A   1      49.471  34.206  26.756  1.00  0.00     0.023 A 
ATOM    100  C   UNL A   1      49.696  34.399  25.379  1.00  0.00     0.012 A 
ATOM    101  C   UNL A   1      50.509  34.470  27.672  1.00  0.00     0.148 A 
ATOM    102  C   UNL A   1      50.944  34.813  24.919  1.00  0.00     0.002 A 
ATOM    103  C   UNL A   1      51.731  34.936  27.212  1.00  0.00     0.091 A 
ATOM    104  F   UNL A   1      50.275  34.264  28.978  1.00  0.00    -0.205 F 
ATOM    105  C   UNL A   1      51.956  35.094  25.834  1.00  0.00     0.022 A 
BRANCH 103 106
ATOM    106  S   UNL A   1      53.054  35.424  28.322  1.00  0.00     0.127 S 
ATOM    107  O   UNL A   1      53.285  34.189  29.070  1.00  0.00    -0.237 OA
ATOM    108  O   UNL A   1      54.123  35.781  27.389  1.00  0.00    -0.237 OA
ATOM    109  O   UNL A   1      52.535  36.538  29.104  1.00  0.00    -0.744 OA
ENDBRANCH 103 106
ENDBRANCH  76  99
ENDBRANCH  50  51
ENDBRANCH  42  45
ENDBRANCH  40  41
ENDBRANCH   1  40
TORSDOF 18
ENDMDL
