MODEL 1
REMARK VINA RESULT:     -13.5      0.000      0.000
REMARK SMILES O=C1[NH+]=C(Nc2ccc(C(=O)NCCCNC(=O)c3ccc(-c4c5nc(c(-c6cccc(S(=O)(=O)[O-])c6F)c6ccc([nH]6)c(-c6cccc(S(=O)(=O)[O-])c6F)c6nc(c(-c7cccc(S(=O)(=O)[O-])c7F)c7ccc4[nH]7)C=C6)C=C5)cc3)c(O)c2)S/C1=C\c1ccc[nH]1
REMARK SMILES IDX 14 1 13 2 12 3 10 4 11 5 9 7 6 8 7 9 84 10 8 11 82 12 5 13
REMARK SMILES IDX 1 14 2 15 3 16 86 17 4 18 85 20 87 21 88 23 89 24 92 25
REMARK SMILES IDX 90 26 91 27 83 29 15 31 16 32 17 33 18 35 19 36 20 37 81 38
REMARK SMILES IDX 21 39 80 40 22 41 23 42 24 43 74 44 25 45 79 46 73 47 75 48
REMARK SMILES IDX 26 49 78 50 72 51 71 52 27 54 59 55 39 56 58 57 40 58 43 59
REMARK SMILES IDX 57 60 76 61 41 62 42 63 56 65 77 66 44 67 28 68 29 69 37 70
REMARK SMILES IDX 30 71 32 72 38 73 31 74 33 75 34 76 35 77 36 78 60 79 61 80
REMARK SMILES IDX 69 81 62 82 64 83 70 84 63 85 65 86 66 87 67 88 68 89 45 90
REMARK SMILES IDX 46 91 54 92 47 93 49 94 55 95 48 96 50 97 51 98 52 99 53 100
REMARK H PARENT 12 6 3 19 5 22 92 28 83 30 16 34 75 53 43 64
REMARK Flexibility Score: inf
ROOT
ATOM      1  C   UNL A   1      31.301  30.950  25.891  1.00  0.00     0.042 C 
ENDROOT
BRANCH   1   2
ATOM      2  C   UNL A   1      31.424  29.682  25.065  1.00  0.00     0.118 C 
BRANCH   2   3
ATOM      3  N   UNL A   1      30.644  29.675  23.833  1.00  0.00    -0.352 N 
ATOM      4  C   UNL A   1      30.279  28.639  23.008  1.00  0.00     0.255 C 
ATOM      5  O   UNL A   1      29.603  28.886  22.010  1.00  0.00    -0.269 OA
ATOM      6  H   UNL A   1      30.327  30.561  23.543  1.00  0.00     0.163 HD
BRANCH   4   7
ATOM      7  C   UNL A   1      30.715  27.245  23.257  1.00  0.00     0.081 A 
ATOM      8  C   UNL A   1      31.220  24.517  23.781  1.00  0.00     0.129 A 
ATOM      9  C   UNL A   1      30.451  25.283  24.662  1.00  0.00     0.053 A 
ATOM     10  C   UNL A   1      31.795  25.155  22.676  1.00  0.00     0.098 A 
ATOM     11  C   UNL A   1      30.201  26.632  24.406  1.00  0.00     0.022 A 
ATOM     12  C   UNL A   1      31.586  26.516  22.445  1.00  0.00     0.132 A 
BRANCH   8  13
ATOM     13  N   UNL A   1      31.369  23.133  23.919  1.00  0.00    -0.234 N 
ATOM     14  O   UNL A   1      35.764  22.121  25.126  1.00  0.00    -0.240 OA
ATOM     15  C   UNL A   1      34.599  21.930  24.797  1.00  0.00     0.346 C 
ATOM     16  N   UNL A   1      33.687  22.917  24.508  1.00  0.00    -0.199 N 
ATOM     17  C   UNL A   1      34.010  20.570  24.636  1.00  0.00     0.111 C 
ATOM     18  C   UNL A   1      32.519  22.460  24.205  1.00  0.00     0.322 C 
ATOM     19  H   UNL A   1      33.904  23.877  24.529  1.00  0.00     0.316 HD
ATOM     20  S   UNL A   1      32.359  20.718  24.183  1.00  0.00     0.006 SA
ATOM     21  C   UNL A   1      34.724  19.454  24.836  1.00  0.00     0.050 C 
ATOM     22  H   UNL A   1      30.559  22.587  23.796  1.00  0.00     0.313 HD
BRANCH  21  23
ATOM     23  C   UNL A   1      34.200  18.165  24.583  1.00  0.00     0.039 A 
ATOM     24  C   UNL A   1      33.992  17.434  23.429  1.00  0.00     0.027 A 
ATOM     25  N   UNL A   1      33.778  17.399  25.641  1.00  0.00    -0.362 N 
ATOM     26  C   UNL A   1      33.400  16.205  23.800  1.00  0.00     0.020 A 
ATOM     27  C   UNL A   1      33.273  16.211  25.171  1.00  0.00     0.083 A 
ATOM     28  H   UNL A   1      33.831  17.659  26.589  1.00  0.00     0.166 HD
ENDBRANCH  21  23
ENDBRANCH   8  13
BRANCH  12  29
ATOM     29  O   UNL A   1      32.305  27.052  21.413  1.00  0.00    -0.507 OA
ATOM     30  H   UNL A   1      33.040  27.605  21.592  1.00  0.00     0.293 HD
ENDBRANCH  12  29
ENDBRANCH   4   7
ENDBRANCH   2   3
ENDBRANCH   1   2
BRANCH   1  31
ATOM     31  C   UNL A   1      32.445  31.213  26.858  1.00  0.00     0.118 C 
BRANCH  31  32
ATOM     32  N   UNL A   1      32.643  32.622  27.181  1.00  0.00    -0.352 N 
ATOM     33  C   UNL A   1      33.661  33.264  27.852  1.00  0.00     0.251 C 
ATOM     34  H   UNL A   1      31.924  33.217  26.865  1.00  0.00     0.163 HD
ATOM     35  O   UNL A   1      33.550  34.462  28.106  1.00  0.00    -0.269 OA
BRANCH  33  36
ATOM     36  C   UNL A   1      34.859  32.521  28.303  1.00  0.00     0.039 A 
ATOM     37  C   UNL A   1      36.111  33.142  28.244  1.00  0.00     0.014 A 
ATOM     38  C   UNL A   1      34.757  31.223  28.796  1.00  0.00     0.014 A 
ATOM     39  C   UNL A   1      37.231  32.497  28.777  1.00  0.00     0.010 A 
ATOM     40  C   UNL A   1      35.840  30.641  29.444  1.00  0.00     0.010 A 
ATOM     41  C   UNL A   1      37.095  31.264  29.435  1.00  0.00    -0.014 A 
BRANCH  41  42
ATOM     42  C   UNL A   1      38.242  30.601  30.114  1.00  0.00     0.031 A 
ATOM     43  C   UNL A   1      38.628  31.008  31.514  1.00  0.00     0.074 A 
ATOM     44  C   UNL A   1      38.997  29.709  29.440  1.00  0.00     0.049 A 
ATOM     45  N   UNL A   1      39.643  30.612  32.238  1.00  0.00    -0.248 NA
ATOM     46  C   UNL A   1      37.784  32.018  32.176  1.00  0.00     0.031 C 
ATOM     47  C   UNL A   1      38.780  29.289  28.054  1.00  0.00     0.029 A 
ATOM     48  N   UNL A   1      40.116  29.011  29.824  1.00  0.00    -0.354 N 
ATOM     49  C   UNL A   1      39.583  31.351  33.413  1.00  0.00     0.074 A 
ATOM     50  C   UNL A   1      38.463  32.256  33.287  1.00  0.00     0.031 C 
ATOM     51  C   UNL A   1      39.721  28.395  27.710  1.00  0.00     0.029 A 
ATOM     52  C   UNL A   1      40.636  28.210  28.833  1.00  0.00     0.049 A 
ATOM     53  H   UNL A   1      40.511  29.079  30.723  1.00  0.00     0.167 HD
ATOM     54  C   UNL A   1      40.365  31.264  34.516  1.00  0.00     0.034 A 
ATOM     55  C   UNL A   1      41.729  27.422  28.824  1.00  0.00     0.034 A 
ATOM     56  C   UNL A   1      41.452  30.336  34.656  1.00  0.00     0.049 A 
ATOM     57  C   UNL A   1      42.570  27.328  30.068  1.00  0.00     0.074 A 
ATOM     58  C   UNL A   1      42.252  30.108  35.761  1.00  0.00     0.029 A 
ATOM     59  N   UNL A   1      41.902  29.489  33.655  1.00  0.00    -0.354 N 
ATOM     60  N   UNL A   1      42.405  27.926  31.223  1.00  0.00    -0.248 NA
ATOM     61  C   UNL A   1      43.727  26.423  30.020  1.00  0.00     0.031 C 
ATOM     62  C   UNL A   1      43.209  29.149  35.417  1.00  0.00     0.029 A 
ATOM     63  C   UNL A   1      42.977  28.746  34.111  1.00  0.00     0.049 A 
ATOM     64  H   UNL A   1      41.513  29.424  32.754  1.00  0.00     0.167 HD
ATOM     65  C   UNL A   1      43.412  27.440  32.051  1.00  0.00     0.074 A 
ATOM     66  C   UNL A   1      44.168  26.484  31.269  1.00  0.00     0.031 C 
ATOM     67  C   UNL A   1      43.690  27.762  33.338  1.00  0.00     0.034 A 
BRANCH  54  68
ATOM     68  C   UNL A   1      40.040  32.171  35.677  1.00  0.00     0.023 A 
ATOM     69  C   UNL A   1      40.742  33.384  35.837  1.00  0.00     0.012 A 
ATOM     70  C   UNL A   1      39.013  31.845  36.584  1.00  0.00     0.148 A 
ATOM     71  C   UNL A   1      40.462  34.234  36.906  1.00  0.00     0.002 A 
ATOM     72  C   UNL A   1      38.703  32.724  37.616  1.00  0.00     0.091 A 
ATOM     73  F   UNL A   1      38.368  30.681  36.429  1.00  0.00    -0.205 F 
ATOM     74  C   UNL A   1      39.436  33.910  37.788  1.00  0.00     0.022 A 
BRANCH  72  75
ATOM     75  S   UNL A   1      37.344  32.441  38.756  1.00  0.00     0.127 S 
ATOM     76  O   UNL A   1      37.695  33.332  39.861  1.00  0.00    -0.237 OA
ATOM     77  O   UNL A   1      36.189  32.872  37.969  1.00  0.00    -0.237 OA
ATOM     78  O   UNL A   1      37.371  31.019  39.070  1.00  0.00    -0.744 OA
ENDBRANCH  72  75
ENDBRANCH  54  68
BRANCH  55  79
ATOM     79  C   UNL A   1      42.060  26.612  27.616  1.00  0.00     0.023 A 
ATOM     80  C   UNL A   1      42.696  27.231  26.521  1.00  0.00     0.012 A 
ATOM     81  C   UNL A   1      41.765  25.238  27.548  1.00  0.00     0.148 A 
ATOM     82  C   UNL A   1      42.996  26.507  25.367  1.00  0.00     0.002 A 
ATOM     83  C   UNL A   1      42.118  24.507  26.419  1.00  0.00     0.091 A 
ATOM     84  F   UNL A   1      41.155  24.667  28.597  1.00  0.00    -0.205 F 
ATOM     85  C   UNL A   1      42.715  25.144  25.320  1.00  0.00     0.022 A 
BRANCH  83  86
ATOM     86  S   UNL A   1      41.913  22.726  26.316  1.00  0.00     0.127 S 
ATOM     87  O   UNL A   1      42.540  22.426  25.031  1.00  0.00    -0.237 OA
ATOM     88  O   UNL A   1      42.660  22.270  27.489  1.00  0.00    -0.237 OA
ATOM     89  O   UNL A   1      40.477  22.489  26.388  1.00  0.00    -0.744 OA
ENDBRANCH  83  86
ENDBRANCH  55  79
BRANCH  67  90
ATOM     90  C   UNL A   1      44.829  27.041  34.011  1.00  0.00     0.023 A 
ATOM     91  C   UNL A   1      46.142  27.540  33.908  1.00  0.00     0.012 A 
ATOM     92  C   UNL A   1      44.580  25.908  34.811  1.00  0.00     0.148 A 
ATOM     93  C   UNL A   1      47.196  26.901  34.561  1.00  0.00     0.002 A 
ATOM     94  C   UNL A   1      45.625  25.310  35.504  1.00  0.00     0.091 A 
ATOM     95  F   UNL A   1      43.325  25.440  34.883  1.00  0.00    -0.205 F 
ATOM     96  C   UNL A   1      46.935  25.795  35.368  1.00  0.00     0.022 A 
BRANCH  94  97
ATOM     97  S   UNL A   1      45.370  23.946  36.645  1.00  0.00     0.127 S 
ATOM     98  O   UNL A   1      44.733  22.952  35.782  1.00  0.00    -0.237 OA
ATOM     99  O   UNL A   1      46.740  23.620  37.045  1.00  0.00    -0.237 OA
ATOM    100  O   UNL A   1      44.533  24.467  37.717  1.00  0.00    -0.744 OA
ENDBRANCH  94  97
ENDBRANCH  67  90
ENDBRANCH  41  42
ENDBRANCH  33  36
ENDBRANCH  31  32
ENDBRANCH   1  31
TORSDOF 16
ENDMDL
MODEL 2
REMARK VINA RESULT:     -13.4      5.293      9.437
REMARK SMILES O=C1[NH+]=C(Nc2ccc(C(=O)NCCCNC(=O)c3ccc(-c4c5nc(c(-c6cccc(S(=O)(=O)[O-])c6F)c6ccc([nH]6)c(-c6cccc(S(=O)(=O)[O-])c6F)c6nc(c(-c7cccc(S(=O)(=O)[O-])c7F)c7ccc4[nH]7)C=C6)C=C5)cc3)c(O)c2)S/C1=C\c1ccc[nH]1
REMARK SMILES IDX 14 1 13 2 12 3 10 4 11 5 9 7 6 8 7 9 84 10 8 11 82 12 5 13
REMARK SMILES IDX 1 14 2 15 3 16 86 17 4 18 85 20 87 21 88 23 89 24 92 25
REMARK SMILES IDX 90 26 91 27 83 29 15 31 16 32 17 33 18 35 19 36 20 37 81 38
REMARK SMILES IDX 21 39 80 40 22 41 23 42 24 43 74 44 25 45 79 46 73 47 75 48
REMARK SMILES IDX 26 49 78 50 72 51 71 52 27 54 59 55 39 56 58 57 40 58 43 59
REMARK SMILES IDX 57 60 76 61 41 62 42 63 56 65 77 66 44 67 28 68 29 69 37 70
REMARK SMILES IDX 30 71 32 72 38 73 31 74 33 75 34 76 35 77 36 78 60 79 61 80
REMARK SMILES IDX 69 81 62 82 64 83 70 84 63 85 65 86 66 87 67 88 68 89 45 90
REMARK SMILES IDX 46 91 54 92 47 93 49 94 55 95 48 96 50 97 51 98 52 99 53 100
REMARK H PARENT 12 6 3 19 5 22 92 28 83 30 16 34 75 53 43 64
REMARK Flexibility Score: inf
ROOT
ATOM      1  C   UNL A   1      36.840  19.645  24.909  1.00  0.00     0.042 C 
ENDROOT
BRANCH   1   2
ATOM      2  C   UNL A   1      35.541  20.423  25.016  1.00  0.00     0.118 C 
BRANCH   2   3
ATOM      3  N   UNL A   1      34.337  19.602  25.071  1.00  0.00    -0.352 N 
ATOM      4  C   UNL A   1      33.022  19.920  24.833  1.00  0.00     0.255 C 
ATOM      5  O   UNL A   1      32.171  19.039  24.939  1.00  0.00    -0.269 OA
ATOM      6  H   UNL A   1      34.493  18.662  25.320  1.00  0.00     0.163 HD
BRANCH   4   7
ATOM      7  C   UNL A   1      32.596  21.300  24.503  1.00  0.00     0.081 A 
ATOM      8  C   UNL A   1      31.650  23.799  23.592  1.00  0.00     0.129 A 
ATOM      9  C   UNL A   1      32.417  22.980  22.759  1.00  0.00     0.053 A 
ATOM     10  C   UNL A   1      31.428  23.385  24.910  1.00  0.00     0.098 A 
ATOM     11  C   UNL A   1      32.887  21.745  23.207  1.00  0.00     0.022 A 
ATOM     12  C   UNL A   1      31.939  22.171  25.375  1.00  0.00     0.132 A 
BRANCH   8  13
ATOM     13  N   UNL A   1      31.034  24.971  23.136  1.00  0.00    -0.234 N 
ATOM     14  O   UNL A   1      32.372  28.592  25.762  1.00  0.00    -0.240 OA
ATOM     15  C   UNL A   1      31.759  27.973  24.900  1.00  0.00     0.346 C 
ATOM     16  N   UNL A   1      31.875  26.625  24.661  1.00  0.00    -0.199 N 
ATOM     17  C   UNL A   1      30.761  28.610  23.995  1.00  0.00     0.111 C 
ATOM     18  C   UNL A   1      31.136  26.213  23.686  1.00  0.00     0.322 C 
ATOM     19  H   UNL A   1      32.463  26.032  25.182  1.00  0.00     0.316 HD
ATOM     20  S   UNL A   1      30.131  27.424  22.922  1.00  0.00     0.006 SA
ATOM     21  C   UNL A   1      30.460  29.913  24.067  1.00  0.00     0.050 C 
ATOM     22  H   UNL A   1      30.467  24.889  22.336  1.00  0.00     0.313 HD
BRANCH  21  23
ATOM     23  C   UNL A   1      29.439  30.500  23.282  1.00  0.00     0.039 A 
ATOM     24  C   UNL A   1      28.121  30.829  23.531  1.00  0.00     0.027 A 
ATOM     25  N   UNL A   1      29.716  30.849  21.984  1.00  0.00    -0.362 N 
ATOM     26  C   UNL A   1      27.579  31.364  22.340  1.00  0.00     0.020 A 
ATOM     27  C   UNL A   1      28.584  31.358  21.398  1.00  0.00     0.083 A 
ATOM     28  H   UNL A   1      30.590  30.750  21.542  1.00  0.00     0.166 HD
ENDBRANCH  21  23
ENDBRANCH   8  13
BRANCH  12  29
ATOM     29  O   UNL A   1      31.771  21.939  26.711  1.00  0.00    -0.507 OA
ATOM     30  H   UNL A   1      31.209  22.492  27.216  1.00  0.00     0.293 HD
ENDBRANCH  12  29
ENDBRANCH   4   7
ENDBRANCH   2   3
ENDBRANCH   1   2
BRANCH   1  31
ATOM     31  C   UNL A   1      38.074  20.355  25.446  1.00  0.00     0.118 C 
BRANCH  31  32
ATOM     32  N   UNL A   1      39.230  19.484  25.636  1.00  0.00    -0.352 N 
ATOM     33  C   UNL A   1      40.513  19.760  26.054  1.00  0.00     0.251 C 
ATOM     34  H   UNL A   1      39.063  18.536  25.431  1.00  0.00     0.163 HD
ATOM     35  O   UNL A   1      41.358  18.868  26.027  1.00  0.00    -0.269 OA
BRANCH  33  36
ATOM     36  C   UNL A   1      40.891  21.122  26.494  1.00  0.00     0.039 A 
ATOM     37  C   UNL A   1      41.809  21.274  27.538  1.00  0.00     0.014 A 
ATOM     38  C   UNL A   1      40.359  22.252  25.876  1.00  0.00     0.014 A 
ATOM     39  C   UNL A   1      42.265  22.551  27.882  1.00  0.00     0.010 A 
ATOM     40  C   UNL A   1      40.911  23.503  26.126  1.00  0.00     0.010 A 
ATOM     41  C   UNL A   1      41.863  23.672  27.139  1.00  0.00    -0.014 A 
BRANCH  41  42
ATOM     42  C   UNL A   1      42.413  25.030  27.401  1.00  0.00     0.031 A 
ATOM     43  C   UNL A   1      41.585  26.052  28.139  1.00  0.00     0.074 A 
ATOM     44  C   UNL A   1      43.612  25.379  26.890  1.00  0.00     0.049 A 
ATOM     45  N   UNL A   1      41.852  27.307  28.388  1.00  0.00    -0.248 NA
ATOM     46  C   UNL A   1      40.267  25.615  28.633  1.00  0.00     0.031 C 
ATOM     47  C   UNL A   1      44.479  24.512  26.089  1.00  0.00     0.029 A 
ATOM     48  N   UNL A   1      44.301  26.566  26.950  1.00  0.00    -0.354 N 
ATOM     49  C   UNL A   1      40.727  27.817  29.023  1.00  0.00     0.074 A 
ATOM     50  C   UNL A   1      39.752  26.751  29.078  1.00  0.00     0.031 C 
ATOM     51  C   UNL A   1      45.588  25.187  25.748  1.00  0.00     0.029 A 
ATOM     52  C   UNL A   1      45.496  26.548  26.267  1.00  0.00     0.049 A 
ATOM     53  H   UNL A   1      43.971  27.356  27.435  1.00  0.00     0.167 HD
ATOM     54  C   UNL A   1      40.528  29.050  29.548  1.00  0.00     0.034 A 
ATOM     55  C   UNL A   1      46.409  27.519  26.071  1.00  0.00     0.034 A 
ATOM     56  C   UNL A   1      41.513  30.096  29.529  1.00  0.00     0.049 A 
ATOM     57  C   UNL A   1      46.176  28.874  26.681  1.00  0.00     0.074 A 
ATOM     58  C   UNL A   1      41.445  31.352  30.106  1.00  0.00     0.029 A 
ATOM     59  N   UNL A   1      42.740  30.015  28.890  1.00  0.00    -0.354 N 
ATOM     60  N   UNL A   1      45.167  29.289  27.409  1.00  0.00    -0.248 NA
ATOM     61  C   UNL A   1      47.222  29.886  26.473  1.00  0.00     0.031 C 
ATOM     62  C   UNL A   1      42.617  32.044  29.784  1.00  0.00     0.029 A 
ATOM     63  C   UNL A   1      43.435  31.202  29.045  1.00  0.00     0.049 A 
ATOM     64  H   UNL A   1      43.070  29.229  28.399  1.00  0.00     0.167 HD
ATOM     65  C   UNL A   1      45.476  30.593  27.779  1.00  0.00     0.074 A 
ATOM     66  C   UNL A   1      46.774  30.892  27.211  1.00  0.00     0.031 C 
ATOM     67  C   UNL A   1      44.747  31.468  28.516  1.00  0.00     0.034 A 
BRANCH  54  68
ATOM     68  C   UNL A   1      39.209  29.318  30.228  1.00  0.00     0.023 A 
ATOM     69  C   UNL A   1      38.929  28.717  31.474  1.00  0.00     0.012 A 
ATOM     70  C   UNL A   1      38.265  30.194  29.659  1.00  0.00     0.148 A 
ATOM     71  C   UNL A   1      37.714  28.946  32.118  1.00  0.00     0.002 A 
ATOM     72  C   UNL A   1      37.079  30.460  30.333  1.00  0.00     0.091 A 
ATOM     73  F   UNL A   1      38.539  30.742  28.467  1.00  0.00    -0.205 F 
ATOM     74  C   UNL A   1      36.795  29.826  31.554  1.00  0.00     0.022 A 
BRANCH  72  75
ATOM     75  S   UNL A   1      35.866  31.641  29.734  1.00  0.00     0.127 S 
ATOM     76  O   UNL A   1      35.246  30.896  28.639  1.00  0.00    -0.237 OA
ATOM     77  O   UNL A   1      35.012  31.825  30.907  1.00  0.00    -0.237 OA
ATOM     78  O   UNL A   1      36.617  32.823  29.335  1.00  0.00    -0.744 OA
ENDBRANCH  72  75
ENDBRANCH  54  68
BRANCH  55  79
ATOM     79  C   UNL A   1      47.660  27.230  25.310  1.00  0.00     0.023 A 
ATOM     80  C   UNL A   1      48.728  26.576  25.959  1.00  0.00     0.012 A 
ATOM     81  C   UNL A   1      47.796  27.583  23.955  1.00  0.00     0.148 A 
ATOM     82  C   UNL A   1      49.920  26.315  25.282  1.00  0.00     0.002 A 
ATOM     83  C   UNL A   1      48.964  27.270  23.270  1.00  0.00     0.091 A 
ATOM     84  F   UNL A   1      46.772  28.210  23.358  1.00  0.00    -0.205 F 
ATOM     85  C   UNL A   1      50.034  26.653  23.937  1.00  0.00     0.022 A 
BRANCH  83  86
ATOM     86  S   UNL A   1      49.157  27.551  21.507  1.00  0.00     0.127 S 
ATOM     87  O   UNL A   1      49.405  28.990  21.458  1.00  0.00    -0.237 OA
ATOM     88  O   UNL A   1      50.317  26.715  21.195  1.00  0.00    -0.237 OA
ATOM     89  O   UNL A   1      47.912  27.104  20.897  1.00  0.00    -0.744 OA
ENDBRANCH  83  86
ENDBRANCH  55  79
BRANCH  67  90
ATOM     90  C   UNL A   1      45.351  32.819  28.800  1.00  0.00     0.023 A 
ATOM     91  C   UNL A   1      46.196  32.998  29.912  1.00  0.00     0.012 A 
ATOM     92  C   UNL A   1      45.137  33.894  27.913  1.00  0.00     0.148 A 
ATOM     93  C   UNL A   1      46.791  34.235  30.159  1.00  0.00     0.002 A 
ATOM     94  C   UNL A   1      45.777  35.107  28.134  1.00  0.00     0.091 A 
ATOM     95  F   UNL A   1      44.317  33.708  26.869  1.00  0.00    -0.205 F 
ATOM     96  C   UNL A   1      46.591  35.284  29.263  1.00  0.00     0.022 A 
BRANCH  94  97
ATOM     97  S   UNL A   1      45.662  36.481  26.983  1.00  0.00     0.127 S 
ATOM     98  O   UNL A   1      46.437  37.512  27.672  1.00  0.00    -0.237 OA
ATOM     99  O   UNL A   1      46.302  35.933  25.786  1.00  0.00    -0.237 OA
ATOM    100  O   UNL A   1      44.242  36.766  26.833  1.00  0.00    -0.744 OA
ENDBRANCH  94  97
ENDBRANCH  67  90
ENDBRANCH  41  42
ENDBRANCH  33  36
ENDBRANCH  31  32
ENDBRANCH   1  31
TORSDOF 16
ENDMDL
MODEL 3
REMARK VINA RESULT:     -13.4      5.060     10.964
REMARK SMILES O=C1[NH+]=C(Nc2ccc(C(=O)NCCCNC(=O)c3ccc(-c4c5nc(c(-c6cccc(S(=O)(=O)[O-])c6F)c6ccc([nH]6)c(-c6cccc(S(=O)(=O)[O-])c6F)c6nc(c(-c7cccc(S(=O)(=O)[O-])c7F)c7ccc4[nH]7)C=C6)C=C5)cc3)c(O)c2)S/C1=C\c1ccc[nH]1
REMARK SMILES IDX 14 1 13 2 12 3 10 4 11 5 9 7 6 8 7 9 84 10 8 11 82 12 5 13
REMARK SMILES IDX 1 14 2 15 3 16 86 17 4 18 85 20 87 21 88 23 89 24 92 25
REMARK SMILES IDX 90 26 91 27 83 29 15 31 16 32 17 33 18 35 19 36 20 37 81 38
REMARK SMILES IDX 21 39 80 40 22 41 23 42 24 43 74 44 25 45 79 46 73 47 75 48
REMARK SMILES IDX 26 49 78 50 72 51 71 52 27 54 59 55 39 56 58 57 40 58 43 59
REMARK SMILES IDX 57 60 76 61 41 62 42 63 56 65 77 66 44 67 28 68 29 69 37 70
REMARK SMILES IDX 30 71 32 72 38 73 31 74 33 75 34 76 35 77 36 78 60 79 61 80
REMARK SMILES IDX 69 81 62 82 64 83 70 84 63 85 65 86 66 87 67 88 68 89 45 90
REMARK SMILES IDX 46 91 54 92 47 93 49 94 55 95 48 96 50 97 51 98 52 99 53 100
REMARK H PARENT 12 6 3 19 5 22 92 28 83 30 16 34 75 53 43 64
REMARK Flexibility Score: inf
ROOT
ATOM      1  C   UNL A   1      35.856  21.129  25.742  1.00  0.00     0.042 C 
ENDROOT
BRANCH   1   2
ATOM      2  C   UNL A   1      35.404  20.138  24.684  1.00  0.00     0.118 C 
BRANCH   2   3
ATOM      3  N   UNL A   1      34.270  19.306  25.066  1.00  0.00    -0.352 N 
ATOM      4  C   UNL A   1      32.934  19.602  25.173  1.00  0.00     0.255 C 
ATOM      5  O   UNL A   1      32.155  18.714  25.515  1.00  0.00    -0.269 OA
ATOM      6  H   UNL A   1      34.502  18.374  25.285  1.00  0.00     0.163 HD
BRANCH   4   7
ATOM      7  C   UNL A   1      32.412  20.969  24.937  1.00  0.00     0.081 A 
ATOM      8  C   UNL A   1      31.186  23.428  24.290  1.00  0.00     0.129 A 
ATOM      9  C   UNL A   1      31.573  22.538  23.284  1.00  0.00     0.053 A 
ATOM     10  C   UNL A   1      31.489  23.105  25.617  1.00  0.00     0.098 A 
ATOM     11  C   UNL A   1      32.181  21.322  23.602  1.00  0.00     0.022 A 
ATOM     12  C   UNL A   1      32.141  21.911  25.932  1.00  0.00     0.132 A 
BRANCH   8  13
ATOM     13  N   UNL A   1      30.441  24.584  24.026  1.00  0.00    -0.234 N 
ATOM     14  O   UNL A   1      33.231  27.916  22.320  1.00  0.00    -0.240 OA
ATOM     15  C   UNL A   1      32.207  27.392  22.744  1.00  0.00     0.346 C 
ATOM     16  N   UNL A   1      32.111  26.099  23.199  1.00  0.00    -0.199 N 
ATOM     17  C   UNL A   1      30.907  28.113  22.850  1.00  0.00     0.111 C 
ATOM     18  C   UNL A   1      30.919  25.777  23.576  1.00  0.00     0.322 C 
ATOM     19  H   UNL A   1      32.875  25.480  23.235  1.00  0.00     0.316 HD
ATOM     20  S   UNL A   1      29.715  27.043  23.472  1.00  0.00     0.006 SA
ATOM     21  C   UNL A   1      30.770  29.397  22.492  1.00  0.00     0.050 C 
ATOM     22  H   UNL A   1      29.471  24.529  24.183  1.00  0.00     0.313 HD
BRANCH  21  23
ATOM     23  C   UNL A   1      29.567  30.114  22.690  1.00  0.00     0.039 A 
ATOM     24  C   UNL A   1      29.120  30.964  23.683  1.00  0.00     0.027 A 
ATOM     25  N   UNL A   1      28.568  30.007  21.755  1.00  0.00    -0.362 N 
ATOM     26  C   UNL A   1      27.803  31.357  23.352  1.00  0.00     0.020 A 
ATOM     27  C   UNL A   1      27.483  30.746  22.160  1.00  0.00     0.083 A 
ATOM     28  H   UNL A   1      28.620  29.483  20.923  1.00  0.00     0.166 HD
ENDBRANCH  21  23
ENDBRANCH   8  13
BRANCH  12  29
ATOM     29  O   UNL A   1      32.501  21.769  27.243  1.00  0.00    -0.507 OA
ATOM     30  H   UNL A   1      32.109  22.312  27.898  1.00  0.00     0.293 HD
ENDBRANCH  12  29
ENDBRANCH   4   7
ENDBRANCH   2   3
ENDBRANCH   1   2
BRANCH   1  31
ATOM     31  C   UNL A   1      37.218  21.763  25.505  1.00  0.00     0.118 C 
BRANCH  31  32
ATOM     32  N   UNL A   1      38.345  20.875  25.766  1.00  0.00    -0.352 N 
ATOM     33  C   UNL A   1      39.597  21.127  26.282  1.00  0.00     0.251 C 
ATOM     34  H   UNL A   1      38.183  19.932  25.532  1.00  0.00     0.163 HD
ATOM     35  O   UNL A   1      40.431  20.224  26.303  1.00  0.00    -0.269 OA
BRANCH  33  36
ATOM     36  C   UNL A   1      39.958  22.477  26.772  1.00  0.00     0.039 A 
ATOM     37  C   UNL A   1      40.920  22.604  27.779  1.00  0.00     0.014 A 
ATOM     38  C   UNL A   1      39.366  23.618  26.237  1.00  0.00     0.014 A 
ATOM     39  C   UNL A   1      41.356  23.876  28.165  1.00  0.00     0.010 A 
ATOM     40  C   UNL A   1      39.894  24.872  26.524  1.00  0.00     0.010 A 
ATOM     41  C   UNL A   1      40.889  25.020  27.500  1.00  0.00    -0.014 A 
BRANCH  41  42
ATOM     42  C   UNL A   1      41.413  26.379  27.804  1.00  0.00     0.031 A 
ATOM     43  C   UNL A   1      42.821  26.751  27.411  1.00  0.00     0.074 A 
ATOM     44  C   UNL A   1      40.663  27.243  28.520  1.00  0.00     0.049 A 
ATOM     45  N   UNL A   1      43.485  27.849  27.664  1.00  0.00    -0.248 NA
ATOM     46  C   UNL A   1      43.598  25.744  26.668  1.00  0.00     0.031 C 
ATOM     47  C   UNL A   1      39.317  26.978  29.030  1.00  0.00     0.029 A 
ATOM     48  N   UNL A   1      40.938  28.514  28.963  1.00  0.00    -0.354 N 
ATOM     49  C   UNL A   1      44.761  27.648  27.152  1.00  0.00     0.074 A 
ATOM     50  C   UNL A   1      44.796  26.305  26.619  1.00  0.00     0.031 C 
ATOM     51  C   UNL A   1      38.876  28.057  29.699  1.00  0.00     0.029 A 
ATOM     52  C   UNL A   1      39.923  29.074  29.705  1.00  0.00     0.049 A 
ATOM     53  H   UNL A   1      41.783  28.981  28.769  1.00  0.00     0.167 HD
ATOM     54  C   UNL A   1      45.803  28.511  27.095  1.00  0.00     0.034 A 
ATOM     55  C   UNL A   1      39.846  30.265  30.328  1.00  0.00     0.034 A 
ATOM     56  C   UNL A   1      45.754  29.859  27.588  1.00  0.00     0.049 A 
ATOM     57  C   UNL A   1      41.009  31.215  30.233  1.00  0.00     0.074 A 
ATOM     58  C   UNL A   1      46.724  30.843  27.504  1.00  0.00     0.029 A 
ATOM     59  N   UNL A   1      44.681  30.413  28.270  1.00  0.00    -0.354 N 
ATOM     60  N   UNL A   1      42.153  31.059  29.612  1.00  0.00    -0.248 NA
ATOM     61  C   UNL A   1      40.858  32.519  30.895  1.00  0.00     0.031 C 
ATOM     62  C   UNL A   1      46.252  31.979  28.167  1.00  0.00     0.029 A 
ATOM     63  C   UNL A   1      44.969  31.720  28.624  1.00  0.00     0.049 A 
ATOM     64  H   UNL A   1      43.838  29.947  28.470  1.00  0.00     0.167 HD
ATOM     65  C   UNL A   1      42.840  32.258  29.773  1.00  0.00     0.074 A 
ATOM     66  C   UNL A   1      41.975  33.135  30.533  1.00  0.00     0.031 C 
ATOM     67  C   UNL A   1      44.079  32.599  29.339  1.00  0.00     0.034 A 
BRANCH  54  68
ATOM     68  C   UNL A   1      47.072  28.034  26.434  1.00  0.00     0.023 A 
ATOM     69  C   UNL A   1      48.121  27.515  27.223  1.00  0.00     0.012 A 
ATOM     70  C   UNL A   1      47.212  28.057  25.033  1.00  0.00     0.148 A 
ATOM     71  C   UNL A   1      49.304  27.074  26.634  1.00  0.00     0.002 A 
ATOM     72  C   UNL A   1      48.374  27.564  24.449  1.00  0.00     0.091 A 
ATOM     73  F   UNL A   1      46.214  28.569  24.299  1.00  0.00    -0.205 F 
ATOM     74  C   UNL A   1      49.426  27.087  25.248  1.00  0.00     0.022 A 
BRANCH  72  75
ATOM     75  S   UNL A   1      48.596  27.459  22.670  1.00  0.00     0.127 S 
ATOM     76  O   UNL A   1      47.439  28.210  22.184  1.00  0.00    -0.237 OA
ATOM     77  O   UNL A   1      49.882  28.131  22.482  1.00  0.00    -0.237 OA
ATOM     78  O   UNL A   1      48.597  26.040  22.347  1.00  0.00    -0.744 OA
ENDBRANCH  72  75
ENDBRANCH  54  68
BRANCH  55  79
ATOM     79  C   UNL A   1      38.598  30.657  31.048  1.00  0.00     0.023 A 
ATOM     80  C   UNL A   1      38.466  30.351  32.417  1.00  0.00     0.012 A 
ATOM     81  C   UNL A   1      37.554  31.337  30.394  1.00  0.00     0.148 A 
ATOM     82  C   UNL A   1      37.302  30.681  33.112  1.00  0.00     0.002 A 
ATOM     83  C   UNL A   1      36.420  31.714  31.105  1.00  0.00     0.091 A 
ATOM     84  F   UNL A   1      37.696  31.613  29.090  1.00  0.00    -0.205 F 
ATOM     85  C   UNL A   1      36.284  31.370  32.459  1.00  0.00     0.022 A 
BRANCH  83  86
ATOM     86  S   UNL A   1      35.114  32.712  30.383  1.00  0.00     0.127 S 
ATOM     87  O   UNL A   1      34.154  32.790  31.481  1.00  0.00    -0.237 OA
ATOM     88  O   UNL A   1      35.818  33.962  30.090  1.00  0.00    -0.237 OA
ATOM     89  O   UNL A   1      34.666  31.984  29.203  1.00  0.00    -0.744 OA
ENDBRANCH  83  86
ENDBRANCH  55  79
BRANCH  67  90
ATOM     90  C   UNL A   1      44.563  33.996  29.625  1.00  0.00     0.023 A 
ATOM     91  C   UNL A   1      45.192  34.291  30.849  1.00  0.00     0.012 A 
ATOM     92  C   UNL A   1      44.458  35.000  28.640  1.00  0.00     0.148 A 
ATOM     93  C   UNL A   1      45.679  35.573  31.105  1.00  0.00     0.002 A 
ATOM     94  C   UNL A   1      44.995  36.259  28.880  1.00  0.00     0.091 A 
ATOM     95  F   UNL A   1      43.842  34.703  27.487  1.00  0.00    -0.205 F 
ATOM     96  C   UNL A   1      45.592  36.551  30.116  1.00  0.00     0.022 A 
BRANCH  94  97
ATOM     97  S   UNL A   1      45.021  37.549  27.630  1.00  0.00     0.127 S 
ATOM     98  O   UNL A   1      43.595  37.744  27.375  1.00  0.00    -0.237 OA
ATOM     99  O   UNL A   1      45.671  38.651  28.342  1.00  0.00    -0.237 OA
ATOM    100  O   UNL A   1      45.786  37.014  26.512  1.00  0.00    -0.744 OA
ENDBRANCH  94  97
ENDBRANCH  67  90
ENDBRANCH  41  42
ENDBRANCH  33  36
ENDBRANCH  31  32
ENDBRANCH   1  31
TORSDOF 16
ENDMDL
