MODEL 1
REMARK VINA RESULT:     -12.7      0.000      0.000
REMARK SMILES C#Cc1cc(Cl)cc2c1O[C@H](C(F)(F)F)C(C(=O)NCCCNC(=O)c1ccc(-c3c4nc(c(-c5cccc(S(=O)(=O)[O-])c5F)c5ccc([nH]5)c(-c5cccc(S(=O)(=O)[O-])c5F)c5nc(c(-c6cccc(S(=O)(=O)[O-])c6F)c6ccc3[nH]6)C=C5)C=C4)cc1)=C2
REMARK SMILES IDX 22 1 21 2 20 3 19 4 17 5 18 6 16 8 3 9 4 10 9 11 5 12 8 13
REMARK SMILES IDX 10 14 6 15 7 16 89 17 11 18 2 19 1 20 12 21 13 22 14 23
REMARK SMILES IDX 15 24 23 25 24 26 25 28 26 29 27 30 88 31 28 32 87 33 29 34
REMARK SMILES IDX 30 35 31 36 81 37 32 38 86 39 80 40 82 41 33 42 85 43 79 44
REMARK SMILES IDX 78 45 34 47 66 48 46 49 65 50 47 51 50 52 64 53 83 54 48 55
REMARK SMILES IDX 49 56 63 58 84 59 51 60 35 61 36 62 44 63 37 64 39 65 45 66
REMARK SMILES IDX 38 67 40 68 41 69 42 70 43 71 67 72 68 73 76 74 69 75 71 76
REMARK SMILES IDX 77 77 70 78 72 79 73 80 74 81 75 82 52 83 53 84 61 85 54 86
REMARK SMILES IDX 56 87 62 88 55 89 57 90 58 91 59 92 60 93
REMARK H PARENT 19 7 23 27 82 46 50 57
REMARK Flexibility Score: inf
ROOT
ATOM      1  C   UNL A   1      36.469  22.101  25.433  1.00  0.00     0.118 C 
ENDROOT
BRANCH   1   2
ATOM      2  C   UNL A   1      35.168  21.810  26.162  1.00  0.00     0.042 C 
BRANCH   2   3
ATOM      3  C   UNL A   1      34.007  22.565  25.545  1.00  0.00     0.118 C 
BRANCH   3   4
ATOM      4  N   UNL A   1      34.141  22.694  24.100  1.00  0.00    -0.352 N 
ATOM      5  C   UNL A   1      33.829  23.611  23.153  1.00  0.00     0.251 C 
ATOM      6  O   UNL A   1      34.170  23.328  22.001  1.00  0.00    -0.270 OA
ATOM      7  H   UNL A   1      34.573  21.902  23.706  1.00  0.00     0.163 HD
BRANCH   5   8
ATOM      8  C   UNL A   1      33.132  24.901  23.422  1.00  0.00     0.067 C 
ATOM      9  C   UNL A   1      31.350  28.654  24.044  1.00  0.00     0.068 A 
ATOM     10  C   UNL A   1      31.878  29.523  24.997  1.00  0.00     0.041 A 
ATOM     11  C   UNL A   1      31.975  27.422  23.812  1.00  0.00     0.143 A 
ATOM     12  C   UNL A   1      33.025  29.157  25.701  1.00  0.00     0.043 A 
ATOM     13  C   UNL A   1      33.128  27.053  24.514  1.00  0.00     0.020 A 
ATOM     14  O   UNL A   1      31.440  26.627  22.840  1.00  0.00    -0.474 OA
ATOM     15  Cl  UNL A   1      33.677  30.233  26.876  1.00  0.00    -0.084 Cl
ATOM     16  C   UNL A   1      33.653  27.931  25.466  1.00  0.00     0.032 A 
ATOM     17  C   UNL A   1      33.775  25.781  24.212  1.00  0.00     0.025 C 
ATOM     18  C   UNL A   1      31.771  25.224  22.882  1.00  0.00     0.314 C 
BRANCH   9  19
ATOM     19  C   UNL A   1      30.172  29.015  23.312  1.00  0.00    -0.067 C 
ATOM     20  C   UNL A   1      29.173  29.374  22.750  1.00  0.00     0.010 C 
ENDBRANCH   9  19
BRANCH  18  21
ATOM     21  C   UNL A   1      30.653  24.459  23.618  1.00  0.00     0.429 C 
ATOM     22  F   UNL A   1      29.530  25.215  23.705  1.00  0.00    -0.167 F 
ATOM     23  F   UNL A   1      30.294  23.314  22.987  1.00  0.00    -0.167 F 
ATOM     24  F   UNL A   1      31.006  24.108  24.877  1.00  0.00    -0.167 F 
ENDBRANCH  18  21
ENDBRANCH   5   8
ENDBRANCH   3   4
ENDBRANCH   2   3
ENDBRANCH   1   2
BRANCH   1  25
ATOM     25  N   UNL A   1      37.441  21.019  25.602  1.00  0.00    -0.352 N 
ATOM     26  C   UNL A   1      38.770  21.075  25.946  1.00  0.00     0.251 C 
ATOM     27  H   UNL A   1      37.089  20.114  25.446  1.00  0.00     0.163 HD
ATOM     28  O   UNL A   1      39.491  20.097  25.785  1.00  0.00    -0.269 OA
BRANCH  26  29
ATOM     29  C   UNL A   1      39.312  22.328  26.498  1.00  0.00     0.039 A 
ATOM     30  C   UNL A   1      40.403  22.286  27.366  1.00  0.00     0.014 A 
ATOM     31  C   UNL A   1      38.754  23.549  26.113  1.00  0.00     0.014 A 
ATOM     32  C   UNL A   1      40.983  23.482  27.784  1.00  0.00     0.010 A 
ATOM     33  C   UNL A   1      39.411  24.728  26.423  1.00  0.00     0.010 A 
ATOM     34  C   UNL A   1      40.519  24.709  27.279  1.00  0.00    -0.014 A 
BRANCH  34  35
ATOM     35  C   UNL A   1      41.170  25.987  27.651  1.00  0.00     0.031 A 
ATOM     36  C   UNL A   1      42.581  26.264  27.214  1.00  0.00     0.074 A 
ATOM     37  C   UNL A   1      40.503  26.871  28.420  1.00  0.00     0.049 A 
ATOM     38  N   UNL A   1      43.310  27.327  27.428  1.00  0.00    -0.248 NA
ATOM     39  C   UNL A   1      43.278  25.205  26.462  1.00  0.00     0.031 C 
ATOM     40  C   UNL A   1      39.159  26.670  28.967  1.00  0.00     0.029 A 
ATOM     41  N   UNL A   1      40.863  28.113  28.876  1.00  0.00    -0.354 N 
ATOM     42  C   UNL A   1      44.545  27.059  26.855  1.00  0.00     0.074 A 
ATOM     43  C   UNL A   1      44.497  25.711  26.341  1.00  0.00     0.031 C 
ATOM     44  C   UNL A   1      38.793  27.766  29.649  1.00  0.00     0.029 A 
ATOM     45  C   UNL A   1      39.888  28.731  29.624  1.00  0.00     0.049 A 
ATOM     46  H   UNL A   1      41.738  28.523  28.687  1.00  0.00     0.167 HD
ATOM     47  C   UNL A   1      45.611  27.880  26.725  1.00  0.00     0.034 A 
ATOM     48  C   UNL A   1      39.876  29.941  30.216  1.00  0.00     0.034 A 
ATOM     49  C   UNL A   1      45.636  29.232  27.206  1.00  0.00     0.049 A 
ATOM     50  C   UNL A   1      41.074  30.838  30.055  1.00  0.00     0.074 A 
ATOM     51  C   UNL A   1      46.641  30.171  27.065  1.00  0.00     0.029 A 
ATOM     52  N   UNL A   1      44.616  29.836  27.925  1.00  0.00    -0.354 N 
ATOM     53  N   UNL A   1      42.178  30.623  29.380  1.00  0.00    -0.248 NA
ATOM     54  C   UNL A   1      41.019  32.154  30.709  1.00  0.00     0.031 C 
ATOM     55  C   UNL A   1      46.248  31.328  27.739  1.00  0.00     0.029 A 
ATOM     56  C   UNL A   1      44.977  31.128  28.256  1.00  0.00     0.049 A 
ATOM     57  H   UNL A   1      43.763  29.407  28.166  1.00  0.00     0.167 HD
ATOM     58  C   UNL A   1      42.933  31.783  29.500  1.00  0.00     0.074 A 
ATOM     59  C   UNL A   1      42.151  32.707  30.296  1.00  0.00     0.031 C 
ATOM     60  C   UNL A   1      44.166  32.053  29.007  1.00  0.00     0.034 A 
BRANCH  47  61
ATOM     61  C   UNL A   1      46.815  27.366  25.981  1.00  0.00     0.023 A 
ATOM     62  C   UNL A   1      46.937  27.616  24.598  1.00  0.00     0.012 A 
ATOM     63  C   UNL A   1      47.864  26.717  26.660  1.00  0.00     0.148 A 
ATOM     64  C   UNL A   1      48.071  27.208  23.898  1.00  0.00     0.002 A 
ATOM     65  C   UNL A   1      49.015  26.362  25.968  1.00  0.00     0.091 A 
ATOM     66  F   UNL A   1      47.718  26.469  27.970  1.00  0.00    -0.205 F 
ATOM     67  C   UNL A   1      49.116  26.595  24.586  1.00  0.00     0.022 A 
BRANCH  65  68
ATOM     68  S   UNL A   1      50.453  25.654  26.775  1.00  0.00     0.127 S 
ATOM     69  O   UNL A   1      50.814  26.714  27.717  1.00  0.00    -0.237 OA
ATOM     70  O   UNL A   1      49.893  24.453  27.396  1.00  0.00    -0.237 OA
ATOM     71  O   UNL A   1      51.427  25.403  25.723  1.00  0.00    -0.744 OA
ENDBRANCH  65  68
ENDBRANCH  47  61
BRANCH  48  72
ATOM     72  C   UNL A   1      38.657  30.398  30.946  1.00  0.00     0.023 A 
ATOM     73  C   UNL A   1      38.533  30.130  32.323  1.00  0.00     0.012 A 
ATOM     74  C   UNL A   1      37.651  31.142  30.299  1.00  0.00     0.148 A 
ATOM     75  C   UNL A   1      37.418  30.573  33.038  1.00  0.00     0.002 A 
ATOM     76  C   UNL A   1      36.574  31.632  31.029  1.00  0.00     0.091 A 
ATOM     77  F   UNL A   1      37.784  31.381  28.988  1.00  0.00    -0.205 F 
ATOM     78  C   UNL A   1      36.445  31.333  32.394  1.00  0.00     0.022 A 
BRANCH  76  79
ATOM     79  S   UNL A   1      35.348  32.737  30.319  1.00  0.00     0.127 S 
ATOM     80  O   UNL A   1      34.857  31.953  29.188  1.00  0.00    -0.237 OA
ATOM     81  O   UNL A   1      34.402  32.882  31.427  1.00  0.00    -0.237 OA
ATOM     82  O   UNL A   1      36.065  33.956  29.975  1.00  0.00    -0.744 OA
ENDBRANCH  76  79
ENDBRANCH  48  72
BRANCH  60  83
ATOM     83  C   UNL A   1      44.767  33.406  29.284  1.00  0.00     0.023 A 
ATOM     84  C   UNL A   1      45.616  33.579  30.394  1.00  0.00     0.012 A 
ATOM     85  C   UNL A   1      44.617  34.455  28.354  1.00  0.00     0.148 A 
ATOM     86  C   UNL A   1      46.297  34.781  30.582  1.00  0.00     0.002 A 
ATOM     87  C   UNL A   1      45.345  35.627  28.516  1.00  0.00     0.091 A 
ATOM     88  F   UNL A   1      43.796  34.271  27.310  1.00  0.00    -0.205 F 
ATOM     89  C   UNL A   1      46.177  35.796  29.634  1.00  0.00     0.022 A 
BRANCH  87  90
ATOM     90  S   UNL A   1      45.348  36.943  27.292  1.00  0.00     0.127 S 
ATOM     91  O   UNL A   1      46.108  37.986  27.980  1.00  0.00    -0.237 OA
ATOM     92  O   UNL A   1      46.049  36.316  26.172  1.00  0.00    -0.237 OA
ATOM     93  O   UNL A   1      43.950  37.264  27.037  1.00  0.00    -0.744 OA
ENDBRANCH  87  90
ENDBRANCH  60  83
ENDBRANCH  34  35
ENDBRANCH  26  29
ENDBRANCH   1  25
TORSDOF 15
ENDMDL
MODEL 2
REMARK VINA RESULT:     -12.7      4.827      9.922
REMARK SMILES C#Cc1cc(Cl)cc2c1O[C@H](C(F)(F)F)C(C(=O)NCCCNC(=O)c1ccc(-c3c4nc(c(-c5cccc(S(=O)(=O)[O-])c5F)c5ccc([nH]5)c(-c5cccc(S(=O)(=O)[O-])c5F)c5nc(c(-c6cccc(S(=O)(=O)[O-])c6F)c6ccc3[nH]6)C=C5)C=C4)cc1)=C2
REMARK SMILES IDX 22 1 21 2 20 3 19 4 17 5 18 6 16 8 3 9 4 10 9 11 5 12 8 13
REMARK SMILES IDX 10 14 6 15 7 16 89 17 11 18 2 19 1 20 12 21 13 22 14 23
REMARK SMILES IDX 15 24 23 25 24 26 25 28 26 29 27 30 88 31 28 32 87 33 29 34
REMARK SMILES IDX 30 35 31 36 81 37 32 38 86 39 80 40 82 41 33 42 85 43 79 44
REMARK SMILES IDX 78 45 34 47 66 48 46 49 65 50 47 51 50 52 64 53 83 54 48 55
REMARK SMILES IDX 49 56 63 58 84 59 51 60 35 61 36 62 44 63 37 64 39 65 45 66
REMARK SMILES IDX 38 67 40 68 41 69 42 70 43 71 67 72 68 73 76 74 69 75 71 76
REMARK SMILES IDX 77 77 70 78 72 79 73 80 74 81 75 82 52 83 53 84 61 85 54 86
REMARK SMILES IDX 56 87 62 88 55 89 57 90 58 91 59 92 60 93
REMARK H PARENT 19 7 23 27 82 46 50 57
REMARK Flexibility Score: inf
ROOT
ATOM      1  C   UNL A   1      33.117  29.201  25.323  1.00  0.00     0.118 C 
ENDROOT
BRANCH   1   2
ATOM      2  C   UNL A   1      32.580  28.962  23.923  1.00  0.00     0.042 C 
BRANCH   2   3
ATOM      3  C   UNL A   1      31.915  27.605  23.808  1.00  0.00     0.118 C 
BRANCH   3   4
ATOM      4  N   UNL A   1      31.260  27.207  25.047  1.00  0.00    -0.352 N 
ATOM      5  C   UNL A   1      31.229  26.114  25.846  1.00  0.00     0.251 C 
ATOM      6  O   UNL A   1      30.544  26.217  26.869  1.00  0.00    -0.270 OA
ATOM      7  H   UNL A   1      30.685  27.926  25.397  1.00  0.00     0.163 HD
BRANCH   5   8
ATOM      8  C   UNL A   1      31.961  24.845  25.571  1.00  0.00     0.067 C 
ATOM      9  C   UNL A   1      34.046  21.236  25.050  1.00  0.00     0.068 A 
ATOM     10  C   UNL A   1      35.432  21.207  25.194  1.00  0.00     0.041 A 
ATOM     11  C   UNL A   1      33.352  22.433  25.268  1.00  0.00     0.143 A 
ATOM     12  C   UNL A   1      36.108  22.371  25.560  1.00  0.00     0.043 A 
ATOM     13  C   UNL A   1      34.028  23.601  25.638  1.00  0.00     0.020 A 
ATOM     14  O   UNL A   1      31.993  22.394  25.152  1.00  0.00    -0.474 OA
ATOM     15  Cl  UNL A   1      37.820  22.334  25.740  1.00  0.00    -0.084 Cl
ATOM     16  C   UNL A   1      35.417  23.565  25.783  1.00  0.00     0.032 A 
ATOM     17  C   UNL A   1      33.267  24.818  25.899  1.00  0.00     0.025 C 
ATOM     18  C   UNL A   1      31.316  23.649  24.937  1.00  0.00     0.314 C 
BRANCH   9  19
ATOM     19  C   UNL A   1      33.335  20.049  24.675  1.00  0.00    -0.067 C 
ATOM     20  C   UNL A   1      32.767  19.063  24.288  1.00  0.00     0.010 C 
ENDBRANCH   9  19
BRANCH  18  21
ATOM     21  C   UNL A   1      31.077  23.846  23.426  1.00  0.00     0.429 C 
ATOM     22  F   UNL A   1      29.910  24.500  23.205  1.00  0.00    -0.167 F 
ATOM     23  F   UNL A   1      32.046  24.585  22.832  1.00  0.00    -0.167 F 
ATOM     24  F   UNL A   1      31.022  22.674  22.752  1.00  0.00    -0.167 F 
ENDBRANCH  18  21
ENDBRANCH   5   8
ENDBRANCH   3   4
ENDBRANCH   2   3
ENDBRANCH   1   2
BRANCH   1  25
ATOM     25  N   UNL A   1      32.708  30.505  25.848  1.00  0.00    -0.352 N 
ATOM     26  C   UNL A   1      33.224  31.235  26.891  1.00  0.00     0.251 C 
ATOM     27  H   UNL A   1      31.948  30.922  25.382  1.00  0.00     0.163 HD
ATOM     28  O   UNL A   1      32.593  32.179  27.354  1.00  0.00    -0.269 OA
BRANCH  26  29
ATOM     29  C   UNL A   1      34.535  30.860  27.446  1.00  0.00     0.039 A 
ATOM     30  C   UNL A   1      35.507  31.839  27.644  1.00  0.00     0.014 A 
ATOM     31  C   UNL A   1      34.776  29.533  27.808  1.00  0.00     0.014 A 
ATOM     32  C   UNL A   1      36.697  31.493  28.282  1.00  0.00     0.010 A 
ATOM     33  C   UNL A   1      35.897  29.222  28.557  1.00  0.00     0.010 A 
ATOM     34  C   UNL A   1      36.880  30.193  28.783  1.00  0.00    -0.014 A 
BRANCH  34  35
ATOM     35  C   UNL A   1      38.105  29.825  29.531  1.00  0.00     0.031 A 
ATOM     36  C   UNL A   1      38.327  30.364  30.917  1.00  0.00     0.074 A 
ATOM     37  C   UNL A   1      39.032  29.044  28.941  1.00  0.00     0.049 A 
ATOM     38  N   UNL A   1      39.325  30.143  31.730  1.00  0.00    -0.248 NA
ATOM     39  C   UNL A   1      37.316  31.292  31.453  1.00  0.00     0.031 C 
ATOM     40  C   UNL A   1      38.957  28.530  27.571  1.00  0.00     0.029 A 
ATOM     41  N   UNL A   1      40.220  28.549  29.416  1.00  0.00    -0.354 N 
ATOM     42  C   UNL A   1      39.070  30.911  32.858  1.00  0.00     0.074 A 
ATOM     43  C   UNL A   1      37.860  31.657  32.604  1.00  0.00     0.031 C 
ATOM     44  C   UNL A   1      40.029  27.759  27.331  1.00  0.00     0.029 A 
ATOM     45  C   UNL A   1      40.887  27.755  28.511  1.00  0.00     0.049 A 
ATOM     46  H   UNL A   1      40.562  28.742  30.318  1.00  0.00     0.167 HD
ATOM     47  C   UNL A   1      39.755  30.954  34.022  1.00  0.00     0.034 A 
ATOM     48  C   UNL A   1      42.057  27.095  28.624  1.00  0.00     0.034 A 
ATOM     49  C   UNL A   1      40.936  30.180  34.278  1.00  0.00     0.049 A 
ATOM     50  C   UNL A   1      42.800  27.158  29.931  1.00  0.00     0.074 A 
ATOM     51  C   UNL A   1      41.668  30.099  35.448  1.00  0.00     0.029 A 
ATOM     52  N   UNL A   1      41.561  29.359  33.352  1.00  0.00    -0.354 N 
ATOM     53  N   UNL A   1      42.464  27.771  31.040  1.00  0.00    -0.248 NA
ATOM     54  C   UNL A   1      44.067  26.416  30.017  1.00  0.00     0.031 C 
ATOM     55  C   UNL A   1      42.763  29.265  35.216  1.00  0.00     0.029 A 
ATOM     56  C   UNL A   1      42.685  28.786  33.917  1.00  0.00     0.049 A 
ATOM     57  H   UNL A   1      41.253  29.209  32.430  1.00  0.00     0.167 HD
ATOM     58  C   UNL A   1      43.457  27.466  31.963  1.00  0.00     0.074 A 
ATOM     59  C   UNL A   1      44.398  26.595  31.289  1.00  0.00     0.031 C 
ATOM     60  C   UNL A   1      43.584  27.881  33.248  1.00  0.00     0.034 A 
BRANCH  47  61
ATOM     61  C   UNL A   1      39.215  31.818  35.131  1.00  0.00     0.023 A 
ATOM     62  C   UNL A   1      38.253  31.291  36.018  1.00  0.00     0.012 A 
ATOM     63  C   UNL A   1      39.720  33.114  35.351  1.00  0.00     0.148 A 
ATOM     64  C   UNL A   1      37.784  32.047  37.091  1.00  0.00     0.002 A 
ATOM     65  C   UNL A   1      39.289  33.841  36.454  1.00  0.00     0.091 A 
ATOM     66  F   UNL A   1      40.617  33.606  34.483  1.00  0.00    -0.205 F 
ATOM     67  C   UNL A   1      38.313  33.315  37.317  1.00  0.00     0.022 A 
BRANCH  65  68
ATOM     68  S   UNL A   1      39.973  35.443  36.888  1.00  0.00     0.127 S 
ATOM     69  O   UNL A   1      39.273  35.733  38.139  1.00  0.00    -0.237 OA
ATOM     70  O   UNL A   1      41.395  35.134  37.043  1.00  0.00    -0.237 OA
ATOM     71  O   UNL A   1      39.656  36.333  35.781  1.00  0.00    -0.744 OA
ENDBRANCH  65  68
ENDBRANCH  47  61
BRANCH  48  72
ATOM     72  C   UNL A   1      42.547  26.257  27.491  1.00  0.00     0.023 A 
ATOM     73  C   UNL A   1      43.453  26.808  26.564  1.00  0.00     0.012 A 
ATOM     74  C   UNL A   1      42.169  24.907  27.359  1.00  0.00     0.148 A 
ATOM     75  C   UNL A   1      43.954  26.038  25.512  1.00  0.00     0.002 A 
ATOM     76  C   UNL A   1      42.717  24.129  26.346  1.00  0.00     0.091 A 
ATOM     77  F   UNL A   1      41.301  24.403  28.247  1.00  0.00    -0.205 F 
ATOM     78  C   UNL A   1      43.595  24.697  25.409  1.00  0.00     0.022 A 
BRANCH  76  79
ATOM     79  S   UNL A   1      42.426  22.361  26.220  1.00  0.00     0.127 S 
ATOM     80  O   UNL A   1      43.160  22.022  25.003  1.00  0.00    -0.237 OA
ATOM     81  O   UNL A   1      43.027  21.871  27.461  1.00  0.00    -0.237 OA
ATOM     82  O   UNL A   1      40.981  22.201  26.146  1.00  0.00    -0.744 OA
ENDBRANCH  76  79
ENDBRANCH  48  72
BRANCH  60  83
ATOM     83  C   UNL A   1      44.769  27.396  34.042  1.00  0.00     0.023 A 
ATOM     84  C   UNL A   1      45.928  28.193  34.124  1.00  0.00     0.012 A 
ATOM     85  C   UNL A   1      44.669  26.233  34.831  1.00  0.00     0.148 A 
ATOM     86  C   UNL A   1      46.974  27.833  34.971  1.00  0.00     0.002 A 
ATOM     87  C   UNL A   1      45.690  25.913  35.717  1.00  0.00     0.091 A 
ATOM     88  F   UNL A   1      43.560  25.485  34.730  1.00  0.00    -0.205 F 
ATOM     89  C   UNL A   1      46.848  26.705  35.781  1.00  0.00     0.022 A 
BRANCH  87  90
ATOM     90  S   UNL A   1      45.570  24.551  36.883  1.00  0.00     0.127 S 
ATOM     91  O   UNL A   1      46.859  24.633  37.570  1.00  0.00    -0.237 OA
ATOM     92  O   UNL A   1      44.419  24.945  37.696  1.00  0.00    -0.237 OA
ATOM     93  O   UNL A   1      45.372  23.348  36.085  1.00  0.00    -0.744 OA
ENDBRANCH  87  90
ENDBRANCH  60  83
ENDBRANCH  34  35
ENDBRANCH  26  29
ENDBRANCH   1  25
TORSDOF 15
ENDMDL
MODEL 3
REMARK VINA RESULT:     -12.6      5.738      8.805
REMARK SMILES C#Cc1cc(Cl)cc2c1O[C@H](C(F)(F)F)C(C(=O)NCCCNC(=O)c1ccc(-c3c4nc(c(-c5cccc(S(=O)(=O)[O-])c5F)c5ccc([nH]5)c(-c5cccc(S(=O)(=O)[O-])c5F)c5nc(c(-c6cccc(S(=O)(=O)[O-])c6F)c6ccc3[nH]6)C=C5)C=C4)cc1)=C2
REMARK SMILES IDX 22 1 21 2 20 3 19 4 17 5 18 6 16 8 3 9 4 10 9 11 5 12 8 13
REMARK SMILES IDX 10 14 6 15 7 16 89 17 11 18 2 19 1 20 12 21 13 22 14 23
REMARK SMILES IDX 15 24 23 25 24 26 25 28 26 29 27 30 88 31 28 32 87 33 29 34
REMARK SMILES IDX 30 35 31 36 81 37 32 38 86 39 80 40 82 41 33 42 85 43 79 44
REMARK SMILES IDX 78 45 34 47 66 48 46 49 65 50 47 51 50 52 64 53 83 54 48 55
REMARK SMILES IDX 49 56 63 58 84 59 51 60 35 61 36 62 44 63 37 64 39 65 45 66
REMARK SMILES IDX 38 67 40 68 41 69 42 70 43 71 67 72 68 73 76 74 69 75 71 76
REMARK SMILES IDX 77 77 70 78 72 79 73 80 74 81 75 82 52 83 53 84 61 85 54 86
REMARK SMILES IDX 56 87 62 88 55 89 57 90 58 91 59 92 60 93
REMARK H PARENT 19 7 23 27 82 46 50 57
REMARK Flexibility Score: inf
ROOT
ATOM      1  C   UNL A   1      32.834  32.540  27.465  1.00  0.00     0.118 C 
ENDROOT
BRANCH   1   2
ATOM      2  C   UNL A   1      31.667  31.928  26.708  1.00  0.00     0.042 C 
BRANCH   2   3
ATOM      3  C   UNL A   1      31.890  30.451  26.446  1.00  0.00     0.118 C 
BRANCH   3   4
ATOM      4  N   UNL A   1      31.962  30.150  25.022  1.00  0.00    -0.352 N 
ATOM      5  C   UNL A   1      31.958  29.044  24.241  1.00  0.00     0.251 C 
ATOM      6  O   UNL A   1      31.996  29.247  23.024  1.00  0.00    -0.270 OA
ATOM      7  H   UNL A   1      32.032  30.972  24.484  1.00  0.00     0.163 HD
BRANCH   5   8
ATOM      8  C   UNL A   1      31.902  27.646  24.756  1.00  0.00     0.067 C 
ATOM      9  C   UNL A   1      31.836  23.795  26.432  1.00  0.00     0.068 A 
ATOM     10  C   UNL A   1      33.018  23.063  26.538  1.00  0.00     0.041 A 
ATOM     11  C   UNL A   1      31.873  25.095  25.912  1.00  0.00     0.143 A 
ATOM     12  C   UNL A   1      34.221  23.640  26.131  1.00  0.00     0.043 A 
ATOM     13  C   UNL A   1      33.079  25.676  25.506  1.00  0.00     0.020 A 
ATOM     14  O   UNL A   1      30.693  25.779  25.868  1.00  0.00    -0.474 OA
ATOM     15  Cl  UNL A   1      35.681  22.736  26.266  1.00  0.00    -0.084 Cl
ATOM     16  C   UNL A   1      34.260  24.939  25.618  1.00  0.00     0.032 A 
ATOM     17  C   UNL A   1      33.082  27.049  25.011  1.00  0.00     0.025 C 
ATOM     18  C   UNL A   1      30.618  26.901  24.964  1.00  0.00     0.314 C 
BRANCH   9  19
ATOM     19  C   UNL A   1      30.591  23.217  26.845  1.00  0.00    -0.067 C 
ATOM     20  C   UNL A   1      29.545  22.695  27.124  1.00  0.00     0.010 C 
ENDBRANCH   9  19
BRANCH  18  21
ATOM     21  C   UNL A   1      29.985  26.443  23.635  1.00  0.00     0.429 C 
ATOM     22  F   UNL A   1      29.372  27.480  23.013  1.00  0.00    -0.167 F 
ATOM     23  F   UNL A   1      30.897  25.957  22.758  1.00  0.00    -0.167 F 
ATOM     24  F   UNL A   1      29.063  25.468  23.808  1.00  0.00    -0.167 F 
ENDBRANCH  18  21
ENDBRANCH   5   8
ENDBRANCH   3   4
ENDBRANCH   2   3
ENDBRANCH   1   2
BRANCH   1  25
ATOM     25  N   UNL A   1      32.655  33.979  27.668  1.00  0.00    -0.352 N 
ATOM     26  C   UNL A   1      33.171  34.801  28.640  1.00  0.00     0.251 C 
ATOM     27  H   UNL A   1      32.077  34.425  27.009  1.00  0.00     0.163 HD
ATOM     28  O   UNL A   1      32.707  35.923  28.810  1.00  0.00    -0.269 OA
BRANCH  26  29
ATOM     29  C   UNL A   1      34.279  34.309  29.477  1.00  0.00     0.039 A 
ATOM     30  C   UNL A   1      34.000  33.657  30.677  1.00  0.00     0.014 A 
ATOM     31  C   UNL A   1      35.595  34.464  29.039  1.00  0.00     0.014 A 
ATOM     32  C   UNL A   1      35.049  33.088  31.398  1.00  0.00     0.010 A 
ATOM     33  C   UNL A   1      36.615  33.788  29.686  1.00  0.00     0.010 A 
ATOM     34  C   UNL A   1      36.357  33.111  30.884  1.00  0.00    -0.014 A 
BRANCH  34  35
ATOM     35  C   UNL A   1      37.473  32.447  31.597  1.00  0.00     0.031 A 
ATOM     36  C   UNL A   1      38.193  31.295  30.954  1.00  0.00     0.074 A 
ATOM     37  C   UNL A   1      37.801  32.855  32.840  1.00  0.00     0.049 A 
ATOM     38  N   UNL A   1      39.199  30.601  31.415  1.00  0.00    -0.248 NA
ATOM     39  C   UNL A   1      37.709  30.842  29.638  1.00  0.00     0.031 C 
ATOM     40  C   UNL A   1      37.118  33.911  33.591  1.00  0.00     0.029 A 
ATOM     41  N   UNL A   1      38.790  32.432  33.690  1.00  0.00    -0.354 N 
ATOM     42  C   UNL A   1      39.455  29.629  30.457  1.00  0.00     0.074 A 
ATOM     43  C   UNL A   1      38.460  29.774  29.421  1.00  0.00     0.031 C 
ATOM     44  C   UNL A   1      37.733  34.080  34.772  1.00  0.00     0.029 A 
ATOM     45  C   UNL A   1      38.828  33.121  34.880  1.00  0.00     0.049 A 
ATOM     46  H   UNL A   1      39.414  31.703  33.470  1.00  0.00     0.167 HD
ATOM     47  C   UNL A   1      40.460  28.725  30.420  1.00  0.00     0.034 A 
ATOM     48  C   UNL A   1      39.655  32.997  35.937  1.00  0.00     0.034 A 
ATOM     49  C   UNL A   1      41.466  28.612  31.437  1.00  0.00     0.049 A 
ATOM     50  C   UNL A   1      40.767  31.984  35.870  1.00  0.00     0.074 A 
ATOM     51  C   UNL A   1      42.566  27.777  31.462  1.00  0.00     0.029 A 
ATOM     52  N   UNL A   1      41.493  29.352  32.609  1.00  0.00    -0.354 N 
ATOM     53  N   UNL A   1      41.084  31.173  34.889  1.00  0.00    -0.248 NA
ATOM     54  C   UNL A   1      41.653  31.885  37.039  1.00  0.00     0.031 C 
ATOM     55  C   UNL A   1      43.234  27.977  32.671  1.00  0.00     0.029 A 
ATOM     56  C   UNL A   1      42.578  28.975  33.377  1.00  0.00     0.049 A 
ATOM     57  H   UNL A   1      40.836  30.042  32.859  1.00  0.00     0.167 HD
ATOM     58  C   UNL A   1      42.221  30.493  35.306  1.00  0.00     0.074 A 
ATOM     59  C   UNL A   1      42.551  31.001  36.622  1.00  0.00     0.031 C 
ATOM     60  C   UNL A   1      42.921  29.526  34.663  1.00  0.00     0.034 A 
BRANCH  47  61
ATOM     61  C   UNL A   1      40.561  27.827  29.215  1.00  0.00     0.023 A 
ATOM     62  C   UNL A   1      39.686  26.727  29.091  1.00  0.00     0.012 A 
ATOM     63  C   UNL A   1      41.454  28.120  28.166  1.00  0.00     0.148 A 
ATOM     64  C   UNL A   1      39.715  25.919  27.957  1.00  0.00     0.002 A 
ATOM     65  C   UNL A   1      41.439  27.343  27.015  1.00  0.00     0.091 A 
ATOM     66  F   UNL A   1      42.293  29.156  28.313  1.00  0.00    -0.205 F 
ATOM     67  C   UNL A   1      40.580  26.236  26.913  1.00  0.00     0.022 A 
BRANCH  65  68
ATOM     68  S   UNL A   1      42.445  27.721  25.577  1.00  0.00     0.127 S 
ATOM     69  O   UNL A   1      43.782  27.799  26.166  1.00  0.00    -0.237 OA
ATOM     70  O   UNL A   1      42.220  26.548  24.731  1.00  0.00    -0.237 OA
ATOM     71  O   UNL A   1      41.932  28.972  25.040  1.00  0.00    -0.744 OA
ENDBRANCH  65  68
ENDBRANCH  47  61
BRANCH  48  72
ATOM     72  C   UNL A   1      39.506  33.910  37.107  1.00  0.00     0.023 A 
ATOM     73  C   UNL A   1      39.899  35.257  36.989  1.00  0.00     0.012 A 
ATOM     74  C   UNL A   1      38.926  33.469  38.313  1.00  0.00     0.148 A 
ATOM     75  C   UNL A   1      39.742  36.142  38.058  1.00  0.00     0.002 A 
ATOM     76  C   UNL A   1      38.716  34.368  39.351  1.00  0.00     0.091 A 
ATOM     77  F   UNL A   1      38.564  32.182  38.407  1.00  0.00    -0.205 F 
ATOM     78  C   UNL A   1      39.140  35.701  39.233  1.00  0.00     0.022 A 
BRANCH  76  79
ATOM     79  S   UNL A   1      37.822  33.928  40.846  1.00  0.00     0.127 S 
ATOM     80  O   UNL A   1      36.633  33.275  40.303  1.00  0.00    -0.237 OA
ATOM     81  O   UNL A   1      38.771  33.031  41.506  1.00  0.00    -0.237 OA
ATOM     82  O   UNL A   1      37.585  35.180  41.549  1.00  0.00    -0.744 OA
ENDBRANCH  76  79
ENDBRANCH  48  72
BRANCH  60  83
ATOM     83  C   UNL A   1      44.133  28.946  35.345  1.00  0.00     0.023 A 
ATOM     84  C   UNL A   1      45.376  29.597  35.231  1.00  0.00     0.012 A 
ATOM     85  C   UNL A   1      43.999  27.853  36.225  1.00  0.00     0.148 A 
ATOM     86  C   UNL A   1      46.472  29.161  35.973  1.00  0.00     0.002 A 
ATOM     87  C   UNL A   1      45.080  27.462  37.005  1.00  0.00     0.091 A 
ATOM     88  F   UNL A   1      42.807  27.243  36.310  1.00  0.00    -0.205 F 
ATOM     89  C   UNL A   1      46.320  28.107  36.873  1.00  0.00     0.022 A 
BRANCH  87  90
ATOM     90  S   UNL A   1      44.951  26.196  38.274  1.00  0.00     0.127 S 
ATOM     91  O   UNL A   1      46.356  25.967  38.608  1.00  0.00    -0.237 OA
ATOM     92  O   UNL A   1      44.181  26.881  39.312  1.00  0.00    -0.237 OA
ATOM     93  O   UNL A   1      44.272  25.066  37.654  1.00  0.00    -0.744 OA
ENDBRANCH  87  90
ENDBRANCH  60  83
ENDBRANCH  34  35
ENDBRANCH  26  29
ENDBRANCH   1  25
TORSDOF 15
ENDMDL
