MODEL 1
REMARK VINA RESULT:     -11.6      0.000      0.000
REMARK SMILES CCOc1cc(/C=N/O)cc(Cl)c1OCc1ccc(C(=O)NCCCNC(=O)c2ccc(-c3c4nc(c(-c5cccc(S(=O)(=O)[O-])c5F)c5ccc([nH]5)c(-c5cccc(S(=O)(=O)[O-])c5F)c5nc(c(-c6cccc(S(=O)(=O)[O-])c6F)c6ccc3[nH]6)C=C5)C=C4)cc2)cc1
REMARK SMILES IDX 23 1 22 2 20 3 21 4 19 6 16 7 17 8 93 9 18 10 92 11 15 12
REMARK SMILES IDX 14 13 13 14 4 15 5 16 6 17 11 18 10 19 12 20 3 21 2 22 1 23
REMARK SMILES IDX 7 24 8 25 9 26 24 28 25 29 26 30 27 31 28 33 29 34 30 35
REMARK SMILES IDX 91 36 31 37 90 38 32 39 33 40 34 41 84 42 35 43 89 44 83 45
REMARK SMILES IDX 85 46 36 47 88 48 82 49 81 50 37 52 69 53 49 54 68 55 50 56
REMARK SMILES IDX 53 57 67 58 86 59 51 60 52 61 66 63 87 64 54 65 38 66 39 67
REMARK SMILES IDX 47 68 40 69 42 70 48 71 41 72 43 73 44 74 45 75 46 76 70 77
REMARK SMILES IDX 71 78 79 79 72 80 74 81 80 82 73 83 75 84 76 85 77 86 78 87
REMARK SMILES IDX 55 88 56 89 64 90 57 91 59 92 65 93 58 94 60 95 61 96 62 97
REMARK SMILES IDX 63 98
REMARK H PARENT 22 5 9 27 26 32 85 51 53 62
REMARK Flexibility Score: inf
ROOT
ATOM      1  C   UNL A   1      31.213  30.769  25.965  1.00  0.00     0.118 C 
ENDROOT
BRANCH   1   2
ATOM      2  N   UNL A   1      30.639  30.633  24.639  1.00  0.00    -0.352 N 
ATOM      3  C   UNL A   1      30.722  29.653  23.683  1.00  0.00     0.251 C 
ATOM      4  O   UNL A   1      30.051  29.806  22.661  1.00  0.00    -0.269 OA
ATOM      5  H   UNL A   1      30.078  31.396  24.372  1.00  0.00     0.163 HD
BRANCH   3   6
ATOM      6  C   UNL A   1      31.510  28.399  23.848  1.00  0.00     0.039 A 
ATOM      7  C   UNL A   1      33.167  26.107  23.939  1.00  0.00    -0.011 A 
ATOM      8  C   UNL A   1      33.724  27.377  23.775  1.00  0.00     0.008 A 
ATOM      9  C   UNL A   1      31.787  26.012  24.180  1.00  0.00     0.008 A 
ATOM     10  C   UNL A   1      32.902  28.506  23.707  1.00  0.00     0.014 A 
ATOM     11  C   UNL A   1      30.971  27.149  24.154  1.00  0.00     0.014 A 
BRANCH   7  12
ATOM     12  C   UNL A   1      33.987  24.834  23.870  1.00  0.00     0.265 C 
BRANCH  12  13
ATOM     13  O   UNL A   1      33.982  23.998  25.026  1.00  0.00    -0.483 OA
BRANCH  13  14
ATOM     14  C   UNL A   1      33.621  22.677  25.017  1.00  0.00     0.180 A 
ATOM     15  C   UNL A   1      34.734  21.807  25.048  1.00  0.00     0.163 A 
ATOM     16  C   UNL A   1      34.583  20.421  24.989  1.00  0.00     0.060 A 
ATOM     17  C   UNL A   1      33.317  19.872  24.839  1.00  0.00     0.001 A 
ATOM     18  C   UNL A   1      32.343  22.096  24.958  1.00  0.00     0.087 A 
ATOM     19  C   UNL A   1      32.198  20.701  24.834  1.00  0.00     0.034 A 
ATOM     20  Cl  UNL A   1      30.847  22.949  25.115  1.00  0.00    -0.080 Cl
BRANCH  15  21
ATOM     21  O   UNL A   1      35.990  22.321  25.271  1.00  0.00    -0.490 OA
BRANCH  21  22
ATOM     22  C   UNL A   1      36.931  22.012  24.236  1.00  0.00     0.226 C 
ATOM     23  C   UNL A   1      36.670  22.836  22.983  1.00  0.00     0.049 C 
ENDBRANCH  21  22
ENDBRANCH  15  21
BRANCH  17  24
ATOM     24  C   UNL A   1      33.148  18.412  24.720  1.00  0.00     0.162 C 
ATOM     25  N   UNL A   1      32.176  17.791  25.310  1.00  0.00    -0.097 NA
BRANCH  25  26
ATOM     26  O   UNL A   1      32.266  16.424  25.028  1.00  0.00    -0.411 OA
ATOM     27  H   UNL A   1      31.619  16.013  24.490  1.00  0.00     0.330 HD
ENDBRANCH  25  26
ENDBRANCH  17  24
ENDBRANCH  13  14
ENDBRANCH  12  13
ENDBRANCH   7  12
ENDBRANCH   3   6
ENDBRANCH   1   2
BRANCH   1  28
ATOM     28  C   UNL A   1      31.347  32.237  26.365  1.00  0.00     0.042 C 
BRANCH  28  29
ATOM     29  C   UNL A   1      32.628  32.549  27.137  1.00  0.00     0.118 C 
BRANCH  29  30
ATOM     30  N   UNL A   1      32.637  33.910  27.654  1.00  0.00    -0.352 N 
ATOM     31  C   UNL A   1      33.395  34.475  28.648  1.00  0.00     0.251 C 
ATOM     32  H   UNL A   1      31.998  34.521  27.221  1.00  0.00     0.163 HD
ATOM     33  O   UNL A   1      33.084  35.586  29.071  1.00  0.00    -0.269 OA
BRANCH  31  34
ATOM     34  C   UNL A   1      34.568  33.772  29.214  1.00  0.00     0.039 A 
ATOM     35  C   UNL A   1      35.846  34.163  28.796  1.00  0.00     0.014 A 
ATOM     36  C   UNL A   1      34.426  32.692  30.091  1.00  0.00     0.014 A 
ATOM     37  C   UNL A   1      36.973  33.498  29.284  1.00  0.00     0.010 A 
ATOM     38  C   UNL A   1      35.554  32.077  30.631  1.00  0.00     0.010 A 
ATOM     39  C   UNL A   1      36.839  32.460  30.221  1.00  0.00    -0.014 A 
BRANCH  39  40
ATOM     40  C   UNL A   1      38.036  31.776  30.774  1.00  0.00     0.031 A 
ATOM     41  C   UNL A   1      38.575  32.146  32.130  1.00  0.00     0.074 A 
ATOM     42  C   UNL A   1      38.669  30.848  30.030  1.00  0.00     0.049 A 
ATOM     43  N   UNL A   1      39.591  31.639  32.780  1.00  0.00    -0.248 NA
ATOM     44  C   UNL A   1      37.901  33.245  32.839  1.00  0.00     0.031 C 
ATOM     45  C   UNL A   1      38.291  30.458  28.670  1.00  0.00     0.029 A 
ATOM     46  N   UNL A   1      39.768  30.075  30.305  1.00  0.00    -0.354 N 
ATOM     47  C   UNL A   1      39.694  32.370  33.958  1.00  0.00     0.074 A 
ATOM     48  C   UNL A   1      38.665  33.385  33.913  1.00  0.00     0.031 C 
ATOM     49  C   UNL A   1      39.128  29.499  28.240  1.00  0.00     0.029 A 
ATOM     50  C   UNL A   1      40.112  29.223  29.281  1.00  0.00     0.049 A 
ATOM     51  H   UNL A   1      40.263  30.125  31.154  1.00  0.00     0.167 HD
ATOM     52  C   UNL A   1      40.543  32.192  35.000  1.00  0.00     0.034 A 
ATOM     53  C   UNL A   1      41.099  28.311  29.198  1.00  0.00     0.034 A 
ATOM     54  C   UNL A   1      41.544  31.159  35.056  1.00  0.00     0.049 A 
ATOM     55  C   UNL A   1      42.002  28.103  30.384  1.00  0.00     0.074 A 
ATOM     56  C   UNL A   1      42.409  30.849  36.091  1.00  0.00     0.029 A 
ATOM     57  N   UNL A   1      41.819  30.269  34.027  1.00  0.00    -0.354 N 
ATOM     58  N   UNL A   1      41.983  28.700  31.550  1.00  0.00    -0.248 NA
ATOM     59  C   UNL A   1      43.034  27.065  30.254  1.00  0.00     0.031 C 
ATOM     60  C   UNL A   1      43.216  29.780  35.682  1.00  0.00     0.029 A 
ATOM     61  C   UNL A   1      42.840  29.411  34.400  1.00  0.00     0.049 A 
ATOM     62  H   UNL A   1      41.355  30.250  33.160  1.00  0.00     0.167 HD
ATOM     63  C   UNL A   1      42.975  28.086  32.308  1.00  0.00     0.074 A 
ATOM     64  C   UNL A   1      43.557  27.055  31.472  1.00  0.00     0.031 C 
ATOM     65  C   UNL A   1      43.377  28.359  33.574  1.00  0.00     0.034 A 
BRANCH  52  66
ATOM     66  C   UNL A   1      40.377  33.103  36.191  1.00  0.00     0.023 A 
ATOM     67  C   UNL A   1      41.059  34.339  36.216  1.00  0.00     0.012 A 
ATOM     68  C   UNL A   1      39.537  32.761  37.269  1.00  0.00     0.148 A 
ATOM     69  C   UNL A   1      40.946  35.195  37.312  1.00  0.00     0.002 A 
ATOM     70  C   UNL A   1      39.394  33.640  38.337  1.00  0.00     0.091 A 
ATOM     71  F   UNL A   1      38.913  31.574  37.244  1.00  0.00    -0.205 F 
ATOM     72  C   UNL A   1      40.108  34.849  38.367  1.00  0.00     0.022 A 
BRANCH  70  73
ATOM     73  S   UNL A   1      38.277  33.319  39.708  1.00  0.00     0.127 S 
ATOM     74  O   UNL A   1      38.358  34.571  40.455  1.00  0.00    -0.237 OA
ATOM     75  O   UNL A   1      37.001  33.098  39.024  1.00  0.00    -0.237 OA
ATOM     76  O   UNL A   1      38.809  32.144  40.385  1.00  0.00    -0.744 OA
ENDBRANCH  70  73
ENDBRANCH  52  66
BRANCH  53  77
ATOM     77  C   UNL A   1      41.212  27.450  27.987  1.00  0.00     0.023 A 
ATOM     78  C   UNL A   1      41.803  27.980  26.823  1.00  0.00     0.012 A 
ATOM     79  C   UNL A   1      40.786  26.108  27.991  1.00  0.00     0.148 A 
ATOM     80  C   UNL A   1      41.941  27.200  25.676  1.00  0.00     0.002 A 
ATOM     81  C   UNL A   1      40.976  25.320  26.861  1.00  0.00     0.091 A 
ATOM     82  F   UNL A   1      40.220  25.625  29.106  1.00  0.00    -0.205 F 
ATOM     83  C   UNL A   1      41.538  25.868  25.698  1.00  0.00     0.022 A 
BRANCH  81  84
ATOM     84  S   UNL A   1      40.610  23.561  26.838  1.00  0.00     0.127 S 
ATOM     85  O   UNL A   1      39.169  23.558  26.605  1.00  0.00    -0.237 OA
ATOM     86  O   UNL A   1      41.418  23.100  25.709  1.00  0.00    -0.237 OA
ATOM     87  O   UNL A   1      41.042  23.052  28.133  1.00  0.00    -0.744 OA
ENDBRANCH  81  84
ENDBRANCH  53  77
BRANCH  65  88
ATOM     88  C   UNL A   1      44.484  27.509  34.145  1.00  0.00     0.023 A 
ATOM     89  C   UNL A   1      45.826  27.920  34.007  1.00  0.00     0.012 A 
ATOM     90  C   UNL A   1      44.193  26.327  34.854  1.00  0.00     0.148 A 
ATOM     91  C   UNL A   1      46.861  27.145  34.526  1.00  0.00     0.002 A 
ATOM     92  C   UNL A   1      45.229  25.585  35.412  1.00  0.00     0.091 A 
ATOM     93  F   UNL A   1      42.914  25.939  34.958  1.00  0.00    -0.205 F 
ATOM     94  C   UNL A   1      46.564  25.984  35.237  1.00  0.00     0.022 A 
BRANCH  92  95
ATOM     95  S   UNL A   1      44.924  24.131  36.422  1.00  0.00     0.127 S 
ATOM     96  O   UNL A   1      46.281  23.643  36.661  1.00  0.00    -0.237 OA
ATOM     97  O   UNL A   1      44.264  24.699  37.599  1.00  0.00    -0.237 OA
ATOM     98  O   UNL A   1      44.073  23.264  35.619  1.00  0.00    -0.744 OA
ENDBRANCH  92  95
ENDBRANCH  65  88
ENDBRANCH  39  40
ENDBRANCH  31  34
ENDBRANCH  29  30
ENDBRANCH  28  29
ENDBRANCH   1  28
TORSDOF 20
ENDMDL
MODEL 2
REMARK VINA RESULT:     -11.3      6.108     10.086
REMARK SMILES CCOc1cc(/C=N/O)cc(Cl)c1OCc1ccc(C(=O)NCCCNC(=O)c2ccc(-c3c4nc(c(-c5cccc(S(=O)(=O)[O-])c5F)c5ccc([nH]5)c(-c5cccc(S(=O)(=O)[O-])c5F)c5nc(c(-c6cccc(S(=O)(=O)[O-])c6F)c6ccc3[nH]6)C=C5)C=C4)cc2)cc1
REMARK SMILES IDX 23 1 22 2 20 3 21 4 19 6 16 7 17 8 93 9 18 10 92 11 15 12
REMARK SMILES IDX 14 13 13 14 4 15 5 16 6 17 11 18 10 19 12 20 3 21 2 22 1 23
REMARK SMILES IDX 7 24 8 25 9 26 24 28 25 29 26 30 27 31 28 33 29 34 30 35
REMARK SMILES IDX 91 36 31 37 90 38 32 39 33 40 34 41 84 42 35 43 89 44 83 45
REMARK SMILES IDX 85 46 36 47 88 48 82 49 81 50 37 52 69 53 49 54 68 55 50 56
REMARK SMILES IDX 53 57 67 58 86 59 51 60 52 61 66 63 87 64 54 65 38 66 39 67
REMARK SMILES IDX 47 68 40 69 42 70 48 71 41 72 43 73 44 74 45 75 46 76 70 77
REMARK SMILES IDX 71 78 79 79 72 80 74 81 80 82 73 83 75 84 76 85 77 86 78 87
REMARK SMILES IDX 55 88 56 89 64 90 57 91 59 92 65 93 58 94 60 95 61 96 62 97
REMARK SMILES IDX 63 98
REMARK H PARENT 22 5 9 27 26 32 85 51 53 62
REMARK Flexibility Score: inf
ROOT
ATOM      1  C   UNL A   1      37.037  20.295  24.943  1.00  0.00     0.118 C 
ENDROOT
BRANCH   1   2
ATOM      2  N   UNL A   1      35.806  19.532  24.844  1.00  0.00    -0.352 N 
ATOM      3  C   UNL A   1      34.487  19.865  25.019  1.00  0.00     0.251 C 
ATOM      4  O   UNL A   1      33.652  18.987  24.797  1.00  0.00    -0.269 OA
ATOM      5  H   UNL A   1      35.945  18.588  24.605  1.00  0.00     0.163 HD
BRANCH   3   6
ATOM      6  C   UNL A   1      34.018  21.231  25.385  1.00  0.00     0.039 A 
ATOM      7  C   UNL A   1      33.347  23.926  25.925  1.00  0.00    -0.011 A 
ATOM      8  C   UNL A   1      33.698  23.529  24.632  1.00  0.00     0.008 A 
ATOM      9  C   UNL A   1      33.218  22.938  26.912  1.00  0.00     0.008 A 
ATOM     10  C   UNL A   1      34.051  22.202  24.373  1.00  0.00     0.014 A 
ATOM     11  C   UNL A   1      33.532  21.601  26.639  1.00  0.00     0.014 A 
BRANCH   7  12
ATOM     12  C   UNL A   1      33.101  25.374  26.301  1.00  0.00     0.265 C 
BRANCH  12  13
ATOM     13  O   UNL A   1      31.747  25.825  26.287  1.00  0.00    -0.483 OA
BRANCH  13  14
ATOM     14  C   UNL A   1      31.169  26.487  25.239  1.00  0.00     0.180 A 
ATOM     15  C   UNL A   1      31.225  27.892  25.384  1.00  0.00     0.163 A 
ATOM     16  C   UNL A   1      30.642  28.750  24.450  1.00  0.00     0.060 A 
ATOM     17  C   UNL A   1      29.939  28.222  23.376  1.00  0.00     0.001 A 
ATOM     18  C   UNL A   1      30.531  25.978  24.095  1.00  0.00     0.087 A 
ATOM     19  C   UNL A   1      29.890  26.844  23.189  1.00  0.00     0.034 A 
ATOM     20  Cl  UNL A   1      30.522  24.317  23.611  1.00  0.00    -0.080 Cl
BRANCH  15  21
ATOM     21  O   UNL A   1      31.979  28.439  26.396  1.00  0.00    -0.490 OA
BRANCH  21  22
ATOM     22  C   UNL A   1      32.982  29.353  25.937  1.00  0.00     0.226 C 
ATOM     23  C   UNL A   1      34.376  28.905  26.353  1.00  0.00     0.049 C 
ENDBRANCH  21  22
ENDBRANCH  15  21
BRANCH  17  24
ATOM     24  C   UNL A   1      29.271  29.117  22.412  1.00  0.00     0.162 C 
ATOM     25  N   UNL A   1      29.947  29.895  21.628  1.00  0.00    -0.097 NA
BRANCH  25  26
ATOM     26  O   UNL A   1      29.061  30.627  20.831  1.00  0.00    -0.411 OA
ATOM     27  H   UNL A   1      28.143  30.612  21.015  1.00  0.00     0.330 HD
ENDBRANCH  25  26
ENDBRANCH  17  24
ENDBRANCH  13  14
ENDBRANCH  12  13
ENDBRANCH   7  12
ENDBRANCH   3   6
ENDBRANCH   1   2
BRANCH   1  28
ATOM     28  C   UNL A   1      38.246  19.378  25.126  1.00  0.00     0.042 C 
BRANCH  28  29
ATOM     29  C   UNL A   1      39.375  20.007  25.941  1.00  0.00     0.118 C 
BRANCH  29  30
ATOM     30  N   UNL A   1      40.516  19.113  26.075  1.00  0.00    -0.352 N 
ATOM     31  C   UNL A   1      41.856  19.393  26.160  1.00  0.00     0.251 C 
ATOM     32  H   UNL A   1      40.290  18.156  26.111  1.00  0.00     0.163 HD
ATOM     33  O   UNL A   1      42.662  18.472  26.047  1.00  0.00    -0.269 OA
BRANCH  31  34
ATOM     34  C   UNL A   1      42.340  20.775  26.380  1.00  0.00     0.039 A 
ATOM     35  C   UNL A   1      42.512  21.220  27.696  1.00  0.00     0.014 A 
ATOM     36  C   UNL A   1      42.559  21.656  25.317  1.00  0.00     0.014 A 
ATOM     37  C   UNL A   1      42.934  22.529  27.940  1.00  0.00     0.010 A 
ATOM     38  C   UNL A   1      43.049  22.938  25.559  1.00  0.00     0.010 A 
ATOM     39  C   UNL A   1      43.225  23.394  26.873  1.00  0.00    -0.014 A 
BRANCH  39  40
ATOM     40  C   UNL A   1      43.713  24.775  27.126  1.00  0.00     0.031 A 
ATOM     41  C   UNL A   1      42.781  25.836  27.647  1.00  0.00     0.074 A 
ATOM     42  C   UNL A   1      44.992  25.086  26.840  1.00  0.00     0.049 A 
ATOM     43  N   UNL A   1      43.038  27.084  27.948  1.00  0.00    -0.248 NA
ATOM     44  C   UNL A   1      41.371  25.456  27.829  1.00  0.00     0.031 C 
ATOM     45  C   UNL A   1      45.973  24.167  26.259  1.00  0.00     0.029 A 
ATOM     46  N   UNL A   1      45.685  26.260  26.989  1.00  0.00    -0.354 N 
ATOM     47  C   UNL A   1      41.823  27.642  28.330  1.00  0.00     0.074 A 
ATOM     48  C   UNL A   1      40.821  26.610  28.179  1.00  0.00     0.031 C 
ATOM     49  C   UNL A   1      47.147  24.804  26.125  1.00  0.00     0.029 A 
ATOM     50  C   UNL A   1      46.998  26.179  26.590  1.00  0.00     0.049 A 
ATOM     51  H   UNL A   1      45.279  27.082  27.347  1.00  0.00     0.167 HD
ATOM     52  C   UNL A   1      41.568  28.888  28.799  1.00  0.00     0.034 A 
ATOM     53  C   UNL A   1      47.976  27.105  26.610  1.00  0.00     0.034 A 
ATOM     54  C   UNL A   1      42.573  29.902  28.979  1.00  0.00     0.049 A 
ATOM     55  C   UNL A   1      47.678  28.468  27.173  1.00  0.00     0.074 A 
ATOM     56  C   UNL A   1      42.434  31.173  29.509  1.00  0.00     0.029 A 
ATOM     57  N   UNL A   1      43.908  29.762  28.627  1.00  0.00    -0.354 N 
ATOM     58  N   UNL A   1      46.558  28.928  27.675  1.00  0.00    -0.248 NA
ATOM     59  C   UNL A   1      48.794  29.425  27.211  1.00  0.00     0.031 C 
ATOM     60  C   UNL A   1      43.683  31.806  29.464  1.00  0.00     0.029 A 
ATOM     61  C   UNL A   1      44.604  30.922  28.926  1.00  0.00     0.049 A 
ATOM     62  H   UNL A   1      44.303  28.956  28.224  1.00  0.00     0.167 HD
ATOM     63  C   UNL A   1      46.841  30.214  28.123  1.00  0.00     0.074 A 
ATOM     64  C   UNL A   1      48.246  30.448  27.853  1.00  0.00     0.031 C 
ATOM     65  C   UNL A   1      46.012  31.123  28.693  1.00  0.00     0.034 A 
BRANCH  52  66
ATOM     66  C   UNL A   1      40.148  29.197  29.207  1.00  0.00     0.023 A 
ATOM     67  C   UNL A   1      39.208  29.560  28.218  1.00  0.00     0.012 A 
ATOM     68  C   UNL A   1      39.732  29.106  30.549  1.00  0.00     0.148 A 
ATOM     69  C   UNL A   1      37.894  29.875  28.563  1.00  0.00     0.002 A 
ATOM     70  C   UNL A   1      38.408  29.377  30.880  1.00  0.00     0.091 A 
ATOM     71  F   UNL A   1      40.640  28.782  31.482  1.00  0.00    -0.205 F 
ATOM     72  C   UNL A   1      37.492  29.775  29.892  1.00  0.00     0.022 A 
BRANCH  70  73
ATOM     73  S   UNL A   1      37.776  29.200  32.553  1.00  0.00     0.127 S 
ATOM     74  O   UNL A   1      38.707  30.033  33.310  1.00  0.00    -0.237 OA
ATOM     75  O   UNL A   1      36.424  29.750  32.435  1.00  0.00    -0.237 OA
ATOM     76  O   UNL A   1      37.823  27.775  32.845  1.00  0.00    -0.744 OA
ENDBRANCH  70  73
ENDBRANCH  52  66
BRANCH  53  77
ATOM     77  C   UNL A   1      49.355  26.735  26.183  1.00  0.00     0.023 A 
ATOM     78  C   UNL A   1      50.125  25.894  27.012  1.00  0.00     0.012 A 
ATOM     79  C   UNL A   1      49.891  27.166  24.955  1.00  0.00     0.148 A 
ATOM     80  C   UNL A   1      51.413  25.512  26.638  1.00  0.00     0.002 A 
ATOM     81  C   UNL A   1      51.155  26.739  24.564  1.00  0.00     0.091 A 
ATOM     82  F   UNL A   1      49.145  27.972  24.186  1.00  0.00    -0.205 F 
ATOM     83  C   UNL A   1      51.924  25.926  25.411  1.00  0.00     0.022 A 
BRANCH  81  84
ATOM     84  S   UNL A   1      51.843  27.110  22.947  1.00  0.00     0.127 S 
ATOM     85  O   UNL A   1      50.769  26.678  22.058  1.00  0.00    -0.237 OA
ATOM     86  O   UNL A   1      52.034  28.558  23.026  1.00  0.00    -0.237 OA
ATOM     87  O   UNL A   1      53.081  26.345  22.861  1.00  0.00    -0.744 OA
ENDBRANCH  81  84
ENDBRANCH  53  77
BRANCH  65  88
ATOM     88  C   UNL A   1      46.610  32.449  29.090  1.00  0.00     0.023 A 
ATOM     89  C   UNL A   1      47.211  32.597  30.357  1.00  0.00     0.012 A 
ATOM     90  C   UNL A   1      46.614  33.536  28.194  1.00  0.00     0.148 A 
ATOM     91  C   UNL A   1      47.766  33.816  30.740  1.00  0.00     0.002 A 
ATOM     92  C   UNL A   1      47.213  34.734  28.565  1.00  0.00     0.091 A 
ATOM     93  F   UNL A   1      46.019  33.386  27.001  1.00  0.00    -0.205 F 
ATOM     94  C   UNL A   1      47.776  34.882  29.842  1.00  0.00     0.022 A 
BRANCH  92  95
ATOM     95  S   UNL A   1      47.353  36.122  27.433  1.00  0.00     0.127 S 
ATOM     96  O   UNL A   1      48.095  37.091  28.238  1.00  0.00    -0.237 OA
ATOM     97  O   UNL A   1      48.111  35.546  26.321  1.00  0.00    -0.237 OA
ATOM     98  O   UNL A   1      45.986  36.495  27.095  1.00  0.00    -0.744 OA
ENDBRANCH  92  95
ENDBRANCH  65  88
ENDBRANCH  39  40
ENDBRANCH  31  34
ENDBRANCH  29  30
ENDBRANCH  28  29
ENDBRANCH   1  28
TORSDOF 20
ENDMDL
MODEL 3
REMARK VINA RESULT:     -11.3      6.151     10.039
REMARK SMILES CCOc1cc(/C=N/O)cc(Cl)c1OCc1ccc(C(=O)NCCCNC(=O)c2ccc(-c3c4nc(c(-c5cccc(S(=O)(=O)[O-])c5F)c5ccc([nH]5)c(-c5cccc(S(=O)(=O)[O-])c5F)c5nc(c(-c6cccc(S(=O)(=O)[O-])c6F)c6ccc3[nH]6)C=C5)C=C4)cc2)cc1
REMARK SMILES IDX 23 1 22 2 20 3 21 4 19 6 16 7 17 8 93 9 18 10 92 11 15 12
REMARK SMILES IDX 14 13 13 14 4 15 5 16 6 17 11 18 10 19 12 20 3 21 2 22 1 23
REMARK SMILES IDX 7 24 8 25 9 26 24 28 25 29 26 30 27 31 28 33 29 34 30 35
REMARK SMILES IDX 91 36 31 37 90 38 32 39 33 40 34 41 84 42 35 43 89 44 83 45
REMARK SMILES IDX 85 46 36 47 88 48 82 49 81 50 37 52 69 53 49 54 68 55 50 56
REMARK SMILES IDX 53 57 67 58 86 59 51 60 52 61 66 63 87 64 54 65 38 66 39 67
REMARK SMILES IDX 47 68 40 69 42 70 48 71 41 72 43 73 44 74 45 75 46 76 70 77
REMARK SMILES IDX 71 78 79 79 72 80 74 81 80 82 73 83 75 84 76 85 77 86 78 87
REMARK SMILES IDX 55 88 56 89 64 90 57 91 59 92 65 93 58 94 60 95 61 96 62 97
REMARK SMILES IDX 63 98
REMARK H PARENT 22 5 9 27 26 32 85 51 53 62
REMARK Flexibility Score: inf
ROOT
ATOM      1  C   UNL A   1      36.955  20.435  24.723  1.00  0.00     0.118 C 
ENDROOT
BRANCH   1   2
ATOM      2  N   UNL A   1      35.693  19.812  25.076  1.00  0.00    -0.352 N 
ATOM      3  C   UNL A   1      34.389  20.226  24.975  1.00  0.00     0.251 C 
ATOM      4  O   UNL A   1      33.516  19.424  25.312  1.00  0.00    -0.269 OA
ATOM      5  H   UNL A   1      35.791  18.914  25.467  1.00  0.00     0.163 HD
BRANCH   3   6
ATOM      6  C   UNL A   1      33.979  21.547  24.419  1.00  0.00     0.039 A 
ATOM      7  C   UNL A   1      33.124  23.912  23.124  1.00  0.00    -0.011 A 
ATOM      8  C   UNL A   1      32.352  22.751  23.058  1.00  0.00     0.008 A 
ATOM      9  C   UNL A   1      34.262  23.908  23.944  1.00  0.00     0.008 A 
ATOM     10  C   UNL A   1      32.787  21.577  23.679  1.00  0.00     0.014 A 
ATOM     11  C   UNL A   1      34.673  22.742  24.601  1.00  0.00     0.014 A 
BRANCH   7  12
ATOM     12  C   UNL A   1      32.784  25.171  22.350  1.00  0.00     0.265 C 
BRANCH  12  13
ATOM     13  O   UNL A   1      31.915  26.107  22.985  1.00  0.00    -0.483 OA
BRANCH  13  14
ATOM     14  C   UNL A   1      32.324  27.034  23.905  1.00  0.00     0.180 A 
ATOM     15  C   UNL A   1      31.726  26.848  25.171  1.00  0.00     0.163 A 
ATOM     16  C   UNL A   1      31.968  27.721  26.232  1.00  0.00     0.060 A 
ATOM     17  C   UNL A   1      32.771  28.836  26.037  1.00  0.00     0.001 A 
ATOM     18  C   UNL A   1      33.206  28.118  23.757  1.00  0.00     0.087 A 
ATOM     19  C   UNL A   1      33.398  29.032  24.810  1.00  0.00     0.034 A 
ATOM     20  Cl  UNL A   1      34.200  28.418  22.373  1.00  0.00    -0.080 Cl
BRANCH  15  21
ATOM     21  O   UNL A   1      30.989  25.711  25.411  1.00  0.00    -0.490 OA
BRANCH  21  22
ATOM     22  C   UNL A   1      31.600  24.816  26.348  1.00  0.00     0.226 C 
ATOM     23  C   UNL A   1      30.884  23.474  26.384  1.00  0.00     0.049 C 
ENDBRANCH  21  22
ENDBRANCH  15  21
BRANCH  17  24
ATOM     24  C   UNL A   1      32.990  29.797  27.134  1.00  0.00     0.162 C 
ATOM     25  N   UNL A   1      34.151  30.329  27.348  1.00  0.00    -0.097 NA
BRANCH  25  26
ATOM     26  O   UNL A   1      34.067  31.190  28.446  1.00  0.00    -0.411 OA
ATOM     27  H   UNL A   1      34.257  30.873  29.307  1.00  0.00     0.330 HD
ENDBRANCH  25  26
ENDBRANCH  17  24
ENDBRANCH  13  14
ENDBRANCH  12  13
ENDBRANCH   7  12
ENDBRANCH   3   6
ENDBRANCH   1   2
BRANCH   1  28
ATOM     28  C   UNL A   1      38.131  19.498  24.995  1.00  0.00     0.042 C 
BRANCH  28  29
ATOM     29  C   UNL A   1      39.258  20.145  25.800  1.00  0.00     0.118 C 
BRANCH  29  30
ATOM     30  N   UNL A   1      40.363  19.226  26.030  1.00  0.00    -0.352 N 
ATOM     31  C   UNL A   1      41.697  19.476  26.228  1.00  0.00     0.251 C 
ATOM     32  H   UNL A   1      40.113  18.274  26.046  1.00  0.00     0.163 HD
ATOM     33  O   UNL A   1      42.489  18.538  26.184  1.00  0.00    -0.269 OA
BRANCH  31  34
ATOM     34  C   UNL A   1      42.191  20.847  26.489  1.00  0.00     0.039 A 
ATOM     35  C   UNL A   1      42.457  21.680  25.397  1.00  0.00     0.014 A 
ATOM     36  C   UNL A   1      42.460  21.298  27.785  1.00  0.00     0.014 A 
ATOM     37  C   UNL A   1      42.956  22.968  25.606  1.00  0.00     0.010 A 
ATOM     38  C   UNL A   1      42.890  22.607  27.996  1.00  0.00     0.010 A 
ATOM     39  C   UNL A   1      43.160  23.450  26.909  1.00  0.00    -0.014 A 
BRANCH  39  40
ATOM     40  C   UNL A   1      43.652  24.833  27.139  1.00  0.00     0.031 A 
ATOM     41  C   UNL A   1      42.730  25.899  27.666  1.00  0.00     0.074 A 
ATOM     42  C   UNL A   1      44.926  25.141  26.827  1.00  0.00     0.049 A 
ATOM     43  N   UNL A   1      42.992  27.150  27.950  1.00  0.00    -0.248 NA
ATOM     44  C   UNL A   1      41.323  25.521  27.878  1.00  0.00     0.031 C 
ATOM     45  C   UNL A   1      45.896  24.216  26.237  1.00  0.00     0.029 A 
ATOM     46  N   UNL A   1      45.621  26.316  26.951  1.00  0.00    -0.354 N 
ATOM     47  C   UNL A   1      41.785  27.712  28.349  1.00  0.00     0.074 A 
ATOM     48  C   UNL A   1      40.780  26.678  28.226  1.00  0.00     0.031 C 
ATOM     49  C   UNL A   1      47.068  24.852  26.075  1.00  0.00     0.029 A 
ATOM     50  C   UNL A   1      46.927  26.231  26.529  1.00  0.00     0.049 A 
ATOM     51  H   UNL A   1      45.222  27.142  27.309  1.00  0.00     0.167 HD
ATOM     52  C   UNL A   1      41.538  28.963  28.810  1.00  0.00     0.034 A 
ATOM     53  C   UNL A   1      47.905  27.157  26.522  1.00  0.00     0.034 A 
ATOM     54  C   UNL A   1      42.546  29.979  28.961  1.00  0.00     0.049 A 
ATOM     55  C   UNL A   1      47.618  28.526  27.076  1.00  0.00     0.074 A 
ATOM     56  C   UNL A   1      42.417  31.254  29.481  1.00  0.00     0.029 A 
ATOM     57  N   UNL A   1      43.874  29.835  28.586  1.00  0.00    -0.354 N 
ATOM     58  N   UNL A   1      46.507  28.991  27.594  1.00  0.00    -0.248 NA
ATOM     59  C   UNL A   1      48.734  29.483  27.085  1.00  0.00     0.031 C 
ATOM     60  C   UNL A   1      43.664  31.887  29.407  1.00  0.00     0.029 A 
ATOM     61  C   UNL A   1      44.576  30.998  28.860  1.00  0.00     0.049 A 
ATOM     62  H   UNL A   1      44.262  29.024  28.184  1.00  0.00     0.167 HD
ATOM     63  C   UNL A   1      46.798  30.281  28.024  1.00  0.00     0.074 A 
ATOM     64  C   UNL A   1      48.197  30.512  27.726  1.00  0.00     0.031 C 
ATOM     65  C   UNL A   1      45.979  31.196  28.600  1.00  0.00     0.034 A 
BRANCH  52  66
ATOM     66  C   UNL A   1      40.126  29.276  29.240  1.00  0.00     0.023 A 
ATOM     67  C   UNL A   1      39.179  29.672  28.271  1.00  0.00     0.012 A 
ATOM     68  C   UNL A   1      39.723  29.157  30.584  1.00  0.00     0.148 A 
ATOM     69  C   UNL A   1      37.872  29.991  28.638  1.00  0.00     0.002 A 
ATOM     70  C   UNL A   1      38.406  29.433  30.936  1.00  0.00     0.091 A 
ATOM     71  F   UNL A   1      40.638  28.802  31.499  1.00  0.00    -0.205 F 
ATOM     72  C   UNL A   1      37.484  29.863  29.968  1.00  0.00     0.022 A 
BRANCH  70  73
ATOM     73  S   UNL A   1      37.790  29.223  32.611  1.00  0.00     0.127 S 
ATOM     74  O   UNL A   1      36.404  29.663  32.475  1.00  0.00    -0.237 OA
ATOM     75  O   UNL A   1      37.955  27.784  32.825  1.00  0.00    -0.237 OA
ATOM     76  O   UNL A   1      38.637  30.057  33.452  1.00  0.00    -0.744 OA
ENDBRANCH  70  73
ENDBRANCH  52  66
BRANCH  53  77
ATOM     77  C   UNL A   1      49.276  26.783  26.074  1.00  0.00     0.023 A 
ATOM     78  C   UNL A   1      50.061  25.951  26.897  1.00  0.00     0.012 A 
ATOM     79  C   UNL A   1      49.789  27.201  24.831  1.00  0.00     0.148 A 
ATOM     80  C   UNL A   1      51.342  25.566  26.504  1.00  0.00     0.002 A 
ATOM     81  C   UNL A   1      51.046  26.769  24.422  1.00  0.00     0.091 A 
ATOM     82  F   UNL A   1      49.029  27.998  24.067  1.00  0.00    -0.205 F 
ATOM     83  C   UNL A   1      51.830  25.966  25.263  1.00  0.00     0.022 A 
BRANCH  81  84
ATOM     84  S   UNL A   1      51.704  27.123  22.788  1.00  0.00     0.127 S 
ATOM     85  O   UNL A   1      52.877  26.255  22.743  1.00  0.00    -0.237 OA
ATOM     86  O   UNL A   1      50.599  26.713  21.922  1.00  0.00    -0.237 OA
ATOM     87  O   UNL A   1      51.977  28.555  22.776  1.00  0.00    -0.744 OA
ENDBRANCH  81  84
ENDBRANCH  53  77
BRANCH  65  88
ATOM     88  C   UNL A   1      46.584  32.526  28.973  1.00  0.00     0.023 A 
ATOM     89  C   UNL A   1      47.163  32.702  30.246  1.00  0.00     0.012 A 
ATOM     90  C   UNL A   1      46.617  33.588  28.047  1.00  0.00     0.148 A 
ATOM     91  C   UNL A   1      47.724  33.925  30.608  1.00  0.00     0.002 A 
ATOM     92  C   UNL A   1      47.222  34.789  28.398  1.00  0.00     0.091 A 
ATOM     93  F   UNL A   1      46.043  33.413  26.848  1.00  0.00    -0.205 F 
ATOM     94  C   UNL A   1      47.763  34.966  29.682  1.00  0.00     0.022 A 
BRANCH  92  95
ATOM     95  S   UNL A   1      47.399  36.145  27.232  1.00  0.00     0.127 S 
ATOM     96  O   UNL A   1      48.681  36.721  27.635  1.00  0.00    -0.237 OA
ATOM     97  O   UNL A   1      47.422  35.450  25.943  1.00  0.00    -0.237 OA
ATOM     98  O   UNL A   1      46.233  36.994  27.434  1.00  0.00    -0.744 OA
ENDBRANCH  92  95
ENDBRANCH  65  88
ENDBRANCH  39  40
ENDBRANCH  31  34
ENDBRANCH  29  30
ENDBRANCH  28  29
ENDBRANCH   1  28
TORSDOF 20
ENDMDL
