MODEL 1
REMARK VINA RESULT:     -12.7      0.000      0.000
REMARK SMILES Nc1c(N2CCCC2)ncnc1N1CCC(C(=O)NCCCNC(=O)c2ccc(-c3c4nc(c(-c5cccc(S(=O)(=O)[O-])c5F)c5ccc([nH]5)c(-c5cccc(S(=O)(=O)[O-])c5F)c5nc(c(-c6cccc(S(=O)(=O)[O-])c6F)c6ccc3[nH]6)C=C5)C=C4)cc2)CC1
REMARK SMILES IDX 21 1 20 2 19 3 17 4 18 5 16 7 13 8 14 9 90 10 15 11 89 12
REMARK SMILES IDX 12 13 2 14 3 15 9 16 11 17 10 18 1 19 4 22 5 23 8 24 6 25
REMARK SMILES IDX 7 26 22 27 23 28 24 29 25 31 26 32 27 33 88 34 28 35 87 36
REMARK SMILES IDX 29 37 30 38 31 39 81 40 32 41 86 42 80 43 82 44 33 45 85 46
REMARK SMILES IDX 79 47 78 48 34 50 66 51 46 52 65 53 47 54 50 55 64 56 83 57
REMARK SMILES IDX 48 58 49 59 63 61 84 62 51 63 35 64 36 65 44 66 37 67 39 68
REMARK SMILES IDX 45 69 38 70 40 71 41 72 42 73 43 74 67 75 68 76 76 77 69 78
REMARK SMILES IDX 71 79 77 80 70 81 72 82 73 83 74 84 75 85 52 86 53 87 61 88
REMARK SMILES IDX 54 89 56 90 62 91 55 92 57 93 58 94 59 95 60 96
REMARK H PARENT 19 6 1 20 1 21 23 30 82 49 50 60
REMARK Flexibility Score: inf
ROOT
ATOM      1  C   UNL A   1      36.992  22.137  23.865  1.00  0.00     0.042 C 
ENDROOT
BRANCH   1   2
ATOM      2  C   UNL A   1      35.676  22.736  23.391  1.00  0.00     0.117 C 
BRANCH   2   3
ATOM      3  N   UNL A   1      34.668  22.768  24.445  1.00  0.00    -0.356 N 
ATOM      4  C   UNL A   1      33.723  23.704  24.744  1.00  0.00     0.223 C 
ATOM      5  O   UNL A   1      32.969  23.484  25.696  1.00  0.00    -0.275 OA
ATOM      6  H   UNL A   1      34.670  21.984  25.039  1.00  0.00     0.163 HD
BRANCH   4   7
ATOM      7  C   UNL A   1      33.567  24.966  23.914  1.00  0.00     0.082 C 
ATOM      8  N   UNL A   1      31.702  26.925  23.129  1.00  0.00    -0.355 N 
ATOM      9  C   UNL A   1      32.106  26.006  22.088  1.00  0.00     0.119 C 
ATOM     10  C   UNL A   1      32.688  27.358  24.096  1.00  0.00     0.119 C 
ATOM     11  C   UNL A   1      32.634  24.729  22.716  1.00  0.00     0.035 C 
ATOM     12  C   UNL A   1      33.234  26.150  24.836  1.00  0.00     0.035 C 
BRANCH   8  13
ATOM     13  C   UNL A   1      30.442  27.493  23.070  1.00  0.00     0.157 A 
ATOM     14  C   UNL A   1      30.253  28.784  22.562  1.00  0.00     0.118 A 
ATOM     15  C   UNL A   1      28.950  29.305  22.628  1.00  0.00     0.157 A 
ATOM     16  N   UNL A   1      27.927  28.614  23.152  1.00  0.00    -0.217 NA
ATOM     17  N   UNL A   1      29.411  26.760  23.526  1.00  0.00    -0.217 NA
ATOM     18  C   UNL A   1      28.211  27.363  23.551  1.00  0.00     0.226 A 
BRANCH  14  19
ATOM     19  N   UNL A   1      31.326  29.577  22.103  1.00  0.00    -0.393 N 
ATOM     20  H   UNL A   1      32.151  29.149  21.780  1.00  0.00     0.156 HD
ATOM     21  H   UNL A   1      31.250  30.559  22.105  1.00  0.00     0.156 HD
ENDBRANCH  14  19
BRANCH  15  22
ATOM     22  N   UNL A   1      28.723  30.569  22.114  1.00  0.00    -0.355 N 
ATOM     23  C   UNL A   1      27.909  30.737  20.926  1.00  0.00     0.118 C 
ATOM     24  C   UNL A   1      28.624  31.737  22.967  1.00  0.00     0.118 C 
ATOM     25  C   UNL A   1      28.217  32.190  20.600  1.00  0.00     0.023 C 
ATOM     26  C   UNL A   1      28.250  32.857  21.978  1.00  0.00     0.023 C 
ENDBRANCH  15  22
ENDBRANCH   8  13
ENDBRANCH   4   7
ENDBRANCH   2   3
ENDBRANCH   1   2
BRANCH   1  27
ATOM     27  C   UNL A   1      37.052  21.902  25.365  1.00  0.00     0.118 C 
BRANCH  27  28
ATOM     28  N   UNL A   1      38.030  20.887  25.734  1.00  0.00    -0.352 N 
ATOM     29  C   UNL A   1      39.308  21.032  26.210  1.00  0.00     0.251 C 
ATOM     30  H   UNL A   1      37.728  19.956  25.625  1.00  0.00     0.163 HD
ATOM     31  O   UNL A   1      40.050  20.053  26.270  1.00  0.00    -0.269 OA
BRANCH  29  32
ATOM     32  C   UNL A   1      39.797  22.359  26.637  1.00  0.00     0.039 A 
ATOM     33  C   UNL A   1      40.788  22.436  27.619  1.00  0.00     0.014 A 
ATOM     34  C   UNL A   1      39.273  23.529  26.078  1.00  0.00     0.014 A 
ATOM     35  C   UNL A   1      41.295  23.681  27.994  1.00  0.00     0.010 A 
ATOM     36  C   UNL A   1      39.843  24.759  26.385  1.00  0.00     0.010 A 
ATOM     37  C   UNL A   1      40.849  24.851  27.356  1.00  0.00    -0.014 A 
BRANCH  37  38
ATOM     38  C   UNL A   1      41.407  26.182  27.701  1.00  0.00     0.031 A 
ATOM     39  C   UNL A   1      42.822  26.525  27.318  1.00  0.00     0.074 A 
ATOM     40  C   UNL A   1      40.668  27.052  28.418  1.00  0.00     0.049 A 
ATOM     41  N   UNL A   1      43.507  27.607  27.581  1.00  0.00    -0.248 NA
ATOM     42  C   UNL A   1      43.576  25.512  26.558  1.00  0.00     0.031 C 
ATOM     43  C   UNL A   1      39.306  26.808  28.899  1.00  0.00     0.029 A 
ATOM     44  N   UNL A   1      40.964  28.309  28.884  1.00  0.00    -0.354 N 
ATOM     45  C   UNL A   1      44.771  27.397  27.045  1.00  0.00     0.074 A 
ATOM     46  C   UNL A   1      44.777  26.066  26.480  1.00  0.00     0.031 C 
ATOM     47  C   UNL A   1      38.879  27.886  29.577  1.00  0.00     0.029 A 
ATOM     48  C   UNL A   1      39.946  28.882  29.613  1.00  0.00     0.049 A 
ATOM     49  H   UNL A   1      41.822  28.758  28.714  1.00  0.00     0.167 HD
ATOM     50  C   UNL A   1      45.821  28.248  26.994  1.00  0.00     0.034 A 
ATOM     51  C   UNL A   1      39.882  30.072  30.243  1.00  0.00     0.034 A 
ATOM     52  C   UNL A   1      45.796  29.586  27.521  1.00  0.00     0.049 A 
ATOM     53  C   UNL A   1      41.063  31.003  30.161  1.00  0.00     0.074 A 
ATOM     54  C   UNL A   1      46.789  30.547  27.462  1.00  0.00     0.029 A 
ATOM     55  N   UNL A   1      44.728  30.151  28.199  1.00  0.00    -0.354 N 
ATOM     56  N   UNL A   1      42.203  30.836  29.535  1.00  0.00    -0.248 NA
ATOM     57  C   UNL A   1      40.938  32.300  30.843  1.00  0.00     0.031 C 
ATOM     58  C   UNL A   1      46.331  31.685  28.130  1.00  0.00     0.029 A 
ATOM     59  C   UNL A   1      45.040  31.446  28.574  1.00  0.00     0.049 A 
ATOM     60  H   UNL A   1      43.875  29.697  28.388  1.00  0.00     0.167 HD
ATOM     61  C   UNL A   1      42.916  32.016  29.718  1.00  0.00     0.074 A 
ATOM     62  C   UNL A   1      42.069  32.898  30.493  1.00  0.00     0.031 C 
ATOM     63  C   UNL A   1      44.165  32.333  29.298  1.00  0.00     0.034 A 
BRANCH  50  64
ATOM     64  C   UNL A   1      47.071  27.792  26.285  1.00  0.00     0.023 A 
ATOM     65  C   UNL A   1      48.054  27.082  27.006  1.00  0.00     0.012 A 
ATOM     66  C   UNL A   1      47.228  27.974  24.897  1.00  0.00     0.148 A 
ATOM     67  C   UNL A   1      49.183  26.577  26.361  1.00  0.00     0.002 A 
ATOM     68  C   UNL A   1      48.330  27.424  24.253  1.00  0.00     0.091 A 
ATOM     69  F   UNL A   1      46.292  28.668  24.234  1.00  0.00    -0.205 F 
ATOM     70  C   UNL A   1      49.313  26.737  24.984  1.00  0.00     0.022 A 
BRANCH  68  71
ATOM     71  S   UNL A   1      48.550  27.491  22.471  1.00  0.00     0.127 S 
ATOM     72  O   UNL A   1      49.770  28.289  22.353  1.00  0.00    -0.237 OA
ATOM     73  O   UNL A   1      48.711  26.077  22.131  1.00  0.00    -0.237 OA
ATOM     74  O   UNL A   1      47.347  28.115  21.938  1.00  0.00    -0.744 OA
ENDBRANCH  68  71
ENDBRANCH  50  64
BRANCH  51  75
ATOM     75  C   UNL A   1      38.627  30.481  30.938  1.00  0.00     0.023 A 
ATOM     76  C   UNL A   1      38.482  30.210  32.313  1.00  0.00     0.012 A 
ATOM     77  C   UNL A   1      37.598  31.168  30.263  1.00  0.00     0.148 A 
ATOM     78  C   UNL A   1      37.327  30.589  32.997  1.00  0.00     0.002 A 
ATOM     79  C   UNL A   1      36.476  31.596  30.964  1.00  0.00     0.091 A 
ATOM     80  F   UNL A   1      37.748  31.406  28.953  1.00  0.00    -0.205 F 
ATOM     81  C   UNL A   1      36.329  31.292  32.325  1.00  0.00     0.022 A 
BRANCH  79  82
ATOM     82  S   UNL A   1      35.206  32.626  30.218  1.00  0.00     0.127 S 
ATOM     83  O   UNL A   1      34.743  31.783  29.120  1.00  0.00    -0.237 OA
ATOM     84  O   UNL A   1      34.258  32.778  31.322  1.00  0.00    -0.237 OA
ATOM     85  O   UNL A   1      35.876  33.859  29.828  1.00  0.00    -0.744 OA
ENDBRANCH  79  82
ENDBRANCH  51  75
BRANCH  63  86
ATOM     86  C   UNL A   1      44.701  33.701  29.638  1.00  0.00     0.023 A 
ATOM     87  C   UNL A   1      45.406  33.896  30.842  1.00  0.00     0.012 A 
ATOM     88  C   UNL A   1      44.604  34.761  28.714  1.00  0.00     0.148 A 
ATOM     89  C   UNL A   1      45.983  35.131  31.134  1.00  0.00     0.002 A 
ATOM     90  C   UNL A   1      45.229  35.972  28.986  1.00  0.00     0.091 A 
ATOM     91  F   UNL A   1      43.917  34.561  27.579  1.00  0.00    -0.205 F 
ATOM     92  C   UNL A   1      45.906  36.163  30.201  1.00  0.00     0.022 A 
BRANCH  90  93
ATOM     93  S   UNL A   1      45.282  37.321  27.801  1.00  0.00     0.127 S 
ATOM     94  O   UNL A   1      45.892  36.672  26.640  1.00  0.00    -0.237 OA
ATOM     95  O   UNL A   1      43.866  37.650  27.642  1.00  0.00    -0.237 OA
ATOM     96  O   UNL A   1      46.083  38.369  28.418  1.00  0.00    -0.744 OA
ENDBRANCH  90  93
ENDBRANCH  63  86
ENDBRANCH  37  38
ENDBRANCH  29  32
ENDBRANCH  27  28
ENDBRANCH   1  27
TORSDOF 16
ENDMDL
MODEL 2
REMARK VINA RESULT:     -12.4      0.445      7.494
REMARK SMILES Nc1c(N2CCCC2)ncnc1N1CCC(C(=O)NCCCNC(=O)c2ccc(-c3c4nc(c(-c5cccc(S(=O)(=O)[O-])c5F)c5ccc([nH]5)c(-c5cccc(S(=O)(=O)[O-])c5F)c5nc(c(-c6cccc(S(=O)(=O)[O-])c6F)c6ccc3[nH]6)C=C5)C=C4)cc2)CC1
REMARK SMILES IDX 21 1 20 2 19 3 17 4 18 5 16 7 13 8 14 9 90 10 15 11 89 12
REMARK SMILES IDX 12 13 2 14 3 15 9 16 11 17 10 18 1 19 4 22 5 23 8 24 6 25
REMARK SMILES IDX 7 26 22 27 23 28 24 29 25 31 26 32 27 33 88 34 28 35 87 36
REMARK SMILES IDX 29 37 30 38 31 39 81 40 32 41 86 42 80 43 82 44 33 45 85 46
REMARK SMILES IDX 79 47 78 48 34 50 66 51 46 52 65 53 47 54 50 55 64 56 83 57
REMARK SMILES IDX 48 58 49 59 63 61 84 62 51 63 35 64 36 65 44 66 37 67 39 68
REMARK SMILES IDX 45 69 38 70 40 71 41 72 42 73 43 74 67 75 68 76 76 77 69 78
REMARK SMILES IDX 71 79 77 80 70 81 72 82 73 83 74 84 75 85 52 86 53 87 61 88
REMARK SMILES IDX 54 89 56 90 62 91 55 92 57 93 58 94 59 95 60 96
REMARK H PARENT 19 6 1 20 1 21 23 30 82 49 50 60
REMARK Flexibility Score: inf
ROOT
ATOM      1  C   UNL A   1      37.026  22.146  23.857  1.00  0.00     0.042 C 
ENDROOT
BRANCH   1   2
ATOM      2  C   UNL A   1      35.745  22.861  23.450  1.00  0.00     0.117 C 
BRANCH   2   3
ATOM      3  N   UNL A   1      34.761  22.898  24.526  1.00  0.00    -0.356 N 
ATOM      4  C   UNL A   1      33.834  23.842  24.853  1.00  0.00     0.223 C 
ATOM      5  O   UNL A   1      33.099  23.624  25.819  1.00  0.00    -0.275 OA
ATOM      6  H   UNL A   1      34.767  22.109  25.115  1.00  0.00     0.163 HD
BRANCH   4   7
ATOM      7  C   UNL A   1      33.675  25.112  24.035  1.00  0.00     0.082 C 
ATOM      8  N   UNL A   1      31.787  27.030  23.207  1.00  0.00    -0.355 N 
ATOM      9  C   UNL A   1      32.256  26.138  22.169  1.00  0.00     0.119 C 
ATOM     10  C   UNL A   1      32.723  27.476  24.217  1.00  0.00     0.119 C 
ATOM     11  C   UNL A   1      32.795  24.868  22.799  1.00  0.00     0.035 C 
ATOM     12  C   UNL A   1      33.274  26.272  24.961  1.00  0.00     0.035 C 
BRANCH   8  13
ATOM     13  C   UNL A   1      30.514  27.564  23.108  1.00  0.00     0.157 A 
ATOM     14  C   UNL A   1      30.304  28.838  22.565  1.00  0.00     0.118 A 
ATOM     15  C   UNL A   1      28.987  29.327  22.591  1.00  0.00     0.157 A 
ATOM     16  N   UNL A   1      27.971  28.622  23.110  1.00  0.00    -0.217 NA
ATOM     17  N   UNL A   1      29.492  26.817  23.560  1.00  0.00    -0.217 NA
ATOM     18  C   UNL A   1      28.277  27.389  23.544  1.00  0.00     0.226 A 
BRANCH  14  19
ATOM     19  N   UNL A   1      31.366  29.647  22.109  1.00  0.00    -0.393 N 
ATOM     20  H   UNL A   1      32.217  29.667  22.604  1.00  0.00     0.156 HD
ATOM     21  H   UNL A   1      31.258  30.192  21.295  1.00  0.00     0.156 HD
ENDBRANCH  14  19
BRANCH  15  22
ATOM     22  N   UNL A   1      28.740  30.572  22.042  1.00  0.00    -0.355 N 
ATOM     23  C   UNL A   1      27.917  30.694  20.855  1.00  0.00     0.118 C 
ATOM     24  C   UNL A   1      28.631  31.763  22.861  1.00  0.00     0.118 C 
ATOM     25  C   UNL A   1      28.202  32.142  20.485  1.00  0.00     0.023 C 
ATOM     26  C   UNL A   1      28.235  32.848  21.842  1.00  0.00     0.023 C 
ENDBRANCH  15  22
ENDBRANCH   8  13
ENDBRANCH   4   7
ENDBRANCH   2   3
ENDBRANCH   1   2
BRANCH   1  27
ATOM     27  C   UNL A   1      37.184  21.987  25.361  1.00  0.00     0.118 C 
BRANCH  27  28
ATOM     28  N   UNL A   1      38.126  20.933  25.715  1.00  0.00    -0.352 N 
ATOM     29  C   UNL A   1      39.402  21.028  26.211  1.00  0.00     0.251 C 
ATOM     30  H   UNL A   1      37.799  20.015  25.578  1.00  0.00     0.163 HD
ATOM     31  O   UNL A   1      40.114  20.025  26.254  1.00  0.00    -0.269 OA
BRANCH  29  32
ATOM     32  C   UNL A   1      39.925  22.328  26.678  1.00  0.00     0.039 A 
ATOM     33  C   UNL A   1      40.908  22.349  27.670  1.00  0.00     0.014 A 
ATOM     34  C   UNL A   1      39.439  23.527  26.149  1.00  0.00     0.014 A 
ATOM     35  C   UNL A   1      41.447  23.568  28.084  1.00  0.00     0.010 A 
ATOM     36  C   UNL A   1      40.041  24.731  26.494  1.00  0.00     0.010 A 
ATOM     37  C   UNL A   1      41.040  24.767  27.476  1.00  0.00    -0.014 A 
BRANCH  37  38
ATOM     38  C   UNL A   1      41.633  26.072  27.863  1.00  0.00     0.031 A 
ATOM     39  C   UNL A   1      40.786  27.106  28.558  1.00  0.00     0.074 A 
ATOM     40  C   UNL A   1      42.908  26.353  27.530  1.00  0.00     0.049 A 
ATOM     41  N   UNL A   1      41.102  28.320  28.921  1.00  0.00    -0.248 NA
ATOM     42  C   UNL A   1      39.393  26.734  28.865  1.00  0.00     0.031 C 
ATOM     43  C   UNL A   1      43.809  25.455  26.803  1.00  0.00     0.029 A 
ATOM     44  N   UNL A   1      43.663  27.480  27.740  1.00  0.00    -0.354 N 
ATOM     45  C   UNL A   1      39.950  28.864  29.474  1.00  0.00     0.074 A 
ATOM     46  C   UNL A   1      38.911  27.865  29.358  1.00  0.00     0.031 C 
ATOM     47  C   UNL A   1      44.998  26.059  26.643  1.00  0.00     0.029 A 
ATOM     48  C   UNL A   1      44.935  27.398  27.219  1.00  0.00     0.049 A 
ATOM     49  H   UNL A   1      43.327  28.272  28.217  1.00  0.00     0.167 HD
ATOM     50  C   UNL A   1      39.780  30.073  30.058  1.00  0.00     0.034 A 
ATOM     51  C   UNL A   1      45.935  28.302  27.205  1.00  0.00     0.034 A 
ATOM     52  C   UNL A   1      40.828  31.046  30.207  1.00  0.00     0.049 A 
ATOM     53  C   UNL A   1      45.720  29.635  27.872  1.00  0.00     0.074 A 
ATOM     54  C   UNL A   1      40.771  32.275  30.840  1.00  0.00     0.029 A 
ATOM     55  N   UNL A   1      42.117  30.904  29.720  1.00  0.00    -0.354 N 
ATOM     56  N   UNL A   1      44.662  30.081  28.506  1.00  0.00    -0.248 NA
ATOM     57  C   UNL A   1      46.848  30.580  27.851  1.00  0.00     0.031 C 
ATOM     58  C   UNL A   1      42.020  32.887  30.712  1.00  0.00     0.029 A 
ATOM     59  C   UNL A   1      42.865  32.026  30.030  1.00  0.00     0.049 A 
ATOM     60  H   UNL A   1      42.452  30.121  29.225  1.00  0.00     0.167 HD
ATOM     61  C   UNL A   1      45.006  31.338  28.988  1.00  0.00     0.074 A 
ATOM     62  C   UNL A   1      46.379  31.574  28.593  1.00  0.00     0.031 C 
ATOM     63  C   UNL A   1      44.248  32.225  29.679  1.00  0.00     0.034 A 
BRANCH  50  64
ATOM     64  C   UNL A   1      38.430  30.394  30.648  1.00  0.00     0.023 A 
ATOM     65  C   UNL A   1      38.146  30.005  31.974  1.00  0.00     0.012 A 
ATOM     66  C   UNL A   1      37.489  31.162  29.936  1.00  0.00     0.148 A 
ATOM     67  C   UNL A   1      36.939  30.358  32.575  1.00  0.00     0.002 A 
ATOM     68  C   UNL A   1      36.309  31.553  30.560  1.00  0.00     0.091 A 
ATOM     69  F   UNL A   1      37.769  31.505  28.671  1.00  0.00    -0.205 F 
ATOM     70  C   UNL A   1      36.028  31.142  31.873  1.00  0.00     0.022 A 
BRANCH  68  71
ATOM     71  S   UNL A   1      35.110  32.639  29.780  1.00  0.00     0.127 S 
ATOM     72  O   UNL A   1      34.169  32.876  30.875  1.00  0.00    -0.237 OA
ATOM     73  O   UNL A   1      35.932  33.795  29.422  1.00  0.00    -0.237 OA
ATOM     74  O   UNL A   1      34.568  31.899  28.648  1.00  0.00    -0.744 OA
ENDBRANCH  68  71
ENDBRANCH  50  64
BRANCH  51  75
ATOM     75  C   UNL A   1      47.253  27.945  26.605  1.00  0.00     0.023 A 
ATOM     76  C   UNL A   1      48.335  27.638  27.453  1.00  0.00     0.012 A 
ATOM     77  C   UNL A   1      47.434  27.868  25.209  1.00  0.00     0.148 A 
ATOM     78  C   UNL A   1      49.579  27.289  26.925  1.00  0.00     0.002 A 
ATOM     79  C   UNL A   1      48.658  27.462  24.691  1.00  0.00     0.091 A 
ATOM     80  F   UNL A   1      46.397  28.176  24.418  1.00  0.00    -0.205 F 
ATOM     81  C   UNL A   1      49.737  27.190  25.545  1.00  0.00     0.022 A 
BRANCH  79  82
ATOM     82  S   UNL A   1      48.916  27.171  22.936  1.00  0.00     0.127 S 
ATOM     83  O   UNL A   1      50.373  27.125  22.851  1.00  0.00    -0.237 OA
ATOM     84  O   UNL A   1      48.247  25.884  22.745  1.00  0.00    -0.237 OA
ATOM     85  O   UNL A   1      48.278  28.288  22.253  1.00  0.00    -0.744 OA
ENDBRANCH  79  82
ENDBRANCH  51  75
BRANCH  63  86
ATOM     86  C   UNL A   1      44.880  33.532  30.085  1.00  0.00     0.023 A 
ATOM     87  C   UNL A   1      45.603  33.613  31.291  1.00  0.00     0.012 A 
ATOM     88  C   UNL A   1      44.851  34.645  29.219  1.00  0.00     0.148 A 
ATOM     89  C   UNL A   1      46.266  34.788  31.643  1.00  0.00     0.002 A 
ATOM     90  C   UNL A   1      45.560  35.793  29.550  1.00  0.00     0.091 A 
ATOM     91  F   UNL A   1      44.146  34.553  28.082  1.00  0.00    -0.205 F 
ATOM     92  C   UNL A   1      46.256  35.871  30.767  1.00  0.00     0.022 A 
BRANCH  90  93
ATOM     93  S   UNL A   1      45.701  37.197  28.437  1.00  0.00     0.127 S 
ATOM     94  O   UNL A   1      44.305  37.419  28.062  1.00  0.00    -0.237 OA
ATOM     95  O   UNL A   1      46.270  38.225  29.307  1.00  0.00    -0.237 OA
ATOM     96  O   UNL A   1      46.575  36.767  27.355  1.00  0.00    -0.744 OA
ENDBRANCH  90  93
ENDBRANCH  63  86
ENDBRANCH  37  38
ENDBRANCH  29  32
ENDBRANCH  27  28
ENDBRANCH   1  27
TORSDOF 16
ENDMDL
MODEL 3
REMARK VINA RESULT:     -12.4      5.750      9.272
REMARK SMILES Nc1c(N2CCCC2)ncnc1N1CCC(C(=O)NCCCNC(=O)c2ccc(-c3c4nc(c(-c5cccc(S(=O)(=O)[O-])c5F)c5ccc([nH]5)c(-c5cccc(S(=O)(=O)[O-])c5F)c5nc(c(-c6cccc(S(=O)(=O)[O-])c6F)c6ccc3[nH]6)C=C5)C=C4)cc2)CC1
REMARK SMILES IDX 21 1 20 2 19 3 17 4 18 5 16 7 13 8 14 9 90 10 15 11 89 12
REMARK SMILES IDX 12 13 2 14 3 15 9 16 11 17 10 18 1 19 4 22 5 23 8 24 6 25
REMARK SMILES IDX 7 26 22 27 23 28 24 29 25 31 26 32 27 33 88 34 28 35 87 36
REMARK SMILES IDX 29 37 30 38 31 39 81 40 32 41 86 42 80 43 82 44 33 45 85 46
REMARK SMILES IDX 79 47 78 48 34 50 66 51 46 52 65 53 47 54 50 55 64 56 83 57
REMARK SMILES IDX 48 58 49 59 63 61 84 62 51 63 35 64 36 65 44 66 37 67 39 68
REMARK SMILES IDX 45 69 38 70 40 71 41 72 42 73 43 74 67 75 68 76 76 77 69 78
REMARK SMILES IDX 71 79 77 80 70 81 72 82 73 83 74 84 75 85 52 86 53 87 61 88
REMARK SMILES IDX 54 89 56 90 62 91 55 92 57 93 58 94 59 95 60 96
REMARK H PARENT 19 6 1 20 1 21 23 30 82 49 50 60
REMARK Flexibility Score: inf
ROOT
ATOM      1  C   UNL A   1      31.381  32.582  26.780  1.00  0.00     0.042 C 
ENDROOT
BRANCH   1   2
ATOM      2  C   UNL A   1      31.450  31.204  26.136  1.00  0.00     0.117 C 
BRANCH   2   3
ATOM      3  N   UNL A   1      32.520  30.383  26.691  1.00  0.00    -0.356 N 
ATOM      4  C   UNL A   1      32.727  29.037  26.637  1.00  0.00     0.223 C 
ATOM      5  O   UNL A   1      33.734  28.582  27.186  1.00  0.00    -0.275 OA
ATOM      6  H   UNL A   1      33.206  30.884  27.187  1.00  0.00     0.163 HD
BRANCH   4   7
ATOM      7  C   UNL A   1      31.775  28.117  25.892  1.00  0.00     0.082 C 
ATOM      8  N   UNL A   1      31.575  25.569  24.709  1.00  0.00    -0.355 N 
ATOM      9  C   UNL A   1      31.606  26.679  23.781  1.00  0.00     0.119 C 
ATOM     10  C   UNL A   1      30.870  25.729  25.962  1.00  0.00     0.119 C 
ATOM     11  C   UNL A   1      32.250  27.880  24.450  1.00  0.00     0.035 C 
ATOM     12  C   UNL A   1      31.487  26.873  26.747  1.00  0.00     0.035 C 
BRANCH   8  13
ATOM     13  C   UNL A   1      32.068  24.342  24.302  1.00  0.00     0.157 A 
ATOM     14  C   UNL A   1      33.363  23.933  24.643  1.00  0.00     0.118 A 
ATOM     15  C   UNL A   1      33.802  22.711  24.107  1.00  0.00     0.157 A 
ATOM     16  N   UNL A   1      33.031  21.963  23.305  1.00  0.00    -0.217 NA
ATOM     17  N   UNL A   1      31.258  23.564  23.563  1.00  0.00    -0.217 NA
ATOM     18  C   UNL A   1      31.786  22.421  23.096  1.00  0.00     0.226 A 
BRANCH  14  19
ATOM     19  N   UNL A   1      34.235  24.747  25.396  1.00  0.00    -0.393 N 
ATOM     20  H   UNL A   1      34.879  25.334  24.939  1.00  0.00     0.156 HD
ATOM     21  H   UNL A   1      34.201  24.728  26.381  1.00  0.00     0.156 HD
ENDBRANCH  14  19
BRANCH  15  22
ATOM     22  N   UNL A   1      35.068  22.266  24.441  1.00  0.00    -0.355 N 
ATOM     23  C   UNL A   1      35.243  20.966  25.059  1.00  0.00     0.118 C 
ATOM     24  C   UNL A   1      36.236  22.619  23.659  1.00  0.00     0.118 C 
ATOM     25  C   UNL A   1      36.694  21.079  25.501  1.00  0.00     0.023 C 
ATOM     26  C   UNL A   1      37.359  21.806  24.330  1.00  0.00     0.023 C 
ENDBRANCH  15  22
ENDBRANCH   8  13
ENDBRANCH   4   7
ENDBRANCH   2   3
ENDBRANCH   1   2
BRANCH   1  27
ATOM     27  C   UNL A   1      32.714  33.068  27.325  1.00  0.00     0.118 C 
BRANCH  27  28
ATOM     28  N   UNL A   1      32.642  34.427  27.847  1.00  0.00    -0.352 N 
ATOM     29  C   UNL A   1      33.313  34.999  28.898  1.00  0.00     0.251 C 
ATOM     30  H   UNL A   1      32.019  35.024  27.374  1.00  0.00     0.163 HD
ATOM     31  O   UNL A   1      32.965  36.104  29.312  1.00  0.00    -0.269 OA
BRANCH  29  32
ATOM     32  C   UNL A   1      34.438  34.288  29.539  1.00  0.00     0.039 A 
ATOM     33  C   UNL A   1      35.735  34.496  29.061  1.00  0.00     0.014 A 
ATOM     34  C   UNL A   1      34.217  33.409  30.603  1.00  0.00     0.014 A 
ATOM     35  C   UNL A   1      36.812  33.870  29.690  1.00  0.00     0.010 A 
ATOM     36  C   UNL A   1      35.296  32.862  31.285  1.00  0.00     0.010 A 
ATOM     37  C   UNL A   1      36.604  33.073  30.828  1.00  0.00    -0.014 A 
BRANCH  37  38
ATOM     38  C   UNL A   1      37.737  32.436  31.545  1.00  0.00     0.031 A 
ATOM     39  C   UNL A   1      38.469  31.280  30.917  1.00  0.00     0.074 A 
ATOM     40  C   UNL A   1      38.062  32.852  32.786  1.00  0.00     0.049 A 
ATOM     41  N   UNL A   1      39.440  30.556  31.408  1.00  0.00    -0.248 NA
ATOM     42  C   UNL A   1      38.039  30.867  29.570  1.00  0.00     0.031 C 
ATOM     43  C   UNL A   1      37.386  33.923  33.522  1.00  0.00     0.029 A 
ATOM     44  N   UNL A   1      39.029  32.411  33.655  1.00  0.00    -0.354 N 
ATOM     45  C   UNL A   1      39.720  29.593  30.447  1.00  0.00     0.074 A 
ATOM     46  C   UNL A   1      38.786  29.793  29.361  1.00  0.00     0.031 C 
ATOM     47  C   UNL A   1      37.970  34.066  34.724  1.00  0.00     0.029 A 
ATOM     48  C   UNL A   1      39.033  33.076  34.860  1.00  0.00     0.049 A 
ATOM     49  H   UNL A   1      39.659  31.688  33.437  1.00  0.00     0.167 HD
ATOM     50  C   UNL A   1      40.690  28.650  30.450  1.00  0.00     0.034 A 
ATOM     51  C   UNL A   1      39.804  32.905  35.952  1.00  0.00     0.034 A 
ATOM     52  C   UNL A   1      41.643  28.484  31.514  1.00  0.00     0.049 A 
ATOM     53  C   UNL A   1      40.883  31.853  35.924  1.00  0.00     0.074 A 
ATOM     54  C   UNL A   1      42.704  27.598  31.582  1.00  0.00     0.029 A 
ATOM     55  N   UNL A   1      41.653  29.214  32.692  1.00  0.00    -0.354 N 
ATOM     56  N   UNL A   1      41.216  31.039  34.952  1.00  0.00    -0.248 NA
ATOM     57  C   UNL A   1      41.714  31.719  37.129  1.00  0.00     0.031 C 
ATOM     58  C   UNL A   1      43.338  27.775  32.814  1.00  0.00     0.029 A 
ATOM     59  C   UNL A   1      42.696  28.795  33.499  1.00  0.00     0.049 A 
ATOM     60  H   UNL A   1      41.012  29.926  32.921  1.00  0.00     0.167 HD
ATOM     61  C   UNL A   1      42.314  30.322  35.413  1.00  0.00     0.074 A 
ATOM     62  C   UNL A   1      42.604  30.814  36.743  1.00  0.00     0.031 C 
ATOM     63  C   UNL A   1      43.007  29.332  34.798  1.00  0.00     0.034 A 
BRANCH  50  64
ATOM     64  C   UNL A   1      40.824  27.764  29.238  1.00  0.00     0.023 A 
ATOM     65  C   UNL A   1      40.018  26.611  29.133  1.00  0.00     0.012 A 
ATOM     66  C   UNL A   1      41.664  28.120  28.165  1.00  0.00     0.148 A 
ATOM     67  C   UNL A   1      40.060  25.816  27.988  1.00  0.00     0.002 A 
ATOM     68  C   UNL A   1      41.663  27.351  27.007  1.00  0.00     0.091 A 
ATOM     69  F   UNL A   1      42.436  29.208  28.293  1.00  0.00    -0.205 F 
ATOM     70  C   UNL A   1      40.871  26.194  26.922  1.00  0.00     0.022 A 
BRANCH  68  71
ATOM     71  S   UNL A   1      42.600  27.797  25.541  1.00  0.00     0.127 S 
ATOM     72  O   UNL A   1      43.953  27.926  26.083  1.00  0.00    -0.237 OA
ATOM     73  O   UNL A   1      42.396  26.630  24.683  1.00  0.00    -0.237 OA
ATOM     74  O   UNL A   1      42.011  29.033  25.044  1.00  0.00    -0.744 OA
ENDBRANCH  68  71
ENDBRANCH  50  64
BRANCH  51  75
ATOM     75  C   UNL A   1      39.634  33.800  37.133  1.00  0.00     0.023 A 
ATOM     76  C   UNL A   1      40.102  35.127  37.065  1.00  0.00     0.012 A 
ATOM     77  C   UNL A   1      38.980  33.364  38.303  1.00  0.00     0.148 A 
ATOM     78  C   UNL A   1      39.949  35.994  38.146  1.00  0.00     0.002 A 
ATOM     79  C   UNL A   1      38.777  34.251  39.354  1.00  0.00     0.091 A 
ATOM     80  F   UNL A   1      38.552  32.095  38.355  1.00  0.00    -0.205 F 
ATOM     81  C   UNL A   1      39.277  35.561  39.286  1.00  0.00     0.022 A 
BRANCH  79  82
ATOM     82  S   UNL A   1      37.803  33.826  40.803  1.00  0.00     0.127 S 
ATOM     83  O   UNL A   1      36.653  33.153  40.205  1.00  0.00    -0.237 OA
ATOM     84  O   UNL A   1      38.719  32.950  41.534  1.00  0.00    -0.237 OA
ATOM     85  O   UNL A   1      37.517  35.089  41.471  1.00  0.00    -0.744 OA
ENDBRANCH  79  82
ENDBRANCH  51  75
BRANCH  63  86
ATOM     86  C   UNL A   1      44.171  28.719  35.535  1.00  0.00     0.023 A 
ATOM     87  C   UNL A   1      45.463  29.257  35.370  1.00  0.00     0.012 A 
ATOM     88  C   UNL A   1      43.966  27.686  36.472  1.00  0.00     0.148 A 
ATOM     89  C   UNL A   1      46.537  28.759  36.107  1.00  0.00     0.002 A 
ATOM     90  C   UNL A   1      45.030  27.233  37.243  1.00  0.00     0.091 A 
ATOM     91  F   UNL A   1      42.732  27.177  36.604  1.00  0.00    -0.205 F 
ATOM     92  C   UNL A   1      46.318  27.759  37.052  1.00  0.00     0.022 A 
BRANCH  90  93
ATOM     93  S   UNL A   1      44.827  26.030  38.562  1.00  0.00     0.127 S 
ATOM     94  O   UNL A   1      46.195  25.904  39.062  1.00  0.00    -0.237 OA
ATOM     95  O   UNL A   1      43.907  26.718  39.468  1.00  0.00    -0.237 OA
ATOM     96  O   UNL A   1      44.280  24.835  37.936  1.00  0.00    -0.744 OA
ENDBRANCH  90  93
ENDBRANCH  63  86
ENDBRANCH  37  38
ENDBRANCH  29  32
ENDBRANCH  27  28
ENDBRANCH   1  27
TORSDOF 16
ENDMDL
