MODEL 1
REMARK VINA RESULT:     -13.8      0.000      0.000
REMARK SMILES COc1ccc(-c2[nH]nc3nc(-c4ccc(C(F)(F)F)cc4)cc(C(=O)NCCCNC(=O)c4ccc(-c5c6nc(c(-c7cccc(S(=O)(=O)[O-])c7F)c7ccc([nH]7)c(-c7cccc(S(=O)(=O)[O-])c7F)c7nc(c(-c8cccc(S(=O)(=O)[O-])c8F)c8ccc5[nH]8)C=C7)C=C6)cc4)c23)cc1
REMARK SMILES IDX 29 1 28 2 27 3 25 4 26 5 24 7 7 8 8 9 97 10 9 11 10 13 11 14
REMARK SMILES IDX 23 15 12 16 6 17 3 18 4 19 99 20 5 21 98 22 2 23 1 24 13 25
REMARK SMILES IDX 14 26 22 27 15 28 21 29 16 30 17 31 18 32 19 33 20 34 30 35
REMARK SMILES IDX 31 36 32 37 33 39 34 40 35 41 96 42 36 43 95 44 37 45 38 46
REMARK SMILES IDX 39 47 89 48 40 49 94 50 88 51 90 52 41 53 93 54 87 55 86 56
REMARK SMILES IDX 42 58 74 59 54 60 73 61 55 62 58 63 72 64 91 65 56 66 57 67
REMARK SMILES IDX 71 69 92 70 59 71 43 72 44 73 52 74 45 75 47 76 53 77 46 78
REMARK SMILES IDX 48 79 49 80 50 81 51 82 75 83 76 84 84 85 77 86 79 87 85 88
REMARK SMILES IDX 78 89 80 90 81 91 82 92 83 93 60 94 61 95 69 96 62 97 64 98
REMARK SMILES IDX 70 99 63 100 65 101 66 102 67 103 68 104
REMARK H PARENT 27 6 8 12 31 38 90 57 58 68
REMARK Flexibility Score: inf
ROOT
ATOM      1  C   UNL A   1      32.295  30.110  25.959  1.00  0.00     0.042 C 
ENDROOT
BRANCH   1   2
ATOM      2  C   UNL A   1      33.016  28.766  25.852  1.00  0.00     0.118 C 
BRANCH   2   3
ATOM      3  N   UNL A   1      32.142  27.656  26.167  1.00  0.00    -0.352 N 
ATOM      4  C   UNL A   1      32.188  26.317  25.883  1.00  0.00     0.252 C 
ATOM      5  O   UNL A   1      31.534  25.619  26.647  1.00  0.00    -0.269 OA
ATOM      6  H   UNL A   1      31.350  27.917  26.691  1.00  0.00     0.163 HD
BRANCH   4   7
ATOM      7  C   UNL A   1      33.046  25.731  24.828  1.00  0.00     0.055 A 
ATOM      8  C   UNL A   1      31.646  25.961  22.733  1.00  0.00     0.075 A 
ATOM      9  N   UNL A   1      31.832  25.403  21.490  1.00  0.00    -0.275 N 
ATOM     10  C   UNL A   1      32.706  25.487  23.487  1.00  0.00     0.059 A 
ATOM     11  N   UNL A   1      32.896  24.590  21.377  1.00  0.00    -0.154 NA
ATOM     12  H   UNL A   1      31.230  25.588  20.734  1.00  0.00     0.190 HD
ATOM     13  C   UNL A   1      33.468  24.660  22.579  1.00  0.00     0.182 A 
ATOM     14  N   UNL A   1      34.609  24.014  22.946  1.00  0.00    -0.226 NA
ATOM     15  C   UNL A   1      34.323  25.217  25.069  1.00  0.00     0.043 A 
ATOM     16  C   UNL A   1      34.999  24.330  24.206  1.00  0.00     0.074 A 
BRANCH   8  17
ATOM     17  C   UNL A   1      30.531  26.876  22.964  1.00  0.00     0.001 A 
ATOM     18  C   UNL A   1      28.333  28.617  23.230  1.00  0.00     0.118 A 
ATOM     19  C   UNL A   1      29.511  29.051  22.621  1.00  0.00     0.047 A 
ATOM     20  C   UNL A   1      28.259  27.314  23.723  1.00  0.00     0.047 A 
ATOM     21  C   UNL A   1      30.606  28.193  22.494  1.00  0.00     0.014 A 
ATOM     22  C   UNL A   1      29.360  26.451  23.604  1.00  0.00     0.014 A 
BRANCH  18  23
ATOM     23  O   UNL A   1      27.324  29.543  23.239  1.00  0.00    -0.497 OA
ATOM     24  C   UNL A   1      27.750  30.901  23.328  1.00  0.00     0.278 C 
ENDBRANCH  18  23
ENDBRANCH   8  17
BRANCH  16  25
ATOM     25  C   UNL A   1      36.146  23.590  24.772  1.00  0.00     0.000 A 
ATOM     26  C   UNL A   1      36.490  22.309  24.335  1.00  0.00     0.011 A 
ATOM     27  C   UNL A   1      36.986  24.215  25.720  1.00  0.00     0.011 A 
ATOM     28  C   UNL A   1      37.641  21.673  24.824  1.00  0.00     0.014 A 
ATOM     29  C   UNL A   1      38.133  23.584  26.210  1.00  0.00     0.014 A 
ATOM     30  C   UNL A   1      38.471  22.301  25.769  1.00  0.00     0.056 A 
BRANCH  30  31
ATOM     31  C   UNL A   1      39.691  21.591  26.305  1.00  0.00     0.416 C 
ATOM     32  F   UNL A   1      40.844  22.030  25.728  1.00  0.00    -0.166 F 
ATOM     33  F   UNL A   1      39.855  21.763  27.646  1.00  0.00    -0.166 F 
ATOM     34  F   UNL A   1      39.671  20.242  26.105  1.00  0.00    -0.166 F 
ENDBRANCH  30  31
ENDBRANCH  16  25
ENDBRANCH   4   7
ENDBRANCH   2   3
ENDBRANCH   1   2
BRANCH   1  35
ATOM     35  C   UNL A   1      32.644  30.770  27.272  1.00  0.00     0.118 C 
BRANCH  35  36
ATOM     36  N   UNL A   1      32.405  32.224  27.243  1.00  0.00    -0.352 N 
ATOM     37  C   UNL A   1      32.994  33.211  28.022  1.00  0.00     0.251 C 
ATOM     38  H   UNL A   1      31.742  32.536  26.586  1.00  0.00     0.163 HD
ATOM     39  O   UNL A   1      32.526  34.325  28.107  1.00  0.00    -0.269 OA
BRANCH  37  40
ATOM     40  C   UNL A   1      34.273  32.860  28.655  1.00  0.00     0.039 A 
ATOM     41  C   UNL A   1      34.468  32.476  29.978  1.00  0.00     0.014 A 
ATOM     42  C   UNL A   1      35.374  33.011  27.843  1.00  0.00     0.014 A 
ATOM     43  C   UNL A   1      35.792  32.255  30.380  1.00  0.00     0.010 A 
ATOM     44  C   UNL A   1      36.406  32.184  28.083  1.00  0.00     0.010 A 
ATOM     45  C   UNL A   1      36.790  32.230  29.390  1.00  0.00    -0.014 A 
BRANCH  45  46
ATOM     46  C   UNL A   1      38.170  31.827  29.536  1.00  0.00     0.031 A 
ATOM     47  C   UNL A   1      38.364  30.484  28.938  1.00  0.00     0.074 A 
ATOM     48  C   UNL A   1      39.139  32.694  29.934  1.00  0.00     0.049 A 
ATOM     49  N   UNL A   1      38.240  29.376  29.591  1.00  0.00    -0.248 NA
ATOM     50  C   UNL A   1      38.321  30.292  27.473  1.00  0.00     0.031 C 
ATOM     51  C   UNL A   1      39.080  34.123  30.292  1.00  0.00     0.029 A 
ATOM     52  N   UNL A   1      40.463  32.440  30.095  1.00  0.00    -0.354 N 
ATOM     53  C   UNL A   1      38.504  28.380  28.665  1.00  0.00     0.074 A 
ATOM     54  C   UNL A   1      38.231  28.959  27.382  1.00  0.00     0.031 C 
ATOM     55  C   UNL A   1      40.337  34.633  30.408  1.00  0.00     0.029 A 
ATOM     56  C   UNL A   1      41.291  33.548  30.293  1.00  0.00     0.049 A 
ATOM     57  H   UNL A   1      40.819  31.523  30.074  1.00  0.00     0.167 HD
ATOM     58  C   UNL A   1      39.268  27.317  29.034  1.00  0.00     0.034 A 
ATOM     59  C   UNL A   1      42.656  33.533  30.400  1.00  0.00     0.034 A 
ATOM     60  C   UNL A   1      39.449  27.316  30.472  1.00  0.00     0.049 A 
ATOM     61  C   UNL A   1      43.016  32.146  30.803  1.00  0.00     0.074 A 
ATOM     62  C   UNL A   1      38.610  27.225  31.564  1.00  0.00     0.029 A 
ATOM     63  N   UNL A   1      40.594  27.938  30.914  1.00  0.00    -0.354 N 
ATOM     64  N   UNL A   1      42.649  31.655  31.956  1.00  0.00    -0.248 NA
ATOM     65  C   UNL A   1      43.217  31.180  29.731  1.00  0.00     0.031 C 
ATOM     66  C   UNL A   1      39.106  28.194  32.491  1.00  0.00     0.029 A 
ATOM     67  C   UNL A   1      40.287  28.738  31.983  1.00  0.00     0.049 A 
ATOM     68  H   UNL A   1      41.491  27.827  30.523  1.00  0.00     0.167 HD
ATOM     69  C   UNL A   1      42.113  30.412  31.645  1.00  0.00     0.074 A 
ATOM     70  C   UNL A   1      42.522  30.162  30.253  1.00  0.00     0.031 C 
ATOM     71  C   UNL A   1      41.091  29.876  32.379  1.00  0.00     0.034 A 
BRANCH  58  72
ATOM     72  C   UNL A   1      40.234  26.575  28.139  1.00  0.00     0.023 A 
ATOM     73  C   UNL A   1      40.410  25.201  28.417  1.00  0.00     0.012 A 
ATOM     74  C   UNL A   1      41.169  27.178  27.264  1.00  0.00     0.148 A 
ATOM     75  C   UNL A   1      41.493  24.481  27.908  1.00  0.00     0.002 A 
ATOM     76  C   UNL A   1      42.216  26.445  26.717  1.00  0.00     0.091 A 
ATOM     77  F   UNL A   1      41.125  28.491  27.035  1.00  0.00    -0.205 F 
ATOM     78  C   UNL A   1      42.399  25.103  27.060  1.00  0.00     0.022 A 
BRANCH  76  79
ATOM     79  S   UNL A   1      43.422  27.174  25.598  1.00  0.00     0.127 S 
ATOM     80  O   UNL A   1      44.107  25.988  25.091  1.00  0.00    -0.237 OA
ATOM     81  O   UNL A   1      42.554  27.850  24.634  1.00  0.00    -0.237 OA
ATOM     82  O   UNL A   1      44.231  28.071  26.414  1.00  0.00    -0.744 OA
ENDBRANCH  76  79
ENDBRANCH  58  72
BRANCH  59  83
ATOM     83  C   UNL A   1      43.646  34.415  29.708  1.00  0.00     0.023 A 
ATOM     84  C   UNL A   1      44.562  35.226  30.422  1.00  0.00     0.012 A 
ATOM     85  C   UNL A   1      43.891  34.230  28.330  1.00  0.00     0.148 A 
ATOM     86  C   UNL A   1      45.656  35.839  29.780  1.00  0.00     0.002 A 
ATOM     87  C   UNL A   1      44.984  34.826  27.702  1.00  0.00     0.091 A 
ATOM     88  F   UNL A   1      43.104  33.384  27.653  1.00  0.00    -0.205 F 
ATOM     89  C   UNL A   1      45.867  35.640  28.419  1.00  0.00     0.022 A 
BRANCH  87  90
ATOM     90  S   UNL A   1      45.330  34.545  25.963  1.00  0.00     0.127 S 
ATOM     91  O   UNL A   1      46.226  35.657  25.649  1.00  0.00    -0.237 OA
ATOM     92  O   UNL A   1      45.964  33.232  25.979  1.00  0.00    -0.237 OA
ATOM     93  O   UNL A   1      44.038  34.620  25.291  1.00  0.00    -0.744 OA
ENDBRANCH  87  90
ENDBRANCH  59  83
BRANCH  71  94
ATOM     94  C   UNL A   1      40.668  30.594  33.643  1.00  0.00     0.023 A 
ATOM     95  C   UNL A   1      41.457  30.674  34.815  1.00  0.00     0.012 A 
ATOM     96  C   UNL A   1      39.496  31.358  33.574  1.00  0.00     0.148 A 
ATOM     97  C   UNL A   1      41.063  31.475  35.899  1.00  0.00     0.002 A 
ATOM     98  C   UNL A   1      39.128  32.178  34.633  1.00  0.00     0.091 A 
ATOM     99  F   UNL A   1      38.781  31.301  32.442  1.00  0.00    -0.205 F 
ATOM    100  C   UNL A   1      39.900  32.231  35.804  1.00  0.00     0.022 A 
BRANCH  98 101
ATOM    101  S   UNL A   1      37.706  33.261  34.521  1.00  0.00     0.127 S 
ATOM    102  O   UNL A   1      37.511  33.651  35.916  1.00  0.00    -0.237 OA
ATOM    103  O   UNL A   1      38.200  34.328  33.648  1.00  0.00    -0.237 OA
ATOM    104  O   UNL A   1      36.632  32.464  33.942  1.00  0.00    -0.744 OA
ENDBRANCH  98 101
ENDBRANCH  71  94
ENDBRANCH  45  46
ENDBRANCH  37  40
ENDBRANCH  35  36
ENDBRANCH   1  35
TORSDOF 17
ENDMDL
MODEL 2
REMARK VINA RESULT:     -13.5      1.525      2.246
REMARK SMILES COc1ccc(-c2[nH]nc3nc(-c4ccc(C(F)(F)F)cc4)cc(C(=O)NCCCNC(=O)c4ccc(-c5c6nc(c(-c7cccc(S(=O)(=O)[O-])c7F)c7ccc([nH]7)c(-c7cccc(S(=O)(=O)[O-])c7F)c7nc(c(-c8cccc(S(=O)(=O)[O-])c8F)c8ccc5[nH]8)C=C7)C=C6)cc4)c23)cc1
REMARK SMILES IDX 29 1 28 2 27 3 25 4 26 5 24 7 7 8 8 9 97 10 9 11 10 13 11 14
REMARK SMILES IDX 23 15 12 16 6 17 3 18 4 19 99 20 5 21 98 22 2 23 1 24 13 25
REMARK SMILES IDX 14 26 22 27 15 28 21 29 16 30 17 31 18 32 19 33 20 34 30 35
REMARK SMILES IDX 31 36 32 37 33 39 34 40 35 41 96 42 36 43 95 44 37 45 38 46
REMARK SMILES IDX 39 47 89 48 40 49 94 50 88 51 90 52 41 53 93 54 87 55 86 56
REMARK SMILES IDX 42 58 74 59 54 60 73 61 55 62 58 63 72 64 91 65 56 66 57 67
REMARK SMILES IDX 71 69 92 70 59 71 43 72 44 73 52 74 45 75 47 76 53 77 46 78
REMARK SMILES IDX 48 79 49 80 50 81 51 82 75 83 76 84 84 85 77 86 79 87 85 88
REMARK SMILES IDX 78 89 80 90 81 91 82 92 83 93 60 94 61 95 69 96 62 97 64 98
REMARK SMILES IDX 70 99 63 100 65 101 66 102 67 103 68 104
REMARK H PARENT 27 6 8 12 31 38 90 57 58 68
REMARK Flexibility Score: inf
ROOT
ATOM      1  C   UNL A   1      31.619  31.054  26.210  1.00  0.00     0.042 C 
ENDROOT
BRANCH   1   2
ATOM      2  C   UNL A   1      32.087  29.683  25.718  1.00  0.00     0.118 C 
BRANCH   2   3
ATOM      3  N   UNL A   1      32.517  29.722  24.337  1.00  0.00    -0.352 N 
ATOM      4  C   UNL A   1      32.206  28.967  23.237  1.00  0.00     0.252 C 
ATOM      5  O   UNL A   1      32.414  29.528  22.168  1.00  0.00    -0.269 OA
ATOM      6  H   UNL A   1      33.168  30.437  24.149  1.00  0.00     0.163 HD
BRANCH   4   7
ATOM      7  C   UNL A   1      31.560  27.637  23.310  1.00  0.00     0.055 A 
ATOM      8  C   UNL A   1      29.088  28.178  23.282  1.00  0.00     0.075 A 
ATOM      9  N   UNL A   1      28.010  27.364  23.542  1.00  0.00    -0.275 N 
ATOM     10  C   UNL A   1      30.191  27.359  23.454  1.00  0.00     0.059 A 
ATOM     11  N   UNL A   1      28.313  26.103  23.893  1.00  0.00    -0.154 NA
ATOM     12  H   UNL A   1      27.082  27.683  23.472  1.00  0.00     0.190 HD
ATOM     13  C   UNL A   1      29.643  26.068  23.805  1.00  0.00     0.182 A 
ATOM     14  N   UNL A   1      30.418  24.975  24.048  1.00  0.00    -0.226 NA
ATOM     15  C   UNL A   1      32.272  26.435  23.363  1.00  0.00     0.043 A 
ATOM     16  C   UNL A   1      31.732  25.211  23.808  1.00  0.00     0.074 A 
BRANCH   8  17
ATOM     17  C   UNL A   1      28.876  29.565  22.873  1.00  0.00     0.001 A 
ATOM     18  C   UNL A   1      28.281  32.205  22.094  1.00  0.00     0.118 A 
ATOM     19  C   UNL A   1      28.184  31.157  21.178  1.00  0.00     0.047 A 
ATOM     20  C   UNL A   1      28.694  31.935  23.399  1.00  0.00     0.047 A 
ATOM     21  C   UNL A   1      28.485  29.848  21.558  1.00  0.00     0.014 A 
ATOM     22  C   UNL A   1      29.005  30.622  23.784  1.00  0.00     0.014 A 
BRANCH  18  23
ATOM     23  O   UNL A   1      27.906  33.427  21.601  1.00  0.00    -0.497 OA
ATOM     24  C   UNL A   1      27.390  33.411  20.272  1.00  0.00     0.278 C 
ENDBRANCH  18  23
ENDBRANCH   8  17
BRANCH  16  25
ATOM     25  C   UNL A   1      32.693  24.148  24.165  1.00  0.00     0.000 A 
ATOM     26  C   UNL A   1      32.560  22.839  23.694  1.00  0.00     0.011 A 
ATOM     27  C   UNL A   1      33.837  24.462  24.930  1.00  0.00     0.011 A 
ATOM     28  C   UNL A   1      33.542  21.876  23.972  1.00  0.00     0.014 A 
ATOM     29  C   UNL A   1      34.817  23.505  25.211  1.00  0.00     0.014 A 
ATOM     30  C   UNL A   1      34.677  22.197  24.736  1.00  0.00     0.056 A 
BRANCH  30  31
ATOM     31  C   UNL A   1      35.710  21.142  25.050  1.00  0.00     0.416 C 
ATOM     32  F   UNL A   1      36.820  21.253  24.268  1.00  0.00    -0.166 F 
ATOM     33  F   UNL A   1      36.151  21.200  26.336  1.00  0.00    -0.166 F 
ATOM     34  F   UNL A   1      35.261  19.867  24.870  1.00  0.00    -0.166 F 
ENDBRANCH  30  31
ENDBRANCH  16  25
ENDBRANCH   4   7
ENDBRANCH   2   3
ENDBRANCH   1   2
BRANCH   1  35
ATOM     35  C   UNL A   1      32.613  31.601  27.207  1.00  0.00     0.118 C 
BRANCH  35  36
ATOM     36  N   UNL A   1      32.450  33.051  27.414  1.00  0.00    -0.352 N 
ATOM     37  C   UNL A   1      33.077  33.865  28.348  1.00  0.00     0.251 C 
ATOM     38  H   UNL A   1      31.815  33.501  26.812  1.00  0.00     0.163 HD
ATOM     39  O   UNL A   1      32.667  34.973  28.610  1.00  0.00    -0.269 OA
BRANCH  37  40
ATOM     40  C   UNL A   1      34.326  33.347  28.924  1.00  0.00     0.039 A 
ATOM     41  C   UNL A   1      34.472  32.696  30.144  1.00  0.00     0.014 A 
ATOM     42  C   UNL A   1      35.454  33.621  28.184  1.00  0.00     0.014 A 
ATOM     43  C   UNL A   1      35.776  32.351  30.522  1.00  0.00     0.010 A 
ATOM     44  C   UNL A   1      36.453  32.726  28.273  1.00  0.00     0.010 A 
ATOM     45  C   UNL A   1      36.801  32.492  29.569  1.00  0.00    -0.014 A 
BRANCH  45  46
ATOM     46  C   UNL A   1      38.163  32.019  29.661  1.00  0.00     0.031 A 
ATOM     47  C   UNL A   1      38.268  30.676  29.040  1.00  0.00     0.074 A 
ATOM     48  C   UNL A   1      39.188  32.831  30.034  1.00  0.00     0.049 A 
ATOM     49  N   UNL A   1      38.112  29.567  29.682  1.00  0.00    -0.248 NA
ATOM     50  C   UNL A   1      38.164  30.508  27.575  1.00  0.00     0.031 C 
ATOM     51  C   UNL A   1      39.214  34.256  30.412  1.00  0.00     0.029 A 
ATOM     52  N   UNL A   1      40.502  32.509  30.144  1.00  0.00    -0.354 N 
ATOM     53  C   UNL A   1      38.292  28.572  28.735  1.00  0.00     0.074 A 
ATOM     54  C   UNL A   1      38.003  29.183  27.470  1.00  0.00     0.031 C 
ATOM     55  C   UNL A   1      40.498  34.700  30.489  1.00  0.00     0.029 A 
ATOM     56  C   UNL A   1      41.392  33.571  30.326  1.00  0.00     0.049 A 
ATOM     57  H   UNL A   1      40.811  31.575  30.099  1.00  0.00     0.167 HD
ATOM     58  C   UNL A   1      39.015  27.467  29.062  1.00  0.00     0.034 A 
ATOM     59  C   UNL A   1      42.757  33.486  30.384  1.00  0.00     0.034 A 
ATOM     60  C   UNL A   1      39.246  27.436  30.493  1.00  0.00     0.049 A 
ATOM     61  C   UNL A   1      43.061  32.078  30.756  1.00  0.00     0.074 A 
ATOM     62  C   UNL A   1      38.443  27.372  31.614  1.00  0.00     0.029 A 
ATOM     63  N   UNL A   1      40.436  27.995  30.901  1.00  0.00    -0.354 N 
ATOM     64  N   UNL A   1      42.711  31.589  31.915  1.00  0.00    -0.248 NA
ATOM     65  C   UNL A   1      43.175  31.119  29.665  1.00  0.00     0.031 C 
ATOM     66  C   UNL A   1      39.019  28.302  32.534  1.00  0.00     0.029 A 
ATOM     67  C   UNL A   1      40.207  28.793  31.991  1.00  0.00     0.049 A 
ATOM     68  H   UNL A   1      41.312  27.844  30.477  1.00  0.00     0.167 HD
ATOM     69  C   UNL A   1      42.103  30.379  31.608  1.00  0.00     0.074 A 
ATOM     70  C   UNL A   1      42.449  30.129  30.200  1.00  0.00     0.031 C 
ATOM     71  C   UNL A   1      41.081  29.884  32.372  1.00  0.00     0.034 A 
BRANCH  58  72
ATOM     72  C   UNL A   1      39.910  26.691  28.123  1.00  0.00     0.023 A 
ATOM     73  C   UNL A   1      39.915  25.288  28.287  1.00  0.00     0.012 A 
ATOM     74  C   UNL A   1      40.932  27.248  27.319  1.00  0.00     0.148 A 
ATOM     75  C   UNL A   1      40.919  24.488  27.737  1.00  0.00     0.002 A 
ATOM     76  C   UNL A   1      41.900  26.442  26.729  1.00  0.00     0.091 A 
ATOM     77  F   UNL A   1      41.050  28.571  27.202  1.00  0.00    -0.205 F 
ATOM     78  C   UNL A   1      41.913  25.064  26.960  1.00  0.00     0.022 A 
BRANCH  76  79
ATOM     79  S   UNL A   1      43.213  27.111  25.697  1.00  0.00     0.127 S 
ATOM     80  O   UNL A   1      43.865  25.892  25.225  1.00  0.00    -0.237 OA
ATOM     81  O   UNL A   1      42.447  27.837  24.684  1.00  0.00    -0.237 OA
ATOM     82  O   UNL A   1      44.013  27.960  26.570  1.00  0.00    -0.744 OA
ENDBRANCH  76  79
ENDBRANCH  58  72
BRANCH  59  83
ATOM     83  C   UNL A   1      43.765  34.328  29.668  1.00  0.00     0.023 A 
ATOM     84  C   UNL A   1      44.736  35.093  30.359  1.00  0.00     0.012 A 
ATOM     85  C   UNL A   1      43.961  34.141  28.282  1.00  0.00     0.148 A 
ATOM     86  C   UNL A   1      45.838  35.661  29.688  1.00  0.00     0.002 A 
ATOM     87  C   UNL A   1      45.061  34.692  27.625  1.00  0.00     0.091 A 
ATOM     88  F   UNL A   1      43.118  33.336  27.624  1.00  0.00    -0.205 F 
ATOM     89  C   UNL A   1      46.000  35.461  28.321  1.00  0.00     0.022 A 
BRANCH  87  90
ATOM     90  S   UNL A   1      45.343  34.407  25.876  1.00  0.00     0.127 S 
ATOM     91  O   UNL A   1      45.799  33.017  25.865  1.00  0.00    -0.237 OA
ATOM     92  O   UNL A   1      44.019  34.622  25.305  1.00  0.00    -0.237 OA
ATOM     93  O   UNL A   1      46.369  35.367  25.485  1.00  0.00    -0.744 OA
ENDBRANCH  87  90
ENDBRANCH  59  83
BRANCH  71  94
ATOM     94  C   UNL A   1      40.739  30.604  33.659  1.00  0.00     0.023 A 
ATOM     95  C   UNL A   1      41.592  30.664  34.788  1.00  0.00     0.012 A 
ATOM     96  C   UNL A   1      39.580  31.389  33.656  1.00  0.00     0.148 A 
ATOM     97  C   UNL A   1      41.272  31.467  35.893  1.00  0.00     0.002 A 
ATOM     98  C   UNL A   1      39.284  32.211  34.736  1.00  0.00     0.091 A 
ATOM     99  F   UNL A   1      38.804  31.350  32.564  1.00  0.00    -0.205 F 
ATOM    100  C   UNL A   1      40.119  32.245  35.864  1.00  0.00     0.022 A 
BRANCH  98 101
ATOM    101  S   UNL A   1      37.878  33.320  34.704  1.00  0.00     0.127 S 
ATOM    102  O   UNL A   1      37.930  33.912  36.039  1.00  0.00    -0.237 OA
ATOM    103  O   UNL A   1      38.230  34.231  33.614  1.00  0.00    -0.237 OA
ATOM    104  O   UNL A   1      36.711  32.489  34.438  1.00  0.00    -0.744 OA
ENDBRANCH  98 101
ENDBRANCH  71  94
ENDBRANCH  45  46
ENDBRANCH  37  40
ENDBRANCH  35  36
ENDBRANCH   1  35
TORSDOF 17
ENDMDL
MODEL 3
REMARK VINA RESULT:     -13.4      3.291      7.144
REMARK SMILES COc1ccc(-c2[nH]nc3nc(-c4ccc(C(F)(F)F)cc4)cc(C(=O)NCCCNC(=O)c4ccc(-c5c6nc(c(-c7cccc(S(=O)(=O)[O-])c7F)c7ccc([nH]7)c(-c7cccc(S(=O)(=O)[O-])c7F)c7nc(c(-c8cccc(S(=O)(=O)[O-])c8F)c8ccc5[nH]8)C=C7)C=C6)cc4)c23)cc1
REMARK SMILES IDX 29 1 28 2 27 3 25 4 26 5 24 7 7 8 8 9 97 10 9 11 10 13 11 14
REMARK SMILES IDX 23 15 12 16 6 17 3 18 4 19 99 20 5 21 98 22 2 23 1 24 13 25
REMARK SMILES IDX 14 26 22 27 15 28 21 29 16 30 17 31 18 32 19 33 20 34 30 35
REMARK SMILES IDX 31 36 32 37 33 39 34 40 35 41 96 42 36 43 95 44 37 45 38 46
REMARK SMILES IDX 39 47 89 48 40 49 94 50 88 51 90 52 41 53 93 54 87 55 86 56
REMARK SMILES IDX 42 58 74 59 54 60 73 61 55 62 58 63 72 64 91 65 56 66 57 67
REMARK SMILES IDX 71 69 92 70 59 71 43 72 44 73 52 74 45 75 47 76 53 77 46 78
REMARK SMILES IDX 48 79 49 80 50 81 51 82 75 83 76 84 84 85 77 86 79 87 85 88
REMARK SMILES IDX 78 89 80 90 81 91 82 92 83 93 60 94 61 95 69 96 62 97 64 98
REMARK SMILES IDX 70 99 63 100 65 101 66 102 67 103 68 104
REMARK H PARENT 27 6 8 12 31 38 90 57 58 68
REMARK Flexibility Score: inf
ROOT
ATOM      1  C   UNL A   1      33.589  28.605  26.491  1.00  0.00     0.042 C 
ENDROOT
BRANCH   1   2
ATOM      2  C   UNL A   1      32.718  29.620  25.749  1.00  0.00     0.118 C 
BRANCH   2   3
ATOM      3  N   UNL A   1      33.046  29.689  24.341  1.00  0.00    -0.352 N 
ATOM      4  C   UNL A   1      32.704  28.921  23.260  1.00  0.00     0.252 C 
ATOM      5  O   UNL A   1      32.802  29.497  22.184  1.00  0.00    -0.269 OA
ATOM      6  H   UNL A   1      33.638  30.443  24.114  1.00  0.00     0.163 HD
BRANCH   4   7
ATOM      7  C   UNL A   1      32.146  27.555  23.369  1.00  0.00     0.055 A 
ATOM      8  C   UNL A   1      29.645  27.941  23.433  1.00  0.00     0.075 A 
ATOM      9  N   UNL A   1      28.632  27.064  23.740  1.00  0.00    -0.275 N 
ATOM     10  C   UNL A   1      30.803  27.193  23.568  1.00  0.00     0.059 A 
ATOM     11  N   UNL A   1      29.026  25.827  24.089  1.00  0.00    -0.154 NA
ATOM     12  H   UNL A   1      27.683  27.323  23.705  1.00  0.00     0.190 HD
ATOM     13  C   UNL A   1      30.351  25.874  23.949  1.00  0.00     0.182 A 
ATOM     14  N   UNL A   1      31.202  24.834  24.170  1.00  0.00    -0.226 NA
ATOM     15  C   UNL A   1      32.933  26.400  23.402  1.00  0.00     0.043 A 
ATOM     16  C   UNL A   1      32.488  25.149  23.877  1.00  0.00     0.074 A 
BRANCH   8  17
ATOM     17  C   UNL A   1      29.332  29.307  23.022  1.00  0.00     0.001 A 
ATOM     18  C   UNL A   1      28.544  31.902  22.260  1.00  0.00     0.118 A 
ATOM     19  C   UNL A   1      28.400  30.830  21.379  1.00  0.00     0.047 A 
ATOM     20  C   UNL A   1      29.100  31.679  23.521  1.00  0.00     0.047 A 
ATOM     21  C   UNL A   1      28.797  29.543  21.750  1.00  0.00     0.014 A 
ATOM     22  C   UNL A   1      29.506  30.389  23.895  1.00  0.00     0.014 A 
BRANCH  18  23
ATOM     23  O   UNL A   1      28.067  33.095  21.786  1.00  0.00    -0.497 OA
ATOM     24  C   UNL A   1      27.647  33.080  20.424  1.00  0.00     0.278 C 
ENDBRANCH  18  23
ENDBRANCH   8  17
BRANCH  16  25
ATOM     25  C   UNL A   1      33.527  24.151  24.204  1.00  0.00     0.000 A 
ATOM     26  C   UNL A   1      33.697  22.984  23.454  1.00  0.00     0.011 A 
ATOM     27  C   UNL A   1      34.445  24.407  25.246  1.00  0.00     0.011 A 
ATOM     28  C   UNL A   1      34.754  22.104  23.731  1.00  0.00     0.014 A 
ATOM     29  C   UNL A   1      35.499  23.532  25.526  1.00  0.00     0.014 A 
ATOM     30  C   UNL A   1      35.662  22.366  24.771  1.00  0.00     0.056 A 
BRANCH  30  31
ATOM     31  C   UNL A   1      36.776  21.393  25.073  1.00  0.00     0.416 C 
ATOM     32  F   UNL A   1      36.311  20.154  25.397  1.00  0.00    -0.166 F 
ATOM     33  F   UNL A   1      37.620  21.213  24.020  1.00  0.00    -0.166 F 
ATOM     34  F   UNL A   1      37.566  21.773  26.118  1.00  0.00    -0.166 F 
ENDBRANCH  30  31
ENDBRANCH  16  25
ENDBRANCH   4   7
ENDBRANCH   2   3
ENDBRANCH   1   2
BRANCH   1  35
ATOM     35  C   UNL A   1      34.669  29.329  27.259  1.00  0.00     0.118 C 
BRANCH  35  36
ATOM     36  N   UNL A   1      34.495  30.792  27.214  1.00  0.00    -0.352 N 
ATOM     37  C   UNL A   1      35.223  31.768  27.883  1.00  0.00     0.251 C 
ATOM     38  H   UNL A   1      33.770  31.119  26.635  1.00  0.00     0.163 HD
ATOM     39  O   UNL A   1      34.821  32.905  27.990  1.00  0.00    -0.269 OA
BRANCH  37  40
ATOM     40  C   UNL A   1      36.553  31.370  28.362  1.00  0.00     0.039 A 
ATOM     41  C   UNL A   1      37.354  32.062  29.265  1.00  0.00     0.014 A 
ATOM     42  C   UNL A   1      37.054  30.229  27.778  1.00  0.00     0.014 A 
ATOM     43  C   UNL A   1      38.622  31.525  29.522  1.00  0.00     0.010 A 
ATOM     44  C   UNL A   1      37.885  29.491  28.535  1.00  0.00     0.010 A 
ATOM     45  C   UNL A   1      38.910  30.241  29.028  1.00  0.00    -0.014 A 
BRANCH  45  46
ATOM     46  C   UNL A   1      40.055  29.413  29.333  1.00  0.00     0.031 A 
ATOM     47  C   UNL A   1      40.258  29.364  30.802  1.00  0.00     0.074 A 
ATOM     48  C   UNL A   1      40.647  28.624  28.398  1.00  0.00     0.049 A 
ATOM     49  N   UNL A   1      41.004  30.190  31.457  1.00  0.00    -0.248 NA
ATOM     50  C   UNL A   1      39.320  28.627  31.674  1.00  0.00     0.031 C 
ATOM     51  C   UNL A   1      40.342  28.406  26.972  1.00  0.00     0.029 A 
ATOM     52  N   UNL A   1      41.712  27.798  28.565  1.00  0.00    -0.354 N 
ATOM     53  C   UNL A   1      40.911  29.789  32.780  1.00  0.00     0.074 A 
ATOM     54  C   UNL A   1      39.671  29.078  32.884  1.00  0.00     0.031 C 
ATOM     55  C   UNL A   1      41.062  27.356  26.491  1.00  0.00     0.029 A 
ATOM     56  C   UNL A   1      41.995  26.923  27.512  1.00  0.00     0.049 A 
ATOM     57  H   UNL A   1      42.256  27.816  29.385  1.00  0.00     0.167 HD
ATOM     58  C   UNL A   1      42.035  29.768  33.547  1.00  0.00     0.034 A 
ATOM     59  C   UNL A   1      42.965  25.958  27.497  1.00  0.00     0.034 A 
ATOM     60  C   UNL A   1      43.114  30.449  32.859  1.00  0.00     0.049 A 
ATOM     61  C   UNL A   1      43.961  26.367  28.524  1.00  0.00     0.074 A 
ATOM     62  C   UNL A   1      43.326  31.733  32.399  1.00  0.00     0.029 A 
ATOM     63  N   UNL A   1      43.938  29.632  32.120  1.00  0.00    -0.354 N 
ATOM     64  N   UNL A   1      44.664  27.460  28.394  1.00  0.00    -0.248 NA
ATOM     65  C   UNL A   1      43.719  25.921  29.890  1.00  0.00     0.031 C 
ATOM     66  C   UNL A   1      43.926  31.569  31.112  1.00  0.00     0.029 A 
ATOM     67  C   UNL A   1      44.168  30.211  30.899  1.00  0.00     0.049 A 
ATOM     68  H   UNL A   1      44.305  28.769  32.420  1.00  0.00     0.167 HD
ATOM     69  C   UNL A   1      44.546  28.093  29.624  1.00  0.00     0.074 A 
ATOM     70  C   UNL A   1      43.973  27.075  30.520  1.00  0.00     0.031 C 
ATOM     71  C   UNL A   1      44.556  29.458  29.725  1.00  0.00     0.034 A 
BRANCH  58  72
ATOM     72  C   UNL A   1      42.332  28.772  34.644  1.00  0.00     0.023 A 
ATOM     73  C   UNL A   1      42.824  29.308  35.854  1.00  0.00     0.012 A 
ATOM     74  C   UNL A   1      42.439  27.371  34.471  1.00  0.00     0.148 A 
ATOM     75  C   UNL A   1      43.448  28.507  36.813  1.00  0.00     0.002 A 
ATOM     76  C   UNL A   1      43.013  26.569  35.452  1.00  0.00     0.091 A 
ATOM     77  F   UNL A   1      42.089  26.807  33.315  1.00  0.00    -0.205 F 
ATOM     78  C   UNL A   1      43.545  27.137  36.612  1.00  0.00     0.022 A 
BRANCH  76  79
ATOM     79  S   UNL A   1      43.163  24.785  35.272  1.00  0.00     0.127 S 
ATOM     80  O   UNL A   1      43.847  24.677  33.986  1.00  0.00    -0.237 OA
ATOM     81  O   UNL A   1      43.976  24.442  36.439  1.00  0.00    -0.237 OA
ATOM     82  O   UNL A   1      41.803  24.265  35.311  1.00  0.00    -0.744 OA
ENDBRANCH  76  79
ENDBRANCH  58  72
BRANCH  59  83
ATOM     83  C   UNL A   1      42.840  24.529  27.073  1.00  0.00     0.023 A 
ATOM     84  C   UNL A   1      41.615  23.824  27.154  1.00  0.00     0.012 A 
ATOM     85  C   UNL A   1      43.868  23.945  26.302  1.00  0.00     0.148 A 
ATOM     86  C   UNL A   1      41.438  22.582  26.511  1.00  0.00     0.002 A 
ATOM     87  C   UNL A   1      43.684  22.724  25.654  1.00  0.00     0.091 A 
ATOM     88  F   UNL A   1      44.999  24.639  26.120  1.00  0.00    -0.205 F 
ATOM     89  C   UNL A   1      42.473  22.031  25.761  1.00  0.00     0.022 A 
BRANCH  87  90
ATOM     90  S   UNL A   1      44.969  22.009  24.626  1.00  0.00     0.127 S 
ATOM     91  O   UNL A   1      45.074  22.990  23.546  1.00  0.00    -0.237 OA
ATOM     92  O   UNL A   1      46.110  21.970  25.532  1.00  0.00    -0.237 OA
ATOM     93  O   UNL A   1      44.451  20.715  24.198  1.00  0.00    -0.744 OA
ENDBRANCH  87  90
ENDBRANCH  59  83
BRANCH  71  94
ATOM     94  C   UNL A   1      44.868  30.262  28.480  1.00  0.00     0.023 A 
ATOM     95  C   UNL A   1      43.888  30.763  27.590  1.00  0.00     0.012 A 
ATOM     96  C   UNL A   1      46.198  30.663  28.303  1.00  0.00     0.148 A 
ATOM     97  C   UNL A   1      44.240  31.619  26.535  1.00  0.00     0.002 A 
ATOM     98  C   UNL A   1      46.539  31.538  27.281  1.00  0.00     0.091 A 
ATOM     99  F   UNL A   1      47.107  30.209  29.178  1.00  0.00    -0.205 F 
ATOM    100  C   UNL A   1      45.567  32.010  26.384  1.00  0.00     0.022 A 
BRANCH  98 101
ATOM    101  S   UNL A   1      48.207  32.168  27.110  1.00  0.00     0.127 S 
ATOM    102  O   UNL A   1      48.948  30.963  26.742  1.00  0.00    -0.237 OA
ATOM    103  O   UNL A   1      48.057  33.149  26.034  1.00  0.00    -0.237 OA
ATOM    104  O   UNL A   1      48.558  32.743  28.402  1.00  0.00    -0.744 OA
ENDBRANCH  98 101
ENDBRANCH  71  94
ENDBRANCH  45  46
ENDBRANCH  37  40
ENDBRANCH  35  36
ENDBRANCH   1  35
TORSDOF 17
ENDMDL
