MODEL 1
REMARK VINA RESULT:     -15.4      0.000      0.000
REMARK SMILES COc1ccc(C2=NN(C(=O)CCC(=O)NCCCNC(=O)c3ccc(-c4c5nc(c(-c6cccc(S(=O)(=O)[O-])c6F)c6ccc([nH]6)c(-c6cccc(S(=O)(=O)[O-])c6F)c6nc(c(-c7cccc(S(=O)(=O)[O-])c7F)c7ccc4[nH]7)C=C6)C=C5)cc3)[C@H](c3ccc(Cl)cc3Cl)C2)cc1
REMARK SMILES IDX 17 1 16 2 14 3 15 4 13 6 12 7 10 8 11 9 9 10 7 11 8 12 95 13
REMARK SMILES IDX 86 14 6 15 3 16 4 17 97 18 5 19 96 20 2 21 1 22 87 23 88 24
REMARK SMILES IDX 93 25 89 26 92 27 94 28 90 29 91 30 18 31 19 32 20 33 21 34
REMARK SMILES IDX 22 36 23 37 24 38 85 39 25 40 84 41 26 42 27 43 28 44 78 45
REMARK SMILES IDX 29 46 83 47 77 48 79 49 30 50 82 51 76 52 75 53 31 55 63 56
REMARK SMILES IDX 43 57 62 58 44 59 47 60 61 61 80 62 45 63 46 64 60 66 81 67
REMARK SMILES IDX 48 68 32 69 33 70 41 71 34 72 36 73 42 74 35 75 37 76 38 77
REMARK SMILES IDX 39 78 40 79 64 80 65 81 73 82 66 83 68 84 74 85 67 86 69 87
REMARK SMILES IDX 70 88 71 89 72 90 49 91 50 92 58 93 51 94 53 95 59 96 52 97
REMARK SMILES IDX 54 98 55 99 56 100 57 101
REMARK H PARENT 16 5 20 35 79 54 47 65
REMARK Flexibility Score: inf
ROOT
ATOM      1  C   UNL A   1      40.512  22.510  27.271  1.00  0.00     0.117 C 
ENDROOT
BRANCH   1   2
ATOM      2  N   UNL A   1      39.726  21.540  26.323  1.00  0.00    -0.356 N 
ATOM      3  C   UNL A   1      38.464  21.447  25.809  1.00  0.00     0.220 C 
ATOM      4  O   UNL A   1      38.300  20.513  25.011  1.00  0.00    -0.275 OA
ATOM      5  H   UNL A   1      40.294  20.798  26.014  1.00  0.00     0.163 HD
BRANCH   3   6
ATOM      6  C   UNL A   1      37.289  22.394  26.070  1.00  0.00     0.110 C 
BRANCH   6   7
ATOM      7  C   UNL A   1      37.205  23.779  25.450  1.00  0.00     0.112 C 
BRANCH   7   8
ATOM      8  C   UNL A   1      36.244  23.690  24.337  1.00  0.00     0.243 C 
ATOM      9  O   UNL A   1      36.586  23.641  23.162  1.00  0.00    -0.273 OA
BRANCH   8  10
ATOM     10  N   UNL A   1      34.960  23.821  24.800  1.00  0.00    -0.225 N 
ATOM     11  C   UNL A   1      32.938  25.691  25.801  1.00  0.00     0.071 C 
ATOM     12  N   UNL A   1      34.406  25.636  25.156  1.00  0.00    -0.174 NA
ATOM     13  C   UNL A   1      32.273  23.918  26.312  1.00  0.00     0.091 C 
ATOM     14  C   UNL A   1      33.538  22.636  25.504  1.00  0.00     0.149 C 
BRANCH  11  15
ATOM     15  C   UNL A   1      31.853  26.658  25.403  1.00  0.00    -0.002 A 
ATOM     16  C   UNL A   1      30.032  29.134  23.533  1.00  0.00     0.118 A 
ATOM     17  C   UNL A   1      29.728  27.169  23.233  1.00  0.00     0.047 A 
ATOM     18  C   UNL A   1      31.268  29.607  24.759  1.00  0.00     0.047 A 
ATOM     19  C   UNL A   1      30.611  26.015  24.287  1.00  0.00     0.014 A 
ATOM     20  C   UNL A   1      32.142  28.364  25.621  1.00  0.00     0.014 A 
BRANCH  16  21
ATOM     21  O   UNL A   1      29.313  30.267  23.092  1.00  0.00    -0.497 OA
ATOM     22  C   UNL A   1      27.901  30.188  23.254  1.00  0.00     0.278 C 
ENDBRANCH  16  21
ENDBRANCH  11  15
BRANCH  14  23
ATOM     23  C   UNL A   1      32.786  21.451  24.784  1.00  0.00    -0.004 A 
ATOM     24  C   UNL A   1      32.909  20.143  25.319  1.00  0.00     0.009 A 
ATOM     25  C   UNL A   1      32.407  21.503  23.416  1.00  0.00     0.047 A 
ATOM     26  C   UNL A   1      32.740  18.984  24.541  1.00  0.00     0.021 A 
ATOM     27  C   UNL A   1      32.130  20.342  22.672  1.00  0.00     0.041 A 
ATOM     28  Cl  UNL A   1      32.515  22.914  22.425  1.00  0.00    -0.084 Cl
ATOM     29  C   UNL A   1      32.340  19.089  23.223  1.00  0.00     0.042 A 
ATOM     30  Cl  UNL A   1      32.201  17.686  22.241  1.00  0.00    -0.084 Cl
ENDBRANCH  14  23
ENDBRANCH   8  10
ENDBRANCH   7   8
ENDBRANCH   6   7
ENDBRANCH   3   6
ENDBRANCH   1   2
BRANCH   1  31
ATOM     31  C   UNL A   1      42.491  22.427  28.302  1.00  0.00     0.042 C 
BRANCH  31  32
ATOM     32  C   UNL A   1      44.139  22.536  27.370  1.00  0.00     0.118 C 
BRANCH  32  33
ATOM     33  N   UNL A   1      44.232  22.756  25.827  1.00  0.00    -0.352 N 
ATOM     34  C   UNL A   1      44.576  23.768  24.916  1.00  0.00     0.251 C 
ATOM     35  H   UNL A   1      43.969  21.937  25.347  1.00  0.00     0.163 HD
ATOM     36  O   UNL A   1      45.096  23.455  23.840  1.00  0.00    -0.269 OA
BRANCH  34  37
ATOM     37  C   UNL A   1      44.121  25.261  25.052  1.00  0.00     0.039 A 
ATOM     38  C   UNL A   1      42.419  24.949  25.536  1.00  0.00     0.014 A 
ATOM     39  C   UNL A   1      44.864  27.113  25.345  1.00  0.00     0.014 A 
ATOM     40  C   UNL A   1      41.525  26.200  26.344  1.00  0.00     0.010 A 
ATOM     41  C   UNL A   1      43.825  28.304  26.255  1.00  0.00     0.010 A 
ATOM     42  C   UNL A   1      42.198  27.777  26.805  1.00  0.00    -0.014 A 
BRANCH  42  43
ATOM     43  C   UNL A   1      41.584  28.313  28.112  1.00  0.00     0.031 A 
ATOM     44  C   UNL A   1      42.308  28.097  29.410  1.00  0.00     0.074 A 
ATOM     45  C   UNL A   1      40.322  28.849  28.179  1.00  0.00     0.049 A 
ATOM     46  N   UNL A   1      41.938  28.420  30.623  1.00  0.00    -0.248 NA
ATOM     47  C   UNL A   1      43.574  27.356  29.353  1.00  0.00     0.031 C 
ATOM     48  C   UNL A   1      39.339  28.978  27.087  1.00  0.00     0.029 A 
ATOM     49  N   UNL A   1      39.611  29.379  29.247  1.00  0.00    -0.354 N 
ATOM     50  C   UNL A   1      42.895  27.870  31.463  1.00  0.00     0.074 A 
ATOM     51  C   UNL A   1      43.790  27.098  30.632  1.00  0.00     0.031 C 
ATOM     52  C   UNL A   1      38.216  29.569  27.515  1.00  0.00     0.029 A 
ATOM     53  C   UNL A   1      38.344  29.851  28.929  1.00  0.00     0.049 A 
ATOM     54  H   UNL A   1      39.976  29.418  30.160  1.00  0.00     0.167 HD
ATOM     55  C   UNL A   1      43.080  28.054  32.790  1.00  0.00     0.034 A 
ATOM     56  C   UNL A   1      37.380  30.457  29.659  1.00  0.00     0.034 A 
ATOM     57  C   UNL A   1      42.259  28.897  33.609  1.00  0.00     0.049 A 
ATOM     58  C   UNL A   1      37.654  30.745  31.109  1.00  0.00     0.074 A 
ATOM     59  C   UNL A   1      42.463  29.276  34.924  1.00  0.00     0.029 A 
ATOM     60  N   UNL A   1      41.075  29.483  33.199  1.00  0.00    -0.354 N 
ATOM     61  N   UNL A   1      38.708  30.433  31.821  1.00  0.00    -0.248 NA
ATOM     62  C   UNL A   1      36.639  31.513  31.849  1.00  0.00     0.031 C 
ATOM     63  C   UNL A   1      41.376  30.057  35.324  1.00  0.00     0.029 A 
ATOM     64  C   UNL A   1      40.527  30.207  34.240  1.00  0.00     0.049 A 
ATOM     65  H   UNL A   1      40.683  29.397  32.300  1.00  0.00     0.167 HD
ATOM     66  C   UNL A   1      38.507  31.009  33.069  1.00  0.00     0.074 A 
ATOM     67  C   UNL A   1      37.240  31.705  33.014  1.00  0.00     0.031 C 
ATOM     68  C   UNL A   1      39.300  30.954  34.163  1.00  0.00     0.034 A 
BRANCH  55  69
ATOM     69  C   UNL A   1      44.275  27.393  33.417  1.00  0.00     0.023 A 
ATOM     70  C   UNL A   1      45.537  28.021  33.349  1.00  0.00     0.012 A 
ATOM     71  C   UNL A   1      44.145  26.166  34.091  1.00  0.00     0.148 A 
ATOM     72  C   UNL A   1      46.664  27.408  33.888  1.00  0.00     0.002 A 
ATOM     73  C   UNL A   1      45.262  25.591  34.680  1.00  0.00     0.091 A 
ATOM     74  F   UNL A   1      42.939  25.584  34.135  1.00  0.00    -0.205 F 
ATOM     75  C   UNL A   1      46.525  26.199  34.562  1.00  0.00     0.022 A 
BRANCH  73  76
ATOM     76  S   UNL A   1      45.179  24.080  35.642  1.00  0.00     0.127 S 
ATOM     77  O   UNL A   1      45.710  24.522  36.932  1.00  0.00    -0.237 OA
ATOM     78  O   UNL A   1      43.744  23.798  35.637  1.00  0.00    -0.237 OA
ATOM     79  O   UNL A   1      46.001  23.106  34.939  1.00  0.00    -0.744 OA
ENDBRANCH  73  76
ENDBRANCH  55  69
BRANCH  56  80
ATOM     80  C   UNL A   1      36.087  30.920  29.046  1.00  0.00     0.023 A 
ATOM     81  C   UNL A   1      35.241  29.979  28.416  1.00  0.00     0.012 A 
ATOM     82  C   UNL A   1      35.721  32.280  29.013  1.00  0.00     0.148 A 
ATOM     83  C   UNL A   1      34.108  30.388  27.708  1.00  0.00     0.002 A 
ATOM     84  C   UNL A   1      34.560  32.676  28.349  1.00  0.00     0.091 A 
ATOM     85  F   UNL A   1      36.523  33.168  29.617  1.00  0.00    -0.205 F 
ATOM     86  C   UNL A   1      33.767  31.735  27.674  1.00  0.00     0.022 A 
BRANCH  84  87
ATOM     87  S   UNL A   1      33.978  34.378  28.330  1.00  0.00     0.127 S 
ATOM     88  O   UNL A   1      34.794  34.962  27.269  1.00  0.00    -0.237 OA
ATOM     89  O   UNL A   1      32.564  34.208  27.996  1.00  0.00    -0.237 OA
ATOM     90  O   UNL A   1      34.223  34.891  29.671  1.00  0.00    -0.744 OA
ENDBRANCH  84  87
ENDBRANCH  56  80
BRANCH  68  91
ATOM     91  C   UNL A   1      38.878  31.718  35.386  1.00  0.00     0.023 A 
ATOM     92  C   UNL A   1      38.127  31.089  36.397  1.00  0.00     0.012 A 
ATOM     93  C   UNL A   1      39.332  33.038  35.575  1.00  0.00     0.148 A 
ATOM     94  C   UNL A   1      37.815  31.772  37.571  1.00  0.00     0.002 A 
ATOM     95  C   UNL A   1      39.070  33.690  36.772  1.00  0.00     0.091 A 
ATOM     96  F   UNL A   1      40.027  33.623  34.588  1.00  0.00    -0.205 F 
ATOM     97  C   UNL A   1      38.301  33.065  37.766  1.00  0.00     0.022 A 
BRANCH  95  98
ATOM     98  S   UNL A   1      39.756  35.305  37.154  1.00  0.00     0.127 S 
ATOM     99  O   UNL A   1      39.147  35.587  38.452  1.00  0.00    -0.237 OA
ATOM    100  O   UNL A   1      41.192  35.026  37.199  1.00  0.00    -0.237 OA
ATOM    101  O   UNL A   1      39.345  36.186  36.069  1.00  0.00    -0.744 OA
ENDBRANCH  95  98
ENDBRANCH  68  91
ENDBRANCH  42  43
ENDBRANCH  34  37
ENDBRANCH  32  33
ENDBRANCH  31  32
ENDBRANCH   1  31
TORSDOF 19
ENDMDL
MODEL 2
REMARK VINA RESULT:     -14.3      3.221      9.676
REMARK SMILES COc1ccc(C2=NN(C(=O)CCC(=O)NCCCNC(=O)c3ccc(-c4c5nc(c(-c6cccc(S(=O)(=O)[O-])c6F)c6ccc([nH]6)c(-c6cccc(S(=O)(=O)[O-])c6F)c6nc(c(-c7cccc(S(=O)(=O)[O-])c7F)c7ccc4[nH]7)C=C6)C=C5)cc3)[C@H](c3ccc(Cl)cc3Cl)C2)cc1
REMARK SMILES IDX 17 1 16 2 14 3 15 4 13 6 12 7 10 8 11 9 9 10 7 11 8 12 95 13
REMARK SMILES IDX 86 14 6 15 3 16 4 17 97 18 5 19 96 20 2 21 1 22 87 23 88 24
REMARK SMILES IDX 93 25 89 26 92 27 94 28 90 29 91 30 18 31 19 32 20 33 21 34
REMARK SMILES IDX 22 36 23 37 24 38 85 39 25 40 84 41 26 42 27 43 28 44 78 45
REMARK SMILES IDX 29 46 83 47 77 48 79 49 30 50 82 51 76 52 75 53 31 55 63 56
REMARK SMILES IDX 43 57 62 58 44 59 47 60 61 61 80 62 45 63 46 64 60 66 81 67
REMARK SMILES IDX 48 68 32 69 33 70 41 71 34 72 36 73 42 74 35 75 37 76 38 77
REMARK SMILES IDX 39 78 40 79 64 80 65 81 73 82 66 83 68 84 74 85 67 86 69 87
REMARK SMILES IDX 70 88 71 89 72 90 49 91 50 92 58 93 51 94 53 95 59 96 52 97
REMARK SMILES IDX 54 98 55 99 56 100 57 101
REMARK H PARENT 16 5 20 35 79 54 47 65
REMARK Flexibility Score: inf
ROOT
ATOM      1  C   UNL A   1      34.737  33.245  28.142  1.00  0.00     0.117 C 
ENDROOT
BRANCH   1   2
ATOM      2  N   UNL A   1      35.354  31.842  28.476  1.00  0.00    -0.356 N 
ATOM      3  C   UNL A   1      35.157  30.546  28.093  1.00  0.00     0.220 C 
ATOM      4  O   UNL A   1      35.957  29.737  28.583  1.00  0.00    -0.275 OA
ATOM      5  H   UNL A   1      36.077  31.915  29.139  1.00  0.00     0.163 HD
BRANCH   3   6
ATOM      6  C   UNL A   1      34.115  30.025  27.099  1.00  0.00     0.110 C 
BRANCH   6   7
ATOM      7  C   UNL A   1      34.408  28.893  26.129  1.00  0.00     0.112 C 
BRANCH   7   8
ATOM      8  C   UNL A   1      33.352  27.882  26.324  1.00  0.00     0.243 C 
ATOM      9  O   UNL A   1      32.762  27.730  27.386  1.00  0.00    -0.273 OA
BRANCH   8  10
ATOM     10  N   UNL A   1      33.251  27.076  25.220  1.00  0.00    -0.225 N 
ATOM     11  C   UNL A   1      34.320  24.712  23.857  1.00  0.00     0.071 C 
ATOM     12  N   UNL A   1      34.416  25.536  25.229  1.00  0.00    -0.174 NA
ATOM     13  C   UNL A   1      33.295  25.660  22.479  1.00  0.00     0.091 C 
ATOM     14  C   UNL A   1      32.434  27.168  23.419  1.00  0.00     0.149 C 
BRANCH  11  15
ATOM     15  C   UNL A   1      34.238  23.210  23.752  1.00  0.00    -0.002 A 
ATOM     16  C   UNL A   1      33.644  19.774  24.635  1.00  0.00     0.118 A 
ATOM     17  C   UNL A   1      32.224  20.880  23.737  1.00  0.00     0.047 A 
ATOM     18  C   UNL A   1      35.217  20.577  25.000  1.00  0.00     0.047 A 
ATOM     19  C   UNL A   1      32.653  22.553  23.245  1.00  0.00     0.014 A 
ATOM     20  C   UNL A   1      35.444  22.255  24.572  1.00  0.00     0.014 A 
BRANCH  16  21
ATOM     21  O   UNL A   1      33.727  18.385  24.881  1.00  0.00    -0.497 OA
ATOM     22  C   UNL A   1      32.644  17.837  25.624  1.00  0.00     0.278 C 
ENDBRANCH  16  21
ENDBRANCH  11  15
BRANCH  14  23
ATOM     23  C   UNL A   1      30.913  27.307  23.024  1.00  0.00    -0.004 A 
ATOM     24  C   UNL A   1      30.450  28.552  22.526  1.00  0.00     0.009 A 
ATOM     25  C   UNL A   1      29.902  26.468  23.564  1.00  0.00     0.047 A 
ATOM     26  C   UNL A   1      29.109  28.959  22.622  1.00  0.00     0.021 A 
ATOM     27  C   UNL A   1      28.543  26.833  23.556  1.00  0.00     0.041 A 
ATOM     28  Cl  UNL A   1      30.206  25.072  24.535  1.00  0.00    -0.084 Cl
ATOM     29  C   UNL A   1      28.158  28.092  23.128  1.00  0.00     0.042 A 
ATOM     30  Cl  UNL A   1      26.528  28.601  23.318  1.00  0.00    -0.084 Cl
ENDBRANCH  14  23
ENDBRANCH   8  10
ENDBRANCH   7   8
ENDBRANCH   6   7
ENDBRANCH   3   6
ENDBRANCH   1   2
BRANCH   1  31
ATOM     31  C   UNL A   1      33.248  34.576  29.141  1.00  0.00     0.042 C 
BRANCH  31  32
ATOM     32  C   UNL A   1      33.742  35.908  30.396  1.00  0.00     0.118 C 
BRANCH  32  33
ATOM     33  N   UNL A   1      34.519  35.591  31.714  1.00  0.00    -0.352 N 
ATOM     34  C   UNL A   1      35.620  34.832  32.142  1.00  0.00     0.251 C 
ATOM     35  H   UNL A   1      34.113  36.068  32.475  1.00  0.00     0.163 HD
ATOM     36  O   UNL A   1      36.304  35.246  33.083  1.00  0.00    -0.269 OA
BRANCH  34  37
ATOM     37  C   UNL A   1      35.905  33.363  31.678  1.00  0.00     0.039 A 
ATOM     38  C   UNL A   1      37.367  33.703  30.691  1.00  0.00     0.014 A 
ATOM     39  C   UNL A   1      35.537  31.448  32.197  1.00  0.00     0.014 A 
ATOM     40  C   UNL A   1      38.466  32.407  30.329  1.00  0.00     0.010 A 
ATOM     41  C   UNL A   1      36.810  30.207  31.793  1.00  0.00     0.010 A 
ATOM     42  C   UNL A   1      38.291  30.746  30.933  1.00  0.00    -0.014 A 
BRANCH  42  43
ATOM     43  C   UNL A   1      39.654  30.074  31.188  1.00  0.00     0.031 A 
ATOM     44  C   UNL A   1      40.509  30.549  32.328  1.00  0.00     0.074 A 
ATOM     45  C   UNL A   1      40.206  29.157  30.329  1.00  0.00     0.049 A 
ATOM     46  N   UNL A   1      41.706  30.156  32.679  1.00  0.00    -0.248 NA
ATOM     47  C   UNL A   1      39.990  31.663  33.132  1.00  0.00     0.031 C 
ATOM     48  C   UNL A   1      39.660  28.683  29.044  1.00  0.00     0.029 A 
ATOM     49  N   UNL A   1      41.401  28.451  30.392  1.00  0.00    -0.354 N 
ATOM     50  C   UNL A   1      42.094  31.011  33.699  1.00  0.00     0.074 A 
ATOM     51  C   UNL A   1      41.060  32.011  33.827  1.00  0.00     0.031 C 
ATOM     52  C   UNL A   1      40.464  27.769  28.484  1.00  0.00     0.029 A 
ATOM     53  C   UNL A   1      41.623  27.582  29.332  1.00  0.00     0.049 A 
ATOM     54  H   UNL A   1      42.042  28.558  31.131  1.00  0.00     0.167 HD
ATOM     55  C   UNL A   1      43.164  30.933  34.524  1.00  0.00     0.034 A 
ATOM     56  C   UNL A   1      42.621  26.715  29.049  1.00  0.00     0.034 A 
ATOM     57  C   UNL A   1      44.146  29.891  34.474  1.00  0.00     0.049 A 
ATOM     58  C   UNL A   1      43.745  26.571  30.037  1.00  0.00     0.074 A 
ATOM     59  C   UNL A   1      45.171  29.635  35.367  1.00  0.00     0.029 A 
ATOM     60  N   UNL A   1      44.235  28.938  33.475  1.00  0.00    -0.354 N 
ATOM     61  N   UNL A   1      43.947  27.230  31.151  1.00  0.00    -0.248 NA
ATOM     62  C   UNL A   1      44.754  25.533  29.766  1.00  0.00     0.031 C 
ATOM     63  C   UNL A   1      45.909  28.552  34.883  1.00  0.00     0.029 A 
ATOM     64  C   UNL A   1      45.308  28.103  33.719  1.00  0.00     0.049 A 
ATOM     65  H   UNL A   1      43.624  28.867  32.705  1.00  0.00     0.167 HD
ATOM     66  C   UNL A   1      45.067  26.653  31.735  1.00  0.00     0.074 A 
ATOM     67  C   UNL A   1      45.493  25.580  30.865  1.00  0.00     0.031 C 
ATOM     68  C   UNL A   1      45.691  26.994  32.886  1.00  0.00     0.034 A 
BRANCH  55  69
ATOM     69  C   UNL A   1      43.272  31.966  35.610  1.00  0.00     0.023 A 
ATOM     70  C   UNL A   1      44.056  33.121  35.401  1.00  0.00     0.012 A 
ATOM     71  C   UNL A   1      42.580  31.807  36.823  1.00  0.00     0.148 A 
ATOM     72  C   UNL A   1      44.201  34.071  36.407  1.00  0.00     0.002 A 
ATOM     73  C   UNL A   1      42.679  32.790  37.798  1.00  0.00     0.091 A 
ATOM     74  F   UNL A   1      41.848  30.699  37.002  1.00  0.00    -0.205 F 
ATOM     75  C   UNL A   1      43.505  33.910  37.601  1.00  0.00     0.022 A 
BRANCH  73  76
ATOM     76  S   UNL A   1      41.760  32.723  39.337  1.00  0.00     0.127 S 
ATOM     77  O   UNL A   1      42.071  34.028  39.922  1.00  0.00    -0.237 OA
ATOM     78  O   UNL A   1      40.385  32.581  38.859  1.00  0.00    -0.237 OA
ATOM     79  O   UNL A   1      42.279  31.579  40.070  1.00  0.00    -0.744 OA
ENDBRANCH  73  76
ENDBRANCH  55  69
BRANCH  56  80
ATOM     80  C   UNL A   1      42.594  25.837  27.828  1.00  0.00     0.023 A 
ATOM     81  C   UNL A   1      42.985  26.373  26.580  1.00  0.00     0.012 A 
ATOM     82  C   UNL A   1      42.121  24.511  27.871  1.00  0.00     0.148 A 
ATOM     83  C   UNL A   1      42.833  25.639  25.400  1.00  0.00     0.002 A 
ATOM     84  C   UNL A   1      42.023  23.765  26.697  1.00  0.00     0.091 A 
ATOM     85  F   UNL A   1      41.758  24.005  29.058  1.00  0.00    -0.205 F 
ATOM     86  C   UNL A   1      42.354  24.335  25.458  1.00  0.00     0.022 A 
BRANCH  84  87
ATOM     87  S   UNL A   1      41.510  22.041  26.675  1.00  0.00     0.127 S 
ATOM     88  O   UNL A   1      40.056  22.160  26.763  1.00  0.00    -0.237 OA
ATOM     89  O   UNL A   1      42.012  21.594  25.376  1.00  0.00    -0.237 OA
ATOM     90  O   UNL A   1      42.163  21.423  27.820  1.00  0.00    -0.744 OA
ENDBRANCH  84  87
ENDBRANCH  56  80
BRANCH  68  91
ATOM     91  C   UNL A   1      46.862  26.167  33.332  1.00  0.00     0.023 A 
ATOM     92  C   UNL A   1      48.178  26.585  33.055  1.00  0.00     0.012 A 
ATOM     93  C   UNL A   1      46.649  25.026  34.130  1.00  0.00     0.148 A 
ATOM     94  C   UNL A   1      49.265  25.866  33.548  1.00  0.00     0.002 A 
ATOM     95  C   UNL A   1      47.734  24.350  34.668  1.00  0.00     0.091 A 
ATOM     96  F   UNL A   1      45.386  24.635  34.361  1.00  0.00    -0.205 F 
ATOM     97  C   UNL A   1      49.043  24.760  34.368  1.00  0.00     0.022 A 
BRANCH  95  98
ATOM     98  S   UNL A   1      47.540  22.992  35.827  1.00  0.00     0.127 S 
ATOM     99  O   UNL A   1      48.103  21.874  35.071  1.00  0.00    -0.237 OA
ATOM    100  O   UNL A   1      48.353  23.437  36.959  1.00  0.00    -0.237 OA
ATOM    101  O   UNL A   1      46.113  22.899  36.106  1.00  0.00    -0.744 OA
ENDBRANCH  95  98
ENDBRANCH  68  91
ENDBRANCH  42  43
ENDBRANCH  34  37
ENDBRANCH  32  33
ENDBRANCH  31  32
ENDBRANCH   1  31
TORSDOF 19
ENDMDL
MODEL 3
REMARK VINA RESULT:     -13.7      4.877      7.828
REMARK SMILES COc1ccc(C2=NN(C(=O)CCC(=O)NCCCNC(=O)c3ccc(-c4c5nc(c(-c6cccc(S(=O)(=O)[O-])c6F)c6ccc([nH]6)c(-c6cccc(S(=O)(=O)[O-])c6F)c6nc(c(-c7cccc(S(=O)(=O)[O-])c7F)c7ccc4[nH]7)C=C6)C=C5)cc3)[C@H](c3ccc(Cl)cc3Cl)C2)cc1
REMARK SMILES IDX 17 1 16 2 14 3 15 4 13 6 12 7 10 8 11 9 9 10 7 11 8 12 95 13
REMARK SMILES IDX 86 14 6 15 3 16 4 17 97 18 5 19 96 20 2 21 1 22 87 23 88 24
REMARK SMILES IDX 93 25 89 26 92 27 94 28 90 29 91 30 18 31 19 32 20 33 21 34
REMARK SMILES IDX 22 36 23 37 24 38 85 39 25 40 84 41 26 42 27 43 28 44 78 45
REMARK SMILES IDX 29 46 83 47 77 48 79 49 30 50 82 51 76 52 75 53 31 55 63 56
REMARK SMILES IDX 43 57 62 58 44 59 47 60 61 61 80 62 45 63 46 64 60 66 81 67
REMARK SMILES IDX 48 68 32 69 33 70 41 71 34 72 36 73 42 74 35 75 37 76 38 77
REMARK SMILES IDX 39 78 40 79 64 80 65 81 73 82 66 83 68 84 74 85 67 86 69 87
REMARK SMILES IDX 70 88 71 89 72 90 49 91 50 92 58 93 51 94 53 95 59 96 52 97
REMARK SMILES IDX 54 98 55 99 56 100 57 101
REMARK H PARENT 16 5 20 35 79 54 47 65
REMARK Flexibility Score: inf
ROOT
ATOM      1  C   UNL A   1      41.359  21.893  26.264  1.00  0.00     0.117 C 
ENDROOT
BRANCH   1   2
ATOM      2  N   UNL A   1      40.763  23.233  26.818  1.00  0.00    -0.356 N 
ATOM      3  C   UNL A   1      39.557  23.874  26.800  1.00  0.00     0.220 C 
ATOM      4  O   UNL A   1      39.523  24.924  27.457  1.00  0.00    -0.275 OA
ATOM      5  H   UNL A   1      41.438  23.751  27.311  1.00  0.00     0.163 HD
BRANCH   3   6
ATOM      6  C   UNL A   1      38.270  23.402  26.119  1.00  0.00     0.110 C 
BRANCH   6   7
ATOM      7  C   UNL A   1      36.929  24.077  26.351  1.00  0.00     0.112 C 
BRANCH   7   8
ATOM      8  C   UNL A   1      36.119  23.846  25.141  1.00  0.00     0.243 C 
ATOM      9  O   UNL A   1      36.607  23.741  24.023  1.00  0.00    -0.273 OA
BRANCH   8  10
ATOM     10  N   UNL A   1      34.783  23.917  25.437  1.00  0.00    -0.225 N 
ATOM     11  C   UNL A   1      32.552  25.701  26.095  1.00  0.00     0.071 C 
ATOM     12  N   UNL A   1      34.090  25.708  25.639  1.00  0.00    -0.174 NA
ATOM     13  C   UNL A   1      31.926  23.912  26.602  1.00  0.00     0.091 C 
ATOM     14  C   UNL A   1      33.351  22.678  26.016  1.00  0.00     0.149 C 
BRANCH  11  15
ATOM     15  C   UNL A   1      31.474  26.584  25.523  1.00  0.00    -0.002 A 
ATOM     16  C   UNL A   1      29.401  28.293  23.130  1.00  0.00     0.118 A 
ATOM     17  C   UNL A   1      28.882  26.493  23.861  1.00  0.00     0.047 A 
ATOM     18  C   UNL A   1      30.956  29.007  23.702  1.00  0.00     0.047 A 
ATOM     19  C   UNL A   1      29.931  25.770  25.126  1.00  0.00     0.014 A 
ATOM     20  C   UNL A   1      31.937  28.124  24.846  1.00  0.00     0.014 A 
BRANCH  16  21
ATOM     21  O   UNL A   1      28.675  29.234  22.367  1.00  0.00    -0.497 OA
ATOM     22  C   UNL A   1      27.497  29.736  22.988  1.00  0.00     0.278 C 
ENDBRANCH  16  21
ENDBRANCH  11  15
BRANCH  14  23
ATOM     23  C   UNL A   1      32.760  21.423  25.264  1.00  0.00    -0.004 A 
ATOM     24  C   UNL A   1      33.049  20.129  25.771  1.00  0.00     0.009 A 
ATOM     25  C   UNL A   1      32.383  21.457  23.896  1.00  0.00     0.047 A 
ATOM     26  C   UNL A   1      33.034  18.977  24.967  1.00  0.00     0.021 A 
ATOM     27  C   UNL A   1      32.261  20.287  23.124  1.00  0.00     0.041 A 
ATOM     28  Cl  UNL A   1      32.312  22.892  22.937  1.00  0.00    -0.084 Cl
ATOM     29  C   UNL A   1      32.629  19.060  23.648  1.00  0.00     0.042 A 
ATOM     30  Cl  UNL A   1      32.675  17.673  22.634  1.00  0.00    -0.084 Cl
ENDBRANCH  14  23
ENDBRANCH   8  10
ENDBRANCH   7   8
ENDBRANCH   6   7
ENDBRANCH   3   6
ENDBRANCH   1   2
BRANCH   1  31
ATOM     31  C   UNL A   1      43.408  21.208  25.702  1.00  0.00     0.042 C 
BRANCH  31  32
ATOM     32  C   UNL A   1      44.965  22.231  26.054  1.00  0.00     0.118 C 
BRANCH  32  33
ATOM     33  N   UNL A   1      45.421  23.426  25.157  1.00  0.00    -0.352 N 
ATOM     34  C   UNL A   1      45.409  24.830  25.171  1.00  0.00     0.251 C 
ATOM     35  H   UNL A   1      45.843  23.094  24.331  1.00  0.00     0.163 HD
ATOM     36  O   UNL A   1      46.334  25.443  24.628  1.00  0.00    -0.269 OA
BRANCH  34  37
ATOM     37  C   UNL A   1      44.176  25.692  25.609  1.00  0.00     0.039 A 
ATOM     38  C   UNL A   1      44.511  25.707  27.375  1.00  0.00     0.014 A 
ATOM     39  C   UNL A   1      42.856  27.034  24.884  1.00  0.00     0.014 A 
ATOM     40  C   UNL A   1      43.790  26.940  28.363  1.00  0.00     0.010 A 
ATOM     41  C   UNL A   1      42.224  28.300  26.035  1.00  0.00     0.010 A 
ATOM     42  C   UNL A   1      42.781  28.263  27.741  1.00  0.00    -0.014 A 
BRANCH  42  43
ATOM     43  C   UNL A   1      42.958  29.560  28.554  1.00  0.00     0.031 A 
ATOM     44  C   UNL A   1      41.775  30.147  29.271  1.00  0.00     0.074 A 
ATOM     45  C   UNL A   1      44.112  30.301  28.535  1.00  0.00     0.049 A 
ATOM     46  N   UNL A   1      41.699  31.255  29.963  1.00  0.00    -0.248 NA
ATOM     47  C   UNL A   1      40.494  29.444  29.133  1.00  0.00     0.031 C 
ATOM     48  C   UNL A   1      45.334  30.046  27.750  1.00  0.00     0.029 A 
ATOM     49  N   UNL A   1      44.454  31.475  29.195  1.00  0.00    -0.354 N 
ATOM     50  C   UNL A   1      40.358  31.401  30.285  1.00  0.00     0.074 A 
ATOM     51  C   UNL A   1      39.646  30.338  29.615  1.00  0.00     0.031 C 
ATOM     52  C   UNL A   1      46.270  30.972  27.998  1.00  0.00     0.029 A 
ATOM     53  C   UNL A   1      45.740  31.933  28.941  1.00  0.00     0.049 A 
ATOM     54  H   UNL A   1      43.834  31.946  29.796  1.00  0.00     0.167 HD
ATOM     55  C   UNL A   1      39.769  32.278  31.129  1.00  0.00     0.034 A 
ATOM     56  C   UNL A   1      46.446  32.991  29.404  1.00  0.00     0.034 A 
ATOM     57  C   UNL A   1      40.475  33.276  31.877  1.00  0.00     0.049 A 
ATOM     58  C   UNL A   1      45.803  33.889  30.424  1.00  0.00     0.074 A 
ATOM     59  C   UNL A   1      39.992  34.099  32.878  1.00  0.00     0.029 A 
ATOM     60  N   UNL A   1      41.810  33.594  31.703  1.00  0.00    -0.354 N 
ATOM     61  N   UNL A   1      44.588  33.838  30.911  1.00  0.00    -0.248 NA
ATOM     62  C   UNL A   1      46.634  34.958  31.002  1.00  0.00     0.031 C 
ATOM     63  C   UNL A   1      41.026  34.949  33.279  1.00  0.00     0.029 A 
ATOM     64  C   UNL A   1      42.165  34.614  32.564  1.00  0.00     0.049 A 
ATOM     65  H   UNL A   1      42.416  33.158  31.060  1.00  0.00     0.167 HD
ATOM     66  C   UNL A   1      44.529  34.828  31.884  1.00  0.00     0.074 A 
ATOM     67  C   UNL A   1      45.832  35.452  31.933  1.00  0.00     0.031 C 
ATOM     68  C   UNL A   1      43.480  35.189  32.658  1.00  0.00     0.034 A 
BRANCH  55  69
ATOM     69  C   UNL A   1      38.290  32.132  31.351  1.00  0.00     0.023 A 
ATOM     70  C   UNL A   1      37.819  31.412  32.471  1.00  0.00     0.012 A 
ATOM     71  C   UNL A   1      37.370  32.725  30.470  1.00  0.00     0.148 A 
ATOM     72  C   UNL A   1      36.454  31.231  32.674  1.00  0.00     0.002 A 
ATOM     73  C   UNL A   1      36.010  32.593  30.714  1.00  0.00     0.091 A 
ATOM     74  F   UNL A   1      37.840  33.396  29.409  1.00  0.00    -0.205 F 
ATOM     75  C   UNL A   1      35.551  31.830  31.802  1.00  0.00     0.022 A 
BRANCH  73  76
ATOM     76  S   UNL A   1      34.763  33.392  29.702  1.00  0.00     0.127 S 
ATOM     77  O   UNL A   1      34.217  32.257  28.957  1.00  0.00    -0.237 OA
ATOM     78  O   UNL A   1      33.864  33.946  30.715  1.00  0.00    -0.237 OA
ATOM     79  O   UNL A   1      35.465  34.378  28.896  1.00  0.00    -0.744 OA
ENDBRANCH  73  76
ENDBRANCH  55  69
BRANCH  56  80
ATOM     80  C   UNL A   1      47.871  33.240  28.994  1.00  0.00     0.023 A 
ATOM     81  C   UNL A   1      48.922  32.714  29.779  1.00  0.00     0.012 A 
ATOM     82  C   UNL A   1      48.199  34.046  27.886  1.00  0.00     0.148 A 
ATOM     83  C   UNL A   1      50.254  33.046  29.518  1.00  0.00     0.002 A 
ATOM     84  C   UNL A   1      49.534  34.330  27.598  1.00  0.00     0.091 A 
ATOM     85  F   UNL A   1      47.200  34.537  27.140  1.00  0.00    -0.205 F 
ATOM     86  C   UNL A   1      50.561  33.853  28.428  1.00  0.00     0.022 A 
BRANCH  84  87
ATOM     87  S   UNL A   1      50.043  35.279  26.158  1.00  0.00     0.127 S 
ATOM     88  O   UNL A   1      49.245  36.494  26.303  1.00  0.00    -0.237 OA
ATOM     89  O   UNL A   1      51.475  35.451  26.401  1.00  0.00    -0.237 OA
ATOM     90  O   UNL A   1      49.722  34.447  25.007  1.00  0.00    -0.744 OA
ENDBRANCH  84  87
ENDBRANCH  56  80
BRANCH  68  91
ATOM     91  C   UNL A   1      43.692  36.264  33.686  1.00  0.00     0.023 A 
ATOM     92  C   UNL A   1      44.076  35.929  34.999  1.00  0.00     0.012 A 
ATOM     93  C   UNL A   1      43.619  37.618  33.307  1.00  0.00     0.148 A 
ATOM     94  C   UNL A   1      44.362  36.929  35.926  1.00  0.00     0.002 A 
ATOM     95  C   UNL A   1      43.964  38.607  34.217  1.00  0.00     0.091 A 
ATOM     96  F   UNL A   1      43.229  37.912  32.057  1.00  0.00    -0.205 F 
ATOM     97  C   UNL A   1      44.323  38.266  35.531  1.00  0.00     0.022 A 
BRANCH  95  98
ATOM     98  S   UNL A   1      44.057  40.341  33.760  1.00  0.00     0.127 S 
ATOM     99  O   UNL A   1      42.643  40.691  33.634  1.00  0.00    -0.237 OA
ATOM    100  O   UNL A   1      44.731  40.928  34.919  1.00  0.00    -0.237 OA
ATOM    101  O   UNL A   1      44.824  40.393  32.523  1.00  0.00    -0.744 OA
ENDBRANCH  95  98
ENDBRANCH  68  91
ENDBRANCH  42  43
ENDBRANCH  34  37
ENDBRANCH  32  33
ENDBRANCH  31  32
ENDBRANCH   1  31
TORSDOF 19
ENDMDL
