MODEL 1
REMARK VINA RESULT:     -12.9      0.000      0.000
REMARK SMILES Cc1ccc2c(c1)C=C(C(=O)NCCCNC(=O)c1ccc(-c3c4nc(c(-c5cccc(S(=O)(=O)[O-])c5F)c5ccc([nH]5)c(-c5cccc(S(=O)(=O)[O-])c5F)c5nc(c(-c6cccc(S(=O)(=O)[O-])c6F)c6ccc3[nH]6)C=C5)C=C4)cc1)[C@@H](C(F)(F)F)O2
REMARK SMILES IDX 15 1 14 2 13 3 12 4 10 5 11 6 9 8 1 9 2 10 3 11 7 12 4 13
REMARK SMILES IDX 6 14 5 15 8 16 87 17 82 18 83 19 84 20 85 21 86 22 16 23
REMARK SMILES IDX 17 24 18 26 19 27 20 28 81 29 21 30 80 31 22 32 23 33 24 34
REMARK SMILES IDX 74 35 25 36 79 37 73 38 75 39 26 40 78 41 72 42 71 43 27 45
REMARK SMILES IDX 59 46 39 47 58 48 40 49 43 50 57 51 76 52 41 53 42 54 56 56
REMARK SMILES IDX 77 57 44 58 28 59 29 60 37 61 30 62 32 63 38 64 31 65 33 66
REMARK SMILES IDX 34 67 35 68 36 69 60 70 61 71 69 72 62 73 64 74 70 75 63 76
REMARK SMILES IDX 65 77 66 78 67 79 68 80 45 81 46 82 54 83 47 84 49 85 55 86
REMARK SMILES IDX 48 87 50 88 51 89 52 90 53 91
REMARK H PARENT 12 7 16 25 75 44 43 55
REMARK Flexibility Score: inf
ROOT
ATOM      1  C   UNL A   1      32.406  29.538  26.130  1.00  0.00     0.118 C 
ENDROOT
BRANCH   1   2
ATOM      2  C   UNL A   1      32.862  29.305  24.695  1.00  0.00     0.042 C 
BRANCH   2   3
ATOM      3  C   UNL A   1      31.716  28.913  23.775  1.00  0.00     0.118 C 
BRANCH   3   4
ATOM      4  N   UNL A   1      30.860  27.897  24.370  1.00  0.00    -0.352 N 
ATOM      5  C   UNL A   1      30.885  26.557  24.549  1.00  0.00     0.251 C 
ATOM      6  O   UNL A   1      29.904  26.090  25.139  1.00  0.00    -0.270 OA
ATOM      7  H   UNL A   1      30.040  28.293  24.743  1.00  0.00     0.163 HD
BRANCH   5   8
ATOM      8  C   UNL A   1      31.979  25.644  24.104  1.00  0.00     0.067 C 
ATOM      9  C   UNL A   1      37.573  23.648  25.860  1.00  0.00     0.044 C 
ATOM     10  C   UNL A   1      36.326  23.722  25.028  1.00  0.00    -0.050 A 
ATOM     11  C   UNL A   1      36.198  22.910  23.893  1.00  0.00     0.007 A 
ATOM     12  C   UNL A   1      35.270  24.570  25.388  1.00  0.00     0.015 A 
ATOM     13  C   UNL A   1      35.036  22.953  23.125  1.00  0.00     0.047 A 
ATOM     14  C   UNL A   1      34.106  24.622  24.612  1.00  0.00     0.017 A 
ATOM     15  C   UNL A   1      34.002  23.815  23.479  1.00  0.00     0.128 A 
ATOM     16  C   UNL A   1      32.984  25.474  24.984  1.00  0.00     0.025 C 
ATOM     17  O   UNL A   1      32.884  23.790  22.696  1.00  0.00    -0.475 OA
ATOM     18  C   UNL A   1      32.031  24.967  22.763  1.00  0.00     0.314 C 
BRANCH  18  19
ATOM     19  C   UNL A   1      32.419  25.934  21.627  1.00  0.00     0.429 C 
ATOM     20  F   UNL A   1      33.436  26.743  22.018  1.00  0.00    -0.167 F 
ATOM     21  F   UNL A   1      32.847  25.291  20.516  1.00  0.00    -0.167 F 
ATOM     22  F   UNL A   1      31.395  26.731  21.244  1.00  0.00    -0.167 F 
ENDBRANCH  18  19
ENDBRANCH   5   8
ENDBRANCH   3   4
ENDBRANCH   2   3
ENDBRANCH   1   2
BRANCH   1  23
ATOM     23  N   UNL A   1      32.194  30.954  26.418  1.00  0.00    -0.352 N 
ATOM     24  C   UNL A   1      32.908  31.821  27.213  1.00  0.00     0.251 C 
ATOM     25  H   UNL A   1      31.414  31.355  25.970  1.00  0.00     0.163 HD
ATOM     26  O   UNL A   1      32.422  32.912  27.503  1.00  0.00    -0.269 OA
BRANCH  24  27
ATOM     27  C   UNL A   1      34.235  31.431  27.732  1.00  0.00     0.039 A 
ATOM     28  C   UNL A   1      34.515  30.093  28.008  1.00  0.00     0.014 A 
ATOM     29  C   UNL A   1      35.211  32.409  27.947  1.00  0.00     0.014 A 
ATOM     30  C   UNL A   1      35.679  29.761  28.687  1.00  0.00     0.010 A 
ATOM     31  C   UNL A   1      36.432  32.053  28.528  1.00  0.00     0.010 A 
ATOM     32  C   UNL A   1      36.654  30.735  28.956  1.00  0.00    -0.014 A 
BRANCH  32  33
ATOM     33  C   UNL A   1      37.892  30.333  29.670  1.00  0.00     0.031 A 
ATOM     34  C   UNL A   1      38.138  30.746  31.096  1.00  0.00     0.074 A 
ATOM     35  C   UNL A   1      38.775  29.533  29.040  1.00  0.00     0.049 A 
ATOM     36  N   UNL A   1      39.139  30.430  31.877  1.00  0.00    -0.248 NA
ATOM     37  C   UNL A   1      37.146  31.631  31.728  1.00  0.00     0.031 C 
ATOM     38  C   UNL A   1      38.659  29.088  27.649  1.00  0.00     0.029 A 
ATOM     39  N   UNL A   1      39.923  28.930  29.487  1.00  0.00    -0.354 N 
ATOM     40  C   UNL A   1      38.928  31.116  33.066  1.00  0.00     0.074 A 
ATOM     41  C   UNL A   1      37.701  31.865  32.910  1.00  0.00     0.031 C 
ATOM     42  C   UNL A   1      39.654  28.234  27.376  1.00  0.00     0.029 A 
ATOM     43  C   UNL A   1      40.514  28.117  28.549  1.00  0.00     0.049 A 
ATOM     44  H   UNL A   1      40.287  29.066  30.391  1.00  0.00     0.167 HD
ATOM     45  C   UNL A   1      39.679  31.110  34.192  1.00  0.00     0.034 A 
ATOM     46  C   UNL A   1      41.628  27.363  28.616  1.00  0.00     0.034 A 
ATOM     47  C   UNL A   1      40.859  30.309  34.372  1.00  0.00     0.049 A 
ATOM     48  C   UNL A   1      42.420  27.339  29.887  1.00  0.00     0.074 A 
ATOM     49  C   UNL A   1      41.643  30.182  35.505  1.00  0.00     0.029 A 
ATOM     50  N   UNL A   1      41.422  29.498  33.400  1.00  0.00    -0.354 N 
ATOM     51  N   UNL A   1      42.156  27.931  31.026  1.00  0.00    -0.248 NA
ATOM     52  C   UNL A   1      43.656  26.545  29.889  1.00  0.00     0.031 C 
ATOM     53  C   UNL A   1      42.687  29.297  35.215  1.00  0.00     0.029 A 
ATOM     54  C   UNL A   1      42.549  28.871  33.903  1.00  0.00     0.049 A 
ATOM     55  H   UNL A   1      41.073  29.384  32.487  1.00  0.00     0.167 HD
ATOM     56  C   UNL A   1      43.191  27.583  31.883  1.00  0.00     0.074 A 
ATOM     57  C   UNL A   1      44.074  26.708  31.139  1.00  0.00     0.031 C 
ATOM     58  C   UNL A   1      43.398  27.975  33.163  1.00  0.00     0.034 A 
BRANCH  45  59
ATOM     59  C   UNL A   1      39.229  31.963  35.345  1.00  0.00     0.023 A 
ATOM     60  C   UNL A   1      39.458  33.352  35.309  1.00  0.00     0.012 A 
ATOM     61  C   UNL A   1      38.509  31.404  36.419  1.00  0.00     0.148 A 
ATOM     62  C   UNL A   1      38.987  34.174  36.333  1.00  0.00     0.002 A 
ATOM     63  C   UNL A   1      38.019  32.232  37.422  1.00  0.00     0.091 A 
ATOM     64  F   UNL A   1      38.322  30.077  36.441  1.00  0.00    -0.205 F 
ATOM     65  C   UNL A   1      38.261  33.616  37.382  1.00  0.00     0.022 A 
BRANCH  63  66
ATOM     66  S   UNL A   1      37.026  31.620  38.788  1.00  0.00     0.127 S 
ATOM     67  O   UNL A   1      37.941  31.791  39.916  1.00  0.00    -0.237 OA
ATOM     68  O   UNL A   1      35.889  32.542  38.781  1.00  0.00    -0.237 OA
ATOM     69  O   UNL A   1      36.693  30.242  38.457  1.00  0.00    -0.744 OA
ENDBRANCH  63  66
ENDBRANCH  45  59
BRANCH  46  70
ATOM     70  C   UNL A   1      42.003  26.539  27.437  1.00  0.00     0.023 A 
ATOM     71  C   UNL A   1      42.784  27.112  26.417  1.00  0.00     0.012 A 
ATOM     72  C   UNL A   1      41.706  25.162  27.392  1.00  0.00     0.148 A 
ATOM     73  C   UNL A   1      43.272  26.326  25.374  1.00  0.00     0.002 A 
ATOM     74  C   UNL A   1      42.236  24.376  26.377  1.00  0.00     0.091 A 
ATOM     75  F   UNL A   1      40.962  24.644  28.378  1.00  0.00    -0.205 F 
ATOM     76  C   UNL A   1      43.012  24.957  25.361  1.00  0.00     0.022 A 
BRANCH  74  77
ATOM     77  S   UNL A   1      42.070  22.588  26.350  1.00  0.00     0.127 S 
ATOM     78  O   UNL A   1      42.752  22.244  25.104  1.00  0.00    -0.237 OA
ATOM     79  O   UNL A   1      42.784  22.207  27.568  1.00  0.00    -0.237 OA
ATOM     80  O   UNL A   1      40.639  22.320  26.372  1.00  0.00    -0.744 OA
ENDBRANCH  74  77
ENDBRANCH  46  70
BRANCH  58  81
ATOM     81  C   UNL A   1      44.633  27.477  33.858  1.00  0.00     0.023 A 
ATOM     82  C   UNL A   1      45.786  28.286  33.867  1.00  0.00     0.012 A 
ATOM     83  C   UNL A   1      44.611  26.283  34.602  1.00  0.00     0.148 A 
ATOM     84  C   UNL A   1      46.905  27.910  34.606  1.00  0.00     0.002 A 
ATOM     85  C   UNL A   1      45.720  25.929  35.363  1.00  0.00     0.091 A 
ATOM     86  F   UNL A   1      43.504  25.529  34.567  1.00  0.00    -0.205 F 
ATOM     87  C   UNL A   1      46.868  26.739  35.363  1.00  0.00     0.022 A 
BRANCH  85  88
ATOM     88  S   UNL A   1      45.743  24.483  36.427  1.00  0.00     0.127 S 
ATOM     89  O   UNL A   1      44.484  24.631  37.156  1.00  0.00    -0.237 OA
ATOM     90  O   UNL A   1      45.762  23.387  35.459  1.00  0.00    -0.237 OA
ATOM     91  O   UNL A   1      46.947  24.599  37.240  1.00  0.00    -0.744 OA
ENDBRANCH  85  88
ENDBRANCH  58  81
ENDBRANCH  32  33
ENDBRANCH  24  27
ENDBRANCH   1  23
TORSDOF 14
ENDMDL
MODEL 2
REMARK VINA RESULT:     -12.9      5.357     10.045
REMARK SMILES Cc1ccc2c(c1)C=C(C(=O)NCCCNC(=O)c1ccc(-c3c4nc(c(-c5cccc(S(=O)(=O)[O-])c5F)c5ccc([nH]5)c(-c5cccc(S(=O)(=O)[O-])c5F)c5nc(c(-c6cccc(S(=O)(=O)[O-])c6F)c6ccc3[nH]6)C=C5)C=C4)cc1)[C@@H](C(F)(F)F)O2
REMARK SMILES IDX 15 1 14 2 13 3 12 4 10 5 11 6 9 8 1 9 2 10 3 11 7 12 4 13
REMARK SMILES IDX 6 14 5 15 8 16 87 17 82 18 83 19 84 20 85 21 86 22 16 23
REMARK SMILES IDX 17 24 18 26 19 27 20 28 81 29 21 30 80 31 22 32 23 33 24 34
REMARK SMILES IDX 74 35 25 36 79 37 73 38 75 39 26 40 78 41 72 42 71 43 27 45
REMARK SMILES IDX 59 46 39 47 58 48 40 49 43 50 57 51 76 52 41 53 42 54 56 56
REMARK SMILES IDX 77 57 44 58 28 59 29 60 37 61 30 62 32 63 38 64 31 65 33 66
REMARK SMILES IDX 34 67 35 68 36 69 60 70 61 71 69 72 62 73 64 74 70 75 63 76
REMARK SMILES IDX 65 77 66 78 67 79 68 80 45 81 46 82 54 83 47 84 49 85 55 86
REMARK SMILES IDX 48 87 50 88 51 89 52 90 53 91
REMARK H PARENT 12 7 16 25 75 44 43 55
REMARK Flexibility Score: inf
ROOT
ATOM      1  C   UNL A   1      36.422  22.014  25.252  1.00  0.00     0.118 C 
ENDROOT
BRANCH   1   2
ATOM      2  C   UNL A   1      35.247  21.898  26.215  1.00  0.00     0.042 C 
BRANCH   2   3
ATOM      3  C   UNL A   1      34.076  21.133  25.617  1.00  0.00     0.118 C 
BRANCH   3   4
ATOM      4  N   UNL A   1      33.723  21.621  24.292  1.00  0.00    -0.352 N 
ATOM      5  C   UNL A   1      33.113  22.705  23.762  1.00  0.00     0.251 C 
ATOM      6  O   UNL A   1      33.032  22.708  22.528  1.00  0.00    -0.270 OA
ATOM      7  H   UNL A   1      34.005  20.990  23.591  1.00  0.00     0.163 HD
BRANCH   5   8
ATOM      8  C   UNL A   1      32.562  23.854  24.539  1.00  0.00     0.067 C 
ATOM      9  C   UNL A   1      34.380  29.081  27.320  1.00  0.00     0.044 C 
ATOM     10  C   UNL A   1      33.424  28.047  26.803  1.00  0.00    -0.050 A 
ATOM     11  C   UNL A   1      32.049  28.203  27.018  1.00  0.00     0.007 A 
ATOM     12  C   UNL A   1      33.884  26.938  26.079  1.00  0.00     0.015 A 
ATOM     13  C   UNL A   1      31.147  27.261  26.523  1.00  0.00     0.047 A 
ATOM     14  C   UNL A   1      32.982  25.986  25.590  1.00  0.00     0.017 A 
ATOM     15  C   UNL A   1      31.617  26.154  25.824  1.00  0.00     0.128 A 
ATOM     16  C   UNL A   1      33.435  24.843  24.809  1.00  0.00     0.025 C 
ATOM     17  O   UNL A   1      30.679  25.282  25.349  1.00  0.00    -0.475 OA
ATOM     18  C   UNL A   1      31.150  23.939  25.047  1.00  0.00     0.314 C 
BRANCH  18  19
ATOM     19  C   UNL A   1      30.908  23.035  26.272  1.00  0.00     0.429 C 
ATOM     20  F   UNL A   1      29.780  23.412  26.926  1.00  0.00    -0.167 F 
ATOM     21  F   UNL A   1      30.739  21.734  25.937  1.00  0.00    -0.167 F 
ATOM     22  F   UNL A   1      31.924  23.077  27.164  1.00  0.00    -0.167 F 
ENDBRANCH  18  19
ENDBRANCH   5   8
ENDBRANCH   3   4
ENDBRANCH   2   3
ENDBRANCH   1   2
BRANCH   1  23
ATOM     23  N   UNL A   1      37.388  20.932  25.427  1.00  0.00    -0.352 N 
ATOM     24  C   UNL A   1      38.702  20.965  25.832  1.00  0.00     0.251 C 
ATOM     25  H   UNL A   1      37.043  20.033  25.223  1.00  0.00     0.163 HD
ATOM     26  O   UNL A   1      39.404  19.967  25.686  1.00  0.00    -0.269 OA
BRANCH  24  27
ATOM     27  C   UNL A   1      39.269  22.198  26.415  1.00  0.00     0.039 A 
ATOM     28  C   UNL A   1      38.749  23.443  26.065  1.00  0.00     0.014 A 
ATOM     29  C   UNL A   1      40.331  22.113  27.320  1.00  0.00     0.014 A 
ATOM     30  C   UNL A   1      39.415  24.599  26.449  1.00  0.00     0.010 A 
ATOM     31  C   UNL A   1      40.931  23.283  27.798  1.00  0.00     0.010 A 
ATOM     32  C   UNL A   1      40.514  24.536  27.321  1.00  0.00    -0.014 A 
BRANCH  32  33
ATOM     33  C   UNL A   1      41.188  25.798  27.719  1.00  0.00     0.031 A 
ATOM     34  C   UNL A   1      42.571  26.131  27.231  1.00  0.00     0.074 A 
ATOM     35  C   UNL A   1      40.513  26.680  28.483  1.00  0.00     0.049 A 
ATOM     36  N   UNL A   1      43.272  27.216  27.439  1.00  0.00    -0.248 NA
ATOM     37  C   UNL A   1      43.263  25.123  26.411  1.00  0.00     0.031 C 
ATOM     38  C   UNL A   1      39.176  26.459  29.040  1.00  0.00     0.029 A 
ATOM     39  N   UNL A   1      40.841  27.946  28.899  1.00  0.00    -0.354 N 
ATOM     40  C   UNL A   1      44.501  27.000  26.829  1.00  0.00     0.074 A 
ATOM     41  C   UNL A   1      44.453  25.682  26.235  1.00  0.00     0.031 C 
ATOM     42  C   UNL A   1      38.772  27.570  29.668  1.00  0.00     0.029 A 
ATOM     43  C   UNL A   1      39.840  28.562  29.613  1.00  0.00     0.049 A 
ATOM     44  H   UNL A   1      41.707  28.370  28.706  1.00  0.00     0.167 HD
ATOM     45  C   UNL A   1      45.567  27.831  26.755  1.00  0.00     0.034 A 
ATOM     46  C   UNL A   1      39.784  29.787  30.170  1.00  0.00     0.034 A 
ATOM     47  C   UNL A   1      45.587  29.168  27.283  1.00  0.00     0.049 A 
ATOM     48  C   UNL A   1      40.960  30.705  30.039  1.00  0.00     0.074 A 
ATOM     49  C   UNL A   1      46.598  30.110  27.190  1.00  0.00     0.029 A 
ATOM     50  N   UNL A   1      44.554  29.755  27.995  1.00  0.00    -0.354 N 
ATOM     51  N   UNL A   1      42.080  30.511  29.386  1.00  0.00    -0.248 NA
ATOM     52  C   UNL A   1      40.869  32.007  30.713  1.00  0.00     0.031 C 
ATOM     53  C   UNL A   1      46.176  31.266  27.855  1.00  0.00     0.029 A 
ATOM     54  C   UNL A   1      44.903  31.045  28.356  1.00  0.00     0.049 A 
ATOM     55  H   UNL A   1      43.699  29.319  28.213  1.00  0.00     0.167 HD
ATOM     56  C   UNL A   1      42.829  31.665  29.568  1.00  0.00     0.074 A 
ATOM     57  C   UNL A   1      42.026  32.564  30.371  1.00  0.00     0.031 C 
ATOM     58  C   UNL A   1      44.080  31.941  29.125  1.00  0.00     0.034 A 
BRANCH  45  59
ATOM     59  C   UNL A   1      46.794  27.342  26.038  1.00  0.00     0.023 A 
ATOM     60  C   UNL A   1      46.943  27.606  24.663  1.00  0.00     0.012 A 
ATOM     61  C   UNL A   1      47.832  26.699  26.739  1.00  0.00     0.148 A 
ATOM     62  C   UNL A   1      48.104  27.225  23.991  1.00  0.00     0.002 A 
ATOM     63  C   UNL A   1      48.998  26.346  26.069  1.00  0.00     0.091 A 
ATOM     64  F   UNL A   1      47.658  26.441  28.043  1.00  0.00    -0.205 F 
ATOM     65  C   UNL A   1      49.133  26.605  24.695  1.00  0.00     0.022 A 
BRANCH  63  66
ATOM     66  S   UNL A   1      50.404  25.592  26.897  1.00  0.00     0.127 S 
ATOM     67  O   UNL A   1      51.345  25.435  25.789  1.00  0.00    -0.237 OA
ATOM     68  O   UNL A   1      50.776  26.619  27.871  1.00  0.00    -0.237 OA
ATOM     69  O   UNL A   1      49.910  24.353  27.479  1.00  0.00    -0.744 OA
ENDBRANCH  63  66
ENDBRANCH  45  59
BRANCH  46  70
ATOM     70  C   UNL A   1      38.531  30.202  30.855  1.00  0.00     0.023 A 
ATOM     71  C   UNL A   1      38.373  29.931  32.225  1.00  0.00     0.012 A 
ATOM     72  C   UNL A   1      37.565  30.981  30.186  1.00  0.00     0.148 A 
ATOM     73  C   UNL A   1      37.277  30.435  32.924  1.00  0.00     0.002 A 
ATOM     74  C   UNL A   1      36.503  31.521  30.898  1.00  0.00     0.091 A 
ATOM     75  F   UNL A   1      37.744  31.225  28.881  1.00  0.00    -0.205 F 
ATOM     76  C   UNL A   1      36.351  31.242  32.266  1.00  0.00     0.022 A 
BRANCH  74  77
ATOM     77  S   UNL A   1      35.338  32.678  30.171  1.00  0.00     0.127 S 
ATOM     78  O   UNL A   1      34.291  32.727  31.190  1.00  0.00    -0.237 OA
ATOM     79  O   UNL A   1      36.152  33.889  30.066  1.00  0.00    -0.237 OA
ATOM     80  O   UNL A   1      34.940  32.097  28.897  1.00  0.00    -0.744 OA
ENDBRANCH  74  77
ENDBRANCH  46  70
BRANCH  58  81
ATOM     81  C   UNL A   1      44.681  33.265  29.501  1.00  0.00     0.023 A 
ATOM     82  C   UNL A   1      45.487  33.348  30.652  1.00  0.00     0.012 A 
ATOM     83  C   UNL A   1      44.554  34.382  28.654  1.00  0.00     0.148 A 
ATOM     84  C   UNL A   1      46.159  34.529  30.959  1.00  0.00     0.002 A 
ATOM     85  C   UNL A   1      45.252  35.548  28.949  1.00  0.00     0.091 A 
ATOM     86  F   UNL A   1      43.772  34.276  27.571  1.00  0.00    -0.205 F 
ATOM     87  C   UNL A   1      46.051  35.624  30.102  1.00  0.00     0.022 A 
BRANCH  85  88
ATOM     88  S   UNL A   1      45.239  36.983  27.871  1.00  0.00     0.127 S 
ATOM     89  O   UNL A   1      45.858  36.450  26.658  1.00  0.00    -0.237 OA
ATOM     90  O   UNL A   1      43.809  37.267  27.752  1.00  0.00    -0.237 OA
ATOM     91  O   UNL A   1      46.008  38.012  28.558  1.00  0.00    -0.744 OA
ENDBRANCH  85  88
ENDBRANCH  58  81
ENDBRANCH  32  33
ENDBRANCH  24  27
ENDBRANCH   1  23
TORSDOF 14
ENDMDL
MODEL 3
REMARK VINA RESULT:     -12.9      5.425     10.293
REMARK SMILES Cc1ccc2c(c1)C=C(C(=O)NCCCNC(=O)c1ccc(-c3c4nc(c(-c5cccc(S(=O)(=O)[O-])c5F)c5ccc([nH]5)c(-c5cccc(S(=O)(=O)[O-])c5F)c5nc(c(-c6cccc(S(=O)(=O)[O-])c6F)c6ccc3[nH]6)C=C5)C=C4)cc1)[C@@H](C(F)(F)F)O2
REMARK SMILES IDX 15 1 14 2 13 3 12 4 10 5 11 6 9 8 1 9 2 10 3 11 7 12 4 13
REMARK SMILES IDX 6 14 5 15 8 16 87 17 82 18 83 19 84 20 85 21 86 22 16 23
REMARK SMILES IDX 17 24 18 26 19 27 20 28 81 29 21 30 80 31 22 32 23 33 24 34
REMARK SMILES IDX 74 35 25 36 79 37 73 38 75 39 26 40 78 41 72 42 71 43 27 45
REMARK SMILES IDX 59 46 39 47 58 48 40 49 43 50 57 51 76 52 41 53 42 54 56 56
REMARK SMILES IDX 77 57 44 58 28 59 29 60 37 61 30 62 32 63 38 64 31 65 33 66
REMARK SMILES IDX 34 67 35 68 36 69 60 70 61 71 69 72 62 73 64 74 70 75 63 76
REMARK SMILES IDX 65 77 66 78 67 79 68 80 45 81 46 82 54 83 47 84 49 85 55 86
REMARK SMILES IDX 48 87 50 88 51 89 52 90 53 91
REMARK H PARENT 12 7 16 25 75 44 43 55
REMARK Flexibility Score: inf
ROOT
ATOM      1  C   UNL A   1      36.772  22.065  25.043  1.00  0.00     0.118 C 
ENDROOT
BRANCH   1   2
ATOM      2  C   UNL A   1      35.509  22.066  25.895  1.00  0.00     0.042 C 
BRANCH   2   3
ATOM      3  C   UNL A   1      34.431  21.146  25.341  1.00  0.00     0.118 C 
BRANCH   3   4
ATOM      4  N   UNL A   1      33.938  21.597  24.048  1.00  0.00    -0.352 N 
ATOM      5  C   UNL A   1      33.192  22.618  23.570  1.00  0.00     0.251 C 
ATOM      6  O   UNL A   1      33.021  22.612  22.346  1.00  0.00    -0.270 OA
ATOM      7  H   UNL A   1      34.226  20.995  23.325  1.00  0.00     0.163 HD
BRANCH   5   8
ATOM      8  C   UNL A   1      32.594  23.711  24.391  1.00  0.00     0.067 C 
ATOM      9  C   UNL A   1      34.160  28.985  27.237  1.00  0.00     0.044 C 
ATOM     10  C   UNL A   1      33.256  27.901  26.726  1.00  0.00    -0.050 A 
ATOM     11  C   UNL A   1      31.882  27.962  26.989  1.00  0.00     0.007 A 
ATOM     12  C   UNL A   1      33.763  26.841  25.961  1.00  0.00     0.015 A 
ATOM     13  C   UNL A   1      31.027  26.974  26.501  1.00  0.00     0.047 A 
ATOM     14  C   UNL A   1      32.909  25.843  25.479  1.00  0.00     0.017 A 
ATOM     15  C   UNL A   1      31.545  25.915  25.761  1.00  0.00     0.128 A 
ATOM     16  C   UNL A   1      33.409  24.750  24.657  1.00  0.00     0.025 C 
ATOM     17  O   UNL A   1      30.650  24.994  25.295  1.00  0.00    -0.475 OA
ATOM     18  C   UNL A   1      31.197  23.691  24.947  1.00  0.00     0.314 C 
BRANCH  18  19
ATOM     19  C   UNL A   1      31.056  22.747  26.157  1.00  0.00     0.429 C 
ATOM     20  F   UNL A   1      31.029  21.453  25.750  1.00  0.00    -0.167 F 
ATOM     21  F   UNL A   1      32.088  22.854  27.027  1.00  0.00    -0.167 F 
ATOM     22  F   UNL A   1      29.926  22.970  26.867  1.00  0.00    -0.167 F 
ENDBRANCH  18  19
ENDBRANCH   5   8
ENDBRANCH   3   4
ENDBRANCH   2   3
ENDBRANCH   1   2
BRANCH   1  23
ATOM     23  N   UNL A   1      37.674  20.970  25.393  1.00  0.00    -0.352 N 
ATOM     24  C   UNL A   1      38.936  20.993  25.939  1.00  0.00     0.251 C 
ATOM     25  H   UNL A   1      37.320  20.070  25.210  1.00  0.00     0.163 HD
ATOM     26  O   UNL A   1      39.613  19.967  25.935  1.00  0.00    -0.269 OA
BRANCH  24  27
ATOM     27  C   UNL A   1      39.480  22.246  26.501  1.00  0.00     0.039 A 
ATOM     28  C   UNL A   1      38.944  23.476  26.122  1.00  0.00     0.014 A 
ATOM     29  C   UNL A   1      40.536  22.195  27.415  1.00  0.00     0.014 A 
ATOM     30  C   UNL A   1      39.590  24.649  26.487  1.00  0.00     0.010 A 
ATOM     31  C   UNL A   1      41.115  23.384  27.873  1.00  0.00     0.010 A 
ATOM     32  C   UNL A   1      40.683  24.619  27.368  1.00  0.00    -0.014 A 
BRANCH  32  33
ATOM     33  C   UNL A   1      41.335  25.900  27.746  1.00  0.00     0.031 A 
ATOM     34  C   UNL A   1      42.714  26.246  27.255  1.00  0.00     0.074 A 
ATOM     35  C   UNL A   1      40.644  26.784  28.492  1.00  0.00     0.049 A 
ATOM     36  N   UNL A   1      43.397  27.346  27.446  1.00  0.00    -0.248 NA
ATOM     37  C   UNL A   1      43.426  25.235  26.456  1.00  0.00     0.031 C 
ATOM     38  C   UNL A   1      39.309  26.551  29.049  1.00  0.00     0.029 A 
ATOM     39  N   UNL A   1      40.949  28.062  28.886  1.00  0.00    -0.354 N 
ATOM     40  C   UNL A   1      44.631  27.139  26.844  1.00  0.00     0.074 A 
ATOM     41  C   UNL A   1      44.606  25.811  26.273  1.00  0.00     0.031 C 
ATOM     42  C   UNL A   1      38.884  27.667  29.655  1.00  0.00     0.029 A 
ATOM     43  C   UNL A   1      39.937  28.675  29.586  1.00  0.00     0.049 A 
ATOM     44  H   UNL A   1      41.809  28.497  28.687  1.00  0.00     0.167 HD
ATOM     45  C   UNL A   1      45.684  27.986  26.758  1.00  0.00     0.034 A 
ATOM     46  C   UNL A   1      39.859  29.909  30.120  1.00  0.00     0.034 A 
ATOM     47  C   UNL A   1      45.681  29.332  27.262  1.00  0.00     0.049 A 
ATOM     48  C   UNL A   1      41.020  30.843  29.976  1.00  0.00     0.074 A 
ATOM     49  C   UNL A   1      46.676  30.289  27.155  1.00  0.00     0.029 A 
ATOM     50  N   UNL A   1      44.636  29.915  27.960  1.00  0.00    -0.354 N 
ATOM     51  N   UNL A   1      42.145  30.656  29.330  1.00  0.00    -0.248 NA
ATOM     52  C   UNL A   1      40.907  32.155  30.627  1.00  0.00     0.031 C 
ATOM     53  C   UNL A   1      46.234  31.450  27.798  1.00  0.00     0.029 A 
ATOM     54  C   UNL A   1      44.963  31.217  28.299  1.00  0.00     0.049 A 
ATOM     55  H   UNL A   1      43.787  29.470  28.183  1.00  0.00     0.167 HD
ATOM     56  C   UNL A   1      42.875  31.824  29.494  1.00  0.00     0.074 A 
ATOM     57  C   UNL A   1      42.055  32.725  30.278  1.00  0.00     0.031 C 
ATOM     58  C   UNL A   1      44.122  32.113  29.050  1.00  0.00     0.034 A 
BRANCH  45  59
ATOM     59  C   UNL A   1      46.921  27.504  26.054  1.00  0.00     0.023 A 
ATOM     60  C   UNL A   1      47.842  26.696  26.749  1.00  0.00     0.012 A 
ATOM     61  C   UNL A   1      47.129  27.780  24.689  1.00  0.00     0.148 A 
ATOM     62  C   UNL A   1      48.962  26.178  26.098  1.00  0.00     0.002 A 
ATOM     63  C   UNL A   1      48.232  27.238  24.039  1.00  0.00     0.091 A 
ATOM     64  F   UNL A   1      46.249  28.568  24.055  1.00  0.00    -0.205 F 
ATOM     65  C   UNL A   1      49.151  26.441  24.743  1.00  0.00     0.022 A 
BRANCH  63  66
ATOM     66  S   UNL A   1      48.537  27.471  22.284  1.00  0.00     0.127 S 
ATOM     67  O   UNL A   1      49.795  28.217  22.302  1.00  0.00    -0.237 OA
ATOM     68  O   UNL A   1      48.652  26.093  21.805  1.00  0.00    -0.237 OA
ATOM     69  O   UNL A   1      47.387  28.199  21.770  1.00  0.00    -0.744 OA
ENDBRANCH  63  66
ENDBRANCH  45  59
BRANCH  46  70
ATOM     70  C   UNL A   1      38.597  30.316  30.793  1.00  0.00     0.023 A 
ATOM     71  C   UNL A   1      38.450  30.090  32.174  1.00  0.00     0.012 A 
ATOM     72  C   UNL A   1      37.610  31.044  30.101  1.00  0.00     0.148 A 
ATOM     73  C   UNL A   1      37.342  30.591  32.858  1.00  0.00     0.002 A 
ATOM     74  C   UNL A   1      36.535  31.582  30.796  1.00  0.00     0.091 A 
ATOM     75  F   UNL A   1      37.779  31.245  28.787  1.00  0.00    -0.205 F 
ATOM     76  C   UNL A   1      36.394  31.349  32.174  1.00  0.00     0.022 A 
BRANCH  74  77
ATOM     77  S   UNL A   1      35.338  32.681  30.031  1.00  0.00     0.127 S 
ATOM     78  O   UNL A   1      34.404  32.915  31.131  1.00  0.00    -0.237 OA
ATOM     79  O   UNL A   1      36.175  33.828  29.680  1.00  0.00    -0.237 OA
ATOM     80  O   UNL A   1      34.794  31.951  28.896  1.00  0.00    -0.744 OA
ENDBRANCH  74  77
ENDBRANCH  46  70
BRANCH  58  81
ATOM     81  C   UNL A   1      44.701  33.453  29.403  1.00  0.00     0.023 A 
ATOM     82  C   UNL A   1      45.493  33.572  30.561  1.00  0.00     0.012 A 
ATOM     83  C   UNL A   1      44.569  34.550  28.531  1.00  0.00     0.148 A 
ATOM     84  C   UNL A   1      46.145  34.769  30.850  1.00  0.00     0.002 A 
ATOM     85  C   UNL A   1      45.247  35.731  28.808  1.00  0.00     0.091 A 
ATOM     86  F   UNL A   1      43.800  34.410  27.442  1.00  0.00    -0.205 F 
ATOM     87  C   UNL A   1      46.032  35.843  29.969  1.00  0.00     0.022 A 
BRANCH  85  88
ATOM     88  S   UNL A   1      45.225  37.143  27.700  1.00  0.00     0.127 S 
ATOM     89  O   UNL A   1      45.978  38.134  28.466  1.00  0.00    -0.237 OA
ATOM     90  O   UNL A   1      45.922  36.623  26.523  1.00  0.00    -0.237 OA
ATOM     91  O   UNL A   1      43.821  37.465  27.481  1.00  0.00    -0.744 OA
ENDBRANCH  85  88
ENDBRANCH  58  81
ENDBRANCH  32  33
ENDBRANCH  24  27
ENDBRANCH   1  23
TORSDOF 14
ENDMDL
