MODEL 1
REMARK VINA RESULT:     -12.6      0.000      0.000
REMARK SMILES CC(C)CCc1cc2c(cc1Cl)C=C(C(=O)NCCCNC(=O)c1ccc(-c3c4nc(c(-c5cccc(S(=O)(=O)[O-])c5F)c5ccc([nH]5)c(-c5cccc(S(=O)(=O)[O-])c5F)c5nc(c(-c6cccc(S(=O)(=O)[O-])c6F)c6ccc3[nH]6)C=C5)C=C4)cc1)[C@@H](C(F)(F)F)O2
REMARK SMILES IDX 19 1 18 2 17 3 15 4 16 5 14 7 6 8 7 9 11 10 8 11 10 12 12 13
REMARK SMILES IDX 9 14 92 15 13 16 87 17 5 18 4 19 2 20 1 21 3 22 88 23 89 24
REMARK SMILES IDX 90 25 91 26 20 27 21 28 22 29 23 31 24 32 25 33 86 34 26 35
REMARK SMILES IDX 85 36 27 37 28 38 29 39 79 40 30 41 84 42 78 43 80 44 31 45
REMARK SMILES IDX 83 46 77 47 76 48 32 50 64 51 44 52 63 53 45 54 48 55 62 56
REMARK SMILES IDX 81 57 46 58 47 59 61 61 82 62 49 63 33 64 34 65 42 66 35 67
REMARK SMILES IDX 37 68 43 69 36 70 38 71 39 72 40 73 41 74 65 75 66 76 74 77
REMARK SMILES IDX 67 78 69 79 75 80 68 81 70 82 71 83 72 84 73 85 50 86 51 87
REMARK SMILES IDX 59 88 52 89 54 90 60 91 53 92 55 93 56 94 57 95 58 96
REMARK H PARENT 17 6 21 30 80 49 48 60
REMARK Flexibility Score: inf
ROOT
ATOM      1  C   UNL A   1      31.138  31.479  25.770  1.00  0.00     0.042 C 
ENDROOT
BRANCH   1   2
ATOM      2  C   UNL A   1      31.300  30.101  25.142  1.00  0.00     0.118 C 
BRANCH   2   3
ATOM      3  N   UNL A   1      30.641  30.001  23.848  1.00  0.00    -0.352 N 
ATOM      4  C   UNL A   1      30.392  29.027  22.940  1.00  0.00     0.251 C 
ATOM      5  O   UNL A   1      29.730  29.375  21.956  1.00  0.00    -0.270 OA
ATOM      6  H   UNL A   1      30.283  30.869  23.556  1.00  0.00     0.163 HD
BRANCH   4   7
ATOM      7  C   UNL A   1      30.855  27.617  23.051  1.00  0.00     0.067 C 
ATOM      8  C   UNL A   1      31.671  22.806  24.292  1.00  0.00    -0.026 A 
ATOM      9  C   UNL A   1      31.737  23.546  23.106  1.00  0.00     0.052 A 
ATOM     10  C   UNL A   1      31.068  23.426  25.409  1.00  0.00     0.045 A 
ATOM     11  C   UNL A   1      31.348  24.880  23.076  1.00  0.00     0.128 A 
ATOM     12  C   UNL A   1      30.596  24.748  25.349  1.00  0.00     0.032 A 
ATOM     13  Cl  UNL A   1      30.884  22.591  26.914  1.00  0.00    -0.084 Cl
ATOM     14  C   UNL A   1      30.763  25.491  24.183  1.00  0.00     0.019 A 
ATOM     15  O   UNL A   1      31.594  25.560  21.915  1.00  0.00    -0.475 OA
ATOM     16  C   UNL A   1      30.338  26.885  24.060  1.00  0.00     0.025 C 
ATOM     17  C   UNL A   1      31.843  26.978  22.117  1.00  0.00     0.314 C 
BRANCH   8  18
ATOM     18  C   UNL A   1      32.250  21.407  24.388  1.00  0.00     0.037 C 
BRANCH  18  19
ATOM     19  C   UNL A   1      33.776  21.248  24.547  1.00  0.00     0.008 C 
BRANCH  19  20
ATOM     20  C   UNL A   1      34.582  22.541  24.819  1.00  0.00    -0.017 C 
ATOM     21  C   UNL A   1      34.937  22.719  26.293  1.00  0.00     0.007 C 
ATOM     22  C   UNL A   1      35.855  22.536  23.968  1.00  0.00     0.007 C 
ENDBRANCH  19  20
ENDBRANCH  18  19
ENDBRANCH   8  18
BRANCH  17  23
ATOM     23  C   UNL A   1      33.305  27.224  22.555  1.00  0.00     0.429 C 
ATOM     24  F   UNL A   1      33.880  28.182  21.789  1.00  0.00    -0.167 F 
ATOM     25  F   UNL A   1      33.391  27.653  23.839  1.00  0.00    -0.167 F 
ATOM     26  F   UNL A   1      34.082  26.120  22.471  1.00  0.00    -0.167 F 
ENDBRANCH  17  23
ENDBRANCH   4   7
ENDBRANCH   2   3
ENDBRANCH   1   2
BRANCH   1  27
ATOM     27  C   UNL A   1      32.163  31.746  26.863  1.00  0.00     0.118 C 
BRANCH  27  28
ATOM     28  N   UNL A   1      32.228  33.160  27.225  1.00  0.00    -0.352 N 
ATOM     29  C   UNL A   1      33.116  33.837  28.030  1.00  0.00     0.251 C 
ATOM     30  H   UNL A   1      31.521  33.720  26.828  1.00  0.00     0.163 HD
ATOM     31  O   UNL A   1      32.859  34.981  28.383  1.00  0.00    -0.269 OA
BRANCH  29  32
ATOM     32  C   UNL A   1      34.357  33.171  28.479  1.00  0.00     0.039 A 
ATOM     33  C   UNL A   1      34.294  31.951  29.149  1.00  0.00     0.014 A 
ATOM     34  C   UNL A   1      35.594  33.775  28.235  1.00  0.00     0.014 A 
ATOM     35  C   UNL A   1      35.435  31.441  29.752  1.00  0.00     0.010 A 
ATOM     36  C   UNL A   1      36.759  33.198  28.749  1.00  0.00     0.010 A 
ATOM     37  C   UNL A   1      36.682  32.056  29.560  1.00  0.00    -0.014 A 
BRANCH  37  38
ATOM     38  C   UNL A   1      37.878  31.468  30.220  1.00  0.00     0.031 A 
ATOM     39  C   UNL A   1      38.209  31.784  31.654  1.00  0.00     0.074 A 
ATOM     40  C   UNL A   1      38.626  30.581  29.534  1.00  0.00     0.049 A 
ATOM     41  N   UNL A   1      39.172  31.302  32.395  1.00  0.00    -0.248 NA
ATOM     42  C   UNL A   1      37.361  32.768  32.349  1.00  0.00     0.031 C 
ATOM     43  C   UNL A   1      38.416  30.211  28.132  1.00  0.00     0.029 A 
ATOM     44  N   UNL A   1      39.687  29.805  29.924  1.00  0.00    -0.354 N 
ATOM     45  C   UNL A   1      39.079  31.954  33.619  1.00  0.00     0.074 A 
ATOM     46  C   UNL A   1      37.963  32.867  33.528  1.00  0.00     0.031 C 
ATOM     47  C   UNL A   1      39.269  29.231  27.802  1.00  0.00     0.029 A 
ATOM     48  C   UNL A   1      40.127  28.945  28.946  1.00  0.00     0.049 A 
ATOM     49  H   UNL A   1      40.094  29.857  30.820  1.00  0.00     0.167 HD
ATOM     50  C   UNL A   1      39.843  31.789  34.724  1.00  0.00     0.034 A 
ATOM     51  C   UNL A   1      41.113  28.027  28.959  1.00  0.00     0.034 A 
ATOM     52  C   UNL A   1      40.905  30.829  34.837  1.00  0.00     0.049 A 
ATOM     53  C   UNL A   1      41.919  27.842  30.209  1.00  0.00     0.074 A 
ATOM     54  C   UNL A   1      41.696  30.554  35.939  1.00  0.00     0.029 A 
ATOM     55  N   UNL A   1      41.319  29.982  33.822  1.00  0.00    -0.354 N 
ATOM     56  N   UNL A   1      41.766  28.420  31.375  1.00  0.00    -0.248 NA
ATOM     57  C   UNL A   1      43.029  26.880  30.152  1.00  0.00     0.031 C 
ATOM     58  C   UNL A   1      42.592  29.540  35.590  1.00  0.00     0.029 A 
ATOM     59  C   UNL A   1      42.356  29.183  34.271  1.00  0.00     0.049 A 
ATOM     60  H   UNL A   1      40.933  29.952  32.918  1.00  0.00     0.167 HD
ATOM     61  C   UNL A   1      42.756  27.892  32.192  1.00  0.00     0.074 A 
ATOM     62  C   UNL A   1      43.488  26.928  31.396  1.00  0.00     0.031 C 
ATOM     63  C   UNL A   1      43.044  28.199  33.479  1.00  0.00     0.034 A 
BRANCH  50  64
ATOM     64  C   UNL A   1      39.531  32.627  35.933  1.00  0.00     0.023 A 
ATOM     65  C   UNL A   1      40.068  33.925  36.029  1.00  0.00     0.012 A 
ATOM     66  C   UNL A   1      38.624  32.175  36.911  1.00  0.00     0.148 A 
ATOM     67  C   UNL A   1      39.712  34.761  37.086  1.00  0.00     0.002 A 
ATOM     68  C   UNL A   1      38.253  33.023  37.947  1.00  0.00     0.091 A 
ATOM     69  F   UNL A   1      38.138  30.930  36.803  1.00  0.00    -0.205 F 
ATOM     70  C   UNL A   1      38.799  34.314  38.038  1.00  0.00     0.022 A 
BRANCH  68  71
ATOM     71  S   UNL A   1      37.043  32.568  39.195  1.00  0.00     0.127 S 
ATOM     72  O   UNL A   1      37.444  31.196  39.506  1.00  0.00    -0.237 OA
ATOM     73  O   UNL A   1      37.316  33.539  40.255  1.00  0.00    -0.237 OA
ATOM     74  O   UNL A   1      35.739  32.704  38.561  1.00  0.00    -0.744 OA
ENDBRANCH  68  71
ENDBRANCH  50  64
BRANCH  51  75
ATOM     75  C   UNL A   1      41.338  27.188  27.752  1.00  0.00     0.023 A 
ATOM     76  C   UNL A   1      41.995  27.745  26.640  1.00  0.00     0.012 A 
ATOM     77  C   UNL A   1      41.000  25.821  27.743  1.00  0.00     0.148 A 
ATOM     78  C   UNL A   1      42.313  26.953  25.535  1.00  0.00     0.002 A 
ATOM     79  C   UNL A   1      41.361  25.029  26.662  1.00  0.00     0.091 A 
ATOM     80  F   UNL A   1      40.368  25.319  28.813  1.00  0.00    -0.205 F 
ATOM     81  C   UNL A   1      42.009  25.594  25.552  1.00  0.00     0.022 A 
BRANCH  79  82
ATOM     82  S   UNL A   1      41.127  23.248  26.649  1.00  0.00     0.127 S 
ATOM     83  O   UNL A   1      41.585  22.877  27.986  1.00  0.00    -0.237 OA
ATOM     84  O   UNL A   1      39.683  23.137  26.439  1.00  0.00    -0.237 OA
ATOM     85  O   UNL A   1      41.937  22.750  25.547  1.00  0.00    -0.744 OA
ENDBRANCH  79  82
ENDBRANCH  51  75
BRANCH  63  86
ATOM     86  C   UNL A   1      44.202  27.496  34.127  1.00  0.00     0.023 A 
ATOM     87  C   UNL A   1      45.477  28.090  34.075  1.00  0.00     0.012 A 
ATOM     88  C   UNL A   1      44.002  26.331  34.894  1.00  0.00     0.148 A 
ATOM     89  C   UNL A   1      46.543  27.531  34.777  1.00  0.00     0.002 A 
ATOM     90  C   UNL A   1      45.061  25.799  35.617  1.00  0.00     0.091 A 
ATOM     91  F   UNL A   1      42.777  25.787  34.917  1.00  0.00    -0.205 F 
ATOM     92  C   UNL A   1      46.332  26.395  35.557  1.00  0.00     0.022 A 
BRANCH  90  93
ATOM     93  S   UNL A   1      44.875  24.384  36.707  1.00  0.00     0.127 S 
ATOM     94  O   UNL A   1      43.947  24.903  37.711  1.00  0.00    -0.237 OA
ATOM     95  O   UNL A   1      44.306  23.378  35.812  1.00  0.00    -0.237 OA
ATOM     96  O   UNL A   1      46.211  24.075  37.201  1.00  0.00    -0.744 OA
ENDBRANCH  90  93
ENDBRANCH  63  86
ENDBRANCH  37  38
ENDBRANCH  29  32
ENDBRANCH  27  28
ENDBRANCH   1  27
TORSDOF 17
ENDMDL
MODEL 2
REMARK VINA RESULT:     -12.6      5.500     10.667
REMARK SMILES CC(C)CCc1cc2c(cc1Cl)C=C(C(=O)NCCCNC(=O)c1ccc(-c3c4nc(c(-c5cccc(S(=O)(=O)[O-])c5F)c5ccc([nH]5)c(-c5cccc(S(=O)(=O)[O-])c5F)c5nc(c(-c6cccc(S(=O)(=O)[O-])c6F)c6ccc3[nH]6)C=C5)C=C4)cc1)[C@@H](C(F)(F)F)O2
REMARK SMILES IDX 19 1 18 2 17 3 15 4 16 5 14 7 6 8 7 9 11 10 8 11 10 12 12 13
REMARK SMILES IDX 9 14 92 15 13 16 87 17 5 18 4 19 2 20 1 21 3 22 88 23 89 24
REMARK SMILES IDX 90 25 91 26 20 27 21 28 22 29 23 31 24 32 25 33 86 34 26 35
REMARK SMILES IDX 85 36 27 37 28 38 29 39 79 40 30 41 84 42 78 43 80 44 31 45
REMARK SMILES IDX 83 46 77 47 76 48 32 50 64 51 44 52 63 53 45 54 48 55 62 56
REMARK SMILES IDX 81 57 46 58 47 59 61 61 82 62 49 63 33 64 34 65 42 66 35 67
REMARK SMILES IDX 37 68 43 69 36 70 38 71 39 72 40 73 41 74 65 75 66 76 74 77
REMARK SMILES IDX 67 78 69 79 75 80 68 81 70 82 71 83 72 84 73 85 50 86 51 87
REMARK SMILES IDX 59 88 52 89 54 90 60 91 53 92 55 93 56 94 57 95 58 96
REMARK H PARENT 17 6 21 30 80 49 48 60
REMARK Flexibility Score: inf
ROOT
ATOM      1  C   UNL A   1      35.872  21.134  25.694  1.00  0.00     0.042 C 
ENDROOT
BRANCH   1   2
ATOM      2  C   UNL A   1      35.488  19.995  24.759  1.00  0.00     0.118 C 
BRANCH   2   3
ATOM      3  N   UNL A   1      34.227  19.371  25.134  1.00  0.00    -0.352 N 
ATOM      4  C   UNL A   1      32.930  19.746  25.229  1.00  0.00     0.251 C 
ATOM      5  O   UNL A   1      32.140  18.853  25.552  1.00  0.00    -0.270 OA
ATOM      6  H   UNL A   1      34.351  18.427  25.385  1.00  0.00     0.163 HD
BRANCH   4   7
ATOM      7  C   UNL A   1      32.419  21.122  24.981  1.00  0.00     0.067 C 
ATOM      8  C   UNL A   1      31.076  25.587  23.079  1.00  0.00    -0.026 A 
ATOM      9  C   UNL A   1      30.582  24.753  24.089  1.00  0.00     0.052 A 
ATOM     10  C   UNL A   1      32.061  25.050  22.221  1.00  0.00     0.045 A 
ATOM     11  C   UNL A   1      31.140  23.501  24.315  1.00  0.00     0.128 A 
ATOM     12  C   UNL A   1      32.561  23.749  22.400  1.00  0.00     0.032 A 
ATOM     13  Cl  UNL A   1      32.708  25.968  20.904  1.00  0.00    -0.084 Cl
ATOM     14  C   UNL A   1      32.118  22.978  23.473  1.00  0.00     0.019 A 
ATOM     15  O   UNL A   1      30.695  22.827  25.420  1.00  0.00    -0.475 OA
ATOM     16  C   UNL A   1      32.625  21.635  23.750  1.00  0.00     0.025 C 
ATOM     17  C   UNL A   1      31.697  21.951  26.005  1.00  0.00     0.314 C 
BRANCH   8  18
ATOM     18  C   UNL A   1      30.599  27.020  22.928  1.00  0.00     0.037 C 
BRANCH  18  19
ATOM     19  C   UNL A   1      29.198  27.392  23.455  1.00  0.00     0.008 C 
BRANCH  19  20
ATOM     20  C   UNL A   1      28.522  28.626  22.812  1.00  0.00    -0.017 C 
ATOM     21  C   UNL A   1      27.050  28.763  23.194  1.00  0.00     0.007 C 
ATOM     22  C   UNL A   1      29.289  29.891  23.211  1.00  0.00     0.007 C 
ENDBRANCH  19  20
ENDBRANCH  18  19
ENDBRANCH   8  18
BRANCH  17  23
ATOM     23  C   UNL A   1      32.671  22.750  26.902  1.00  0.00     0.429 C 
ATOM     24  F   UNL A   1      32.021  23.751  27.543  1.00  0.00    -0.167 F 
ATOM     25  F   UNL A   1      33.236  21.977  27.863  1.00  0.00    -0.167 F 
ATOM     26  F   UNL A   1      33.694  23.310  26.215  1.00  0.00    -0.167 F 
ENDBRANCH  17  23
ENDBRANCH   4   7
ENDBRANCH   2   3
ENDBRANCH   1   2
BRANCH   1  27
ATOM     27  C   UNL A   1      37.276  21.659  25.427  1.00  0.00     0.118 C 
BRANCH  27  28
ATOM     28  N   UNL A   1      38.301  20.654  25.698  1.00  0.00    -0.352 N 
ATOM     29  C   UNL A   1      39.582  20.792  26.183  1.00  0.00     0.251 C 
ATOM     30  H   UNL A   1      38.032  19.727  25.502  1.00  0.00     0.163 HD
ATOM     31  O   UNL A   1      40.355  19.845  26.123  1.00  0.00    -0.269 OA
BRANCH  29  32
ATOM     32  C   UNL A   1      40.020  22.086  26.749  1.00  0.00     0.039 A 
ATOM     33  C   UNL A   1      39.527  23.281  26.228  1.00  0.00     0.014 A 
ATOM     34  C   UNL A   1      40.935  22.106  27.805  1.00  0.00     0.014 A 
ATOM     35  C   UNL A   1      40.098  24.485  26.615  1.00  0.00     0.010 A 
ATOM     36  C   UNL A   1      41.426  23.329  28.272  1.00  0.00     0.010 A 
ATOM     37  C   UNL A   1      41.054  24.526  27.642  1.00  0.00    -0.014 A 
BRANCH  37  38
ATOM     38  C   UNL A   1      41.632  25.840  28.029  1.00  0.00     0.031 A 
ATOM     39  C   UNL A   1      43.004  26.253  27.565  1.00  0.00     0.074 A 
ATOM     40  C   UNL A   1      40.874  26.697  28.743  1.00  0.00     0.049 A 
ATOM     41  N   UNL A   1      43.622  27.389  27.756  1.00  0.00    -0.248 NA
ATOM     42  C   UNL A   1      43.788  25.272  26.795  1.00  0.00     0.031 C 
ATOM     43  C   UNL A   1      39.538  26.400  29.267  1.00  0.00     0.029 A 
ATOM     44  N   UNL A   1      41.097  27.995  29.124  1.00  0.00    -0.354 N 
ATOM     45  C   UNL A   1      44.878  27.245  27.178  1.00  0.00     0.074 A 
ATOM     46  C   UNL A   1      44.938  25.911  26.625  1.00  0.00     0.031 C 
ATOM     47  C   UNL A   1      39.033  27.503  29.835  1.00  0.00     0.029 A 
ATOM     48  C   UNL A   1      40.029  28.567  29.772  1.00  0.00     0.049 A 
ATOM     49  H   UNL A   1      41.941  28.472  28.948  1.00  0.00     0.167 HD
ATOM     50  C   UNL A   1      45.880  28.150  27.098  1.00  0.00     0.034 A 
ATOM     51  C   UNL A   1      39.862  29.809  30.267  1.00  0.00     0.034 A 
ATOM     52  C   UNL A   1      45.791  29.499  27.584  1.00  0.00     0.049 A 
ATOM     53  C   UNL A   1      40.977  30.802  30.132  1.00  0.00     0.074 A 
ATOM     54  C   UNL A   1      46.739  30.505  27.496  1.00  0.00     0.029 A 
ATOM     55  N   UNL A   1      44.694  30.037  28.237  1.00  0.00    -0.354 N 
ATOM     56  N   UNL A   1      42.127  30.664  29.520  1.00  0.00    -0.248 NA
ATOM     57  C   UNL A   1      40.775  32.120  30.751  1.00  0.00     0.031 C 
ATOM     58  C   UNL A   1      46.214  31.651  28.099  1.00  0.00     0.029 A 
ATOM     59  C   UNL A   1      44.940  31.359  28.558  1.00  0.00     0.049 A 
ATOM     60  H   UNL A   1      43.863  29.550  28.440  1.00  0.00     0.167 HD
ATOM     61  C   UNL A   1      42.787  31.875  29.675  1.00  0.00     0.074 A 
ATOM     62  C   UNL A   1      41.897  32.746  30.417  1.00  0.00     0.031 C 
ATOM     63  C   UNL A   1      44.027  32.223  29.259  1.00  0.00     0.034 A 
BRANCH  50  64
ATOM     64  C   UNL A   1      47.154  27.741  26.412  1.00  0.00     0.023 A 
ATOM     65  C   UNL A   1      48.165  27.106  27.159  1.00  0.00     0.012 A 
ATOM     66  C   UNL A   1      47.302  27.882  25.019  1.00  0.00     0.148 A 
ATOM     67  C   UNL A   1      49.311  26.622  26.530  1.00  0.00     0.002 A 
ATOM     68  C   UNL A   1      48.434  27.373  24.394  1.00  0.00     0.091 A 
ATOM     69  F   UNL A   1      46.330  28.502  24.334  1.00  0.00    -0.205 F 
ATOM     70  C   UNL A   1      49.440  26.747  25.149  1.00  0.00     0.022 A 
BRANCH  68  71
ATOM     71  S   UNL A   1      48.676  27.431  22.615  1.00  0.00     0.127 S 
ATOM     72  O   UNL A   1      50.000  28.047  22.519  1.00  0.00    -0.237 OA
ATOM     73  O   UNL A   1      48.635  26.014  22.254  1.00  0.00    -0.237 OA
ATOM     74  O   UNL A   1      47.582  28.231  22.084  1.00  0.00    -0.744 OA
ENDBRANCH  68  71
ENDBRANCH  50  64
BRANCH  51  75
ATOM     75  C   UNL A   1      38.560  30.175  30.884  1.00  0.00     0.023 A 
ATOM     76  C   UNL A   1      38.332  29.873  32.239  1.00  0.00     0.012 A 
ATOM     77  C   UNL A   1      37.595  30.907  30.166  1.00  0.00     0.148 A 
ATOM     78  C   UNL A   1      37.162  30.297  32.872  1.00  0.00     0.002 A 
ATOM     79  C   UNL A   1      36.456  31.367  30.814  1.00  0.00     0.091 A 
ATOM     80  F   UNL A   1      37.835  31.173  28.875  1.00  0.00    -0.205 F 
ATOM     81  C   UNL A   1      36.232  31.054  32.164  1.00  0.00     0.022 A 
BRANCH  79  82
ATOM     82  S   UNL A   1      35.268  32.455  30.021  1.00  0.00     0.127 S 
ATOM     83  O   UNL A   1      36.110  33.582  29.629  1.00  0.00    -0.237 OA
ATOM     84  O   UNL A   1      34.793  31.624  28.914  1.00  0.00    -0.237 OA
ATOM     85  O   UNL A   1      34.260  32.745  31.032  1.00  0.00    -0.744 OA
ENDBRANCH  79  82
ENDBRANCH  51  75
BRANCH  63  86
ATOM     86  C   UNL A   1      44.518  33.603  29.590  1.00  0.00     0.023 A 
ATOM     87  C   UNL A   1      45.238  33.804  30.783  1.00  0.00     0.012 A 
ATOM     88  C   UNL A   1      44.387  34.657  28.665  1.00  0.00     0.148 A 
ATOM     89  C   UNL A   1      45.820  35.040  31.054  1.00  0.00     0.002 A 
ATOM     90  C   UNL A   1      44.997  35.877  28.928  1.00  0.00     0.091 A 
ATOM     91  F   UNL A   1      43.689  34.435  27.542  1.00  0.00    -0.205 F 
ATOM     92  C   UNL A   1      45.710  36.071  30.122  1.00  0.00     0.022 A 
BRANCH  90  93
ATOM     93  S   UNL A   1      44.976  37.241  27.760  1.00  0.00     0.127 S 
ATOM     94  O   UNL A   1      43.566  37.283  27.377  1.00  0.00    -0.237 OA
ATOM     95  O   UNL A   1      45.419  38.362  28.588  1.00  0.00    -0.237 OA
ATOM     96  O   UNL A   1      45.896  36.872  26.691  1.00  0.00    -0.744 OA
ENDBRANCH  90  93
ENDBRANCH  63  86
ENDBRANCH  37  38
ENDBRANCH  29  32
ENDBRANCH  27  28
ENDBRANCH   1  27
TORSDOF 17
ENDMDL
MODEL 3
REMARK VINA RESULT:     -12.5      2.207      7.903
REMARK SMILES CC(C)CCc1cc2c(cc1Cl)C=C(C(=O)NCCCNC(=O)c1ccc(-c3c4nc(c(-c5cccc(S(=O)(=O)[O-])c5F)c5ccc([nH]5)c(-c5cccc(S(=O)(=O)[O-])c5F)c5nc(c(-c6cccc(S(=O)(=O)[O-])c6F)c6ccc3[nH]6)C=C5)C=C4)cc1)[C@@H](C(F)(F)F)O2
REMARK SMILES IDX 19 1 18 2 17 3 15 4 16 5 14 7 6 8 7 9 11 10 8 11 10 12 12 13
REMARK SMILES IDX 9 14 92 15 13 16 87 17 5 18 4 19 2 20 1 21 3 22 88 23 89 24
REMARK SMILES IDX 90 25 91 26 20 27 21 28 22 29 23 31 24 32 25 33 86 34 26 35
REMARK SMILES IDX 85 36 27 37 28 38 29 39 79 40 30 41 84 42 78 43 80 44 31 45
REMARK SMILES IDX 83 46 77 47 76 48 32 50 64 51 44 52 63 53 45 54 48 55 62 56
REMARK SMILES IDX 81 57 46 58 47 59 61 61 82 62 49 63 33 64 34 65 42 66 35 67
REMARK SMILES IDX 37 68 43 69 36 70 38 71 39 72 40 73 41 74 65 75 66 76 74 77
REMARK SMILES IDX 67 78 69 79 75 80 68 81 70 82 71 83 72 84 73 85 50 86 51 87
REMARK SMILES IDX 59 88 52 89 54 90 60 91 53 92 55 93 56 94 57 95 58 96
REMARK H PARENT 17 6 21 30 80 49 48 60
REMARK Flexibility Score: inf
ROOT
ATOM      1  C   UNL A   1      31.620  32.137  26.863  1.00  0.00     0.042 C 
ENDROOT
BRANCH   1   2
ATOM      2  C   UNL A   1      31.834  30.665  26.538  1.00  0.00     0.118 C 
BRANCH   2   3
ATOM      3  N   UNL A   1      31.382  30.321  25.197  1.00  0.00    -0.352 N 
ATOM      4  C   UNL A   1      31.223  29.192  24.468  1.00  0.00     0.251 C 
ATOM      5  O   UNL A   1      30.746  29.350  23.339  1.00  0.00    -0.270 OA
ATOM      6  H   UNL A   1      31.125  31.122  24.686  1.00  0.00     0.163 HD
BRANCH   4   7
ATOM      7  C   UNL A   1      31.581  27.821  24.927  1.00  0.00     0.067 C 
ATOM      8  C   UNL A   1      33.862  23.563  26.346  1.00  0.00    -0.026 A 
ATOM      9  C   UNL A   1      32.653  24.191  26.666  1.00  0.00     0.052 A 
ATOM     10  C   UNL A   1      34.804  24.312  25.606  1.00  0.00     0.045 A 
ATOM     11  C   UNL A   1      32.346  25.448  26.157  1.00  0.00     0.128 A 
ATOM     12  C   UNL A   1      34.523  25.617  25.167  1.00  0.00     0.032 A 
ATOM     13  Cl  UNL A   1      36.354  23.659  25.196  1.00  0.00    -0.084 Cl
ATOM     14  C   UNL A   1      33.274  26.179  25.419  1.00  0.00     0.019 A 
ATOM     15  O   UNL A   1      31.082  25.910  26.398  1.00  0.00    -0.475 OA
ATOM     16  C   UNL A   1      32.894  27.512  24.956  1.00  0.00     0.025 C 
ATOM     17  C   UNL A   1      30.577  26.788  25.355  1.00  0.00     0.314 C 
BRANCH   8  18
ATOM     18  C   UNL A   1      34.142  22.127  26.747  1.00  0.00     0.037 C 
BRANCH  18  19
ATOM     19  C   UNL A   1      33.286  21.005  26.123  1.00  0.00     0.008 C 
BRANCH  19  20
ATOM     20  C   UNL A   1      33.601  20.631  24.655  1.00  0.00    -0.017 C 
ATOM     21  C   UNL A   1      33.349  19.156  24.352  1.00  0.00     0.007 C 
ATOM     22  C   UNL A   1      32.768  21.510  23.716  1.00  0.00     0.007 C 
ENDBRANCH  19  20
ENDBRANCH  18  19
ENDBRANCH   8  18
BRANCH  17  23
ATOM     23  C   UNL A   1      30.036  25.969  24.160  1.00  0.00     0.429 C 
ATOM     24  F   UNL A   1      30.121  24.641  24.411  1.00  0.00    -0.167 F 
ATOM     25  F   UNL A   1      28.729  26.232  23.908  1.00  0.00    -0.167 F 
ATOM     26  F   UNL A   1      30.700  26.205  23.005  1.00  0.00    -0.167 F 
ENDBRANCH  17  23
ENDBRANCH   4   7
ENDBRANCH   2   3
ENDBRANCH   1   2
BRANCH   1  27
ATOM     27  C   UNL A   1      32.890  32.816  27.357  1.00  0.00     0.118 C 
BRANCH  27  28
ATOM     28  N   UNL A   1      32.661  34.211  27.726  1.00  0.00    -0.352 N 
ATOM     29  C   UNL A   1      33.149  34.947  28.782  1.00  0.00     0.251 C 
ATOM     30  H   UNL A   1      32.061  34.705  27.121  1.00  0.00     0.163 HD
ATOM     31  O   UNL A   1      32.655  36.038  29.035  1.00  0.00    -0.269 OA
BRANCH  29  32
ATOM     32  C   UNL A   1      34.246  34.406  29.613  1.00  0.00     0.039 A 
ATOM     33  C   UNL A   1      35.568  34.521  29.188  1.00  0.00     0.014 A 
ATOM     34  C   UNL A   1      33.950  33.772  30.824  1.00  0.00     0.014 A 
ATOM     35  C   UNL A   1      36.566  33.830  29.860  1.00  0.00     0.010 A 
ATOM     36  C   UNL A   1      34.977  33.171  31.559  1.00  0.00     0.010 A 
ATOM     37  C   UNL A   1      36.285  33.147  31.053  1.00  0.00    -0.014 A 
BRANCH  37  38
ATOM     38  C   UNL A   1      37.389  32.427  31.742  1.00  0.00     0.031 A 
ATOM     39  C   UNL A   1      38.150  31.327  31.051  1.00  0.00     0.074 A 
ATOM     40  C   UNL A   1      37.753  32.828  32.977  1.00  0.00     0.049 A 
ATOM     41  N   UNL A   1      39.180  30.650  31.486  1.00  0.00    -0.248 NA
ATOM     42  C   UNL A   1      37.700  30.926  29.707  1.00  0.00     0.031 C 
ATOM     43  C   UNL A   1      37.077  33.869  33.756  1.00  0.00     0.029 A 
ATOM     44  N   UNL A   1      38.793  32.438  33.780  1.00  0.00    -0.354 N 
ATOM     45  C   UNL A   1      39.471  29.716  30.498  1.00  0.00     0.074 A 
ATOM     46  C   UNL A   1      38.511  29.911  29.436  1.00  0.00     0.031 C 
ATOM     47  C   UNL A   1      37.760  34.085  34.888  1.00  0.00     0.029 A 
ATOM     48  C   UNL A   1      38.885  33.159  34.947  1.00  0.00     0.049 A 
ATOM     49  H   UNL A   1      39.416  31.713  33.543  1.00  0.00     0.167 HD
ATOM     50  C   UNL A   1      40.462  28.795  30.472  1.00  0.00     0.034 A 
ATOM     51  C   UNL A   1      39.771  33.087  35.959  1.00  0.00     0.034 A 
ATOM     52  C   UNL A   1      41.460  28.652  31.495  1.00  0.00     0.049 A 
ATOM     53  C   UNL A   1      40.880  32.081  35.885  1.00  0.00     0.074 A 
ATOM     54  C   UNL A   1      42.536  27.781  31.526  1.00  0.00     0.029 A 
ATOM     55  N   UNL A   1      41.514  29.399  32.661  1.00  0.00    -0.354 N 
ATOM     56  N   UNL A   1      41.176  31.257  34.910  1.00  0.00    -0.248 NA
ATOM     57  C   UNL A   1      41.778  31.991  37.045  1.00  0.00     0.031 C 
ATOM     58  C   UNL A   1      43.241  28.001  32.712  1.00  0.00     0.029 A 
ATOM     59  C   UNL A   1      42.604  29.010  33.418  1.00  0.00     0.049 A 
ATOM     60  H   UNL A   1      40.873  30.102  32.911  1.00  0.00     0.167 HD
ATOM     61  C   UNL A   1      42.294  30.554  35.333  1.00  0.00     0.074 A 
ATOM     62  C   UNL A   1      42.640  31.065  36.644  1.00  0.00     0.031 C 
ATOM     63  C   UNL A   1      42.959  29.559  34.700  1.00  0.00     0.034 A 
BRANCH  50  64
ATOM     64  C   UNL A   1      40.563  27.894  29.272  1.00  0.00     0.023 A 
ATOM     65  C   UNL A   1      39.677  26.806  29.152  1.00  0.00     0.012 A 
ATOM     66  C   UNL A   1      41.449  28.189  28.219  1.00  0.00     0.148 A 
ATOM     67  C   UNL A   1      39.678  26.017  28.003  1.00  0.00     0.002 A 
ATOM     68  C   UNL A   1      41.426  27.416  27.065  1.00  0.00     0.091 A 
ATOM     69  F   UNL A   1      42.290  29.224  28.364  1.00  0.00    -0.205 F 
ATOM     70  C   UNL A   1      40.543  26.328  26.957  1.00  0.00     0.022 A 
BRANCH  68  71
ATOM     71  S   UNL A   1      42.459  27.762  25.636  1.00  0.00     0.127 S 
ATOM     72  O   UNL A   1      42.235  26.571  24.817  1.00  0.00    -0.237 OA
ATOM     73  O   UNL A   1      41.856  28.986  25.111  1.00  0.00    -0.237 OA
ATOM     74  O   UNL A   1      43.814  27.916  26.146  1.00  0.00    -0.744 OA
ENDBRANCH  68  71
ENDBRANCH  50  64
BRANCH  51  75
ATOM     75  C   UNL A   1      39.656  34.042  37.093  1.00  0.00     0.023 A 
ATOM     76  C   UNL A   1      39.993  35.393  36.891  1.00  0.00     0.012 A 
ATOM     77  C   UNL A   1      39.120  33.639  38.331  1.00  0.00     0.148 A 
ATOM     78  C   UNL A   1      39.797  36.330  37.906  1.00  0.00     0.002 A 
ATOM     79  C   UNL A   1      38.883  34.585  39.320  1.00  0.00     0.091 A 
ATOM     80  F   UNL A   1      38.816  32.345  38.497  1.00  0.00    -0.205 F 
ATOM     81  C   UNL A   1      39.229  35.930  39.113  1.00  0.00     0.022 A 
BRANCH  79  82
ATOM     82  S   UNL A   1      38.039  34.187  40.854  1.00  0.00     0.127 S 
ATOM     83  O   UNL A   1      39.046  33.392  41.551  1.00  0.00    -0.237 OA
ATOM     84  O   UNL A   1      37.802  35.516  41.419  1.00  0.00    -0.237 OA
ATOM     85  O   UNL A   1      36.831  33.472  40.468  1.00  0.00    -0.744 OA
ENDBRANCH  79  82
ENDBRANCH  51  75
BRANCH  63  86
ATOM     86  C   UNL A   1      44.131  28.938  35.402  1.00  0.00     0.023 A 
ATOM     87  C   UNL A   1      45.401  29.531  35.268  1.00  0.00     0.012 A 
ATOM     88  C   UNL A   1      43.952  27.863  36.294  1.00  0.00     0.148 A 
ATOM     89  C   UNL A   1      46.481  29.059  36.011  1.00  0.00     0.002 A 
ATOM     90  C   UNL A   1      45.025  27.418  37.055  1.00  0.00     0.091 A 
ATOM     91  F   UNL A   1      42.732  27.316  36.394  1.00  0.00    -0.205 F 
ATOM     92  C   UNL A   1      46.290  28.013  36.912  1.00  0.00     0.022 A 
BRANCH  90  93
ATOM     93  S   UNL A   1      44.865  26.130  38.295  1.00  0.00     0.127 S 
ATOM     94  O   UNL A   1      46.235  26.030  38.798  1.00  0.00    -0.237 OA
ATOM     95  O   UNL A   1      43.912  26.721  39.233  1.00  0.00    -0.237 OA
ATOM     96  O   UNL A   1      44.379  24.950  37.592  1.00  0.00    -0.744 OA
ENDBRANCH  90  93
ENDBRANCH  63  86
ENDBRANCH  37  38
ENDBRANCH  29  32
ENDBRANCH  27  28
ENDBRANCH   1  27
TORSDOF 17
ENDMDL
