MODEL 1
REMARK VINA RESULT:     -10.9      0.000      0.000
REMARK SMILES CCN(CC)C(=O)C[N@@H+](C)[C@@H](C)c1ccc(C(=O)NCCCNC(=O)c2ccc(-c3c4nc(c(-c5cccc(S(=O)(=O)[O-])c5F)c5ccc([nH]5)c(-c5cccc(S(=O)(=O)[O-])c5F)c5nc(c(-c6cccc(S(=O)(=O)[O-])c6F)c6ccc3[nH]6)C=C5)C=C4)cc2)o1
REMARK SMILES IDX 20 1 19 2 17 3 18 4 16 6 13 7 14 8 89 9 15 10 11 11 12 12
REMARK SMILES IDX 9 13 10 14 8 16 6 17 3 18 7 19 2 20 1 21 4 22 5 23 21 24
REMARK SMILES IDX 22 25 23 26 24 27 25 29 26 30 27 31 88 32 28 33 87 34 29 35
REMARK SMILES IDX 30 36 31 37 81 38 32 39 86 40 80 41 82 42 33 43 85 44 79 45
REMARK SMILES IDX 78 46 34 48 66 49 46 50 65 51 47 52 50 53 64 54 83 55 48 56
REMARK SMILES IDX 49 57 63 59 84 60 51 61 35 62 36 63 44 64 37 65 39 66 45 67
REMARK SMILES IDX 38 68 40 69 41 70 42 71 43 72 67 73 68 74 76 75 69 76 71 77
REMARK SMILES IDX 77 78 70 79 72 80 73 81 74 82 75 83 52 84 53 85 61 86 54 87
REMARK SMILES IDX 56 88 62 89 55 90 57 91 58 92 59 93 60 94
REMARK H PARENT 19 5 9 15 23 28 82 47 50 58
REMARK Flexibility Score: inf
ROOT
ATOM      1  C   UNL A   1      32.045  28.603  23.147  1.00  0.00     0.118 C 
ENDROOT
BRANCH   1   2
ATOM      2  N   UNL A   1      32.538  27.753  22.074  1.00  0.00    -0.349 N 
ATOM      3  C   UNL A   1      32.863  26.408  22.044  1.00  0.00     0.287 C 
ATOM      4  O   UNL A   1      33.309  25.989  20.974  1.00  0.00    -0.266 OA
ATOM      5  H   UNL A   1      32.663  28.217  21.215  1.00  0.00     0.163 HD
BRANCH   3   6
ATOM      6  C   UNL A   1      32.690  25.568  23.217  1.00  0.00     0.191 A 
ATOM      7  C   UNL A   1      33.395  24.142  24.767  1.00  0.00     0.161 A 
ATOM      8  C   UNL A   1      32.096  24.471  25.088  1.00  0.00     0.053 A 
ATOM      9  O   UNL A   1      33.759  24.795  23.621  1.00  0.00    -0.450 OA
ATOM     10  C   UNL A   1      31.625  25.313  24.060  1.00  0.00     0.057 A 
BRANCH   7  11
ATOM     11  C   UNL A   1      34.377  23.165  25.364  1.00  0.00     0.248 C 
ATOM     12  C   UNL A   1      35.310  22.606  24.273  1.00  0.00     0.084 C 
BRANCH  11  13
ATOM     13  N   UNL A   1      33.784  22.138  26.254  1.00  0.00    -0.321 N 
ATOM     14  C   UNL A   1      34.197  22.323  27.647  1.00  0.00     0.333 C 
ATOM     15  H   UNL A   1      32.782  22.301  26.152  1.00  0.00     0.348 HD
BRANCH  13  16
ATOM     16  C   UNL A   1      34.002  20.733  25.860  1.00  0.00     0.364 C 
BRANCH  16  17
ATOM     17  C   UNL A   1      32.846  20.106  25.071  1.00  0.00     0.277 C 
ATOM     18  N   UNL A   1      33.098  19.006  24.252  1.00  0.00    -0.338 N 
ATOM     19  O   UNL A   1      31.743  20.666  25.085  1.00  0.00    -0.268 OA
BRANCH  18  20
ATOM     20  C   UNL A   1      32.043  18.573  23.340  1.00  0.00     0.116 C 
ATOM     21  C   UNL A   1      32.613  18.079  22.024  1.00  0.00     0.027 C 
ENDBRANCH  18  20
BRANCH  18  22
ATOM     22  C   UNL A   1      34.300  18.172  24.293  1.00  0.00     0.116 C 
ATOM     23  C   UNL A   1      34.117  16.938  25.160  1.00  0.00     0.027 C 
ENDBRANCH  18  22
ENDBRANCH  16  17
ENDBRANCH  13  16
ENDBRANCH  11  13
ENDBRANCH   7  11
ENDBRANCH   3   6
ENDBRANCH   1   2
BRANCH   1  24
ATOM     24  C   UNL A   1      33.135  29.224  24.013  1.00  0.00     0.042 C 
BRANCH  24  25
ATOM     25  C   UNL A   1      32.825  29.303  25.501  1.00  0.00     0.118 C 
BRANCH  25  26
ATOM     26  N   UNL A   1      32.539  30.658  25.939  1.00  0.00    -0.352 N 
ATOM     27  C   UNL A   1      33.091  31.431  26.931  1.00  0.00     0.251 C 
ATOM     28  H   UNL A   1      31.819  31.103  25.435  1.00  0.00     0.163 HD
ATOM     29  O   UNL A   1      32.511  32.469  27.250  1.00  0.00    -0.269 OA
BRANCH  27  30
ATOM     30  C   UNL A   1      34.349  31.056  27.625  1.00  0.00     0.039 A 
ATOM     31  C   UNL A   1      34.514  29.725  28.031  1.00  0.00     0.014 A 
ATOM     32  C   UNL A   1      35.324  31.995  27.971  1.00  0.00     0.014 A 
ATOM     33  C   UNL A   1      35.656  29.338  28.741  1.00  0.00     0.010 A 
ATOM     34  C   UNL A   1      36.504  31.591  28.599  1.00  0.00     0.010 A 
ATOM     35  C   UNL A   1      36.675  30.264  29.017  1.00  0.00    -0.014 A 
BRANCH  35  36
ATOM     36  C   UNL A   1      37.899  29.862  29.763  1.00  0.00     0.031 A 
ATOM     37  C   UNL A   1      38.161  30.392  31.151  1.00  0.00     0.074 A 
ATOM     38  C   UNL A   1      38.813  29.066  29.172  1.00  0.00     0.049 A 
ATOM     39  N   UNL A   1      39.178  30.162  31.945  1.00  0.00    -0.248 NA
ATOM     40  C   UNL A   1      37.169  31.325  31.712  1.00  0.00     0.031 C 
ATOM     41  C   UNL A   1      38.731  28.555  27.802  1.00  0.00     0.029 A 
ATOM     42  N   UNL A   1      40.001  28.564  29.641  1.00  0.00    -0.354 N 
ATOM     43  C   UNL A   1      38.969  30.946  33.074  1.00  0.00     0.074 A 
ATOM     44  C   UNL A   1      37.746  31.687  32.849  1.00  0.00     0.031 C 
ATOM     45  C   UNL A   1      39.814  27.805  27.546  1.00  0.00     0.029 A 
ATOM     46  C   UNL A   1      40.679  27.794  28.724  1.00  0.00     0.049 A 
ATOM     47  H   UNL A   1      40.339  28.737  30.550  1.00  0.00     0.167 HD
ATOM     48  C   UNL A   1      39.702  31.019  34.211  1.00  0.00     0.034 A 
ATOM     49  C   UNL A   1      41.856  27.147  28.819  1.00  0.00     0.034 A 
ATOM     50  C   UNL A   1      40.881  30.235  34.464  1.00  0.00     0.049 A 
ATOM     51  C   UNL A   1      42.612  27.182  30.120  1.00  0.00     0.074 A 
ATOM     52  C   UNL A   1      41.635  30.164  35.622  1.00  0.00     0.029 A 
ATOM     53  N   UNL A   1      41.478  29.385  33.546  1.00  0.00    -0.354 N 
ATOM     54  N   UNL A   1      42.302  27.793  31.238  1.00  0.00    -0.248 NA
ATOM     55  C   UNL A   1      43.857  26.403  30.186  1.00  0.00     0.031 C 
ATOM     56  C   UNL A   1      42.696  29.276  35.401  1.00  0.00     0.029 A 
ATOM     57  C   UNL A   1      42.593  28.787  34.109  1.00  0.00     0.049 A 
ATOM     58  H   UNL A   1      41.157  29.230  32.629  1.00  0.00     0.167 HD
ATOM     59  C   UNL A   1      43.295  27.449  32.148  1.00  0.00     0.074 A 
ATOM     60  C   UNL A   1      44.200  26.551  31.459  1.00  0.00     0.031 C 
ATOM     61  C   UNL A   1      43.456  27.853  33.433  1.00  0.00     0.034 A 
BRANCH  48  62
ATOM     62  C   UNL A   1      39.207  31.931  35.304  1.00  0.00     0.023 A 
ATOM     63  C   UNL A   1      38.213  31.470  36.192  1.00  0.00     0.012 A 
ATOM     64  C   UNL A   1      39.760  33.213  35.493  1.00  0.00     0.148 A 
ATOM     65  C   UNL A   1      37.750  32.282  37.226  1.00  0.00     0.002 A 
ATOM     66  C   UNL A   1      39.324  34.000  36.554  1.00  0.00     0.091 A 
ATOM     67  F   UNL A   1      40.690  33.644  34.630  1.00  0.00    -0.205 F 
ATOM     68  C   UNL A   1      38.312  33.541  37.414  1.00  0.00     0.022 A 
BRANCH  66  69
ATOM     69  S   UNL A   1      40.038  35.607  36.926  1.00  0.00     0.127 S 
ATOM     70  O   UNL A   1      39.315  35.977  38.142  1.00  0.00    -0.237 OA
ATOM     71  O   UNL A   1      41.449  35.278  37.133  1.00  0.00    -0.237 OA
ATOM     72  O   UNL A   1      39.775  36.440  35.761  1.00  0.00    -0.744 OA
ENDBRANCH  66  69
ENDBRANCH  48  62
BRANCH  49  73
ATOM     73  C   UNL A   1      42.351  26.333  27.672  1.00  0.00     0.023 A 
ATOM     74  C   UNL A   1      43.234  26.919  26.744  1.00  0.00     0.012 A 
ATOM     75  C   UNL A   1      41.980  24.985  27.510  1.00  0.00     0.148 A 
ATOM     76  C   UNL A   1      43.714  26.187  25.658  1.00  0.00     0.002 A 
ATOM     77  C   UNL A   1      42.505  24.244  26.457  1.00  0.00     0.091 A 
ATOM     78  F   UNL A   1      41.127  24.449  28.396  1.00  0.00    -0.205 F 
ATOM     79  C   UNL A   1      43.359  24.848  25.520  1.00  0.00     0.022 A 
BRANCH  77  80
ATOM     80  S   UNL A   1      42.204  22.482  26.280  1.00  0.00     0.127 S 
ATOM     81  O   UNL A   1      40.745  22.430  26.246  1.00  0.00    -0.237 OA
ATOM     82  O   UNL A   1      42.861  22.187  25.006  1.00  0.00    -0.237 OA
ATOM     83  O   UNL A   1      42.837  21.862  27.436  1.00  0.00    -0.744 OA
ENDBRANCH  77  80
ENDBRANCH  49  73
BRANCH  61  84
ATOM     84  C   UNL A   1      44.643  27.318  34.188  1.00  0.00     0.023 A 
ATOM     85  C   UNL A   1      45.882  27.983  34.100  1.00  0.00     0.012 A 
ATOM     86  C   UNL A   1      44.521  26.195  35.030  1.00  0.00     0.148 A 
ATOM     87  C   UNL A   1      46.991  27.519  34.807  1.00  0.00     0.002 A 
ATOM     88  C   UNL A   1      45.618  25.764  35.768  1.00  0.00     0.091 A 
ATOM     89  F   UNL A   1      43.342  25.559  35.086  1.00  0.00    -0.205 F 
ATOM     90  C   UNL A   1      46.856  26.416  35.649  1.00  0.00     0.022 A 
BRANCH  88  91
ATOM     91  S   UNL A   1      45.504  24.411  36.944  1.00  0.00     0.127 S 
ATOM     92  O   UNL A   1      46.874  24.335  37.447  1.00  0.00    -0.237 OA
ATOM     93  O   UNL A   1      44.528  24.913  37.911  1.00  0.00    -0.237 OA
ATOM     94  O   UNL A   1      45.048  23.259  36.176  1.00  0.00    -0.744 OA
ENDBRANCH  88  91
ENDBRANCH  61  84
ENDBRANCH  35  36
ENDBRANCH  27  30
ENDBRANCH  25  26
ENDBRANCH  24  25
ENDBRANCH   1  24
TORSDOF 19
ENDMDL
MODEL 2
REMARK VINA RESULT:     -10.8      1.485      1.972
REMARK SMILES CCN(CC)C(=O)C[N@@H+](C)[C@@H](C)c1ccc(C(=O)NCCCNC(=O)c2ccc(-c3c4nc(c(-c5cccc(S(=O)(=O)[O-])c5F)c5ccc([nH]5)c(-c5cccc(S(=O)(=O)[O-])c5F)c5nc(c(-c6cccc(S(=O)(=O)[O-])c6F)c6ccc3[nH]6)C=C5)C=C4)cc2)o1
REMARK SMILES IDX 20 1 19 2 17 3 18 4 16 6 13 7 14 8 89 9 15 10 11 11 12 12
REMARK SMILES IDX 9 13 10 14 8 16 6 17 3 18 7 19 2 20 1 21 4 22 5 23 21 24
REMARK SMILES IDX 22 25 23 26 24 27 25 29 26 30 27 31 88 32 28 33 87 34 29 35
REMARK SMILES IDX 30 36 31 37 81 38 32 39 86 40 80 41 82 42 33 43 85 44 79 45
REMARK SMILES IDX 78 46 34 48 66 49 46 50 65 51 47 52 50 53 64 54 83 55 48 56
REMARK SMILES IDX 49 57 63 59 84 60 51 61 35 62 36 63 44 64 37 65 39 66 45 67
REMARK SMILES IDX 38 68 40 69 41 70 42 71 43 72 67 73 68 74 76 75 69 76 71 77
REMARK SMILES IDX 77 78 70 79 72 80 73 81 74 82 75 83 52 84 53 85 61 86 54 87
REMARK SMILES IDX 56 88 62 89 55 90 57 91 58 92 59 93 60 94
REMARK H PARENT 19 5 9 15 23 28 82 47 50 58
REMARK Flexibility Score: inf
ROOT
ATOM      1  C   UNL A   1      31.799  28.983  23.771  1.00  0.00     0.118 C 
ENDROOT
BRANCH   1   2
ATOM      2  N   UNL A   1      31.598  28.240  22.536  1.00  0.00    -0.349 N 
ATOM      3  C   UNL A   1      31.452  26.886  22.294  1.00  0.00     0.287 C 
ATOM      4  O   UNL A   1      31.346  26.562  21.109  1.00  0.00    -0.266 OA
ATOM      5  H   UNL A   1      31.561  28.801  21.728  1.00  0.00     0.163 HD
BRANCH   3   6
ATOM      6  C   UNL A   1      31.436  25.926  23.384  1.00  0.00     0.191 A 
ATOM      7  C   UNL A   1      32.384  24.480  24.779  1.00  0.00     0.161 A 
ATOM      8  C   UNL A   1      31.062  24.587  25.152  1.00  0.00     0.053 A 
ATOM      9  O   UNL A   1      32.616  25.281  23.694  1.00  0.00    -0.450 OA
ATOM     10  C   UNL A   1      30.445  25.443  24.217  1.00  0.00     0.057 A 
BRANCH   7  11
ATOM     11  C   UNL A   1      33.512  23.604  25.263  1.00  0.00     0.248 C 
ATOM     12  C   UNL A   1      34.803  24.430  25.427  1.00  0.00     0.084 C 
BRANCH  11  13
ATOM     13  N   UNL A   1      33.686  22.331  24.524  1.00  0.00    -0.321 N 
ATOM     14  C   UNL A   1      32.775  22.238  23.381  1.00  0.00     0.333 C 
ATOM     15  H   UNL A   1      34.654  22.383  24.207  1.00  0.00     0.348 HD
BRANCH  13  16
ATOM     16  C   UNL A   1      33.594  21.096  25.326  1.00  0.00     0.364 C 
BRANCH  16  17
ATOM     17  C   UNL A   1      34.520  19.965  24.861  1.00  0.00     0.277 C 
ATOM     18  N   UNL A   1      33.963  18.747  24.469  1.00  0.00    -0.338 N 
ATOM     19  O   UNL A   1      35.743  20.118  24.961  1.00  0.00    -0.268 OA
BRANCH  18  20
ATOM     20  C   UNL A   1      34.864  17.619  24.253  1.00  0.00     0.116 C 
ATOM     21  C   UNL A   1      34.403  16.387  25.008  1.00  0.00     0.027 C 
ENDBRANCH  18  20
BRANCH  18  22
ATOM     22  C   UNL A   1      32.553  18.519  24.152  1.00  0.00     0.116 C 
ATOM     23  C   UNL A   1      32.315  18.359  22.660  1.00  0.00     0.027 C 
ENDBRANCH  18  22
ENDBRANCH  16  17
ENDBRANCH  13  16
ENDBRANCH  11  13
ENDBRANCH   7  11
ENDBRANCH   3   6
ENDBRANCH   1   2
BRANCH   1  24
ATOM     24  C   UNL A   1      33.226  28.943  24.308  1.00  0.00     0.042 C 
BRANCH  24  25
ATOM     25  C   UNL A   1      33.366  29.141  25.810  1.00  0.00     0.118 C 
BRANCH  25  26
ATOM     26  N   UNL A   1      33.171  30.525  26.210  1.00  0.00    -0.352 N 
ATOM     27  C   UNL A   1      33.765  31.283  27.189  1.00  0.00     0.251 C 
ATOM     28  H   UNL A   1      32.490  31.006  25.684  1.00  0.00     0.163 HD
ATOM     29  O   UNL A   1      33.256  32.367  27.473  1.00  0.00    -0.269 OA
BRANCH  27  30
ATOM     30  C   UNL A   1      34.985  30.840  27.909  1.00  0.00     0.039 A 
ATOM     31  C   UNL A   1      36.114  31.669  27.879  1.00  0.00     0.014 A 
ATOM     32  C   UNL A   1      35.078  29.592  28.530  1.00  0.00     0.014 A 
ATOM     33  C   UNL A   1      37.305  31.266  28.493  1.00  0.00     0.010 A 
ATOM     34  C   UNL A   1      36.237  29.230  29.220  1.00  0.00     0.010 A 
ATOM     35  C   UNL A   1      37.375  30.048  29.188  1.00  0.00    -0.014 A 
BRANCH  35  36
ATOM     36  C   UNL A   1      38.633  29.612  29.853  1.00  0.00     0.031 A 
ATOM     37  C   UNL A   1      39.028  30.176  31.196  1.00  0.00     0.074 A 
ATOM     38  C   UNL A   1      39.460  28.752  29.226  1.00  0.00     0.049 A 
ATOM     39  N   UNL A   1      40.091  29.923  31.918  1.00  0.00    -0.248 NA
ATOM     40  C   UNL A   1      38.127  31.175  31.795  1.00  0.00     0.031 C 
ATOM     41  C   UNL A   1      39.248  28.199  27.886  1.00  0.00     0.029 A 
ATOM     42  N   UNL A   1      40.657  28.208  29.622  1.00  0.00    -0.354 N 
ATOM     43  C   UNL A   1      40.008  30.755  33.029  1.00  0.00     0.074 A 
ATOM     44  C   UNL A   1      38.807  31.547  32.870  1.00  0.00     0.031 C 
ATOM     45  C   UNL A   1      40.272  27.388  27.577  1.00  0.00     0.029 A 
ATOM     46  C   UNL A   1      41.224  27.375  28.685  1.00  0.00     0.049 A 
ATOM     47  H   UNL A   1      41.072  28.396  30.495  1.00  0.00     0.167 HD
ATOM     48  C   UNL A   1      40.830  30.831  34.104  1.00  0.00     0.034 A 
ATOM     49  C   UNL A   1      42.374  26.674  28.715  1.00  0.00     0.034 A 
ATOM     50  C   UNL A   1      41.987  29.999  34.296  1.00  0.00     0.049 A 
ATOM     51  C   UNL A   1      43.229  26.716  29.952  1.00  0.00     0.074 A 
ATOM     52  C   UNL A   1      42.825  29.930  35.395  1.00  0.00     0.029 A 
ATOM     53  N   UNL A   1      42.470  29.090  33.368  1.00  0.00    -0.354 N 
ATOM     54  N   UNL A   1      43.037  27.379  31.066  1.00  0.00    -0.248 NA
ATOM     55  C   UNL A   1      44.438  25.879  29.953  1.00  0.00     0.031 C 
ATOM     56  C   UNL A   1      43.823  28.984  35.128  1.00  0.00     0.029 A 
ATOM     57  C   UNL A   1      43.597  28.457  33.867  1.00  0.00     0.049 A 
ATOM     58  H   UNL A   1      42.072  28.919  32.484  1.00  0.00     0.167 HD
ATOM     59  C   UNL A   1      44.081  27.018  31.910  1.00  0.00     0.074 A 
ATOM     60  C   UNL A   1      44.886  26.054  31.189  1.00  0.00     0.031 C 
ATOM     61  C   UNL A   1      44.360  27.459  33.163  1.00  0.00     0.034 A 
BRANCH  48  62
ATOM     62  C   UNL A   1      40.465  31.804  35.196  1.00  0.00     0.023 A 
ATOM     63  C   UNL A   1      41.162  33.025  35.295  1.00  0.00     0.012 A 
ATOM     64  C   UNL A   1      39.401  31.543  36.082  1.00  0.00     0.148 A 
ATOM     65  C   UNL A   1      40.833  33.956  36.280  1.00  0.00     0.002 A 
ATOM     66  C   UNL A   1      39.051  32.494  37.035  1.00  0.00     0.091 A 
ATOM     67  F   UNL A   1      38.762  30.369  35.988  1.00  0.00    -0.205 F 
ATOM     68  C   UNL A   1      39.772  33.695  37.142  1.00  0.00     0.022 A 
BRANCH  66  69
ATOM     69  S   UNL A   1      37.651  32.286  38.143  1.00  0.00     0.127 S 
ATOM     70  O   UNL A   1      38.190  32.808  39.398  1.00  0.00    -0.237 OA
ATOM     71  O   UNL A   1      36.634  33.132  37.518  1.00  0.00    -0.237 OA
ATOM     72  O   UNL A   1      37.345  30.863  38.135  1.00  0.00    -0.744 OA
ENDBRANCH  66  69
ENDBRANCH  48  62
BRANCH  49  73
ATOM     73  C   UNL A   1      42.739  25.798  27.565  1.00  0.00     0.023 A 
ATOM     74  C   UNL A   1      43.601  26.296  26.568  1.00  0.00     0.012 A 
ATOM     75  C   UNL A   1      42.268  24.475  27.468  1.00  0.00     0.148 A 
ATOM     76  C   UNL A   1      43.961  25.503  25.478  1.00  0.00     0.002 A 
ATOM     77  C   UNL A   1      42.674  23.672  26.408  1.00  0.00     0.091 A 
ATOM     78  F   UNL A   1      41.437  24.024  28.419  1.00  0.00    -0.205 F 
ATOM     79  C   UNL A   1      43.507  24.189  25.403  1.00  0.00     0.022 A 
BRANCH  77  80
ATOM     80  S   UNL A   1      42.242  21.931  26.302  1.00  0.00     0.127 S 
ATOM     81  O   UNL A   1      40.814  21.995  26.004  1.00  0.00    -0.237 OA
ATOM     82  O   UNL A   1      43.083  21.475  25.195  1.00  0.00    -0.237 OA
ATOM     83  O   UNL A   1      42.598  21.364  27.596  1.00  0.00    -0.744 OA
ENDBRANCH  77  80
ENDBRANCH  49  73
BRANCH  61  84
ATOM     84  C   UNL A   1      45.576  26.891  33.846  1.00  0.00     0.023 A 
ATOM     85  C   UNL A   1      46.809  27.567  33.746  1.00  0.00     0.012 A 
ATOM     86  C   UNL A   1      45.490  25.726  34.631  1.00  0.00     0.148 A 
ATOM     87  C   UNL A   1      47.944  27.073  34.388  1.00  0.00     0.002 A 
ATOM     88  C   UNL A   1      46.615  25.264  35.305  1.00  0.00     0.091 A 
ATOM     89  F   UNL A   1      44.315  25.081  34.698  1.00  0.00    -0.205 F 
ATOM     90  C   UNL A   1      47.845  25.928  35.175  1.00  0.00     0.022 A 
BRANCH  88  91
ATOM     91  S   UNL A   1      46.549  23.850  36.413  1.00  0.00     0.127 S 
ATOM     92  O   UNL A   1      45.465  24.229  37.317  1.00  0.00    -0.237 OA
ATOM     93  O   UNL A   1      46.228  22.750  35.503  1.00  0.00    -0.237 OA
ATOM     94  O   UNL A   1      47.873  23.761  37.016  1.00  0.00    -0.744 OA
ENDBRANCH  88  91
ENDBRANCH  61  84
ENDBRANCH  35  36
ENDBRANCH  27  30
ENDBRANCH  25  26
ENDBRANCH  24  25
ENDBRANCH   1  24
TORSDOF 19
ENDMDL
MODEL 3
REMARK VINA RESULT:     -10.8      5.209      8.115
REMARK SMILES CCN(CC)C(=O)C[N@@H+](C)[C@@H](C)c1ccc(C(=O)NCCCNC(=O)c2ccc(-c3c4nc(c(-c5cccc(S(=O)(=O)[O-])c5F)c5ccc([nH]5)c(-c5cccc(S(=O)(=O)[O-])c5F)c5nc(c(-c6cccc(S(=O)(=O)[O-])c6F)c6ccc3[nH]6)C=C5)C=C4)cc2)o1
REMARK SMILES IDX 20 1 19 2 17 3 18 4 16 6 13 7 14 8 89 9 15 10 11 11 12 12
REMARK SMILES IDX 9 13 10 14 8 16 6 17 3 18 7 19 2 20 1 21 4 22 5 23 21 24
REMARK SMILES IDX 22 25 23 26 24 27 25 29 26 30 27 31 88 32 28 33 87 34 29 35
REMARK SMILES IDX 30 36 31 37 81 38 32 39 86 40 80 41 82 42 33 43 85 44 79 45
REMARK SMILES IDX 78 46 34 48 66 49 46 50 65 51 47 52 50 53 64 54 83 55 48 56
REMARK SMILES IDX 49 57 63 59 84 60 51 61 35 62 36 63 44 64 37 65 39 66 45 67
REMARK SMILES IDX 38 68 40 69 41 70 42 71 43 72 67 73 68 74 76 75 69 76 71 77
REMARK SMILES IDX 77 78 70 79 72 80 73 81 74 82 75 83 52 84 53 85 61 86 54 87
REMARK SMILES IDX 56 88 62 89 55 90 57 91 58 92 59 93 60 94
REMARK H PARENT 19 5 9 15 23 28 82 47 50 58
REMARK Flexibility Score: inf
ROOT
ATOM      1  C   UNL A   1      33.313  21.509  26.087  1.00  0.00     0.118 C 
ENDROOT
BRANCH   1   2
ATOM      2  N   UNL A   1      32.157  21.922  26.867  1.00  0.00    -0.349 N 
ATOM      3  C   UNL A   1      31.309  23.009  26.744  1.00  0.00     0.287 C 
ATOM      4  O   UNL A   1      30.436  23.107  27.609  1.00  0.00    -0.266 OA
ATOM      5  H   UNL A   1      31.938  21.322  27.616  1.00  0.00     0.163 HD
BRANCH   3   6
ATOM      6  C   UNL A   1      31.466  23.965  25.661  1.00  0.00     0.191 A 
ATOM      7  C   UNL A   1      32.204  25.861  24.769  1.00  0.00     0.161 A 
ATOM      8  C   UNL A   1      31.593  25.153  23.756  1.00  0.00     0.053 A 
ATOM      9  O   UNL A   1      32.117  25.150  25.936  1.00  0.00    -0.450 OA
ATOM     10  C   UNL A   1      31.057  23.988  24.342  1.00  0.00     0.057 A 
BRANCH   7  11
ATOM     11  C   UNL A   1      32.811  27.240  24.827  1.00  0.00     0.248 C 
ATOM     12  C   UNL A   1      32.611  27.858  26.224  1.00  0.00     0.084 C 
BRANCH  11  13
ATOM     13  N   UNL A   1      32.453  28.135  23.701  1.00  0.00    -0.321 N 
ATOM     14  C   UNL A   1      33.605  28.911  23.237  1.00  0.00     0.333 C 
ATOM     15  H   UNL A   1      32.148  27.482  22.980  1.00  0.00     0.348 HD
BRANCH  13  16
ATOM     16  C   UNL A   1      31.311  29.040  23.928  1.00  0.00     0.364 C 
BRANCH  16  17
ATOM     17  C   UNL A   1      30.232  28.991  22.838  1.00  0.00     0.277 C 
ATOM     18  N   UNL A   1      29.161  29.883  22.898  1.00  0.00    -0.338 N 
ATOM     19  O   UNL A   1      30.274  28.083  22.000  1.00  0.00    -0.268 OA
BRANCH  18  20
ATOM     20  C   UNL A   1      28.037  29.668  21.991  1.00  0.00     0.116 C 
ATOM     21  C   UNL A   1      28.029  30.684  20.866  1.00  0.00     0.027 C 
ENDBRANCH  18  20
BRANCH  18  22
ATOM     22  C   UNL A   1      29.102  31.087  23.727  1.00  0.00     0.116 C 
ATOM     23  C   UNL A   1      27.682  31.601  23.898  1.00  0.00     0.027 C 
ENDBRANCH  18  22
ENDBRANCH  16  17
ENDBRANCH  13  16
ENDBRANCH  11  13
ENDBRANCH   7  11
ENDBRANCH   3   6
ENDBRANCH   1   2
BRANCH   1  24
ATOM     24  C   UNL A   1      34.658  21.811  26.740  1.00  0.00     0.042 C 
BRANCH  24  25
ATOM     25  C   UNL A   1      35.788  22.158  25.783  1.00  0.00     0.118 C 
BRANCH  25  26
ATOM     26  N   UNL A   1      36.781  21.100  25.687  1.00  0.00    -0.352 N 
ATOM     27  C   UNL A   1      38.152  21.129  25.755  1.00  0.00     0.251 C 
ATOM     28  H   UNL A   1      36.402  20.201  25.548  1.00  0.00     0.163 HD
ATOM     29  O   UNL A   1      38.771  20.121  25.414  1.00  0.00    -0.269 OA
BRANCH  27  30
ATOM     30  C   UNL A   1      38.902  22.324  26.217  1.00  0.00     0.039 A 
ATOM     31  C   UNL A   1      38.488  23.584  25.766  1.00  0.00     0.014 A 
ATOM     32  C   UNL A   1      40.054  22.231  27.001  1.00  0.00     0.014 A 
ATOM     33  C   UNL A   1      39.199  24.734  26.127  1.00  0.00     0.010 A 
ATOM     34  C   UNL A   1      40.710  23.385  27.435  1.00  0.00     0.010 A 
ATOM     35  C   UNL A   1      40.309  24.649  26.983  1.00  0.00    -0.014 A 
BRANCH  35  36
ATOM     36  C   UNL A   1      41.069  25.866  27.381  1.00  0.00     0.031 A 
ATOM     37  C   UNL A   1      40.413  26.946  28.205  1.00  0.00     0.074 A 
ATOM     38  C   UNL A   1      42.336  26.035  26.953  1.00  0.00     0.049 A 
ATOM     39  N   UNL A   1      40.914  28.078  28.634  1.00  0.00    -0.248 NA
ATOM     40  C   UNL A   1      39.001  26.745  28.573  1.00  0.00     0.031 C 
ATOM     41  C   UNL A   1      43.063  25.115  26.076  1.00  0.00     0.029 A 
ATOM     42  N   UNL A   1      43.231  27.052  27.179  1.00  0.00    -0.354 N 
ATOM     43  C   UNL A   1      39.876  28.737  29.283  1.00  0.00     0.074 A 
ATOM     44  C   UNL A   1      38.705  27.895  29.162  1.00  0.00     0.031 C 
ATOM     45  C   UNL A   1      44.293  25.602  25.848  1.00  0.00     0.029 A 
ATOM     46  C   UNL A   1      44.440  26.877  26.545  1.00  0.00     0.049 A 
ATOM     47  H   UNL A   1      43.028  27.833  27.743  1.00  0.00     0.167 HD
ATOM     48  C   UNL A   1      39.898  29.915  29.952  1.00  0.00     0.034 A 
ATOM     49  C   UNL A   1      45.543  27.650  26.531  1.00  0.00     0.034 A 
ATOM     50  C   UNL A   1      41.075  30.721  30.130  1.00  0.00     0.049 A 
ATOM     51  C   UNL A   1      45.566  28.915  27.345  1.00  0.00     0.074 A 
ATOM     52  C   UNL A   1      41.221  31.879  30.875  1.00  0.00     0.029 A 
ATOM     53  N   UNL A   1      42.310  30.456  29.558  1.00  0.00    -0.354 N 
ATOM     54  N   UNL A   1      44.624  29.430  28.097  1.00  0.00    -0.248 NA
ATOM     55  C   UNL A   1      46.820  29.683  27.345  1.00  0.00     0.031 C 
ATOM     56  C   UNL A   1      42.544  32.319  30.746  1.00  0.00     0.029 A 
ATOM     57  C   UNL A   1      43.223  31.429  29.931  1.00  0.00     0.049 A 
ATOM     58  H   UNL A   1      42.508  29.690  28.974  1.00  0.00     0.167 HD
ATOM     59  C   UNL A   1      45.178  30.563  28.681  1.00  0.00     0.074 A 
ATOM     60  C   UNL A   1      46.549  30.642  28.220  1.00  0.00     0.031 C 
ATOM     61  C   UNL A   1      44.600  31.468  29.510  1.00  0.00     0.034 A 
BRANCH  48  62
ATOM     62  C   UNL A   1      38.619  30.370  30.607  1.00  0.00     0.023 A 
ATOM     63  C   UNL A   1      38.400  30.083  31.970  1.00  0.00     0.012 A 
ATOM     64  C   UNL A   1      37.665  31.128  29.900  1.00  0.00     0.148 A 
ATOM     65  C   UNL A   1      37.237  30.509  32.611  1.00  0.00     0.002 A 
ATOM     66  C   UNL A   1      36.527  31.587  30.557  1.00  0.00     0.091 A 
ATOM     67  F   UNL A   1      37.878  31.376  28.600  1.00  0.00    -0.205 F 
ATOM     68  C   UNL A   1      36.307  31.270  31.908  1.00  0.00     0.022 A 
BRANCH  66  69
ATOM     69  S   UNL A   1      35.305  32.637  29.760  1.00  0.00     0.127 S 
ATOM     70  O   UNL A   1      34.383  32.904  30.862  1.00  0.00    -0.237 OA
ATOM     71  O   UNL A   1      36.110  33.788  29.347  1.00  0.00    -0.237 OA
ATOM     72  O   UNL A   1      34.762  31.853  28.661  1.00  0.00    -0.744 OA
ENDBRANCH  66  69
ENDBRANCH  48  62
BRANCH  49  73
ATOM     73  C   UNL A   1      46.754  27.200  25.787  1.00  0.00     0.023 A 
ATOM     74  C   UNL A   1      47.611  26.251  26.378  1.00  0.00     0.012 A 
ATOM     75  C   UNL A   1      47.046  27.679  24.496  1.00  0.00     0.148 A 
ATOM     76  C   UNL A   1      48.753  25.810  25.710  1.00  0.00     0.002 A 
ATOM     77  C   UNL A   1      48.157  27.196  23.813  1.00  0.00     0.091 A 
ATOM     78  F   UNL A   1      46.227  28.593  23.956  1.00  0.00    -0.205 F 
ATOM     79  C   UNL A   1      49.021  26.273  24.425  1.00  0.00     0.022 A 
BRANCH  77  80
ATOM     80  S   UNL A   1      48.503  27.639  22.107  1.00  0.00     0.127 S 
ATOM     81  O   UNL A   1      49.698  28.465  22.249  1.00  0.00    -0.237 OA
ATOM     82  O   UNL A   1      48.727  26.331  21.491  1.00  0.00    -0.237 OA
ATOM     83  O   UNL A   1      47.307  28.325  21.634  1.00  0.00    -0.744 OA
ENDBRANCH  77  80
ENDBRANCH  49  73
BRANCH  61  84
ATOM     84  C   UNL A   1      45.449  32.616  29.989  1.00  0.00     0.023 A 
ATOM     85  C   UNL A   1      46.282  32.443  31.113  1.00  0.00     0.012 A 
ATOM     86  C   UNL A   1      45.469  33.842  29.298  1.00  0.00     0.148 A 
ATOM     87  C   UNL A   1      47.093  33.484  31.563  1.00  0.00     0.002 A 
ATOM     88  C   UNL A   1      46.315  34.861  29.724  1.00  0.00     0.091 A 
ATOM     89  F   UNL A   1      44.655  33.999  28.243  1.00  0.00    -0.205 F 
ATOM     90  C   UNL A   1      47.117  34.688  30.863  1.00  0.00     0.022 A 
BRANCH  88  91
ATOM     91  S   UNL A   1      46.474  36.408  28.824  1.00  0.00     0.127 S 
ATOM     92  O   UNL A   1      47.269  36.000  27.668  1.00  0.00    -0.237 OA
ATOM     93  O   UNL A   1      45.082  36.741  28.520  1.00  0.00    -0.237 OA
ATOM     94  O   UNL A   1      47.123  37.333  29.744  1.00  0.00    -0.744 OA
ENDBRANCH  88  91
ENDBRANCH  61  84
ENDBRANCH  35  36
ENDBRANCH  27  30
ENDBRANCH  25  26
ENDBRANCH  24  25
ENDBRANCH   1  24
TORSDOF 19
ENDMDL
