MODEL 1
REMARK VINA RESULT:     -12.9      0.000      0.000
REMARK SMILES Cc1c(/C=C/C(=O)NCCCNC(=O)c2ccc(-c3c4nc(c(-c5cccc(S(=O)(=O)[O-])c5F)c5ccc([nH]5)c(-c5cccc(S(=O)(=O)[O-])c5F)c5nc(c(-c6cccc(S(=O)(=O)[O-])c6F)c6ccc3[nH]6)C=C5)C=C4)cc2)cccc1C(=O)N1C[C@@H](C)[C@@H](C)C1
REMARK SMILES IDX 10 1 9 2 8 3 6 4 7 5 5 7 4 8 3 9 1 10 2 11 81 12 78 13 80 14
REMARK SMILES IDX 79 15 82 16 83 17 84 18 85 19 90 20 86 21 88 22 87 23 89 24
REMARK SMILES IDX 11 25 12 26 13 27 14 29 15 30 16 31 77 32 17 33 76 34 18 35
REMARK SMILES IDX 19 36 20 37 70 38 21 39 75 40 69 41 71 42 22 43 74 44 68 45
REMARK SMILES IDX 67 46 23 48 55 49 35 50 54 51 36 52 39 53 53 54 72 55 37 56
REMARK SMILES IDX 38 57 52 59 73 60 40 61 24 62 25 63 33 64 26 65 28 66 34 67
REMARK SMILES IDX 27 68 29 69 30 70 31 71 32 72 56 73 57 74 65 75 58 76 60 77
REMARK SMILES IDX 66 78 59 79 61 80 62 81 63 82 64 83 41 84 42 85 50 86 43 87
REMARK SMILES IDX 45 88 51 89 44 90 46 91 47 92 48 93 49 94
REMARK H PARENT 8 6 12 28 71 47 39 58
REMARK Flexibility Score: inf
ROOT
ATOM      1  C   UNL A   1      32.232  30.395  26.703  1.00  0.00     0.042 C 
ENDROOT
BRANCH   1   2
ATOM      2  C   UNL A   1      31.853  29.725  25.389  1.00  0.00     0.118 C 
BRANCH   2   3
ATOM      3  N   UNL A   1      32.948  29.739  24.427  1.00  0.00    -0.352 N 
ATOM      4  C   UNL A   1      33.564  28.678  23.823  1.00  0.00     0.244 C 
ATOM      5  O   UNL A   1      34.390  28.830  22.930  1.00  0.00    -0.270 OA
ATOM      6  H   UNL A   1      33.289  30.630  24.180  1.00  0.00     0.163 HD
BRANCH   4   7
ATOM      7  C   UNL A   1      33.144  27.319  24.223  1.00  0.00     0.072 C 
ATOM      8  C   UNL A   1      33.698  26.732  25.295  1.00  0.00     0.014 C 
BRANCH   8   9
ATOM      9  C   UNL A   1      33.262  25.435  25.841  1.00  0.00    -0.022 A 
ATOM     10  C   UNL A   1      35.395  24.340  25.026  1.00  0.00     0.046 C 
ATOM     11  C   UNL A   1      34.068  24.267  25.730  1.00  0.00    -0.031 A 
ATOM     12  C   UNL A   1      33.598  23.051  26.286  1.00  0.00     0.043 A 
ATOM     13  C   UNL A   1      31.985  25.351  26.417  1.00  0.00     0.008 A 
ATOM     14  C   UNL A   1      32.318  23.008  26.867  1.00  0.00     0.014 A 
ATOM     15  C   UNL A   1      31.516  24.145  26.926  1.00  0.00     0.001 A 
BRANCH  12  16
ATOM     16  C   UNL A   1      34.239  21.726  26.036  1.00  0.00     0.254 C 
ATOM     17  O   UNL A   1      35.286  21.493  26.641  1.00  0.00    -0.269 OA
BRANCH  16  18
ATOM     18  N   UNL A   1      33.638  20.766  25.242  1.00  0.00    -0.338 N 
ATOM     19  C   UNL A   1      33.192  21.129  23.911  1.00  0.00     0.123 C 
ATOM     20  C   UNL A   1      33.189  19.429  25.612  1.00  0.00     0.123 C 
ATOM     21  C   UNL A   1      32.160  20.081  23.522  1.00  0.00     0.010 C 
ATOM     22  C   UNL A   1      32.579  18.832  24.327  1.00  0.00     0.010 C 
ATOM     23  C   UNL A   1      32.061  19.928  22.010  1.00  0.00     0.010 C 
ATOM     24  C   UNL A   1      33.553  17.899  23.609  1.00  0.00     0.010 C 
ENDBRANCH  16  18
ENDBRANCH  12  16
ENDBRANCH   8   9
ENDBRANCH   4   7
ENDBRANCH   2   3
ENDBRANCH   1   2
BRANCH   1  25
ATOM     25  C   UNL A   1      33.675  30.177  27.111  1.00  0.00     0.118 C 
BRANCH  25  26
ATOM     26  N   UNL A   1      34.392  31.412  27.393  1.00  0.00    -0.352 N 
ATOM     27  C   UNL A   1      35.636  31.603  27.986  1.00  0.00     0.251 C 
ATOM     28  H   UNL A   1      33.927  32.237  27.125  1.00  0.00     0.163 HD
ATOM     29  O   UNL A   1      36.008  32.726  28.233  1.00  0.00    -0.269 OA
BRANCH  27  30
ATOM     30  C   UNL A   1      36.524  30.424  28.182  1.00  0.00     0.039 A 
ATOM     31  C   UNL A   1      36.525  29.788  29.431  1.00  0.00     0.014 A 
ATOM     32  C   UNL A   1      37.483  30.097  27.234  1.00  0.00     0.014 A 
ATOM     33  C   UNL A   1      37.628  29.022  29.811  1.00  0.00     0.010 A 
ATOM     34  C   UNL A   1      38.626  29.459  27.649  1.00  0.00     0.010 A 
ATOM     35  C   UNL A   1      38.721  28.963  28.956  1.00  0.00    -0.014 A 
BRANCH  35  36
ATOM     36  C   UNL A   1      40.030  28.412  29.266  1.00  0.00     0.031 A 
ATOM     37  C   UNL A   1      40.326  27.015  28.884  1.00  0.00     0.074 A 
ATOM     38  C   UNL A   1      41.036  29.264  29.565  1.00  0.00     0.049 A 
ATOM     39  N   UNL A   1      41.466  26.449  29.068  1.00  0.00    -0.248 NA
ATOM     40  C   UNL A   1      39.333  26.132  28.283  1.00  0.00     0.031 C 
ATOM     41  C   UNL A   1      42.463  29.059  29.335  1.00  0.00     0.029 A 
ATOM     42  N   UNL A   1      40.987  30.406  30.372  1.00  0.00    -0.354 N 
ATOM     43  C   UNL A   1      41.454  25.247  28.400  1.00  0.00     0.074 A 
ATOM     44  C   UNL A   1      40.077  25.055  28.018  1.00  0.00     0.031 C 
ATOM     45  C   UNL A   1      43.154  29.828  30.188  1.00  0.00     0.029 A 
ATOM     46  C   UNL A   1      42.190  30.402  31.107  1.00  0.00     0.049 A 
ATOM     47  H   UNL A   1      40.262  31.072  30.417  1.00  0.00     0.167 HD
ATOM     48  C   UNL A   1      42.645  24.630  28.173  1.00  0.00     0.034 A 
ATOM     49  C   UNL A   1      42.248  30.305  32.468  1.00  0.00     0.034 A 
ATOM     50  C   UNL A   1      43.717  25.259  28.961  1.00  0.00     0.049 A 
ATOM     51  C   UNL A   1      43.059  29.121  32.978  1.00  0.00     0.074 A 
ATOM     52  C   UNL A   1      44.780  26.107  28.705  1.00  0.00     0.029 A 
ATOM     53  N   UNL A   1      43.616  25.185  30.338  1.00  0.00    -0.354 N 
ATOM     54  N   UNL A   1      43.711  28.278  32.225  1.00  0.00    -0.248 NA
ATOM     55  C   UNL A   1      43.105  28.741  34.392  1.00  0.00     0.031 C 
ATOM     56  C   UNL A   1      45.298  26.557  29.961  1.00  0.00     0.029 A 
ATOM     57  C   UNL A   1      44.563  25.962  30.972  1.00  0.00     0.049 A 
ATOM     58  H   UNL A   1      42.945  24.641  30.810  1.00  0.00     0.167 HD
ATOM     59  C   UNL A   1      44.066  27.184  32.975  1.00  0.00     0.074 A 
ATOM     60  C   UNL A   1      43.724  27.549  34.336  1.00  0.00     0.031 C 
ATOM     61  C   UNL A   1      44.529  26.019  32.427  1.00  0.00     0.034 A 
BRANCH  48  62
ATOM     62  C   UNL A   1      42.930  23.520  27.173  1.00  0.00     0.023 A 
ATOM     63  C   UNL A   1      43.660  23.881  26.015  1.00  0.00     0.012 A 
ATOM     64  C   UNL A   1      42.470  22.184  27.215  1.00  0.00     0.148 A 
ATOM     65  C   UNL A   1      43.880  22.998  24.954  1.00  0.00     0.002 A 
ATOM     66  C   UNL A   1      42.705  21.292  26.164  1.00  0.00     0.091 A 
ATOM     67  F   UNL A   1      41.755  21.748  28.248  1.00  0.00    -0.205 F 
ATOM     68  C   UNL A   1      43.400  21.700  25.025  1.00  0.00     0.022 A 
BRANCH  66  69
ATOM     69  S   UNL A   1      42.099  19.592  26.183  1.00  0.00     0.127 S 
ATOM     70  O   UNL A   1      40.663  19.781  25.973  1.00  0.00    -0.237 OA
ATOM     71  O   UNL A   1      42.805  18.993  25.050  1.00  0.00    -0.237 OA
ATOM     72  O   UNL A   1      42.457  19.036  27.482  1.00  0.00    -0.744 OA
ENDBRANCH  66  69
ENDBRANCH  48  62
BRANCH  49  73
ATOM     73  C   UNL A   1      41.038  30.856  33.146  1.00  0.00     0.023 A 
ATOM     74  C   UNL A   1      40.133  29.927  33.711  1.00  0.00     0.012 A 
ATOM     75  C   UNL A   1      40.997  32.195  33.572  1.00  0.00     0.148 A 
ATOM     76  C   UNL A   1      39.293  30.298  34.761  1.00  0.00     0.002 A 
ATOM     77  C   UNL A   1      40.160  32.556  34.624  1.00  0.00     0.091 A 
ATOM     78  F   UNL A   1      41.841  33.072  33.014  1.00  0.00    -0.205 F 
ATOM     79  C   UNL A   1      39.331  31.604  35.239  1.00  0.00     0.022 A 
BRANCH  77  80
ATOM     80  S   UNL A   1      40.223  34.196  35.356  1.00  0.00     0.127 S 
ATOM     81  O   UNL A   1      39.524  34.989  34.350  1.00  0.00    -0.237 OA
ATOM     82  O   UNL A   1      39.494  33.999  36.610  1.00  0.00    -0.237 OA
ATOM     83  O   UNL A   1      41.640  34.472  35.532  1.00  0.00    -0.744 OA
ENDBRANCH  77  80
ENDBRANCH  49  73
BRANCH  61  84
ATOM     84  C   UNL A   1      44.948  24.809  33.241  1.00  0.00     0.023 A 
ATOM     85  C   UNL A   1      43.983  23.893  33.704  1.00  0.00     0.012 A 
ATOM     86  C   UNL A   1      46.279  24.624  33.697  1.00  0.00     0.148 A 
ATOM     87  C   UNL A   1      44.328  22.823  34.539  1.00  0.00     0.002 A 
ATOM     88  C   UNL A   1      46.599  23.617  34.602  1.00  0.00     0.091 A 
ATOM     89  F   UNL A   1      47.259  25.396  33.216  1.00  0.00    -0.205 F 
ATOM     90  C   UNL A   1      45.630  22.697  35.004  1.00  0.00     0.022 A 
BRANCH  88  91
ATOM     91  S   UNL A   1      48.214  23.500  35.389  1.00  0.00     0.127 S 
ATOM     92  O   UNL A   1      47.992  22.426  36.359  1.00  0.00    -0.237 OA
ATOM     93  O   UNL A   1      49.070  23.137  34.263  1.00  0.00    -0.237 OA
ATOM     94  O   UNL A   1      48.470  24.805  35.982  1.00  0.00    -0.744 OA
ENDBRANCH  88  91
ENDBRANCH  61  84
ENDBRANCH  35  36
ENDBRANCH  27  30
ENDBRANCH  25  26
ENDBRANCH   1  25
TORSDOF 16
ENDMDL
MODEL 2
REMARK VINA RESULT:     -12.9      3.880      7.571
REMARK SMILES Cc1c(/C=C/C(=O)NCCCNC(=O)c2ccc(-c3c4nc(c(-c5cccc(S(=O)(=O)[O-])c5F)c5ccc([nH]5)c(-c5cccc(S(=O)(=O)[O-])c5F)c5nc(c(-c6cccc(S(=O)(=O)[O-])c6F)c6ccc3[nH]6)C=C5)C=C4)cc2)cccc1C(=O)N1C[C@@H](C)[C@@H](C)C1
REMARK SMILES IDX 10 1 9 2 8 3 6 4 7 5 5 7 4 8 3 9 1 10 2 11 81 12 78 13 80 14
REMARK SMILES IDX 79 15 82 16 83 17 84 18 85 19 90 20 86 21 88 22 87 23 89 24
REMARK SMILES IDX 11 25 12 26 13 27 14 29 15 30 16 31 77 32 17 33 76 34 18 35
REMARK SMILES IDX 19 36 20 37 70 38 21 39 75 40 69 41 71 42 22 43 74 44 68 45
REMARK SMILES IDX 67 46 23 48 55 49 35 50 54 51 36 52 39 53 53 54 72 55 37 56
REMARK SMILES IDX 38 57 52 59 73 60 40 61 24 62 25 63 33 64 26 65 28 66 34 67
REMARK SMILES IDX 27 68 29 69 30 70 31 71 32 72 56 73 57 74 65 75 58 76 60 77
REMARK SMILES IDX 66 78 59 79 61 80 62 81 63 82 64 83 41 84 42 85 50 86 43 87
REMARK SMILES IDX 45 88 51 89 44 90 46 91 47 92 48 93 49 94
REMARK H PARENT 8 6 12 28 71 47 39 58
REMARK Flexibility Score: inf
ROOT
ATOM      1  C   UNL A   1      34.831  33.116  28.248  1.00  0.00     0.042 C 
ENDROOT
BRANCH   1   2
ATOM      2  C   UNL A   1      34.565  34.415  28.998  1.00  0.00     0.118 C 
BRANCH   2   3
ATOM      3  N   UNL A   1      33.749  34.207  30.187  1.00  0.00    -0.352 N 
ATOM      4  C   UNL A   1      34.099  34.371  31.499  1.00  0.00     0.244 C 
ATOM      5  O   UNL A   1      33.278  34.288  32.405  1.00  0.00    -0.270 OA
ATOM      6  H   UNL A   1      32.824  33.909  30.025  1.00  0.00     0.163 HD
BRANCH   4   7
ATOM      7  C   UNL A   1      35.500  34.736  31.797  1.00  0.00     0.072 C 
ATOM      8  C   UNL A   1      36.431  33.780  31.927  1.00  0.00     0.014 C 
BRANCH   8   9
ATOM      9  C   UNL A   1      37.869  34.049  32.103  1.00  0.00    -0.022 A 
ATOM     10  C   UNL A   1      38.291  33.562  29.653  1.00  0.00     0.046 C 
ATOM     11  C   UNL A   1      38.786  33.958  31.017  1.00  0.00    -0.031 A 
ATOM     12  C   UNL A   1      40.155  34.239  31.248  1.00  0.00     0.043 A 
ATOM     13  C   UNL A   1      38.341  34.330  33.394  1.00  0.00     0.008 A 
ATOM     14  C   UNL A   1      40.590  34.529  32.554  1.00  0.00     0.014 A 
ATOM     15  C   UNL A   1      39.693  34.567  33.618  1.00  0.00     0.001 A 
BRANCH  12  16
ATOM     16  C   UNL A   1      41.236  33.958  30.256  1.00  0.00     0.254 C 
ATOM     17  O   UNL A   1      41.591  32.784  30.140  1.00  0.00    -0.269 OA
BRANCH  16  18
ATOM     18  N   UNL A   1      41.744  34.948  29.435  1.00  0.00    -0.338 N 
ATOM     19  C   UNL A   1      42.990  35.594  29.798  1.00  0.00     0.123 C 
ATOM     20  C   UNL A   1      41.105  35.610  28.304  1.00  0.00     0.123 C 
ATOM     21  C   UNL A   1      43.004  36.915  29.042  1.00  0.00     0.010 C 
ATOM     22  C   UNL A   1      42.138  36.636  27.795  1.00  0.00     0.010 C 
ATOM     23  C   UNL A   1      44.425  37.406  28.801  1.00  0.00     0.010 C 
ATOM     24  C   UNL A   1      42.906  36.123  26.578  1.00  0.00     0.010 C 
ENDBRANCH  16  18
ENDBRANCH  12  16
ENDBRANCH   8   9
ENDBRANCH   4   7
ENDBRANCH   2   3
ENDBRANCH   1   2
BRANCH   1  25
ATOM     25  C   UNL A   1      34.766  31.878  29.119  1.00  0.00     0.118 C 
BRANCH  25  26
ATOM     26  N   UNL A   1      34.460  30.662  28.379  1.00  0.00    -0.352 N 
ATOM     27  C   UNL A   1      35.318  29.698  27.858  1.00  0.00     0.251 C 
ATOM     28  H   UNL A   1      33.503  30.497  28.221  1.00  0.00     0.163 HD
ATOM     29  O   UNL A   1      34.866  28.811  27.173  1.00  0.00    -0.269 OA
BRANCH  27  30
ATOM     30  C   UNL A   1      36.750  29.718  28.268  1.00  0.00     0.039 A 
ATOM     31  C   UNL A   1      37.726  29.862  27.274  1.00  0.00     0.014 A 
ATOM     32  C   UNL A   1      37.118  29.383  29.564  1.00  0.00     0.014 A 
ATOM     33  C   UNL A   1      39.029  29.425  27.523  1.00  0.00     0.010 A 
ATOM     34  C   UNL A   1      38.358  28.829  29.772  1.00  0.00     0.010 A 
ATOM     35  C   UNL A   1      39.301  28.804  28.736  1.00  0.00    -0.014 A 
BRANCH  35  36
ATOM     36  C   UNL A   1      40.518  28.092  29.086  1.00  0.00     0.031 A 
ATOM     37  C   UNL A   1      40.619  26.651  28.771  1.00  0.00     0.074 A 
ATOM     38  C   UNL A   1      41.631  28.808  29.360  1.00  0.00     0.049 A 
ATOM     39  N   UNL A   1      41.668  25.941  28.994  1.00  0.00    -0.248 NA
ATOM     40  C   UNL A   1      39.516  25.888  28.197  1.00  0.00     0.031 C 
ATOM     41  C   UNL A   1      43.017  28.396  29.156  1.00  0.00     0.029 A 
ATOM     42  N   UNL A   1      41.736  29.982  30.114  1.00  0.00    -0.354 N 
ATOM     43  C   UNL A   1      41.493  24.724  28.379  1.00  0.00     0.074 A 
ATOM     44  C   UNL A   1      40.105  24.707  27.989  1.00  0.00     0.031 C 
ATOM     45  C   UNL A   1      43.803  29.101  29.983  1.00  0.00     0.029 A 
ATOM     46  C   UNL A   1      42.923  29.844  30.864  1.00  0.00     0.049 A 
ATOM     47  H   UNL A   1      41.111  30.743  30.120  1.00  0.00     0.167 HD
ATOM     48  C   UNL A   1      42.588  23.937  28.195  1.00  0.00     0.034 A 
ATOM     49  C   UNL A   1      42.958  29.803  32.229  1.00  0.00     0.034 A 
ATOM     50  C   UNL A   1      43.731  24.446  28.968  1.00  0.00     0.049 A 
ATOM     51  C   UNL A   1      43.594  28.542  32.800  1.00  0.00     0.074 A 
ATOM     52  C   UNL A   1      44.905  25.126  28.687  1.00  0.00     0.029 A 
ATOM     53  N   UNL A   1      43.613  24.451  30.345  1.00  0.00    -0.354 N 
ATOM     54  N   UNL A   1      44.126  27.583  32.093  1.00  0.00    -0.248 NA
ATOM     55  C   UNL A   1      43.578  28.224  34.231  1.00  0.00     0.031 C 
ATOM     56  C   UNL A   1      45.472  25.557  29.928  1.00  0.00     0.029 A 
ATOM     57  C   UNL A   1      44.655  25.116  30.955  1.00  0.00     0.049 A 
ATOM     58  H   UNL A   1      42.870  24.027  30.832  1.00  0.00     0.167 HD
ATOM     59  C   UNL A   1      44.321  26.486  32.896  1.00  0.00     0.074 A 
ATOM     60  C   UNL A   1      44.025  26.957  34.235  1.00  0.00     0.031 C 
ATOM     61  C   UNL A   1      44.620  25.244  32.406  1.00  0.00     0.034 A 
BRANCH  48  62
ATOM     62  C   UNL A   1      42.722  22.754  27.249  1.00  0.00     0.023 A 
ATOM     63  C   UNL A   1      41.918  21.624  27.528  1.00  0.00     0.012 A 
ATOM     64  C   UNL A   1      43.627  22.611  26.171  1.00  0.00     0.148 A 
ATOM     65  C   UNL A   1      42.032  20.421  26.822  1.00  0.00     0.002 A 
ATOM     66  C   UNL A   1      43.731  21.417  25.452  1.00  0.00     0.091 A 
ATOM     67  F   UNL A   1      44.445  23.606  25.840  1.00  0.00    -0.205 F 
ATOM     68  C   UNL A   1      42.942  20.315  25.783  1.00  0.00     0.022 A 
BRANCH  66  69
ATOM     69  S   UNL A   1      44.902  21.202  24.095  1.00  0.00     0.127 S 
ATOM     70  O   UNL A   1      44.525  22.294  23.196  1.00  0.00    -0.237 OA
ATOM     71  O   UNL A   1      46.192  21.381  24.760  1.00  0.00    -0.237 OA
ATOM     72  O   UNL A   1      44.677  19.866  23.558  1.00  0.00    -0.744 OA
ENDBRANCH  66  69
ENDBRANCH  48  62
BRANCH  49  73
ATOM     73  C   UNL A   1      41.832  30.546  32.866  1.00  0.00     0.023 A 
ATOM     74  C   UNL A   1      40.525  30.262  32.405  1.00  0.00     0.012 A 
ATOM     75  C   UNL A   1      41.995  31.168  34.117  1.00  0.00     0.148 A 
ATOM     76  C   UNL A   1      39.417  30.481  33.224  1.00  0.00     0.002 A 
ATOM     77  C   UNL A   1      40.885  31.378  34.929  1.00  0.00     0.091 A 
ATOM     78  F   UNL A   1      43.235  31.454  34.533  1.00  0.00    -0.205 F 
ATOM     79  C   UNL A   1      39.601  31.008  34.498  1.00  0.00     0.022 A 
BRANCH  77  80
ATOM     80  S   UNL A   1      41.054  31.965  36.620  1.00  0.00     0.127 S 
ATOM     81  O   UNL A   1      41.630  33.289  36.410  1.00  0.00    -0.237 OA
ATOM     82  O   UNL A   1      39.667  31.956  37.087  1.00  0.00    -0.237 OA
ATOM     83  O   UNL A   1      41.905  30.982  37.272  1.00  0.00    -0.744 OA
ENDBRANCH  77  80
ENDBRANCH  49  73
BRANCH  61  84
ATOM     84  C   UNL A   1      44.862  24.026  33.278  1.00  0.00     0.023 A 
ATOM     85  C   UNL A   1      43.788  23.193  33.652  1.00  0.00     0.012 A 
ATOM     86  C   UNL A   1      46.122  23.755  33.873  1.00  0.00     0.148 A 
ATOM     87  C   UNL A   1      43.965  22.121  34.535  1.00  0.00     0.002 A 
ATOM     88  C   UNL A   1      46.271  22.749  34.822  1.00  0.00     0.091 A 
ATOM     89  F   UNL A   1      47.201  24.443  33.485  1.00  0.00    -0.205 F 
ATOM     90  C   UNL A   1      45.199  21.911  35.136  1.00  0.00     0.022 A 
BRANCH  88  91
ATOM     91  S   UNL A   1      47.783  22.534  35.775  1.00  0.00     0.127 S 
ATOM     92  O   UNL A   1      47.384  21.499  36.731  1.00  0.00    -0.237 OA
ATOM     93  O   UNL A   1      48.722  22.086  34.749  1.00  0.00    -0.237 OA
ATOM     94  O   UNL A   1      48.071  23.829  36.373  1.00  0.00    -0.744 OA
ENDBRANCH  88  91
ENDBRANCH  61  84
ENDBRANCH  35  36
ENDBRANCH  27  30
ENDBRANCH  25  26
ENDBRANCH   1  25
TORSDOF 16
ENDMDL
MODEL 3
REMARK VINA RESULT:     -12.9      1.721      2.376
REMARK SMILES Cc1c(/C=C/C(=O)NCCCNC(=O)c2ccc(-c3c4nc(c(-c5cccc(S(=O)(=O)[O-])c5F)c5ccc([nH]5)c(-c5cccc(S(=O)(=O)[O-])c5F)c5nc(c(-c6cccc(S(=O)(=O)[O-])c6F)c6ccc3[nH]6)C=C5)C=C4)cc2)cccc1C(=O)N1C[C@@H](C)[C@@H](C)C1
REMARK SMILES IDX 10 1 9 2 8 3 6 4 7 5 5 7 4 8 3 9 1 10 2 11 81 12 78 13 80 14
REMARK SMILES IDX 79 15 82 16 83 17 84 18 85 19 90 20 86 21 88 22 87 23 89 24
REMARK SMILES IDX 11 25 12 26 13 27 14 29 15 30 16 31 77 32 17 33 76 34 18 35
REMARK SMILES IDX 19 36 20 37 70 38 21 39 75 40 69 41 71 42 22 43 74 44 68 45
REMARK SMILES IDX 67 46 23 48 55 49 35 50 54 51 36 52 39 53 53 54 72 55 37 56
REMARK SMILES IDX 38 57 52 59 73 60 40 61 24 62 25 63 33 64 26 65 28 66 34 67
REMARK SMILES IDX 27 68 29 69 30 70 31 71 32 72 56 73 57 74 65 75 58 76 60 77
REMARK SMILES IDX 66 78 59 79 61 80 62 81 63 82 64 83 41 84 42 85 50 86 43 87
REMARK SMILES IDX 45 88 51 89 44 90 46 91 47 92 48 93 49 94
REMARK H PARENT 8 6 12 28 71 47 39 58
REMARK Flexibility Score: inf
ROOT
ATOM      1  C   UNL A   1      32.903  29.711  25.504  1.00  0.00     0.042 C 
ENDROOT
BRANCH   1   2
ATOM      2  C   UNL A   1      31.396  29.751  25.290  1.00  0.00     0.118 C 
BRANCH   2   3
ATOM      3  N   UNL A   1      31.043  29.977  23.894  1.00  0.00    -0.352 N 
ATOM      4  C   UNL A   1      30.587  29.073  22.974  1.00  0.00     0.244 C 
ATOM      5  O   UNL A   1      30.201  29.417  21.863  1.00  0.00    -0.270 OA
ATOM      6  H   UNL A   1      31.147  30.901  23.571  1.00  0.00     0.163 HD
BRANCH   4   7
ATOM      7  C   UNL A   1      30.494  27.657  23.389  1.00  0.00     0.072 C 
ATOM      8  C   UNL A   1      31.544  26.839  23.229  1.00  0.00     0.014 C 
BRANCH   8   9
ATOM      9  C   UNL A   1      31.589  25.450  23.719  1.00  0.00    -0.022 A 
ATOM     10  C   UNL A   1      33.427  26.054  25.353  1.00  0.00     0.046 C 
ATOM     11  C   UNL A   1      32.485  25.048  24.750  1.00  0.00    -0.031 A 
ATOM     12  C   UNL A   1      32.473  23.700  25.185  1.00  0.00     0.043 A 
ATOM     13  C   UNL A   1      30.772  24.497  23.092  1.00  0.00     0.008 A 
ATOM     14  C   UNL A   1      31.631  22.775  24.542  1.00  0.00     0.014 A 
ATOM     15  C   UNL A   1      30.794  23.167  23.500  1.00  0.00     0.001 A 
BRANCH  12  16
ATOM     16  C   UNL A   1      33.510  23.113  26.085  1.00  0.00     0.254 C 
ATOM     17  O   UNL A   1      33.157  22.840  27.234  1.00  0.00    -0.269 OA
BRANCH  16  18
ATOM     18  N   UNL A   1      34.776  22.797  25.627  1.00  0.00    -0.338 N 
ATOM     19  C   UNL A   1      35.930  23.359  26.301  1.00  0.00     0.123 C 
ATOM     20  C   UNL A   1      35.153  22.105  24.400  1.00  0.00     0.123 C 
ATOM     21  C   UNL A   1      37.074  23.269  25.301  1.00  0.00     0.010 C 
ATOM     22  C   UNL A   1      36.695  22.063  24.414  1.00  0.00     0.010 C 
ATOM     23  C   UNL A   1      38.425  23.214  26.002  1.00  0.00     0.010 C 
ATOM     24  C   UNL A   1      37.229  20.715  24.895  1.00  0.00     0.010 C 
ENDBRANCH  16  18
ENDBRANCH  12  16
ENDBRANCH   8   9
ENDBRANCH   4   7
ENDBRANCH   2   3
ENDBRANCH   1   2
BRANCH   1  25
ATOM     25  C   UNL A   1      33.319  29.748  26.961  1.00  0.00     0.118 C 
BRANCH  25  26
ATOM     26  N   UNL A   1      33.827  31.044  27.388  1.00  0.00    -0.352 N 
ATOM     27  C   UNL A   1      34.971  31.355  28.115  1.00  0.00     0.251 C 
ATOM     28  H   UNL A   1      33.277  31.817  27.124  1.00  0.00     0.163 HD
ATOM     29  O   UNL A   1      35.157  32.497  28.466  1.00  0.00    -0.269 OA
BRANCH  27  30
ATOM     30  C   UNL A   1      35.994  30.294  28.329  1.00  0.00     0.039 A 
ATOM     31  C   UNL A   1      36.203  29.822  29.631  1.00  0.00     0.014 A 
ATOM     32  C   UNL A   1      36.868  29.940  27.311  1.00  0.00     0.014 A 
ATOM     33  C   UNL A   1      37.416  29.211  29.954  1.00  0.00     0.010 A 
ATOM     34  C   UNL A   1      38.111  29.464  27.649  1.00  0.00     0.010 A 
ATOM     35  C   UNL A   1      38.405  29.145  28.980  1.00  0.00    -0.014 A 
BRANCH  35  36
ATOM     36  C   UNL A   1      39.791  28.757  29.184  1.00  0.00     0.031 A 
ATOM     37  C   UNL A   1      40.185  27.354  28.935  1.00  0.00     0.074 A 
ATOM     38  C   UNL A   1      40.731  29.727  29.249  1.00  0.00     0.049 A 
ATOM     39  N   UNL A   1      41.390  26.920  29.038  1.00  0.00    -0.248 NA
ATOM     40  C   UNL A   1      39.225  26.316  28.574  1.00  0.00     0.031 C 
ATOM     41  C   UNL A   1      42.136  29.620  28.864  1.00  0.00     0.029 A 
ATOM     42  N   UNL A   1      40.658  30.955  29.914  1.00  0.00    -0.354 N 
ATOM     43  C   UNL A   1      41.426  25.645  28.522  1.00  0.00     0.074 A 
ATOM     44  C   UNL A   1      40.041  25.284  28.345  1.00  0.00     0.031 C 
ATOM     45  C   UNL A   1      42.837  30.552  29.525  1.00  0.00     0.029 A 
ATOM     46  C   UNL A   1      41.932  31.153  30.485  1.00  0.00     0.049 A 
ATOM     47  H   UNL A   1      39.878  31.554  29.973  1.00  0.00     0.167 HD
ATOM     48  C   UNL A   1      42.641  25.111  28.220  1.00  0.00     0.034 A 
ATOM     49  C   UNL A   1      42.156  31.240  31.830  1.00  0.00     0.034 A 
ATOM     50  C   UNL A   1      43.725  25.930  28.785  1.00  0.00     0.049 A 
ATOM     51  C   UNL A   1      43.140  30.208  32.368  1.00  0.00     0.074 A 
ATOM     52  C   UNL A   1      44.658  26.828  28.296  1.00  0.00     0.029 A 
ATOM     53  N   UNL A   1      43.792  26.027  30.162  1.00  0.00    -0.354 N 
ATOM     54  N   UNL A   1      43.784  29.335  31.643  1.00  0.00    -0.248 NA
ATOM     55  C   UNL A   1      43.388  30.020  33.800  1.00  0.00     0.031 C 
ATOM     56  C   UNL A   1      45.268  27.482  29.414  1.00  0.00     0.029 A 
ATOM     57  C   UNL A   1      44.721  26.960  30.574  1.00  0.00     0.049 A 
ATOM     58  H   UNL A   1      43.241  25.492  30.778  1.00  0.00     0.167 HD
ATOM     59  C   UNL A   1      44.335  28.383  32.465  1.00  0.00     0.074 A 
ATOM     60  C   UNL A   1      44.117  28.891  33.806  1.00  0.00     0.031 C 
ATOM     61  C   UNL A   1      44.849  27.203  32.004  1.00  0.00     0.034 A 
BRANCH  48  62
ATOM     62  C   UNL A   1      42.921  23.911  27.330  1.00  0.00     0.023 A 
ATOM     63  C   UNL A   1      43.816  24.115  26.253  1.00  0.00     0.012 A 
ATOM     64  C   UNL A   1      42.320  22.632  27.393  1.00  0.00     0.148 A 
ATOM     65  C   UNL A   1      44.065  23.140  25.280  1.00  0.00     0.002 A 
ATOM     66  C   UNL A   1      42.580  21.649  26.433  1.00  0.00     0.091 A 
ATOM     67  F   UNL A   1      41.446  22.344  28.353  1.00  0.00    -0.205 F 
ATOM     68  C   UNL A   1      43.444  21.905  25.368  1.00  0.00     0.022 A 
BRANCH  66  69
ATOM     69  S   UNL A   1      41.799  20.023  26.477  1.00  0.00     0.127 S 
ATOM     70  O   UNL A   1      40.381  20.367  26.370  1.00  0.00    -0.237 OA
ATOM     71  O   UNL A   1      42.357  19.373  25.291  1.00  0.00    -0.237 OA
ATOM     72  O   UNL A   1      42.183  19.409  27.742  1.00  0.00    -0.744 OA
ENDBRANCH  66  69
ENDBRANCH  48  62
BRANCH  49  73
ATOM     73  C   UNL A   1      40.982  31.764  32.587  1.00  0.00     0.023 A 
ATOM     74  C   UNL A   1      40.027  30.822  33.034  1.00  0.00     0.012 A 
ATOM     75  C   UNL A   1      41.020  33.036  33.186  1.00  0.00     0.148 A 
ATOM     76  C   UNL A   1      39.213  31.099  34.133  1.00  0.00     0.002 A 
ATOM     77  C   UNL A   1      40.209  33.302  34.285  1.00  0.00     0.091 A 
ATOM     78  F   UNL A   1      41.912  33.928  32.739  1.00  0.00    -0.205 F 
ATOM     79  C   UNL A   1      39.328  32.326  34.778  1.00  0.00     0.022 A 
BRANCH  77  80
ATOM     80  S   UNL A   1      40.369  34.825  35.225  1.00  0.00     0.127 S 
ATOM     81  O   UNL A   1      41.158  34.378  36.369  1.00  0.00    -0.237 OA
ATOM     82  O   UNL A   1      41.076  35.693  34.282  1.00  0.00    -0.237 OA
ATOM     83  O   UNL A   1      39.002  35.238  35.500  1.00  0.00    -0.744 OA
ENDBRANCH  77  80
ENDBRANCH  49  73
BRANCH  61  84
ATOM     84  C   UNL A   1      45.483  26.151  32.895  1.00  0.00     0.023 A 
ATOM     85  C   UNL A   1      46.869  25.904  32.832  1.00  0.00     0.012 A 
ATOM     86  C   UNL A   1      44.712  25.277  33.706  1.00  0.00     0.148 A 
ATOM     87  C   UNL A   1      47.465  24.875  33.570  1.00  0.00     0.002 A 
ATOM     88  C   UNL A   1      45.295  24.196  34.360  1.00  0.00     0.091 A 
ATOM     89  F   UNL A   1      43.409  25.516  33.888  1.00  0.00    -0.205 F 
ATOM     90  C   UNL A   1      46.678  24.008  34.316  1.00  0.00     0.022 A 
BRANCH  88  91
ATOM     91  S   UNL A   1      44.324  22.930  35.193  1.00  0.00     0.127 S 
ATOM     92  O   UNL A   1      44.701  21.729  34.445  1.00  0.00    -0.237 OA
ATOM     93  O   UNL A   1      44.854  22.992  36.553  1.00  0.00    -0.237 OA
ATOM     94  O   UNL A   1      42.931  23.324  35.040  1.00  0.00    -0.744 OA
ENDBRANCH  88  91
ENDBRANCH  61  84
ENDBRANCH  35  36
ENDBRANCH  27  30
ENDBRANCH  25  26
ENDBRANCH   1  25
TORSDOF 16
ENDMDL
