MODEL 1
REMARK VINA RESULT:     -12.1      0.000      0.000
REMARK SMILES O=C(NCCCNC(=O)[C@@H]1CCn2c(C(=O)c3ccccc3)ccc21)c1ccc(-c2c3nc(c(-c4cccc(S(=O)(=O)[O-])c4F)c4ccc([nH]4)c(-c4cccc(S(=O)(=O)[O-])c4F)c4nc(c(-c5cccc(S(=O)(=O)[O-])c5F)c5ccc2[nH]5)C=C4)C=C3)cc1
REMARK SMILES IDX 4 1 3 2 1 3 2 4 26 6 27 7 88 8 28 9 87 10 29 11 30 12 31 13
REMARK SMILES IDX 81 14 32 15 86 16 80 17 82 18 33 19 85 20 79 21 78 22 34 24
REMARK SMILES IDX 66 25 46 26 65 27 47 28 50 29 64 30 83 31 48 32 49 33 63 35
REMARK SMILES IDX 84 36 51 37 35 38 36 39 44 40 37 41 39 42 45 43 38 44 40 45
REMARK SMILES IDX 41 46 42 47 43 48 67 49 68 50 76 51 69 52 71 53 77 54 70 55
REMARK SMILES IDX 72 56 73 57 74 58 75 59 52 60 53 61 61 62 54 63 56 64 62 65
REMARK SMILES IDX 55 66 57 67 58 68 59 69 60 70 5 71 6 72 7 73 8 74 9 76 10 77
REMARK SMILES IDX 11 78 25 79 12 80 13 81 24 82 14 83 23 84 15 85 16 86 17 87
REMARK SMILES IDX 18 88 22 89 19 90 21 91 20 92
REMARK H PARENT 3 5 82 23 50 34 7 75
REMARK Flexibility Score: inf
ROOT
ATOM      1  C   UNL A   1      34.052  28.923  26.016  1.00  0.00     0.118 C 
ENDROOT
BRANCH   1   2
ATOM      2  N   UNL A   1      33.846  30.263  26.549  1.00  0.00    -0.352 N 
ATOM      3  O   UNL A   1      34.033  31.973  27.991  1.00  0.00    -0.269 OA
ATOM      4  C   UNL A   1      34.512  30.932  27.546  1.00  0.00     0.251 C 
ATOM      5  H   UNL A   1      33.114  30.768  26.128  1.00  0.00     0.163 HD
BRANCH   4   6
ATOM      6  C   UNL A   1      35.779  30.400  28.092  1.00  0.00     0.039 A 
ATOM      7  C   UNL A   1      36.988  30.606  27.424  1.00  0.00     0.014 A 
ATOM      8  C   UNL A   1      35.766  29.721  29.316  1.00  0.00     0.014 A 
ATOM      9  C   UNL A   1      38.153  30.015  27.899  1.00  0.00     0.010 A 
ATOM     10  C   UNL A   1      36.955  29.205  29.839  1.00  0.00     0.010 A 
ATOM     11  C   UNL A   1      38.155  29.322  29.120  1.00  0.00    -0.014 A 
BRANCH  11  12
ATOM     12  C   UNL A   1      39.438  28.806  29.661  1.00  0.00     0.031 A 
ATOM     13  C   UNL A   1      40.064  29.396  30.893  1.00  0.00     0.074 A 
ATOM     14  C   UNL A   1      40.039  27.783  29.021  1.00  0.00     0.049 A 
ATOM     15  N   UNL A   1      41.160  29.033  31.510  1.00  0.00    -0.248 NA
ATOM     16  C   UNL A   1      39.384  30.545  31.511  1.00  0.00     0.031 C 
ATOM     17  C   UNL A   1      39.551  27.163  27.786  1.00  0.00     0.029 A 
ATOM     18  N   UNL A   1      41.182  27.085  29.311  1.00  0.00    -0.354 N 
ATOM     19  C   UNL A   1      41.322  29.925  32.563  1.00  0.00     0.074 A 
ATOM     20  C   UNL A   1      40.215  30.857  32.497  1.00  0.00     0.031 C 
ATOM     21  C   UNL A   1      40.372  26.162  27.439  1.00  0.00     0.029 A 
ATOM     22  C   UNL A   1      41.472  26.100  28.396  1.00  0.00     0.049 A 
ATOM     23  H   UNL A   1      41.743  27.271  30.099  1.00  0.00     0.167 HD
ATOM     24  C   UNL A   1      42.295  29.955  33.505  1.00  0.00     0.034 A 
ATOM     25  C   UNL A   1      42.511  25.248  28.322  1.00  0.00     0.034 A 
ATOM     26  C   UNL A   1      43.373  29.005  33.584  1.00  0.00     0.049 A 
ATOM     27  C   UNL A   1      43.558  25.289  29.397  1.00  0.00     0.074 A 
ATOM     28  C   UNL A   1      44.368  28.911  34.542  1.00  0.00     0.029 A 
ATOM     29  N   UNL A   1      43.608  27.992  32.666  1.00  0.00    -0.354 N 
ATOM     30  N   UNL A   1      43.617  26.051  30.461  1.00  0.00    -0.248 NA
ATOM     31  C   UNL A   1      44.668  24.334  29.277  1.00  0.00     0.031 C 
ATOM     32  C   UNL A   1      45.215  27.854  34.193  1.00  0.00     0.029 A 
ATOM     33  C   UNL A   1      44.736  27.274  33.029  1.00  0.00     0.049 A 
ATOM     34  H   UNL A   1      43.052  27.810  31.874  1.00  0.00     0.167 HD
ATOM     35  C   UNL A   1      44.755  25.655  31.151  1.00  0.00     0.074 A 
ATOM     36  C   UNL A   1      45.339  24.563  30.399  1.00  0.00     0.031 C 
ATOM     37  C   UNL A   1      45.280  26.161  32.294  1.00  0.00     0.034 A 
BRANCH  24  38
ATOM     38  C   UNL A   1      42.219  31.026  34.564  1.00  0.00     0.023 A 
ATOM     39  C   UNL A   1      41.554  30.757  35.778  1.00  0.00     0.012 A 
ATOM     40  C   UNL A   1      42.866  32.265  34.393  1.00  0.00     0.148 A 
ATOM     41  C   UNL A   1      41.513  31.711  36.793  1.00  0.00     0.002 A 
ATOM     42  C   UNL A   1      42.854  33.197  35.424  1.00  0.00     0.091 A 
ATOM     43  F   UNL A   1      43.476  32.513  33.224  1.00  0.00    -0.205 F 
ATOM     44  C   UNL A   1      42.171  32.926  36.621  1.00  0.00     0.022 A 
BRANCH  42  45
ATOM     45  S   UNL A   1      43.736  34.761  35.327  1.00  0.00     0.127 S 
ATOM     46  O   UNL A   1      45.106  34.312  35.089  1.00  0.00    -0.237 OA
ATOM     47  O   UNL A   1      43.098  35.404  34.177  1.00  0.00    -0.237 OA
ATOM     48  O   UNL A   1      43.504  35.430  36.599  1.00  0.00    -0.744 OA
ENDBRANCH  42  45
ENDBRANCH  24  38
BRANCH  25  49
ATOM     49  C   UNL A   1      42.576  24.258  27.211  1.00  0.00     0.023 A 
ATOM     50  C   UNL A   1      43.319  24.561  26.056  1.00  0.00     0.012 A 
ATOM     51  C   UNL A   1      41.953  23.000  27.319  1.00  0.00     0.148 A 
ATOM     52  C   UNL A   1      43.422  23.637  25.015  1.00  0.00     0.002 A 
ATOM     53  C   UNL A   1      42.109  22.061  26.307  1.00  0.00     0.091 A 
ATOM     54  F   UNL A   1      41.235  22.737  28.420  1.00  0.00    -0.205 F 
ATOM     55  C   UNL A   1      42.829  22.383  25.146  1.00  0.00     0.022 A 
BRANCH  53  56
ATOM     56  S   UNL A   1      41.504  20.377  26.463  1.00  0.00     0.127 S 
ATOM     57  O   UNL A   1      40.068  20.556  26.270  1.00  0.00    -0.237 OA
ATOM     58  O   UNL A   1      42.196  19.702  25.366  1.00  0.00    -0.237 OA
ATOM     59  O   UNL A   1      41.919  19.938  27.789  1.00  0.00    -0.744 OA
ENDBRANCH  53  56
ENDBRANCH  25  49
BRANCH  37  60
ATOM     60  C   UNL A   1      46.542  25.527  32.814  1.00  0.00     0.023 A 
ATOM     61  C   UNL A   1      47.793  26.038  32.417  1.00  0.00     0.012 A 
ATOM     62  C   UNL A   1      46.488  24.468  33.741  1.00  0.00     0.148 A 
ATOM     63  C   UNL A   1      48.973  25.483  32.910  1.00  0.00     0.002 A 
ATOM     64  C   UNL A   1      47.667  23.952  34.264  1.00  0.00     0.091 A 
ATOM     65  F   UNL A   1      45.287  23.982  34.089  1.00  0.00    -0.205 F 
ATOM     66  C   UNL A   1      48.910  24.450  33.842  1.00  0.00     0.022 A 
BRANCH  64  67
ATOM     67  S   UNL A   1      47.677  22.682  35.535  1.00  0.00     0.127 S 
ATOM     68  O   UNL A   1      46.889  23.312  36.593  1.00  0.00    -0.237 OA
ATOM     69  O   UNL A   1      47.014  21.564  34.864  1.00  0.00    -0.237 OA
ATOM     70  O   UNL A   1      49.079  22.447  35.854  1.00  0.00    -0.744 OA
ENDBRANCH  64  67
ENDBRANCH  37  60
ENDBRANCH  11  12
ENDBRANCH   4   6
ENDBRANCH   1   2
BRANCH   1  71
ATOM     71  C   UNL A   1      32.742  28.156  25.845  1.00  0.00     0.042 C 
BRANCH  71  72
ATOM     72  C   UNL A   1      32.222  27.545  27.143  1.00  0.00     0.117 C 
BRANCH  72  73
ATOM     73  N   UNL A   1      31.387  26.385  26.887  1.00  0.00    -0.355 N 
ATOM     74  C   UNL A   1      31.693  25.192  26.300  1.00  0.00     0.229 C 
ATOM     75  H   UNL A   1      30.452  26.473  27.183  1.00  0.00     0.163 HD
ATOM     76  O   UNL A   1      30.764  24.412  26.075  1.00  0.00    -0.274 OA
BRANCH  74  77
ATOM     77  C   UNL A   1      33.142  24.861  25.964  1.00  0.00     0.127 C 
ATOM     78  C   UNL A   1      33.360  24.731  24.437  1.00  0.00     0.042 C 
ATOM     79  C   UNL A   1      33.500  23.494  26.439  1.00  0.00     0.031 A 
ATOM     80  C   UNL A   1      34.347  23.567  24.258  1.00  0.00     0.124 C 
ATOM     81  N   UNL A   1      34.187  22.800  25.482  1.00  0.00    -0.341 N 
ATOM     82  C   UNL A   1      33.325  22.681  27.524  1.00  0.00     0.025 A 
ATOM     83  C   UNL A   1      34.504  21.543  25.903  1.00  0.00     0.090 A 
ATOM     84  C   UNL A   1      33.951  21.450  27.183  1.00  0.00     0.032 A 
BRANCH  83  85
ATOM     85  C   UNL A   1      35.204  20.476  25.205  1.00  0.00     0.209 C 
ATOM     86  O   UNL A   1      36.429  20.430  25.103  1.00  0.00    -0.287 OA
BRANCH  85  87
ATOM     87  C   UNL A   1      34.455  19.365  24.582  1.00  0.00     0.024 A 
ATOM     88  C   UNL A   1      33.150  19.607  24.138  1.00  0.00     0.012 A 
ATOM     89  C   UNL A   1      35.018  18.091  24.464  1.00  0.00     0.012 A 
ATOM     90  C   UNL A   1      32.428  18.584  23.525  1.00  0.00     0.001 A 
ATOM     91  C   UNL A   1      34.294  17.073  23.842  1.00  0.00     0.001 A 
ATOM     92  C   UNL A   1      33.004  17.322  23.368  1.00  0.00     0.000 A 
ENDBRANCH  85  87
ENDBRANCH  83  85
ENDBRANCH  74  77
ENDBRANCH  72  73
ENDBRANCH  71  72
ENDBRANCH   1  71
TORSDOF 15
ENDMDL
MODEL 2
REMARK VINA RESULT:     -12.1      3.866      8.805
REMARK SMILES O=C(NCCCNC(=O)[C@@H]1CCn2c(C(=O)c3ccccc3)ccc21)c1ccc(-c2c3nc(c(-c4cccc(S(=O)(=O)[O-])c4F)c4ccc([nH]4)c(-c4cccc(S(=O)(=O)[O-])c4F)c4nc(c(-c5cccc(S(=O)(=O)[O-])c5F)c5ccc2[nH]5)C=C4)C=C3)cc1
REMARK SMILES IDX 4 1 3 2 1 3 2 4 26 6 27 7 88 8 28 9 87 10 29 11 30 12 31 13
REMARK SMILES IDX 81 14 32 15 86 16 80 17 82 18 33 19 85 20 79 21 78 22 34 24
REMARK SMILES IDX 66 25 46 26 65 27 47 28 50 29 64 30 83 31 48 32 49 33 63 35
REMARK SMILES IDX 84 36 51 37 35 38 36 39 44 40 37 41 39 42 45 43 38 44 40 45
REMARK SMILES IDX 41 46 42 47 43 48 67 49 68 50 76 51 69 52 71 53 77 54 70 55
REMARK SMILES IDX 72 56 73 57 74 58 75 59 52 60 53 61 61 62 54 63 56 64 62 65
REMARK SMILES IDX 55 66 57 67 58 68 59 69 60 70 5 71 6 72 7 73 8 74 9 76 10 77
REMARK SMILES IDX 11 78 25 79 12 80 13 81 24 82 14 83 23 84 15 85 16 86 17 87
REMARK SMILES IDX 18 88 22 89 19 90 21 91 20 92
REMARK H PARENT 3 5 82 23 50 34 7 75
REMARK Flexibility Score: inf
ROOT
ATOM      1  C   UNL A   1      32.612  32.897  27.241  1.00  0.00     0.118 C 
ENDROOT
BRANCH   1   2
ATOM      2  N   UNL A   1      32.522  34.268  27.725  1.00  0.00    -0.352 N 
ATOM      3  O   UNL A   1      32.768  35.986  29.148  1.00  0.00    -0.269 OA
ATOM      4  C   UNL A   1      33.155  34.879  28.779  1.00  0.00     0.251 C 
ATOM      5  H   UNL A   1      31.910  34.847  27.216  1.00  0.00     0.163 HD
BRANCH   4   6
ATOM      6  C   UNL A   1      34.277  34.211  29.472  1.00  0.00     0.039 A 
ATOM      7  C   UNL A   1      34.041  33.316  30.517  1.00  0.00     0.014 A 
ATOM      8  C   UNL A   1      35.587  34.447  29.040  1.00  0.00     0.014 A 
ATOM      9  C   UNL A   1      35.109  32.772  31.222  1.00  0.00     0.010 A 
ATOM     10  C   UNL A   1      36.658  33.829  29.692  1.00  0.00     0.010 A 
ATOM     11  C   UNL A   1      36.430  33.009  30.808  1.00  0.00    -0.014 A 
BRANCH  11  12
ATOM     12  C   UNL A   1      37.544  32.319  31.506  1.00  0.00     0.031 A 
ATOM     13  C   UNL A   1      38.298  31.192  30.857  1.00  0.00     0.074 A 
ATOM     14  C   UNL A   1      37.875  32.728  32.747  1.00  0.00     0.049 A 
ATOM     15  N   UNL A   1      39.318  30.514  31.319  1.00  0.00    -0.248 NA
ATOM     16  C   UNL A   1      37.851  30.761  29.523  1.00  0.00     0.031 C 
ATOM     17  C   UNL A   1      37.181  33.776  33.498  1.00  0.00     0.029 A 
ATOM     18  N   UNL A   1      38.869  32.316  33.596  1.00  0.00    -0.354 N 
ATOM     19  C   UNL A   1      39.612  29.556  30.357  1.00  0.00     0.074 A 
ATOM     20  C   UNL A   1      38.655  29.733  29.284  1.00  0.00     0.031 C 
ATOM     21  C   UNL A   1      37.784  33.946  34.683  1.00  0.00     0.029 A 
ATOM     22  C   UNL A   1      38.876  32.984  34.798  1.00  0.00     0.049 A 
ATOM     23  H   UNL A   1      39.517  31.610  33.368  1.00  0.00     0.167 HD
ATOM     24  C   UNL A   1      40.597  28.627  30.361  1.00  0.00     0.034 A 
ATOM     25  C   UNL A   1      39.661  32.836  35.881  1.00  0.00     0.034 A 
ATOM     26  C   UNL A   1      41.566  28.480  31.415  1.00  0.00     0.049 A 
ATOM     27  C   UNL A   1      40.761  31.815  35.843  1.00  0.00     0.074 A 
ATOM     28  C   UNL A   1      42.644  27.613  31.479  1.00  0.00     0.029 A 
ATOM     29  N   UNL A   1      41.569  29.206  32.597  1.00  0.00    -0.354 N 
ATOM     30  N   UNL A   1      41.108  31.014  34.866  1.00  0.00    -0.248 NA
ATOM     31  C   UNL A   1      41.596  31.696  37.046  1.00  0.00     0.031 C 
ATOM     32  C   UNL A   1      43.287  27.803  32.706  1.00  0.00     0.029 A 
ATOM     33  C   UNL A   1      42.624  28.802  33.400  1.00  0.00     0.049 A 
ATOM     34  H   UNL A   1      40.918  29.907  32.830  1.00  0.00     0.167 HD
ATOM     35  C   UNL A   1      42.215  30.312  35.324  1.00  0.00     0.074 A 
ATOM     36  C   UNL A   1      42.498  30.804  36.657  1.00  0.00     0.031 C 
ATOM     37  C   UNL A   1      42.920  29.333  34.705  1.00  0.00     0.034 A 
BRANCH  24  38
ATOM     38  C   UNL A   1      40.713  27.716  29.164  1.00  0.00     0.023 A 
ATOM     39  C   UNL A   1      39.901  26.567  29.084  1.00  0.00     0.012 A 
ATOM     40  C   UNL A   1      41.566  28.035  28.089  1.00  0.00     0.148 A 
ATOM     41  C   UNL A   1      39.952  25.737  27.966  1.00  0.00     0.002 A 
ATOM     42  C   UNL A   1      41.583  27.223  26.960  1.00  0.00     0.091 A 
ATOM     43  F   UNL A   1      42.347  29.120  28.190  1.00  0.00    -0.205 F 
ATOM     44  C   UNL A   1      40.784  26.069  26.901  1.00  0.00     0.022 A 
BRANCH  42  45
ATOM     45  S   UNL A   1      42.566  27.608  25.505  1.00  0.00     0.127 S 
ATOM     46  O   UNL A   1      43.918  27.622  26.059  1.00  0.00    -0.237 OA
ATOM     47  O   UNL A   1      42.280  26.470  24.629  1.00  0.00    -0.237 OA
ATOM     48  O   UNL A   1      42.072  28.887  25.017  1.00  0.00    -0.744 OA
ENDBRANCH  42  45
ENDBRANCH  24  38
BRANCH  25  49
ATOM     49  C   UNL A   1      39.455  33.712  37.067  1.00  0.00     0.023 A 
ATOM     50  C   UNL A   1      39.861  35.058  37.014  1.00  0.00     0.012 A 
ATOM     51  C   UNL A   1      38.808  33.234  38.223  1.00  0.00     0.148 A 
ATOM     52  C   UNL A   1      39.647  35.908  38.100  1.00  0.00     0.002 A 
ATOM     53  C   UNL A   1      38.544  34.100  39.277  1.00  0.00     0.091 A 
ATOM     54  F   UNL A   1      38.445  31.944  38.261  1.00  0.00    -0.205 F 
ATOM     55  C   UNL A   1      38.978  35.433  39.225  1.00  0.00     0.022 A 
BRANCH  53  56
ATOM     56  S   UNL A   1      37.559  33.606  40.695  1.00  0.00     0.127 S 
ATOM     57  O   UNL A   1      38.425  32.618  41.332  1.00  0.00    -0.237 OA
ATOM     58  O   UNL A   1      37.421  34.867  41.424  1.00  0.00    -0.237 OA
ATOM     59  O   UNL A   1      36.311  33.097  40.142  1.00  0.00    -0.744 OA
ENDBRANCH  53  56
ENDBRANCH  25  49
BRANCH  37  60
ATOM     60  C   UNL A   1      44.083  28.741  35.456  1.00  0.00     0.023 A 
ATOM     61  C   UNL A   1      45.375  29.269  35.268  1.00  0.00     0.012 A 
ATOM     62  C   UNL A   1      43.886  27.706  36.390  1.00  0.00     0.148 A 
ATOM     63  C   UNL A   1      46.461  28.753  35.975  1.00  0.00     0.002 A 
ATOM     64  C   UNL A   1      44.965  27.229  37.126  1.00  0.00     0.091 A 
ATOM     65  F   UNL A   1      42.652  27.203  36.538  1.00  0.00    -0.205 F 
ATOM     66  C   UNL A   1      46.253  27.743  36.912  1.00  0.00     0.022 A 
BRANCH  64  67
ATOM     67  S   UNL A   1      44.774  25.994  38.416  1.00  0.00     0.127 S 
ATOM     68  O   UNL A   1      46.154  25.812  38.862  1.00  0.00    -0.237 OA
ATOM     69  O   UNL A   1      43.908  26.678  39.377  1.00  0.00    -0.237 OA
ATOM     70  O   UNL A   1      44.165  24.837  37.774  1.00  0.00    -0.744 OA
ENDBRANCH  64  67
ENDBRANCH  37  60
ENDBRANCH  11  12
ENDBRANCH   4   6
ENDBRANCH   1   2
BRANCH   1  71
ATOM     71  C   UNL A   1      31.304  32.411  26.620  1.00  0.00     0.042 C 
BRANCH  71  72
ATOM     72  C   UNL A   1      31.422  31.050  25.941  1.00  0.00     0.117 C 
BRANCH  72  73
ATOM     73  N   UNL A   1      32.193  30.119  26.745  1.00  0.00    -0.355 N 
ATOM     74  C   UNL A   1      32.207  28.755  26.743  1.00  0.00     0.229 C 
ATOM     75  H   UNL A   1      32.803  30.538  27.395  1.00  0.00     0.163 HD
ATOM     76  O   UNL A   1      32.857  28.189  27.626  1.00  0.00    -0.274 OA
BRANCH  74  77
ATOM     77  C   UNL A   1      31.448  27.990  25.666  1.00  0.00     0.127 C 
ATOM     78  C   UNL A   1      31.125  26.543  26.109  1.00  0.00     0.042 C 
ATOM     79  C   UNL A   1      32.310  27.756  24.472  1.00  0.00     0.031 A 
ATOM     80  C   UNL A   1      31.310  25.675  24.855  1.00  0.00     0.124 C 
ATOM     81  N   UNL A   1      32.202  26.468  24.026  1.00  0.00    -0.341 N 
ATOM     82  C   UNL A   1      33.220  28.412  23.690  1.00  0.00     0.025 A 
ATOM     83  C   UNL A   1      33.000  26.241  22.944  1.00  0.00     0.090 A 
ATOM     84  C   UNL A   1      33.660  27.455  22.734  1.00  0.00     0.032 A 
BRANCH  83  85
ATOM     85  C   UNL A   1      33.205  25.023  22.178  1.00  0.00     0.209 C 
ATOM     86  O   UNL A   1      33.271  25.004  20.949  1.00  0.00    -0.287 OA
BRANCH  85  87
ATOM     87  C   UNL A   1      33.361  23.722  22.860  1.00  0.00     0.024 A 
ATOM     88  C   UNL A   1      34.527  23.491  23.598  1.00  0.00     0.012 A 
ATOM     89  C   UNL A   1      32.384  22.727  22.751  1.00  0.00     0.012 A 
ATOM     90  C   UNL A   1      34.690  22.282  24.272  1.00  0.00     0.001 A 
ATOM     91  C   UNL A   1      32.549  21.522  23.434  1.00  0.00     0.001 A 
ATOM     92  C   UNL A   1      33.697  21.303  24.198  1.00  0.00     0.000 A 
ENDBRANCH  85  87
ENDBRANCH  83  85
ENDBRANCH  74  77
ENDBRANCH  72  73
ENDBRANCH  71  72
ENDBRANCH   1  71
TORSDOF 15
ENDMDL
MODEL 3
REMARK VINA RESULT:     -12.0      1.891      2.274
REMARK SMILES O=C(NCCCNC(=O)[C@@H]1CCn2c(C(=O)c3ccccc3)ccc21)c1ccc(-c2c3nc(c(-c4cccc(S(=O)(=O)[O-])c4F)c4ccc([nH]4)c(-c4cccc(S(=O)(=O)[O-])c4F)c4nc(c(-c5cccc(S(=O)(=O)[O-])c5F)c5ccc2[nH]5)C=C4)C=C3)cc1
REMARK SMILES IDX 4 1 3 2 1 3 2 4 26 6 27 7 88 8 28 9 87 10 29 11 30 12 31 13
REMARK SMILES IDX 81 14 32 15 86 16 80 17 82 18 33 19 85 20 79 21 78 22 34 24
REMARK SMILES IDX 66 25 46 26 65 27 47 28 50 29 64 30 83 31 48 32 49 33 63 35
REMARK SMILES IDX 84 36 51 37 35 38 36 39 44 40 37 41 39 42 45 43 38 44 40 45
REMARK SMILES IDX 41 46 42 47 43 48 67 49 68 50 76 51 69 52 71 53 77 54 70 55
REMARK SMILES IDX 72 56 73 57 74 58 75 59 52 60 53 61 61 62 54 63 56 64 62 65
REMARK SMILES IDX 55 66 57 67 58 68 59 69 60 70 5 71 6 72 7 73 8 74 9 76 10 77
REMARK SMILES IDX 11 78 25 79 12 80 13 81 24 82 14 83 23 84 15 85 16 86 17 87
REMARK SMILES IDX 18 88 22 89 19 90 21 91 20 92
REMARK H PARENT 3 5 82 23 50 34 7 75
REMARK Flexibility Score: inf
ROOT
ATOM      1  C   UNL A   1      33.531  28.745  27.098  1.00  0.00     0.118 C 
ENDROOT
BRANCH   1   2
ATOM      2  N   UNL A   1      33.497  30.193  27.248  1.00  0.00    -0.352 N 
ATOM      3  O   UNL A   1      34.038  32.207  28.079  1.00  0.00    -0.269 OA
ATOM      4  C   UNL A   1      34.372  31.040  27.882  1.00  0.00     0.251 C 
ATOM      5  H   UNL A   1      32.725  30.635  26.827  1.00  0.00     0.163 HD
BRANCH   4   6
ATOM      6  C   UNL A   1      35.691  30.553  28.339  1.00  0.00     0.039 A 
ATOM      7  C   UNL A   1      36.851  30.846  27.617  1.00  0.00     0.014 A 
ATOM      8  C   UNL A   1      35.778  29.829  29.533  1.00  0.00     0.014 A 
ATOM      9  C   UNL A   1      38.068  30.298  28.006  1.00  0.00     0.010 A 
ATOM     10  C   UNL A   1      37.018  29.355  29.971  1.00  0.00     0.010 A 
ATOM     11  C   UNL A   1      38.170  29.560  29.197  1.00  0.00    -0.014 A 
BRANCH  11  12
ATOM     12  C   UNL A   1      39.504  29.090  29.647  1.00  0.00     0.031 A 
ATOM     13  C   UNL A   1      40.235  29.768  30.772  1.00  0.00     0.074 A 
ATOM     14  C   UNL A   1      40.055  28.029  29.025  1.00  0.00     0.049 A 
ATOM     15  N   UNL A   1      41.388  29.455  31.307  1.00  0.00    -0.248 NA
ATOM     16  C   UNL A   1      39.601  30.952  31.372  1.00  0.00     0.031 C 
ATOM     17  C   UNL A   1      39.462  27.323  27.886  1.00  0.00     0.029 A 
ATOM     18  N   UNL A   1      41.229  27.360  29.253  1.00  0.00    -0.354 N 
ATOM     19  C   UNL A   1      41.637  30.418  32.277  1.00  0.00     0.074 A 
ATOM     20  C   UNL A   1      40.517  31.336  32.252  1.00  0.00     0.031 C 
ATOM     21  C   UNL A   1      40.259  26.306  27.532  1.00  0.00     0.029 A 
ATOM     22  C   UNL A   1      41.444  26.316  28.384  1.00  0.00     0.049 A 
ATOM     23  H   UNL A   1      41.859  27.603  29.970  1.00  0.00     0.167 HD
ATOM     24  C   UNL A   1      42.693  30.519  33.119  1.00  0.00     0.034 A 
ATOM     25  C   UNL A   1      42.483  25.467  28.271  1.00  0.00     0.034 A 
ATOM     26  C   UNL A   1      43.786  29.583  33.160  1.00  0.00     0.049 A 
ATOM     27  C   UNL A   1      43.625  25.588  29.237  1.00  0.00     0.074 A 
ATOM     28  C   UNL A   1      44.867  29.560  34.025  1.00  0.00     0.029 A 
ATOM     29  N   UNL A   1      43.946  28.510  32.295  1.00  0.00    -0.354 N 
ATOM     30  N   UNL A   1      43.773  26.422  30.236  1.00  0.00    -0.248 NA
ATOM     31  C   UNL A   1      44.731  24.634  29.078  1.00  0.00     0.031 C 
ATOM     32  C   UNL A   1      45.691  28.487  33.670  1.00  0.00     0.029 A 
ATOM     33  C   UNL A   1      45.112  27.826  32.598  1.00  0.00     0.049 A 
ATOM     34  H   UNL A   1      43.322  28.271  31.573  1.00  0.00     0.167 HD
ATOM     35  C   UNL A   1      44.976  26.081  30.842  1.00  0.00     0.074 A 
ATOM     36  C   UNL A   1      45.501  24.944  30.113  1.00  0.00     0.031 C 
ATOM     37  C   UNL A   1      45.599  26.668  31.893  1.00  0.00     0.034 A 
BRANCH  24  38
ATOM     38  C   UNL A   1      42.703  31.659  34.105  1.00  0.00     0.023 A 
ATOM     39  C   UNL A   1      43.199  32.917  33.707  1.00  0.00     0.012 A 
ATOM     40  C   UNL A   1      42.156  31.510  35.395  1.00  0.00     0.148 A 
ATOM     41  C   UNL A   1      43.173  34.001  34.583  1.00  0.00     0.002 A 
ATOM     42  C   UNL A   1      42.097  32.605  36.249  1.00  0.00     0.091 A 
ATOM     43  F   UNL A   1      41.707  30.302  35.764  1.00  0.00    -0.205 F 
ATOM     44  C   UNL A   1      42.614  33.849  35.848  1.00  0.00     0.022 A 
BRANCH  42  45
ATOM     45  S   UNL A   1      41.328  32.528  37.872  1.00  0.00     0.127 S 
ATOM     46  O   UNL A   1      42.156  31.527  38.542  1.00  0.00    -0.237 OA
ATOM     47  O   UNL A   1      41.509  33.895  38.364  1.00  0.00    -0.237 OA
ATOM     48  O   UNL A   1      39.943  32.146  37.640  1.00  0.00    -0.744 OA
ENDBRANCH  42  45
ENDBRANCH  24  38
BRANCH  25  49
ATOM     49  C   UNL A   1      42.455  24.404  27.228  1.00  0.00     0.023 A 
ATOM     50  C   UNL A   1      43.303  24.507  26.111  1.00  0.00     0.012 A 
ATOM     51  C   UNL A   1      41.636  23.266  27.369  1.00  0.00     0.148 A 
ATOM     52  C   UNL A   1      43.320  23.507  25.137  1.00  0.00     0.002 A 
ATOM     53  C   UNL A   1      41.702  22.246  26.428  1.00  0.00     0.091 A 
ATOM     54  F   UNL A   1      40.823  23.195  28.432  1.00  0.00    -0.205 F 
ATOM     55  C   UNL A   1      42.531  22.372  25.302  1.00  0.00     0.022 A 
BRANCH  53  56
ATOM     56  S   UNL A   1      40.831  20.691  26.643  1.00  0.00     0.127 S 
ATOM     57  O   UNL A   1      41.651  19.776  25.853  1.00  0.00    -0.237 OA
ATOM     58  O   UNL A   1      40.909  20.495  28.091  1.00  0.00    -0.237 OA
ATOM     59  O   UNL A   1      39.483  20.929  26.146  1.00  0.00    -0.744 OA
ENDBRANCH  53  56
ENDBRANCH  25  49
BRANCH  37  60
ATOM     60  C   UNL A   1      46.912  26.079  32.333  1.00  0.00     0.023 A 
ATOM     61  C   UNL A   1      46.946  25.188  33.423  1.00  0.00     0.012 A 
ATOM     62  C   UNL A   1      48.100  26.361  31.631  1.00  0.00     0.148 A 
ATOM     63  C   UNL A   1      48.148  24.609  33.828  1.00  0.00     0.002 A 
ATOM     64  C   UNL A   1      49.286  25.744  32.011  1.00  0.00     0.091 A 
ATOM     65  F   UNL A   1      48.050  27.229  30.610  1.00  0.00    -0.205 F 
ATOM     66  C   UNL A   1      49.314  24.878  33.115  1.00  0.00     0.022 A 
BRANCH  64  67
ATOM     67  S   UNL A   1      50.816  25.962  31.095  1.00  0.00     0.127 S 
ATOM     68  O   UNL A   1      51.710  25.030  31.781  1.00  0.00    -0.237 OA
ATOM     69  O   UNL A   1      50.431  25.555  29.743  1.00  0.00    -0.237 OA
ATOM     70  O   UNL A   1      51.162  27.371  31.225  1.00  0.00    -0.744 OA
ENDBRANCH  64  67
ENDBRANCH  37  60
ENDBRANCH  11  12
ENDBRANCH   4   6
ENDBRANCH   1   2
BRANCH   1  71
ATOM     71  C   UNL A   1      32.225  28.083  27.531  1.00  0.00     0.042 C 
BRANCH  71  72
ATOM     72  C   UNL A   1      31.499  27.369  26.396  1.00  0.00     0.117 C 
BRANCH  72  73
ATOM     73  N   UNL A   1      30.954  26.095  26.831  1.00  0.00    -0.355 N 
ATOM     74  C   UNL A   1      31.420  24.827  26.640  1.00  0.00     0.229 C 
ATOM     75  H   UNL A   1      30.116  26.155  27.344  1.00  0.00     0.163 HD
ATOM     76  O   UNL A   1      30.696  23.894  26.996  1.00  0.00    -0.274 OA
BRANCH  74  77
ATOM     77  C   UNL A   1      32.796  24.609  26.021  1.00  0.00     0.127 C 
ATOM     78  C   UNL A   1      32.703  24.328  24.502  1.00  0.00     0.042 C 
ATOM     79  C   UNL A   1      33.412  23.349  26.525  1.00  0.00     0.031 A 
ATOM     80  C   UNL A   1      33.766  23.257  24.213  1.00  0.00     0.124 C 
ATOM     81  N   UNL A   1      33.964  22.623  25.506  1.00  0.00    -0.341 N 
ATOM     82  C   UNL A   1      33.572  22.651  27.691  1.00  0.00     0.025 A 
ATOM     83  C   UNL A   1      34.515  21.460  25.957  1.00  0.00     0.090 A 
ATOM     84  C   UNL A   1      34.259  21.459  27.331  1.00  0.00     0.032 A 
BRANCH  83  85
ATOM     85  C   UNL A   1      35.179  20.398  25.219  1.00  0.00     0.209 C 
ATOM     86  O   UNL A   1      36.401  20.334  25.086  1.00  0.00    -0.287 OA
BRANCH  85  87
ATOM     87  C   UNL A   1      34.396  19.313  24.593  1.00  0.00     0.024 A 
ATOM     88  C   UNL A   1      35.028  18.088  24.350  1.00  0.00     0.012 A 
ATOM     89  C   UNL A   1      33.061  19.507  24.222  1.00  0.00     0.012 A 
ATOM     90  C   UNL A   1      34.306  17.040  23.782  1.00  0.00     0.001 A 
ATOM     91  C   UNL A   1      32.342  18.451  23.662  1.00  0.00     0.001 A 
ATOM     92  C   UNL A   1      32.962  17.218  23.449  1.00  0.00     0.000 A 
ENDBRANCH  85  87
ENDBRANCH  83  85
ENDBRANCH  74  77
ENDBRANCH  72  73
ENDBRANCH  71  72
ENDBRANCH   1  71
TORSDOF 15
ENDMDL
