MODEL 1
REMARK VINA RESULT:     -13.0      0.000      0.000
REMARK SMILES Cc1c(CC(=O)NCCCNC(=O)c2ccc(-c3c4nc(c(-c5cccc(S(=O)(=O)[O-])c5F)c5ccc([nH]5)c(-c5cccc(S(=O)(=O)[O-])c5F)c5nc(c(-c6cccc(S(=O)(=O)[O-])c6F)c6ccc3[nH]6)C=C5)C=C4)cc2)c2ccccc2n1C(=O)c1ccc(Cl)cc1
REMARK SMILES IDX 9 1 8 2 7 3 5 4 6 5 4 7 3 8 1 9 2 10 83 11 77 12 82 13 78 14
REMARK SMILES IDX 81 15 79 16 80 17 84 18 85 19 86 20 87 21 92 22 88 23 91 24
REMARK SMILES IDX 89 25 90 26 10 27 11 28 12 29 13 31 14 32 15 33 76 34 16 35
REMARK SMILES IDX 75 36 17 37 18 38 19 39 69 40 20 41 74 42 68 43 70 44 21 45
REMARK SMILES IDX 73 46 67 47 66 48 22 50 54 51 34 52 53 53 35 54 38 55 52 56
REMARK SMILES IDX 71 57 36 58 37 59 51 61 72 62 39 63 23 64 24 65 32 66 25 67
REMARK SMILES IDX 27 68 33 69 26 70 28 71 29 72 30 73 31 74 55 75 56 76 64 77
REMARK SMILES IDX 57 78 59 79 65 80 58 81 60 82 61 83 62 84 63 85 40 86 41 87
REMARK SMILES IDX 49 88 42 89 44 90 50 91 43 92 45 93 46 94 47 95 48 96
REMARK H PARENT 7 6 11 30 70 49 38 60
REMARK Flexibility Score: inf
ROOT
ATOM      1  C   UNL A   1      32.941  29.931  27.231  1.00  0.00     0.042 C 
ENDROOT
BRANCH   1   2
ATOM      2  C   UNL A   1      33.417  28.488  27.050  1.00  0.00     0.117 C 
BRANCH   2   3
ATOM      3  N   UNL A   1      33.552  28.120  25.651  1.00  0.00    -0.356 N 
ATOM      4  C   UNL A   1      33.455  26.895  25.060  1.00  0.00     0.224 C 
ATOM      5  O   UNL A   1      33.633  26.820  23.840  1.00  0.00    -0.275 OA
ATOM      6  H   UNL A   1      33.743  28.867  25.037  1.00  0.00     0.163 HD
BRANCH   4   7
ATOM      7  C   UNL A   1      33.080  25.672  25.880  1.00  0.00     0.138 C 
BRANCH   7   8
ATOM      8  C   UNL A   1      33.395  24.374  25.197  1.00  0.00    -0.010 A 
ATOM      9  C   UNL A   1      31.072  23.808  24.175  1.00  0.00     0.065 C 
ATOM     10  C   UNL A   1      32.521  23.571  24.477  1.00  0.00     0.028 A 
ATOM     11  N   UNL A   1      33.196  22.408  24.073  1.00  0.00    -0.280 N 
ATOM     12  C   UNL A   1      34.677  23.760  25.132  1.00  0.00     0.004 A 
ATOM     13  C   UNL A   1      34.558  22.587  24.377  1.00  0.00     0.056 A 
ATOM     14  C   UNL A   1      35.944  24.133  25.638  1.00  0.00     0.010 A 
ATOM     15  C   UNL A   1      35.711  21.835  24.066  1.00  0.00     0.027 A 
ATOM     16  C   UNL A   1      37.065  23.343  25.386  1.00  0.00     0.001 A 
ATOM     17  C   UNL A   1      36.948  22.211  24.598  1.00  0.00     0.002 A 
BRANCH  11  18
ATOM     18  C   UNL A   1      32.586  21.274  23.459  1.00  0.00     0.262 C 
ATOM     19  O   UNL A   1      31.955  21.441  22.417  1.00  0.00    -0.268 OA
BRANCH  18  20
ATOM     20  C   UNL A   1      32.665  19.886  23.945  1.00  0.00     0.040 A 
ATOM     21  C   UNL A   1      32.535  18.799  23.075  1.00  0.00     0.015 A 
ATOM     22  C   UNL A   1      32.855  19.683  25.317  1.00  0.00     0.015 A 
ATOM     23  C   UNL A   1      32.482  17.505  23.602  1.00  0.00     0.021 A 
ATOM     24  C   UNL A   1      32.814  18.389  25.835  1.00  0.00     0.021 A 
ATOM     25  C   UNL A   1      32.600  17.309  24.981  1.00  0.00     0.041 A 
ATOM     26  Cl  UNL A   1      32.438  15.725  25.634  1.00  0.00    -0.084 Cl
ENDBRANCH  18  20
ENDBRANCH  11  18
ENDBRANCH   7   8
ENDBRANCH   4   7
ENDBRANCH   2   3
ENDBRANCH   1   2
BRANCH   1  27
ATOM     27  C   UNL A   1      34.082  30.934  27.404  1.00  0.00     0.118 C 
BRANCH  27  28
ATOM     28  N   UNL A   1      34.058  31.657  28.661  1.00  0.00    -0.352 N 
ATOM     29  C   UNL A   1      34.971  31.941  29.636  1.00  0.00     0.251 C 
ATOM     30  H   UNL A   1      33.170  32.033  28.857  1.00  0.00     0.163 HD
ATOM     31  O   UNL A   1      34.579  32.707  30.522  1.00  0.00    -0.269 OA
BRANCH  29  32
ATOM     32  C   UNL A   1      36.331  31.351  29.742  1.00  0.00     0.039 A 
ATOM     33  C   UNL A   1      37.532  32.056  29.659  1.00  0.00     0.014 A 
ATOM     34  C   UNL A   1      36.381  29.950  29.886  1.00  0.00     0.014 A 
ATOM     35  C   UNL A   1      38.744  31.375  29.607  1.00  0.00     0.010 A 
ATOM     36  C   UNL A   1      37.588  29.266  29.857  1.00  0.00     0.010 A 
ATOM     37  C   UNL A   1      38.766  29.979  29.664  1.00  0.00    -0.014 A 
BRANCH  37  38
ATOM     38  C   UNL A   1      40.064  29.311  29.652  1.00  0.00     0.031 A 
ATOM     39  C   UNL A   1      40.663  29.136  31.005  1.00  0.00     0.074 A 
ATOM     40  C   UNL A   1      40.622  28.797  28.536  1.00  0.00     0.049 A 
ATOM     41  N   UNL A   1      41.747  29.669  31.470  1.00  0.00    -0.248 NA
ATOM     42  C   UNL A   1      39.883  28.392  32.007  1.00  0.00     0.031 C 
ATOM     43  C   UNL A   1      40.000  28.667  27.213  1.00  0.00     0.029 A 
ATOM     44  N   UNL A   1      41.822  28.164  28.372  1.00  0.00    -0.354 N 
ATOM     45  C   UNL A   1      41.901  29.133  32.747  1.00  0.00     0.074 A 
ATOM     46  C   UNL A   1      40.655  28.501  33.089  1.00  0.00     0.031 C 
ATOM     47  C   UNL A   1      40.710  27.790  26.469  1.00  0.00     0.029 A 
ATOM     48  C   UNL A   1      41.909  27.417  27.197  1.00  0.00     0.049 A 
ATOM     49  H   UNL A   1      42.557  28.229  29.023  1.00  0.00     0.167 HD
ATOM     50  C   UNL A   1      43.124  29.005  33.330  1.00  0.00     0.034 A 
ATOM     51  C   UNL A   1      42.874  26.520  26.881  1.00  0.00     0.034 A 
ATOM     52  C   UNL A   1      44.138  29.733  32.629  1.00  0.00     0.049 A 
ATOM     53  C   UNL A   1      44.059  26.857  27.696  1.00  0.00     0.074 A 
ATOM     54  C   UNL A   1      44.542  31.044  32.526  1.00  0.00     0.029 A 
ATOM     55  N   UNL A   1      44.672  29.046  31.572  1.00  0.00    -0.354 N 
ATOM     56  N   UNL A   1      44.748  27.953  27.546  1.00  0.00    -0.248 NA
ATOM     57  C   UNL A   1      44.350  26.089  28.901  1.00  0.00     0.031 C 
ATOM     58  C   UNL A   1      45.170  31.161  31.251  1.00  0.00     0.029 A 
ATOM     59  C   UNL A   1      45.158  29.912  30.633  1.00  0.00     0.049 A 
ATOM     60  H   UNL A   1      44.702  28.065  31.500  1.00  0.00     0.167 HD
ATOM     61  C   UNL A   1      45.213  28.225  28.816  1.00  0.00     0.074 A 
ATOM     62  C   UNL A   1      45.113  26.972  29.549  1.00  0.00     0.031 C 
ATOM     63  C   UNL A   1      45.317  29.508  29.255  1.00  0.00     0.034 A 
BRANCH  50  64
ATOM     64  C   UNL A   1      43.488  27.874  34.257  1.00  0.00     0.023 A 
ATOM     65  C   UNL A   1      43.943  28.175  35.557  1.00  0.00     0.012 A 
ATOM     66  C   UNL A   1      43.649  26.545  33.803  1.00  0.00     0.148 A 
ATOM     67  C   UNL A   1      44.502  27.185  36.377  1.00  0.00     0.002 A 
ATOM     68  C   UNL A   1      44.129  25.552  34.647  1.00  0.00     0.091 A 
ATOM     69  F   UNL A   1      43.459  26.268  32.507  1.00  0.00    -0.205 F 
ATOM     70  C   UNL A   1      44.574  25.869  35.931  1.00  0.00     0.022 A 
BRANCH  68  71
ATOM     71  S   UNL A   1      44.195  23.834  34.127  1.00  0.00     0.127 S 
ATOM     72  O   UNL A   1      45.139  23.271  35.094  1.00  0.00    -0.237 OA
ATOM     73  O   UNL A   1      42.801  23.417  34.311  1.00  0.00    -0.237 OA
ATOM     74  O   UNL A   1      44.632  23.862  32.745  1.00  0.00    -0.744 OA
ENDBRANCH  68  71
ENDBRANCH  50  64
BRANCH  51  75
ATOM     75  C   UNL A   1      42.859  25.279  26.064  1.00  0.00     0.023 A 
ATOM     76  C   UNL A   1      43.861  25.103  25.083  1.00  0.00     0.012 A 
ATOM     77  C   UNL A   1      42.110  24.152  26.457  1.00  0.00     0.148 A 
ATOM     78  C   UNL A   1      44.171  23.836  24.581  1.00  0.00     0.002 A 
ATOM     79  C   UNL A   1      42.419  22.892  25.948  1.00  0.00     0.091 A 
ATOM     80  F   UNL A   1      41.170  24.294  27.400  1.00  0.00    -0.205 F 
ATOM     81  C   UNL A   1      43.464  22.726  25.028  1.00  0.00     0.022 A 
BRANCH  79  82
ATOM     82  S   UNL A   1      41.564  21.404  26.489  1.00  0.00     0.127 S 
ATOM     83  O   UNL A   1      42.199  20.370  25.670  1.00  0.00    -0.237 OA
ATOM     84  O   UNL A   1      41.906  21.358  27.906  1.00  0.00    -0.237 OA
ATOM     85  O   UNL A   1      40.158  21.629  26.179  1.00  0.00    -0.744 OA
ENDBRANCH  79  82
ENDBRANCH  51  75
BRANCH  63  86
ATOM     86  C   UNL A   1      45.409  30.588  28.222  1.00  0.00     0.023 A 
ATOM     87  C   UNL A   1      44.276  31.198  27.650  1.00  0.00     0.012 A 
ATOM     88  C   UNL A   1      46.688  31.083  27.924  1.00  0.00     0.148 A 
ATOM     89  C   UNL A   1      44.423  32.292  26.791  1.00  0.00     0.002 A 
ATOM     90  C   UNL A   1      46.826  32.193  27.106  1.00  0.00     0.091 A 
ATOM     91  F   UNL A   1      47.745  30.476  28.483  1.00  0.00    -0.205 F 
ATOM     92  C   UNL A   1      45.697  32.798  26.532  1.00  0.00     0.022 A 
BRANCH  90  93
ATOM     93  S   UNL A   1      48.423  32.957  26.820  1.00  0.00     0.127 S 
ATOM     94  O   UNL A   1      49.247  31.812  26.440  1.00  0.00    -0.237 OA
ATOM     95  O   UNL A   1      48.128  33.890  25.733  1.00  0.00    -0.237 OA
ATOM     96  O   UNL A   1      48.796  33.600  28.075  1.00  0.00    -0.744 OA
ENDBRANCH  90  93
ENDBRANCH  63  86
ENDBRANCH  37  38
ENDBRANCH  29  32
ENDBRANCH  27  28
ENDBRANCH   1  27
TORSDOF 16
ENDMDL
MODEL 2
REMARK VINA RESULT:     -13.0      1.194      2.101
REMARK SMILES Cc1c(CC(=O)NCCCNC(=O)c2ccc(-c3c4nc(c(-c5cccc(S(=O)(=O)[O-])c5F)c5ccc([nH]5)c(-c5cccc(S(=O)(=O)[O-])c5F)c5nc(c(-c6cccc(S(=O)(=O)[O-])c6F)c6ccc3[nH]6)C=C5)C=C4)cc2)c2ccccc2n1C(=O)c1ccc(Cl)cc1
REMARK SMILES IDX 9 1 8 2 7 3 5 4 6 5 4 7 3 8 1 9 2 10 83 11 77 12 82 13 78 14
REMARK SMILES IDX 81 15 79 16 80 17 84 18 85 19 86 20 87 21 92 22 88 23 91 24
REMARK SMILES IDX 89 25 90 26 10 27 11 28 12 29 13 31 14 32 15 33 76 34 16 35
REMARK SMILES IDX 75 36 17 37 18 38 19 39 69 40 20 41 74 42 68 43 70 44 21 45
REMARK SMILES IDX 73 46 67 47 66 48 22 50 54 51 34 52 53 53 35 54 38 55 52 56
REMARK SMILES IDX 71 57 36 58 37 59 51 61 72 62 39 63 23 64 24 65 32 66 25 67
REMARK SMILES IDX 27 68 33 69 26 70 28 71 29 72 30 73 31 74 55 75 56 76 64 77
REMARK SMILES IDX 57 78 59 79 65 80 58 81 60 82 61 83 62 84 63 85 40 86 41 87
REMARK SMILES IDX 49 88 42 89 44 90 50 91 43 92 45 93 46 94 47 95 48 96
REMARK H PARENT 7 6 11 30 70 49 38 60
REMARK Flexibility Score: inf
ROOT
ATOM      1  C   UNL A   1      34.175  30.517  27.556  1.00  0.00     0.042 C 
ENDROOT
BRANCH   1   2
ATOM      2  C   UNL A   1      32.876  30.388  26.758  1.00  0.00     0.117 C 
BRANCH   2   3
ATOM      3  N   UNL A   1      32.132  29.188  27.101  1.00  0.00    -0.356 N 
ATOM      4  C   UNL A   1      32.438  27.879  26.873  1.00  0.00     0.224 C 
ATOM      5  O   UNL A   1      31.631  27.019  27.239  1.00  0.00    -0.275 OA
ATOM      6  H   UNL A   1      31.279  29.342  27.568  1.00  0.00     0.163 HD
BRANCH   4   7
ATOM      7  C   UNL A   1      33.765  27.498  26.238  1.00  0.00     0.138 C 
BRANCH   7   8
ATOM      8  C   UNL A   1      33.637  26.469  25.154  1.00  0.00    -0.010 A 
ATOM      9  C   UNL A   1      35.069  24.547  26.161  1.00  0.00     0.065 C 
ATOM     10  C   UNL A   1      34.213  25.206  25.122  1.00  0.00     0.028 A 
ATOM     11  N   UNL A   1      33.909  24.596  23.895  1.00  0.00    -0.280 N 
ATOM     12  C   UNL A   1      32.849  26.599  23.975  1.00  0.00     0.004 A 
ATOM     13  C   UNL A   1      32.968  25.413  23.242  1.00  0.00     0.056 A 
ATOM     14  C   UNL A   1      32.018  27.635  23.489  1.00  0.00     0.010 A 
ATOM     15  C   UNL A   1      32.199  25.233  22.073  1.00  0.00     0.027 A 
ATOM     16  C   UNL A   1      31.319  27.475  22.293  1.00  0.00     0.001 A 
ATOM     17  C   UNL A   1      31.402  26.280  21.599  1.00  0.00     0.002 A 
BRANCH  11  18
ATOM     18  C   UNL A   1      34.462  23.366  23.429  1.00  0.00     0.262 C 
ATOM     19  O   UNL A   1      35.402  23.409  22.638  1.00  0.00    -0.268 OA
BRANCH  18  20
ATOM     20  C   UNL A   1      34.026  22.019  23.835  1.00  0.00     0.040 A 
ATOM     21  C   UNL A   1      32.742  21.548  23.545  1.00  0.00     0.015 A 
ATOM     22  C   UNL A   1      34.935  21.224  24.545  1.00  0.00     0.015 A 
ATOM     23  C   UNL A   1      32.331  20.318  24.068  1.00  0.00     0.021 A 
ATOM     24  C   UNL A   1      34.523  19.993  25.054  1.00  0.00     0.021 A 
ATOM     25  C   UNL A   1      33.216  19.558  24.837  1.00  0.00     0.041 A 
ATOM     26  Cl  UNL A   1      32.676  18.092  25.559  1.00  0.00    -0.084 Cl
ENDBRANCH  18  20
ENDBRANCH  11  18
ENDBRANCH   7   8
ENDBRANCH   4   7
ENDBRANCH   2   3
ENDBRANCH   1   2
BRANCH   1  27
ATOM     27  C   UNL A   1      34.469  31.945  28.018  1.00  0.00     0.118 C 
BRANCH  27  28
ATOM     28  N   UNL A   1      34.322  32.155  29.444  1.00  0.00    -0.352 N 
ATOM     29  C   UNL A   1      35.130  32.012  30.536  1.00  0.00     0.251 C 
ATOM     30  H   UNL A   1      33.424  32.480  29.683  1.00  0.00     0.163 HD
ATOM     31  O   UNL A   1      34.657  32.418  31.603  1.00  0.00    -0.269 OA
BRANCH  29  32
ATOM     32  C   UNL A   1      36.462  31.353  30.542  1.00  0.00     0.039 A 
ATOM     33  C   UNL A   1      37.693  32.008  30.492  1.00  0.00     0.014 A 
ATOM     34  C   UNL A   1      36.448  29.944  30.548  1.00  0.00     0.014 A 
ATOM     35  C   UNL A   1      38.869  31.281  30.337  1.00  0.00     0.010 A 
ATOM     36  C   UNL A   1      37.620  29.213  30.415  1.00  0.00     0.010 A 
ATOM     37  C   UNL A   1      38.825  29.886  30.256  1.00  0.00    -0.014 A 
BRANCH  37  38
ATOM     38  C   UNL A   1      40.089  29.165  30.139  1.00  0.00     0.031 A 
ATOM     39  C   UNL A   1      40.790  28.964  31.439  1.00  0.00     0.074 A 
ATOM     40  C   UNL A   1      40.531  28.628  28.983  1.00  0.00     0.049 A 
ATOM     41  N   UNL A   1      41.929  29.451  31.812  1.00  0.00    -0.248 NA
ATOM     42  C   UNL A   1      40.064  28.253  32.504  1.00  0.00     0.031 C 
ATOM     43  C   UNL A   1      39.797  28.526  27.716  1.00  0.00     0.029 A 
ATOM     44  N   UNL A   1      41.686  27.946  28.723  1.00  0.00    -0.354 N 
ATOM     45  C   UNL A   1      42.165  28.908  33.073  1.00  0.00     0.074 A 
ATOM     46  C   UNL A   1      40.927  28.329  33.519  1.00  0.00     0.031 C 
ATOM     47  C   UNL A   1      40.406  27.619  26.919  1.00  0.00     0.029 A 
ATOM     48  C   UNL A   1      41.644  27.196  27.546  1.00  0.00     0.049 A 
ATOM     49  H   UNL A   1      42.474  27.979  29.310  1.00  0.00     0.167 HD
ATOM     50  C   UNL A   1      43.426  28.728  33.554  1.00  0.00     0.034 A 
ATOM     51  C   UNL A   1      42.542  26.260  27.155  1.00  0.00     0.034 A 
ATOM     52  C   UNL A   1      44.408  29.414  32.770  1.00  0.00     0.049 A 
ATOM     53  C   UNL A   1      43.803  26.546  27.869  1.00  0.00     0.074 A 
ATOM     54  C   UNL A   1      44.857  30.707  32.629  1.00  0.00     0.029 A 
ATOM     55  N   UNL A   1      44.824  28.705  31.674  1.00  0.00    -0.354 N 
ATOM     56  N   UNL A   1      44.522  27.612  27.658  1.00  0.00    -0.248 NA
ATOM     57  C   UNL A   1      44.160  25.766  29.047  1.00  0.00     0.031 C 
ATOM     58  C   UNL A   1      45.382  30.798  31.307  1.00  0.00     0.029 A 
ATOM     59  C   UNL A   1      45.267  29.551  30.696  1.00  0.00     0.049 A 
ATOM     60  H   UNL A   1      44.807  27.724  31.602  1.00  0.00     0.167 HD
ATOM     61  C   UNL A   1      45.101  27.864  28.885  1.00  0.00     0.074 A 
ATOM     62  C   UNL A   1      45.009  26.616  29.628  1.00  0.00     0.031 C 
ATOM     63  C   UNL A   1      45.295  29.141  29.311  1.00  0.00     0.034 A 
BRANCH  50  64
ATOM     64  C   UNL A   1      43.817  27.583  34.451  1.00  0.00     0.023 A 
ATOM     65  C   UNL A   1      44.418  27.863  35.695  1.00  0.00     0.012 A 
ATOM     66  C   UNL A   1      43.856  26.245  33.997  1.00  0.00     0.148 A 
ATOM     67  C   UNL A   1      45.001  26.846  36.464  1.00  0.00     0.002 A 
ATOM     68  C   UNL A   1      44.362  25.229  34.798  1.00  0.00     0.091 A 
ATOM     69  F   UNL A   1      43.520  25.973  32.730  1.00  0.00    -0.205 F 
ATOM     70  C   UNL A   1      44.953  25.527  36.027  1.00  0.00     0.022 A 
BRANCH  68  71
ATOM     71  S   UNL A   1      44.277  23.508  34.292  1.00  0.00     0.127 S 
ATOM     72  O   UNL A   1      45.005  22.847  35.377  1.00  0.00    -0.237 OA
ATOM     73  O   UNL A   1      42.830  23.274  34.288  1.00  0.00    -0.237 OA
ATOM     74  O   UNL A   1      44.894  23.457  32.981  1.00  0.00    -0.744 OA
ENDBRANCH  68  71
ENDBRANCH  50  64
BRANCH  51  75
ATOM     75  C   UNL A   1      42.407  25.021  26.346  1.00  0.00     0.023 A 
ATOM     76  C   UNL A   1      43.428  24.703  25.421  1.00  0.00     0.012 A 
ATOM     77  C   UNL A   1      41.498  24.006  26.704  1.00  0.00     0.148 A 
ATOM     78  C   UNL A   1      43.596  23.400  24.944  1.00  0.00     0.002 A 
ATOM     79  C   UNL A   1      41.666  22.710  26.219  1.00  0.00     0.091 A 
ATOM     80  F   UNL A   1      40.535  24.282  27.594  1.00  0.00    -0.205 F 
ATOM     81  C   UNL A   1      42.727  22.398  25.358  1.00  0.00     0.022 A 
BRANCH  79  82
ATOM     82  S   UNL A   1      40.595  21.354  26.722  1.00  0.00     0.127 S 
ATOM     83  O   UNL A   1      40.726  21.384  28.180  1.00  0.00    -0.237 OA
ATOM     84  O   UNL A   1      39.298  21.789  26.216  1.00  0.00    -0.237 OA
ATOM     85  O   UNL A   1      41.156  20.162  26.099  1.00  0.00    -0.744 OA
ENDBRANCH  79  82
ENDBRANCH  51  75
BRANCH  63  86
ATOM     86  C   UNL A   1      45.346  30.217  28.270  1.00  0.00     0.023 A 
ATOM     87  C   UNL A   1      44.192  30.773  27.687  1.00  0.00     0.012 A 
ATOM     88  C   UNL A   1      46.605  30.765  27.976  1.00  0.00     0.148 A 
ATOM     89  C   UNL A   1      44.296  31.866  26.822  1.00  0.00     0.002 A 
ATOM     90  C   UNL A   1      46.700  31.874  27.151  1.00  0.00     0.091 A 
ATOM     91  F   UNL A   1      47.683  30.208  28.545  1.00  0.00    -0.205 F 
ATOM     92  C   UNL A   1      45.548  32.426  26.566  1.00  0.00     0.022 A 
BRANCH  90  93
ATOM     93  S   UNL A   1      48.264  32.704  26.869  1.00  0.00     0.127 S 
ATOM     94  O   UNL A   1      47.907  33.698  25.859  1.00  0.00    -0.237 OA
ATOM     95  O   UNL A   1      48.563  33.254  28.192  1.00  0.00    -0.237 OA
ATOM     96  O   UNL A   1      49.196  31.675  26.425  1.00  0.00    -0.744 OA
ENDBRANCH  90  93
ENDBRANCH  63  86
ENDBRANCH  37  38
ENDBRANCH  29  32
ENDBRANCH  27  28
ENDBRANCH   1  27
TORSDOF 16
ENDMDL
MODEL 3
REMARK VINA RESULT:     -12.8      4.189      9.241
REMARK SMILES Cc1c(CC(=O)NCCCNC(=O)c2ccc(-c3c4nc(c(-c5cccc(S(=O)(=O)[O-])c5F)c5ccc([nH]5)c(-c5cccc(S(=O)(=O)[O-])c5F)c5nc(c(-c6cccc(S(=O)(=O)[O-])c6F)c6ccc3[nH]6)C=C5)C=C4)cc2)c2ccccc2n1C(=O)c1ccc(Cl)cc1
REMARK SMILES IDX 9 1 8 2 7 3 5 4 6 5 4 7 3 8 1 9 2 10 83 11 77 12 82 13 78 14
REMARK SMILES IDX 81 15 79 16 80 17 84 18 85 19 86 20 87 21 92 22 88 23 91 24
REMARK SMILES IDX 89 25 90 26 10 27 11 28 12 29 13 31 14 32 15 33 76 34 16 35
REMARK SMILES IDX 75 36 17 37 18 38 19 39 69 40 20 41 74 42 68 43 70 44 21 45
REMARK SMILES IDX 73 46 67 47 66 48 22 50 54 51 34 52 53 53 35 54 38 55 52 56
REMARK SMILES IDX 71 57 36 58 37 59 51 61 72 62 39 63 23 64 24 65 32 66 25 67
REMARK SMILES IDX 27 68 33 69 26 70 28 71 29 72 30 73 31 74 55 75 56 76 64 77
REMARK SMILES IDX 57 78 59 79 65 80 58 81 60 82 61 83 62 84 63 85 40 86 41 87
REMARK SMILES IDX 49 88 42 89 44 90 50 91 43 92 45 93 46 94 47 95 48 96
REMARK H PARENT 7 6 11 30 70 49 38 60
REMARK Flexibility Score: inf
ROOT
ATOM      1  C   UNL A   1      37.767  22.484  24.967  1.00  0.00     0.042 C 
ENDROOT
BRANCH   1   2
ATOM      2  C   UNL A   1      36.874  23.670  25.335  1.00  0.00     0.117 C 
BRANCH   2   3
ATOM      3  N   UNL A   1      35.557  23.254  25.787  1.00  0.00    -0.356 N 
ATOM      4  C   UNL A   1      34.328  23.734  25.443  1.00  0.00     0.224 C 
ATOM      5  O   UNL A   1      33.335  23.232  25.980  1.00  0.00    -0.275 OA
ATOM      6  H   UNL A   1      35.551  22.515  26.437  1.00  0.00     0.163 HD
BRANCH   4   7
ATOM      7  C   UNL A   1      34.191  24.815  24.385  1.00  0.00     0.138 C 
BRANCH   7   8
ATOM      8  C   UNL A   1      33.023  25.730  24.610  1.00  0.00    -0.010 A 
ATOM      9  C   UNL A   1      31.213  24.541  23.171  1.00  0.00     0.065 C 
ATOM     10  C   UNL A   1      31.749  25.612  24.073  1.00  0.00     0.028 A 
ATOM     11  N   UNL A   1      30.981  26.718  24.471  1.00  0.00    -0.280 N 
ATOM     12  C   UNL A   1      33.013  26.867  25.467  1.00  0.00     0.004 A 
ATOM     13  C   UNL A   1      31.730  27.426  25.428  1.00  0.00     0.056 A 
ATOM     14  C   UNL A   1      33.998  27.448  26.298  1.00  0.00     0.010 A 
ATOM     15  C   UNL A   1      31.414  28.510  26.275  1.00  0.00     0.027 A 
ATOM     16  C   UNL A   1      33.695  28.565  27.076  1.00  0.00     0.001 A 
ATOM     17  C   UNL A   1      32.411  29.083  27.070  1.00  0.00     0.002 A 
BRANCH  11  18
ATOM     18  C   UNL A   1      29.677  27.033  23.983  1.00  0.00     0.262 C 
ATOM     19  O   UNL A   1      28.739  26.308  24.309  1.00  0.00    -0.268 OA
BRANCH  18  20
ATOM     20  C   UNL A   1      29.332  28.185  23.133  1.00  0.00     0.040 A 
ATOM     21  C   UNL A   1      30.307  28.876  22.407  1.00  0.00     0.015 A 
ATOM     22  C   UNL A   1      27.991  28.587  23.090  1.00  0.00     0.015 A 
ATOM     23  C   UNL A   1      29.951  30.042  21.724  1.00  0.00     0.021 A 
ATOM     24  C   UNL A   1      27.641  29.745  22.397  1.00  0.00     0.021 A 
ATOM     25  C   UNL A   1      28.625  30.482  21.740  1.00  0.00     0.041 A 
ATOM     26  Cl  UNL A   1      28.211  31.969  20.979  1.00  0.00    -0.084 Cl
ENDBRANCH  18  20
ENDBRANCH  11  18
ENDBRANCH   7   8
ENDBRANCH   4   7
ENDBRANCH   2   3
ENDBRANCH   1   2
BRANCH   1  27
ATOM     27  C   UNL A   1      38.642  21.996  26.122  1.00  0.00     0.118 C 
BRANCH  27  28
ATOM     28  N   UNL A   1      40.066  22.047  25.857  1.00  0.00    -0.352 N 
ATOM     29  C   UNL A   1      41.094  22.871  26.221  1.00  0.00     0.251 C 
ATOM     30  H   UNL A   1      40.364  21.312  25.274  1.00  0.00     0.163 HD
ATOM     31  O   UNL A   1      42.219  22.501  25.873  1.00  0.00    -0.269 OA
BRANCH  29  32
ATOM     32  C   UNL A   1      40.947  24.176  26.917  1.00  0.00     0.039 A 
ATOM     33  C   UNL A   1      40.055  25.190  26.565  1.00  0.00     0.014 A 
ATOM     34  C   UNL A   1      41.833  24.400  27.990  1.00  0.00     0.014 A 
ATOM     35  C   UNL A   1      40.123  26.431  27.189  1.00  0.00     0.010 A 
ATOM     36  C   UNL A   1      41.890  25.629  28.631  1.00  0.00     0.010 A 
ATOM     37  C   UNL A   1      41.069  26.661  28.191  1.00  0.00    -0.014 A 
BRANCH  37  38
ATOM     38  C   UNL A   1      41.071  27.965  28.848  1.00  0.00     0.031 A 
ATOM     39  C   UNL A   1      42.092  28.908  28.310  1.00  0.00     0.074 A 
ATOM     40  C   UNL A   1      40.164  28.327  29.779  1.00  0.00     0.049 A 
ATOM     41  N   UNL A   1      43.121  29.401  28.920  1.00  0.00    -0.248 NA
ATOM     42  C   UNL A   1      42.037  29.227  26.873  1.00  0.00     0.031 C 
ATOM     43  C   UNL A   1      38.961  27.587  30.178  1.00  0.00     0.029 A 
ATOM     44  N   UNL A   1      40.051  29.494  30.480  1.00  0.00    -0.354 N 
ATOM     45  C   UNL A   1      43.706  30.276  28.006  1.00  0.00     0.074 A 
ATOM     46  C   UNL A   1      43.112  30.003  26.725  1.00  0.00     0.031 C 
ATOM     47  C   UNL A   1      38.127  28.416  30.844  1.00  0.00     0.029 A 
ATOM     48  C   UNL A   1      38.793  29.689  31.052  1.00  0.00     0.049 A 
ATOM     49  H   UNL A   1      40.789  30.138  30.574  1.00  0.00     0.167 HD
ATOM     50  C   UNL A   1      44.438  31.350  28.408  1.00  0.00     0.034 A 
ATOM     51  C   UNL A   1      38.327  30.835  31.603  1.00  0.00     0.034 A 
ATOM     52  C   UNL A   1      44.769  31.291  29.800  1.00  0.00     0.049 A 
ATOM     53  C   UNL A   1      39.505  31.640  31.987  1.00  0.00     0.074 A 
ATOM     54  C   UNL A   1      45.678  30.625  30.589  1.00  0.00     0.029 A 
ATOM     55  N   UNL A   1      43.782  31.776  30.616  1.00  0.00    -0.354 N 
ATOM     56  N   UNL A   1      40.339  31.291  32.925  1.00  0.00    -0.248 NA
ATOM     57  C   UNL A   1      39.937  32.741  31.134  1.00  0.00     0.031 C 
ATOM     58  C   UNL A   1      45.090  30.549  31.886  1.00  0.00     0.029 A 
ATOM     59  C   UNL A   1      43.858  31.200  31.854  1.00  0.00     0.049 A 
ATOM     60  H   UNL A   1      43.111  32.444  30.349  1.00  0.00     0.167 HD
ATOM     61  C   UNL A   1      41.544  31.813  32.502  1.00  0.00     0.074 A 
ATOM     62  C   UNL A   1      41.208  32.841  31.528  1.00  0.00     0.031 C 
ATOM     63  C   UNL A   1      42.707  31.143  32.724  1.00  0.00     0.034 A 
BRANCH  50  64
ATOM     64  C   UNL A   1      44.471  32.659  27.662  1.00  0.00     0.023 A 
ATOM     65  C   UNL A   1      45.565  32.938  26.819  1.00  0.00     0.012 A 
ATOM     66  C   UNL A   1      43.598  33.727  27.969  1.00  0.00     0.148 A 
ATOM     67  C   UNL A   1      45.758  34.218  26.280  1.00  0.00     0.002 A 
ATOM     68  C   UNL A   1      43.747  34.972  27.370  1.00  0.00     0.091 A 
ATOM     69  F   UNL A   1      42.696  33.576  28.947  1.00  0.00    -0.205 F 
ATOM     70  C   UNL A   1      44.837  35.228  26.537  1.00  0.00     0.022 A 
BRANCH  68  71
ATOM     71  S   UNL A   1      42.556  36.289  27.638  1.00  0.00     0.127 S 
ATOM     72  O   UNL A   1      41.293  35.605  27.350  1.00  0.00    -0.237 OA
ATOM     73  O   UNL A   1      42.777  36.603  29.053  1.00  0.00    -0.237 OA
ATOM     74  O   UNL A   1      42.935  37.348  26.725  1.00  0.00    -0.744 OA
ENDBRANCH  68  71
ENDBRANCH  50  64
BRANCH  51  75
ATOM     75  C   UNL A   1      36.963  31.415  31.703  1.00  0.00     0.023 A 
ATOM     76  C   UNL A   1      36.463  31.752  32.982  1.00  0.00     0.012 A 
ATOM     77  C   UNL A   1      36.307  31.945  30.574  1.00  0.00     0.148 A 
ATOM     78  C   UNL A   1      35.410  32.659  33.133  1.00  0.00     0.002 A 
ATOM     79  C   UNL A   1      35.253  32.843  30.731  1.00  0.00     0.091 A 
ATOM     80  F   UNL A   1      36.778  31.653  29.354  1.00  0.00    -0.205 F 
ATOM     81  C   UNL A   1      34.817  33.221  32.009  1.00  0.00     0.022 A 
BRANCH  79  82
ATOM     82  S   UNL A   1      34.445  33.627  29.328  1.00  0.00     0.127 S 
ATOM     83  O   UNL A   1      33.997  32.473  28.547  1.00  0.00    -0.237 OA
ATOM     84  O   UNL A   1      33.376  34.379  29.976  1.00  0.00    -0.237 OA
ATOM     85  O   UNL A   1      35.479  34.422  28.677  1.00  0.00    -0.744 OA
ENDBRANCH  79  82
ENDBRANCH  51  75
BRANCH  63  86
ATOM     86  C   UNL A   1      42.722  30.133  33.830  1.00  0.00     0.023 A 
ATOM     87  C   UNL A   1      42.306  28.799  33.655  1.00  0.00     0.012 A 
ATOM     88  C   UNL A   1      43.301  30.524  35.047  1.00  0.00     0.148 A 
ATOM     89  C   UNL A   1      42.470  27.869  34.685  1.00  0.00     0.002 A 
ATOM     90  C   UNL A   1      43.500  29.590  36.051  1.00  0.00     0.091 A 
ATOM     91  F   UNL A   1      43.682  31.803  35.181  1.00  0.00    -0.205 F 
ATOM     92  C   UNL A   1      43.080  28.261  35.877  1.00  0.00     0.022 A 
BRANCH  90  93
ATOM     93  S   UNL A   1      44.374  30.003  37.560  1.00  0.00     0.127 S 
ATOM     94  O   UNL A   1      44.544  28.693  38.185  1.00  0.00    -0.237 OA
ATOM     95  O   UNL A   1      45.605  30.605  37.048  1.00  0.00    -0.237 OA
ATOM     96  O   UNL A   1      43.514  30.930  38.287  1.00  0.00    -0.744 OA
ENDBRANCH  90  93
ENDBRANCH  63  86
ENDBRANCH  37  38
ENDBRANCH  29  32
ENDBRANCH  27  28
ENDBRANCH   1  27
TORSDOF 16
ENDMDL
