MODEL 1
REMARK VINA RESULT:     -10.7      0.000      0.000
REMARK SMILES O=C(C[N@@H+]1CCC[C@@H]1c1ccccc1Cl)NCCCNC(=O)c1ccc(-c2c3nc(c(-c4cccc(S(=O)(=O)[O-])c4F)c4ccc([nH]4)c(-c4cccc(S(=O)(=O)[O-])c4F)c4nc(c(-c5cccc(S(=O)(=O)[O-])c5F)c5ccc2[nH]5)C=C4)C=C3)cc1
REMARK SMILES IDX 18 1 17 2 16 3 1 4 2 5 3 7 4 8 5 9 8 10 6 12 7 13 9 14 10 15
REMARK SMILES IDX 14 16 11 17 13 18 15 19 12 20 19 21 20 22 21 23 22 25 23 26
REMARK SMILES IDX 24 27 85 28 25 29 84 30 26 31 27 32 28 33 78 34 29 35 83 36
REMARK SMILES IDX 77 37 79 38 30 39 82 40 76 41 75 42 31 44 63 45 43 46 62 47
REMARK SMILES IDX 44 48 47 49 61 50 80 51 45 52 46 53 60 55 81 56 48 57 32 58
REMARK SMILES IDX 33 59 41 60 34 61 36 62 42 63 35 64 37 65 38 66 39 67 40 68
REMARK SMILES IDX 64 69 65 70 73 71 66 72 68 73 74 74 67 75 69 76 70 77 71 78
REMARK SMILES IDX 72 79 49 80 50 81 58 82 51 83 53 84 59 85 52 86 54 87 55 88
REMARK SMILES IDX 56 89 57 90
REMARK H PARENT 16 6 4 11 20 24 79 43 47 54
REMARK Flexibility Score: inf
ROOT
ATOM      1  C   UNL A   1      33.932  34.445  27.940  1.00  0.00     0.042 C 
ENDROOT
BRANCH   1   2
ATOM      2  C   UNL A   1      33.534  35.356  29.102  1.00  0.00     0.118 C 
BRANCH   2   3
ATOM      3  N   UNL A   1      34.393  35.232  30.261  1.00  0.00    -0.351 N 
ATOM      4  O   UNL A   1      32.851  35.876  31.840  1.00  0.00    -0.269 OA
ATOM      5  C   UNL A   1      33.979  35.482  31.554  1.00  0.00     0.275 C 
ATOM      6  H   UNL A   1      35.327  34.955  30.118  1.00  0.00     0.163 HD
BRANCH   5   7
ATOM      7  C   UNL A   1      35.060  35.259  32.636  1.00  0.00     0.364 C 
BRANCH   7   8
ATOM      8  N   UNL A   1      35.238  33.802  32.895  1.00  0.00    -0.321 N 
ATOM      9  C   UNL A   1      34.939  33.562  34.330  1.00  0.00     0.263 C 
ATOM     10  C   UNL A   1      36.619  33.230  32.733  1.00  0.00     0.217 C 
ATOM     11  H   UNL A   1      34.632  33.362  32.201  1.00  0.00     0.349 HD
ATOM     12  C   UNL A   1      36.220  33.958  35.039  1.00  0.00     0.068 C 
ATOM     13  C   UNL A   1      37.288  33.405  34.118  1.00  0.00     0.076 C 
BRANCH  10  14
ATOM     14  C   UNL A   1      37.530  33.563  31.549  1.00  0.00     0.028 A 
ATOM     15  C   UNL A   1      37.285  33.129  30.236  1.00  0.00     0.011 A 
ATOM     16  C   UNL A   1      38.714  34.320  31.730  1.00  0.00     0.050 A 
ATOM     17  C   UNL A   1      38.059  33.550  29.147  1.00  0.00     0.001 A 
ATOM     18  C   UNL A   1      39.495  34.739  30.643  1.00  0.00     0.021 A 
ATOM     19  Cl  UNL A   1      39.343  34.728  33.294  1.00  0.00    -0.084 Cl
ATOM     20  C   UNL A   1      39.150  34.380  29.347  1.00  0.00     0.002 A 
ENDBRANCH  10  14
ENDBRANCH   7   8
ENDBRANCH   5   7
ENDBRANCH   2   3
ENDBRANCH   1   2
BRANCH   1  21
ATOM     21  C   UNL A   1      34.622  33.139  28.337  1.00  0.00     0.118 C 
BRANCH  21  22
ATOM     22  N   UNL A   1      33.899  31.952  27.902  1.00  0.00    -0.352 N 
ATOM     23  C   UNL A   1      34.291  30.647  27.724  1.00  0.00     0.251 C 
ATOM     24  H   UNL A   1      32.950  32.115  27.696  1.00  0.00     0.163 HD
ATOM     25  O   UNL A   1      33.490  29.870  27.204  1.00  0.00    -0.269 OA
BRANCH  23  26
ATOM     26  C   UNL A   1      35.630  30.147  28.127  1.00  0.00     0.039 A 
ATOM     27  C   UNL A   1      35.783  29.643  29.426  1.00  0.00     0.014 A 
ATOM     28  C   UNL A   1      36.753  30.247  27.303  1.00  0.00     0.014 A 
ATOM     29  C   UNL A   1      37.036  29.213  29.879  1.00  0.00     0.010 A 
ATOM     30  C   UNL A   1      37.988  29.746  27.729  1.00  0.00     0.010 A 
ATOM     31  C   UNL A   1      38.151  29.242  29.029  1.00  0.00    -0.014 A 
BRANCH  31  32
ATOM     32  C   UNL A   1      39.486  28.773  29.498  1.00  0.00     0.031 A 
ATOM     33  C   UNL A   1      40.209  29.495  30.609  1.00  0.00     0.074 A 
ATOM     34  C   UNL A   1      40.082  27.725  28.894  1.00  0.00     0.049 A 
ATOM     35  N   UNL A   1      41.381  29.242  31.135  1.00  0.00    -0.248 NA
ATOM     36  C   UNL A   1      39.538  30.670  31.190  1.00  0.00     0.031 C 
ATOM     37  C   UNL A   1      39.531  26.976  27.763  1.00  0.00     0.029 A 
ATOM     38  N   UNL A   1      41.292  27.119  29.133  1.00  0.00    -0.354 N 
ATOM     39  C   UNL A   1      41.602  30.240  32.077  1.00  0.00     0.074 A 
ATOM     40  C   UNL A   1      40.459  31.124  32.027  1.00  0.00     0.031 C 
ATOM     41  C   UNL A   1      40.395  26.009  27.412  1.00  0.00     0.029 A 
ATOM     42  C   UNL A   1      41.572  26.083  28.271  1.00  0.00     0.049 A 
ATOM     43  H   UNL A   1      41.902  27.399  29.854  1.00  0.00     0.167 HD
ATOM     44  C   UNL A   1      42.645  30.394  32.930  1.00  0.00     0.034 A 
ATOM     45  C   UNL A   1      42.654  25.283  28.180  1.00  0.00     0.034 A 
ATOM     46  C   UNL A   1      43.764  29.493  33.012  1.00  0.00     0.049 A 
ATOM     47  C   UNL A   1      43.779  25.449  29.166  1.00  0.00     0.074 A 
ATOM     48  C   UNL A   1      44.828  29.521  33.898  1.00  0.00     0.029 A 
ATOM     49  N   UNL A   1      43.969  28.405  32.178  1.00  0.00    -0.354 N 
ATOM     50  N   UNL A   1      43.897  26.308  30.148  1.00  0.00    -0.248 NA
ATOM     51  C   UNL A   1      44.901  24.505  29.058  1.00  0.00     0.031 C 
ATOM     52  C   UNL A   1      45.690  28.465  33.581  1.00  0.00     0.029 A 
ATOM     53  C   UNL A   1      45.143  27.757  32.524  1.00  0.00     0.049 A 
ATOM     54  H   UNL A   1      43.368  28.132  31.448  1.00  0.00     0.167 HD
ATOM     55  C   UNL A   1      45.080  25.979  30.804  1.00  0.00     0.074 A 
ATOM     56  C   UNL A   1      45.633  24.832  30.115  1.00  0.00     0.031 C 
ATOM     57  C   UNL A   1      45.658  26.580  31.872  1.00  0.00     0.034 A 
BRANCH  44  58
ATOM     58  C   UNL A   1      42.605  31.562  33.884  1.00  0.00     0.023 A 
ATOM     59  C   UNL A   1      43.115  32.813  33.478  1.00  0.00     0.012 A 
ATOM     60  C   UNL A   1      42.009  31.442  35.155  1.00  0.00     0.148 A 
ATOM     61  C   UNL A   1      43.071  33.912  34.334  1.00  0.00     0.002 A 
ATOM     62  C   UNL A   1      41.925  32.555  35.985  1.00  0.00     0.091 A 
ATOM     63  F   UNL A   1      41.544  30.243  35.533  1.00  0.00    -0.205 F 
ATOM     64  C   UNL A   1      42.468  33.786  35.582  1.00  0.00     0.022 A 
BRANCH  62  65
ATOM     65  S   UNL A   1      41.095  32.518  37.577  1.00  0.00     0.127 S 
ATOM     66  O   UNL A   1      41.967  31.629  38.345  1.00  0.00    -0.237 OA
ATOM     67  O   UNL A   1      41.146  33.921  37.984  1.00  0.00    -0.237 OA
ATOM     68  O   UNL A   1      39.755  32.007  37.321  1.00  0.00    -0.744 OA
ENDBRANCH  62  65
ENDBRANCH  44  58
BRANCH  45  69
ATOM     69  C   UNL A   1      42.697  24.202  27.153  1.00  0.00     0.023 A 
ATOM     70  C   UNL A   1      43.395  24.417  25.948  1.00  0.00     0.012 A 
ATOM     71  C   UNL A   1      42.066  22.962  27.369  1.00  0.00     0.148 A 
ATOM     72  C   UNL A   1      43.431  23.433  24.960  1.00  0.00     0.002 A 
ATOM     73  C   UNL A   1      42.153  21.965  26.404  1.00  0.00     0.091 A 
ATOM     74  F   UNL A   1      41.399  22.780  28.517  1.00  0.00    -0.205 F 
ATOM     75  C   UNL A   1      42.818  22.204  25.192  1.00  0.00     0.022 A 
BRANCH  73  76
ATOM     76  S   UNL A   1      41.504  20.311  26.666  1.00  0.00     0.127 S 
ATOM     77  O   UNL A   1      40.072  20.566  26.782  1.00  0.00    -0.237 OA
ATOM     78  O   UNL A   1      41.912  19.629  25.437  1.00  0.00    -0.237 OA
ATOM     79  O   UNL A   1      42.159  19.817  27.870  1.00  0.00    -0.744 OA
ENDBRANCH  73  76
ENDBRANCH  45  69
BRANCH  57  80
ATOM     80  C   UNL A   1      46.931  25.980  32.412  1.00  0.00     0.023 A 
ATOM     81  C   UNL A   1      48.182  26.432  31.946  1.00  0.00     0.012 A 
ATOM     82  C   UNL A   1      46.886  25.009  33.433  1.00  0.00     0.148 A 
ATOM     83  C   UNL A   1      49.365  25.899  32.458  1.00  0.00     0.002 A 
ATOM     84  C   UNL A   1      48.069  24.521  33.975  1.00  0.00     0.091 A 
ATOM     85  F   UNL A   1      45.687  24.575  33.851  1.00  0.00    -0.205 F 
ATOM     86  C   UNL A   1      49.308  24.954  33.480  1.00  0.00     0.022 A 
BRANCH  84  87
ATOM     87  S   UNL A   1      48.089  23.379  35.362  1.00  0.00     0.127 S 
ATOM     88  O   UNL A   1      47.289  24.099  36.353  1.00  0.00    -0.237 OA
ATOM     89  O   UNL A   1      47.438  22.194  34.799  1.00  0.00    -0.237 OA
ATOM     90  O   UNL A   1      49.491  23.190  35.706  1.00  0.00    -0.744 OA
ENDBRANCH  84  87
ENDBRANCH  57  80
ENDBRANCH  31  32
ENDBRANCH  23  26
ENDBRANCH  21  22
ENDBRANCH   1  21
TORSDOF 15
ENDMDL
MODEL 2
REMARK VINA RESULT:     -10.6      4.160      6.584
REMARK SMILES O=C(C[N@@H+]1CCC[C@@H]1c1ccccc1Cl)NCCCNC(=O)c1ccc(-c2c3nc(c(-c4cccc(S(=O)(=O)[O-])c4F)c4ccc([nH]4)c(-c4cccc(S(=O)(=O)[O-])c4F)c4nc(c(-c5cccc(S(=O)(=O)[O-])c5F)c5ccc2[nH]5)C=C4)C=C3)cc1
REMARK SMILES IDX 18 1 17 2 16 3 1 4 2 5 3 7 4 8 5 9 8 10 6 12 7 13 9 14 10 15
REMARK SMILES IDX 14 16 11 17 13 18 15 19 12 20 19 21 20 22 21 23 22 25 23 26
REMARK SMILES IDX 24 27 85 28 25 29 84 30 26 31 27 32 28 33 78 34 29 35 83 36
REMARK SMILES IDX 77 37 79 38 30 39 82 40 76 41 75 42 31 44 63 45 43 46 62 47
REMARK SMILES IDX 44 48 47 49 61 50 80 51 45 52 46 53 60 55 81 56 48 57 32 58
REMARK SMILES IDX 33 59 41 60 34 61 36 62 42 63 35 64 37 65 38 66 39 67 40 68
REMARK SMILES IDX 64 69 65 70 73 71 66 72 68 73 74 74 67 75 69 76 70 77 71 78
REMARK SMILES IDX 72 79 49 80 50 81 58 82 51 83 53 84 59 85 52 86 54 87 55 88
REMARK SMILES IDX 56 89 57 90
REMARK H PARENT 16 6 4 11 20 24 79 43 47 54
REMARK Flexibility Score: inf
ROOT
ATOM      1  C   UNL A   1      31.411  28.313  25.442  1.00  0.00     0.042 C 
ENDROOT
BRANCH   1   2
ATOM      2  C   UNL A   1      31.362  27.151  26.434  1.00  0.00     0.118 C 
BRANCH   2   3
ATOM      3  N   UNL A   1      32.369  26.138  26.197  1.00  0.00    -0.351 N 
ATOM      4  O   UNL A   1      31.204  24.356  27.064  1.00  0.00    -0.269 OA
ATOM      5  C   UNL A   1      32.205  24.804  26.511  1.00  0.00     0.275 C 
ATOM      6  H   UNL A   1      33.220  26.418  25.788  1.00  0.00     0.163 HD
BRANCH   5   7
ATOM      7  C   UNL A   1      33.404  23.900  26.144  1.00  0.00     0.364 C 
BRANCH   7   8
ATOM      8  N   UNL A   1      33.031  22.973  25.039  1.00  0.00    -0.321 N 
ATOM      9  C   UNL A   1      33.873  21.756  25.171  1.00  0.00     0.263 C 
ATOM     10  C   UNL A   1      33.301  23.424  23.630  1.00  0.00     0.217 C 
ATOM     11  H   UNL A   1      32.021  22.869  25.147  1.00  0.00     0.349 HD
ATOM     12  C   UNL A   1      35.191  22.156  24.539  1.00  0.00     0.068 C 
ATOM     13  C   UNL A   1      34.747  22.957  23.332  1.00  0.00     0.076 C 
BRANCH  10  14
ATOM     14  C   UNL A   1      32.980  24.833  23.127  1.00  0.00     0.028 A 
ATOM     15  C   UNL A   1      33.943  25.847  22.989  1.00  0.00     0.011 A 
ATOM     16  C   UNL A   1      31.653  25.205  22.797  1.00  0.00     0.050 A 
ATOM     17  C   UNL A   1      33.652  27.087  22.407  1.00  0.00     0.001 A 
ATOM     18  C   UNL A   1      31.357  26.449  22.220  1.00  0.00     0.021 A 
ATOM     19  Cl  UNL A   1      30.280  24.203  23.142  1.00  0.00    -0.084 Cl
ATOM     20  C   UNL A   1      32.362  27.379  21.996  1.00  0.00     0.002 A 
ENDBRANCH  10  14
ENDBRANCH   7   8
ENDBRANCH   5   7
ENDBRANCH   2   3
ENDBRANCH   1   2
BRANCH   1  21
ATOM     21  C   UNL A   1      32.652  29.203  25.534  1.00  0.00     0.118 C 
BRANCH  21  22
ATOM     22  N   UNL A   1      32.356  30.558  25.976  1.00  0.00    -0.352 N 
ATOM     23  C   UNL A   1      32.947  31.372  26.912  1.00  0.00     0.251 C 
ATOM     24  H   UNL A   1      31.588  30.970  25.518  1.00  0.00     0.163 HD
ATOM     25  O   UNL A   1      32.391  32.437  27.184  1.00  0.00    -0.269 OA
BRANCH  23  26
ATOM     26  C   UNL A   1      34.212  31.016  27.605  1.00  0.00     0.039 A 
ATOM     27  C   UNL A   1      34.394  29.684  28.001  1.00  0.00     0.014 A 
ATOM     28  C   UNL A   1      35.174  31.965  27.957  1.00  0.00     0.014 A 
ATOM     29  C   UNL A   1      35.540  29.303  28.709  1.00  0.00     0.010 A 
ATOM     30  C   UNL A   1      36.354  31.570  28.596  1.00  0.00     0.010 A 
ATOM     31  C   UNL A   1      36.544  30.239  28.999  1.00  0.00    -0.014 A 
BRANCH  31  32
ATOM     32  C   UNL A   1      37.774  29.840  29.740  1.00  0.00     0.031 A 
ATOM     33  C   UNL A   1      38.049  30.379  31.122  1.00  0.00     0.074 A 
ATOM     34  C   UNL A   1      38.680  29.028  29.156  1.00  0.00     0.049 A 
ATOM     35  N   UNL A   1      39.073  30.157  31.909  1.00  0.00    -0.248 NA
ATOM     36  C   UNL A   1      37.058  31.309  31.687  1.00  0.00     0.031 C 
ATOM     37  C   UNL A   1      38.577  28.488  27.799  1.00  0.00     0.029 A 
ATOM     38  N   UNL A   1      39.874  28.532  29.619  1.00  0.00    -0.354 N 
ATOM     39  C   UNL A   1      38.867  30.942  33.038  1.00  0.00     0.074 A 
ATOM     40  C   UNL A   1      37.638  31.673  32.821  1.00  0.00     0.031 C 
ATOM     41  C   UNL A   1      39.658  27.732  27.543  1.00  0.00     0.029 A 
ATOM     42  C   UNL A   1      40.542  27.753  28.703  1.00  0.00     0.049 A 
ATOM     43  H   UNL A   1      40.219  28.717  30.523  1.00  0.00     0.167 HD
ATOM     44  C   UNL A   1      39.612  31.027  34.167  1.00  0.00     0.034 A 
ATOM     45  C   UNL A   1      41.735  27.128  28.785  1.00  0.00     0.034 A 
ATOM     46  C   UNL A   1      40.812  30.269  34.405  1.00  0.00     0.049 A 
ATOM     47  C   UNL A   1      42.522  27.204  30.065  1.00  0.00     0.074 A 
ATOM     48  C   UNL A   1      41.591  30.227  35.549  1.00  0.00     0.029 A 
ATOM     49  N   UNL A   1      41.411  29.424  33.484  1.00  0.00    -0.354 N 
ATOM     50  N   UNL A   1      42.231  27.832  31.178  1.00  0.00    -0.248 NA
ATOM     51  C   UNL A   1      43.781  26.447  30.118  1.00  0.00     0.031 C 
ATOM     52  C   UNL A   1      42.676  29.377  35.309  1.00  0.00     0.029 A 
ATOM     53  C   UNL A   1      42.552  28.860  34.031  1.00  0.00     0.049 A 
ATOM     54  H   UNL A   1      41.075  29.249  32.575  1.00  0.00     0.167 HD
ATOM     55  C   UNL A   1      43.244  27.510  32.075  1.00  0.00     0.074 A 
ATOM     56  C   UNL A   1      44.148  26.617  31.380  1.00  0.00     0.031 C 
ATOM     57  C   UNL A   1      43.414  27.925  33.354  1.00  0.00     0.034 A 
BRANCH  44  58
ATOM     58  C   UNL A   1      39.124  31.943  35.262  1.00  0.00     0.023 A 
ATOM     59  C   UNL A   1      39.271  33.338  35.122  1.00  0.00     0.012 A 
ATOM     60  C   UNL A   1      38.467  31.430  36.399  1.00  0.00     0.148 A 
ATOM     61  C   UNL A   1      38.810  34.206  36.111  1.00  0.00     0.002 A 
ATOM     62  C   UNL A   1      37.967  32.305  37.358  1.00  0.00     0.091 A 
ATOM     63  F   UNL A   1      38.350  30.101  36.526  1.00  0.00    -0.205 F 
ATOM     64  C   UNL A   1      38.151  33.691  37.223  1.00  0.00     0.022 A 
BRANCH  62  65
ATOM     65  S   UNL A   1      37.030  31.747  38.785  1.00  0.00     0.127 S 
ATOM     66  O   UNL A   1      38.005  31.912  39.863  1.00  0.00    -0.237 OA
ATOM     67  O   UNL A   1      35.921  32.699  38.817  1.00  0.00    -0.237 OA
ATOM     68  O   UNL A   1      36.642  30.371  38.500  1.00  0.00    -0.744 OA
ENDBRANCH  62  65
ENDBRANCH  44  58
BRANCH  45  69
ATOM     69  C   UNL A   1      42.229  26.312  27.637  1.00  0.00     0.023 A 
ATOM     70  C   UNL A   1      43.091  26.898  26.690  1.00  0.00     0.012 A 
ATOM     71  C   UNL A   1      41.862  24.961  27.488  1.00  0.00     0.148 A 
ATOM     72  C   UNL A   1      43.548  26.167  25.594  1.00  0.00     0.002 A 
ATOM     73  C   UNL A   1      42.366  24.221  26.424  1.00  0.00     0.091 A 
ATOM     74  F   UNL A   1      41.033  24.424  28.394  1.00  0.00    -0.205 F 
ATOM     75  C   UNL A   1      43.193  24.827  25.466  1.00  0.00     0.022 A 
BRANCH  73  76
ATOM     76  S   UNL A   1      42.066  22.459  26.247  1.00  0.00     0.127 S 
ATOM     77  O   UNL A   1      40.610  22.411  26.157  1.00  0.00    -0.237 OA
ATOM     78  O   UNL A   1      42.772  22.158  25.001  1.00  0.00    -0.237 OA
ATOM     79  O   UNL A   1      42.648  21.840  27.431  1.00  0.00    -0.744 OA
ENDBRANCH  73  76
ENDBRANCH  45  69
BRANCH  57  80
ATOM     80  C   UNL A   1      44.590  27.376  34.121  1.00  0.00     0.023 A 
ATOM     81  C   UNL A   1      45.832  28.041  34.087  1.00  0.00     0.012 A 
ATOM     82  C   UNL A   1      44.444  26.231  34.929  1.00  0.00     0.148 A 
ATOM     83  C   UNL A   1      46.920  27.553  34.813  1.00  0.00     0.002 A 
ATOM     84  C   UNL A   1      45.516  25.781  35.690  1.00  0.00     0.091 A 
ATOM     85  F   UNL A   1      43.262  25.598  34.934  1.00  0.00    -0.205 F 
ATOM     86  C   UNL A   1      46.758  26.432  35.622  1.00  0.00     0.022 A 
BRANCH  84  87
ATOM     87  S   UNL A   1      45.368  24.406  36.838  1.00  0.00     0.127 S 
ATOM     88  O   UNL A   1      46.684  24.408  37.476  1.00  0.00    -0.237 OA
ATOM     89  O   UNL A   1      44.271  24.840  37.704  1.00  0.00    -0.237 OA
ATOM     90  O   UNL A   1      45.068  23.236  36.025  1.00  0.00    -0.744 OA
ENDBRANCH  84  87
ENDBRANCH  57  80
ENDBRANCH  31  32
ENDBRANCH  23  26
ENDBRANCH  21  22
ENDBRANCH   1  21
TORSDOF 15
ENDMDL
MODEL 3
REMARK VINA RESULT:     -10.5      6.443     11.647
REMARK SMILES O=C(C[N@@H+]1CCC[C@@H]1c1ccccc1Cl)NCCCNC(=O)c1ccc(-c2c3nc(c(-c4cccc(S(=O)(=O)[O-])c4F)c4ccc([nH]4)c(-c4cccc(S(=O)(=O)[O-])c4F)c4nc(c(-c5cccc(S(=O)(=O)[O-])c5F)c5ccc2[nH]5)C=C4)C=C3)cc1
REMARK SMILES IDX 18 1 17 2 16 3 1 4 2 5 3 7 4 8 5 9 8 10 6 12 7 13 9 14 10 15
REMARK SMILES IDX 14 16 11 17 13 18 15 19 12 20 19 21 20 22 21 23 22 25 23 26
REMARK SMILES IDX 24 27 85 28 25 29 84 30 26 31 27 32 28 33 78 34 29 35 83 36
REMARK SMILES IDX 77 37 79 38 30 39 82 40 76 41 75 42 31 44 63 45 43 46 62 47
REMARK SMILES IDX 44 48 47 49 61 50 80 51 45 52 46 53 60 55 81 56 48 57 32 58
REMARK SMILES IDX 33 59 41 60 34 61 36 62 42 63 35 64 37 65 38 66 39 67 40 68
REMARK SMILES IDX 64 69 65 70 73 71 66 72 68 73 74 74 67 75 69 76 70 77 71 78
REMARK SMILES IDX 72 79 49 80 50 81 58 82 51 83 53 84 59 85 52 86 54 87 55 88
REMARK SMILES IDX 56 89 57 90
REMARK H PARENT 16 6 4 11 20 24 79 43 47 54
REMARK Flexibility Score: inf
ROOT
ATOM      1  C   UNL A   1      36.475  21.981  24.232  1.00  0.00     0.042 C 
ENDROOT
BRANCH   1   2
ATOM      2  C   UNL A   1      36.201  23.274  23.465  1.00  0.00     0.118 C 
BRANCH   2   3
ATOM      3  N   UNL A   1      35.086  24.037  23.987  1.00  0.00    -0.351 N 
ATOM      4  O   UNL A   1      33.904  24.210  22.022  1.00  0.00    -0.269 OA
ATOM      5  C   UNL A   1      34.004  24.432  23.227  1.00  0.00     0.275 C 
ATOM      6  H   UNL A   1      35.103  24.290  24.938  1.00  0.00     0.163 HD
BRANCH   5   7
ATOM      7  C   UNL A   1      32.919  25.215  24.002  1.00  0.00     0.364 C 
BRANCH   7   8
ATOM      8  N   UNL A   1      31.579  24.608  23.768  1.00  0.00    -0.321 N 
ATOM      9  C   UNL A   1      30.558  25.639  24.087  1.00  0.00     0.263 C 
ATOM     10  C   UNL A   1      31.177  23.450  24.638  1.00  0.00     0.217 C 
ATOM     11  H   UNL A   1      31.634  24.274  22.805  1.00  0.00     0.349 HD
ATOM     12  C   UNL A   1      30.444  25.582  25.598  1.00  0.00     0.068 C 
ATOM     13  C   UNL A   1      30.504  24.093  25.875  1.00  0.00     0.076 C 
BRANCH  10  14
ATOM     14  C   UNL A   1      32.117  22.287  24.969  1.00  0.00     0.028 A 
ATOM     15  C   UNL A   1      32.778  22.149  26.200  1.00  0.00     0.011 A 
ATOM     16  C   UNL A   1      32.398  21.283  24.010  1.00  0.00     0.050 A 
ATOM     17  C   UNL A   1      33.531  21.014  26.528  1.00  0.00     0.001 A 
ATOM     18  C   UNL A   1      33.157  20.147  24.332  1.00  0.00     0.021 A 
ATOM     19  Cl  UNL A   1      31.905  21.397  22.351  1.00  0.00    -0.084 Cl
ATOM     20  C   UNL A   1      33.697  19.998  25.602  1.00  0.00     0.002 A 
ENDBRANCH  10  14
ENDBRANCH   7   8
ENDBRANCH   5   7
ENDBRANCH   2   3
ENDBRANCH   1   2
BRANCH   1  21
ATOM     21  C   UNL A   1      37.072  22.161  25.629  1.00  0.00     0.118 C 
BRANCH  21  22
ATOM     22  N   UNL A   1      38.136  21.212  25.925  1.00  0.00    -0.352 N 
ATOM     23  C   UNL A   1      39.422  21.383  26.381  1.00  0.00     0.251 C 
ATOM     24  H   UNL A   1      37.890  20.272  25.771  1.00  0.00     0.163 HD
ATOM     25  O   UNL A   1      40.159  20.397  26.408  1.00  0.00    -0.269 OA
BRANCH  23  26
ATOM     26  C   UNL A   1      39.949  22.697  26.830  1.00  0.00     0.039 A 
ATOM     27  C   UNL A   1      39.567  23.840  26.114  1.00  0.00     0.014 A 
ATOM     28  C   UNL A   1      40.876  22.825  27.866  1.00  0.00     0.014 A 
ATOM     29  C   UNL A   1      40.079  25.097  26.456  1.00  0.00     0.010 A 
ATOM     30  C   UNL A   1      41.328  24.090  28.255  1.00  0.00     0.010 A 
ATOM     31  C   UNL A   1      40.953  25.240  27.543  1.00  0.00    -0.014 A 
BRANCH  31  32
ATOM     32  C   UNL A   1      41.493  26.577  27.923  1.00  0.00     0.031 A 
ATOM     33  C   UNL A   1      42.924  26.944  27.618  1.00  0.00     0.074 A 
ATOM     34  C   UNL A   1      40.715  27.453  28.591  1.00  0.00     0.049 A 
ATOM     35  N   UNL A   1      43.571  28.050  27.887  1.00  0.00    -0.248 NA
ATOM     36  C   UNL A   1      43.746  25.926  26.942  1.00  0.00     0.031 C 
ATOM     37  C   UNL A   1      39.335  27.205  29.013  1.00  0.00     0.029 A 
ATOM     38  N   UNL A   1      40.979  28.721  29.052  1.00  0.00    -0.354 N 
ATOM     39  C   UNL A   1      44.875  27.850  27.449  1.00  0.00     0.074 A 
ATOM     40  C   UNL A   1      44.939  26.503  26.927  1.00  0.00     0.031 C 
ATOM     41  C   UNL A   1      38.872  28.287  29.662  1.00  0.00     0.029 A 
ATOM     42  C   UNL A   1      39.926  29.293  29.728  1.00  0.00     0.049 A 
ATOM     43  H   UNL A   1      41.841  29.176  28.910  1.00  0.00     0.167 HD
ATOM     44  C   UNL A   1      45.920  28.714  27.451  1.00  0.00     0.034 A 
ATOM     45  C   UNL A   1      39.821  30.493  30.336  1.00  0.00     0.034 A 
ATOM     46  C   UNL A   1      45.849  30.069  27.930  1.00  0.00     0.049 A 
ATOM     47  C   UNL A   1      40.982  31.450  30.286  1.00  0.00     0.074 A 
ATOM     48  C   UNL A   1      46.831  31.045  27.900  1.00  0.00     0.029 A 
ATOM     49  N   UNL A   1      44.738  30.640  28.531  1.00  0.00    -0.354 N 
ATOM     50  N   UNL A   1      42.158  31.294  29.731  1.00  0.00    -0.248 NA
ATOM     51  C   UNL A   1      40.784  32.768  30.908  1.00  0.00     0.031 C 
ATOM     52  C   UNL A   1      46.322  32.198  28.507  1.00  0.00     0.029 A 
ATOM     53  C   UNL A   1      45.011  31.953  28.880  1.00  0.00     0.049 A 
ATOM     54  H   UNL A   1      43.881  30.181  28.686  1.00  0.00     0.167 HD
ATOM     55  C   UNL A   1      42.823  32.505  29.896  1.00  0.00     0.074 A 
ATOM     56  C   UNL A   1      41.910  33.391  30.588  1.00  0.00     0.031 C 
ATOM     57  C   UNL A   1      44.078  32.847  29.516  1.00  0.00     0.034 A 
BRANCH  44  58
ATOM     58  C   UNL A   1      47.227  28.235  26.870  1.00  0.00     0.023 A 
ATOM     59  C   UNL A   1      48.279  27.863  27.733  1.00  0.00     0.012 A 
ATOM     60  C   UNL A   1      47.396  28.095  25.478  1.00  0.00     0.148 A 
ATOM     61  C   UNL A   1      49.490  27.399  27.221  1.00  0.00     0.002 A 
ATOM     62  C   UNL A   1      48.589  27.586  24.977  1.00  0.00     0.091 A 
ATOM     63  F   UNL A   1      46.394  28.469  24.671  1.00  0.00    -0.205 F 
ATOM     64  C   UNL A   1      49.641  27.251  25.845  1.00  0.00     0.022 A 
BRANCH  62  65
ATOM     65  S   UNL A   1      48.854  27.279  23.227  1.00  0.00     0.127 S 
ATOM     66  O   UNL A   1      50.312  27.355  23.130  1.00  0.00    -0.237 OA
ATOM     67  O   UNL A   1      48.303  25.935  23.063  1.00  0.00    -0.237 OA
ATOM     68  O   UNL A   1      48.127  28.325  22.520  1.00  0.00    -0.744 OA
ENDBRANCH  62  65
ENDBRANCH  44  58
BRANCH  45  69
ATOM     69  C   UNL A   1      38.539  30.888  30.988  1.00  0.00     0.023 A 
ATOM     70  C   UNL A   1      38.344  30.615  32.357  1.00  0.00     0.012 A 
ATOM     71  C   UNL A   1      37.522  31.542  30.266  1.00  0.00     0.148 A 
ATOM     72  C   UNL A   1      37.145  30.951  32.986  1.00  0.00     0.002 A 
ATOM     73  C   UNL A   1      36.352  31.924  30.914  1.00  0.00     0.091 A 
ATOM     74  F   UNL A   1      37.722  31.784  28.964  1.00  0.00    -0.205 F 
ATOM     75  C   UNL A   1      36.153  31.613  32.268  1.00  0.00     0.022 A 
BRANCH  73  76
ATOM     76  S   UNL A   1      35.074  32.891  30.104  1.00  0.00     0.127 S 
ATOM     77  O   UNL A   1      34.565  31.946  29.114  1.00  0.00    -0.237 OA
ATOM     78  O   UNL A   1      34.161  33.174  31.212  1.00  0.00    -0.237 OA
ATOM     79  O   UNL A   1      35.749  34.066  29.568  1.00  0.00    -0.744 OA
ENDBRANCH  73  76
ENDBRANCH  45  69
BRANCH  57  80
ATOM     80  C   UNL A   1      44.532  34.260  29.782  1.00  0.00     0.023 A 
ATOM     81  C   UNL A   1      45.133  34.592  31.012  1.00  0.00     0.012 A 
ATOM     82  C   UNL A   1      44.420  35.247  28.782  1.00  0.00     0.148 A 
ATOM     83  C   UNL A   1      45.578  35.892  31.258  1.00  0.00     0.002 A 
ATOM     84  C   UNL A   1      44.913  36.525  29.014  1.00  0.00     0.091 A 
ATOM     85  F   UNL A   1      43.827  34.919  27.624  1.00  0.00    -0.205 F 
ATOM     86  C   UNL A   1      45.479  36.853  30.255  1.00  0.00     0.022 A 
BRANCH  84  87
ATOM     87  S   UNL A   1      44.918  37.796  27.744  1.00  0.00     0.127 S 
ATOM     88  O   UNL A   1      43.490  37.956  27.475  1.00  0.00    -0.237 OA
ATOM     89  O   UNL A   1      45.537  38.927  28.437  1.00  0.00    -0.237 OA
ATOM     90  O   UNL A   1      45.707  37.260  26.643  1.00  0.00    -0.744 OA
ENDBRANCH  84  87
ENDBRANCH  57  80
ENDBRANCH  31  32
ENDBRANCH  23  26
ENDBRANCH  21  22
ENDBRANCH   1  21
TORSDOF 15
ENDMDL
