MODEL 1
REMARK VINA RESULT:     -12.5      0.000      0.000
REMARK SMILES Cc1nc2cc(S(=O)(=O)N3CCC(C(=O)NCCCNC(=O)c4ccc(-c5c6nc(c(-c7cccc(S(=O)(=O)[O-])c7F)c7ccc([nH]7)c(-c7cccc(S(=O)(=O)[O-])c7F)c7nc(c(-c8cccc(S(=O)(=O)[O-])c8F)c8ccc5[nH]8)C=C7)C=C6)cc4)CC3)ccc2n1C1CCCC1
REMARK SMILES IDX 18 1 17 2 16 3 14 4 15 5 13 7 10 8 11 9 87 10 12 11 86 12
REMARK SMILES IDX 7 13 8 14 9 15 6 16 1 17 2 18 3 19 91 20 4 21 90 22 5 23
REMARK SMILES IDX 89 24 88 25 92 26 93 27 96 28 94 29 95 30 19 31 20 32 21 33
REMARK SMILES IDX 22 35 23 36 24 37 85 38 25 39 84 40 26 41 27 42 28 43 78 44
REMARK SMILES IDX 29 45 83 46 77 47 79 48 30 49 82 50 76 51 75 52 31 54 63 55
REMARK SMILES IDX 43 56 62 57 44 58 47 59 61 60 80 61 45 62 46 63 60 65 81 66
REMARK SMILES IDX 48 67 32 68 33 69 41 70 34 71 36 72 42 73 35 74 37 75 38 76
REMARK SMILES IDX 39 77 40 78 64 79 65 80 73 81 66 82 68 83 74 84 67 85 69 86
REMARK SMILES IDX 70 87 71 88 72 89 49 90 50 91 58 92 51 93 53 94 59 95 52 96
REMARK SMILES IDX 54 97 55 98 56 99 57 100
REMARK H PARENT 16 6 20 34 79 53 47 64
REMARK Flexibility Score: inf
ROOT
ATOM      1  C   UNL A   1      39.285  24.120  27.416  1.00  0.00     0.042 C 
ENDROOT
BRANCH   1   2
ATOM      2  C   UNL A   1      38.522  24.168  26.098  1.00  0.00     0.117 C 
BRANCH   2   3
ATOM      3  N   UNL A   1      38.393  22.855  25.483  1.00  0.00    -0.356 N 
ATOM      4  C   UNL A   1      37.302  22.128  25.127  1.00  0.00     0.223 C 
ATOM      5  O   UNL A   1      37.486  21.015  24.625  1.00  0.00    -0.275 OA
ATOM      6  H   UNL A   1      39.253  22.414  25.290  1.00  0.00     0.163 HD
BRANCH   4   7
ATOM      7  C   UNL A   1      35.891  22.656  25.318  1.00  0.00     0.081 C 
ATOM      8  N   UNL A   1      33.089  22.412  25.962  1.00  0.00    -0.198 NA
ATOM      9  C   UNL A   1      33.489  22.476  24.539  1.00  0.00     0.103 C 
ATOM     10  C   UNL A   1      34.009  22.922  27.003  1.00  0.00     0.103 C 
ATOM     11  C   UNL A   1      34.921  22.040  24.318  1.00  0.00     0.030 C 
ATOM     12  C   UNL A   1      35.452  22.528  26.772  1.00  0.00     0.030 C 
BRANCH   8  13
ATOM     13  S   UNL A   1      31.419  22.706  26.258  1.00  0.00     0.243 S 
ATOM     14  O   UNL A   1      31.273  22.955  27.682  1.00  0.00    -0.207 OA
ATOM     15  O   UNL A   1      30.665  21.691  25.570  1.00  0.00    -0.207 OA
BRANCH  13  16
ATOM     16  C   UNL A   1      31.030  24.250  25.452  1.00  0.00     0.085 A 
ATOM     17  C   UNL A   1      31.153  30.208  24.992  1.00  0.00     0.088 C 
ATOM     18  C   UNL A   1      31.055  28.728  24.918  1.00  0.00     0.106 A 
ATOM     19  N   UNL A   1      31.569  27.917  25.822  1.00  0.00    -0.233 NA
ATOM     20  N   UNL A   1      30.432  28.014  23.914  1.00  0.00    -0.325 N 
ATOM     21  C   UNL A   1      31.231  26.650  25.437  1.00  0.00     0.090 A 
ATOM     22  C   UNL A   1      30.498  26.679  24.257  1.00  0.00     0.068 A 
ATOM     23  C   UNL A   1      31.513  25.422  26.055  1.00  0.00     0.052 A 
ATOM     24  C   UNL A   1      29.998  25.524  23.658  1.00  0.00     0.030 A 
ATOM     25  C   UNL A   1      30.283  24.314  24.274  1.00  0.00     0.024 A 
BRANCH  20  26
ATOM     26  C   UNL A   1      29.799  28.543  22.720  1.00  0.00     0.089 C 
ATOM     27  C   UNL A   1      28.372  29.066  22.923  1.00  0.00     0.025 C 
ATOM     28  C   UNL A   1      30.557  29.713  22.082  1.00  0.00     0.025 C 
ATOM     29  C   UNL A   1      28.142  29.987  21.736  1.00  0.00     0.002 C 
ATOM     30  C   UNL A   1      29.507  30.559  21.368  1.00  0.00     0.002 C 
ENDBRANCH  20  26
ENDBRANCH  13  16
ENDBRANCH   8  13
ENDBRANCH   4   7
ENDBRANCH   2   3
ENDBRANCH   1   2
BRANCH   1  31
ATOM     31  C   UNL A   1      40.393  23.071  27.453  1.00  0.00     0.118 C 
BRANCH  31  32
ATOM     32  N   UNL A   1      41.393  23.227  26.416  1.00  0.00    -0.352 N 
ATOM     33  C   UNL A   1      42.274  24.213  26.068  1.00  0.00     0.251 C 
ATOM     34  H   UNL A   1      41.450  22.442  25.826  1.00  0.00     0.163 HD
ATOM     35  O   UNL A   1      43.027  23.942  25.129  1.00  0.00    -0.269 OA
BRANCH  33  36
ATOM     36  C   UNL A   1      42.346  25.564  26.693  1.00  0.00     0.039 A 
ATOM     37  C   UNL A   1      43.001  25.872  27.886  1.00  0.00     0.014 A 
ATOM     38  C   UNL A   1      41.657  26.593  26.028  1.00  0.00     0.014 A 
ATOM     39  C   UNL A   1      42.878  27.133  28.461  1.00  0.00     0.010 A 
ATOM     40  C   UNL A   1      41.567  27.870  26.575  1.00  0.00     0.010 A 
ATOM     41  C   UNL A   1      42.136  28.125  27.821  1.00  0.00    -0.014 A 
BRANCH  41  42
ATOM     42  C   UNL A   1      41.999  29.412  28.496  1.00  0.00     0.031 A 
ATOM     43  C   UNL A   1      43.031  30.452  28.215  1.00  0.00     0.074 A 
ATOM     44  C   UNL A   1      40.943  29.723  29.270  1.00  0.00     0.049 A 
ATOM     45  N   UNL A   1      43.835  31.025  29.056  1.00  0.00    -0.248 NA
ATOM     46  C   UNL A   1      43.209  30.879  26.823  1.00  0.00     0.031 C 
ATOM     47  C   UNL A   1      39.703  28.967  29.450  1.00  0.00     0.029 A 
ATOM     48  N   UNL A   1      40.714  30.877  29.960  1.00  0.00    -0.354 N 
ATOM     49  C   UNL A   1      44.511  32.006  28.332  1.00  0.00     0.074 A 
ATOM     50  C   UNL A   1      44.155  31.812  26.947  1.00  0.00     0.031 C 
ATOM     51  C   UNL A   1      38.767  29.786  29.978  1.00  0.00     0.029 A 
ATOM     52  C   UNL A   1      39.380  31.065  30.288  1.00  0.00     0.049 A 
ATOM     53  H   UNL A   1      41.426  31.514  30.200  1.00  0.00     0.167 HD
ATOM     54  C   UNL A   1      45.210  33.018  28.915  1.00  0.00     0.034 A 
ATOM     55  C   UNL A   1      38.814  32.222  30.704  1.00  0.00     0.034 A 
ATOM     56  C   UNL A   1      45.422  32.827  30.319  1.00  0.00     0.049 A 
ATOM     57  C   UNL A   1      39.894  33.064  31.269  1.00  0.00     0.074 A 
ATOM     58  C   UNL A   1      46.083  31.904  31.102  1.00  0.00     0.029 A 
ATOM     59  N   UNL A   1      44.639  33.556  31.180  1.00  0.00    -0.354 N 
ATOM     60  N   UNL A   1      40.540  32.782  32.367  1.00  0.00    -0.248 NA
ATOM     61  C   UNL A   1      40.507  34.084  30.433  1.00  0.00     0.031 C 
ATOM     62  C   UNL A   1      45.321  31.822  32.303  1.00  0.00     0.029 A 
ATOM     63  C   UNL A   1      44.241  32.697  32.169  1.00  0.00     0.049 A 
ATOM     64  H   UNL A   1      44.408  34.510  31.100  1.00  0.00     0.167 HD
ATOM     65  C   UNL A   1      41.822  33.270  32.159  1.00  0.00     0.074 A 
ATOM     66  C   UNL A   1      41.699  34.181  31.027  1.00  0.00     0.031 C 
ATOM     67  C   UNL A   1      42.909  32.675  32.736  1.00  0.00     0.034 A 
BRANCH  54  68
ATOM     68  C   UNL A   1      45.509  34.336  28.260  1.00  0.00     0.023 A 
ATOM     69  C   UNL A   1      46.852  34.667  27.984  1.00  0.00     0.012 A 
ATOM     70  C   UNL A   1      44.544  35.355  28.119  1.00  0.00     0.148 A 
ATOM     71  C   UNL A   1      47.217  35.954  27.574  1.00  0.00     0.002 A 
ATOM     72  C   UNL A   1      44.900  36.612  27.644  1.00  0.00     0.091 A 
ATOM     73  F   UNL A   1      43.294  35.143  28.554  1.00  0.00    -0.205 F 
ATOM     74  C   UNL A   1      46.237  36.924  27.386  1.00  0.00     0.022 A 
BRANCH  72  75
ATOM     75  S   UNL A   1      43.652  37.863  27.329  1.00  0.00     0.127 S 
ATOM     76  O   UNL A   1      44.423  38.881  26.621  1.00  0.00    -0.237 OA
ATOM     77  O   UNL A   1      42.684  37.137  26.505  1.00  0.00    -0.237 OA
ATOM     78  O   UNL A   1      43.152  38.224  28.649  1.00  0.00    -0.744 OA
ENDBRANCH  72  75
ENDBRANCH  54  68
BRANCH  55  79
ATOM     79  C   UNL A   1      37.436  32.722  30.491  1.00  0.00     0.023 A 
ATOM     80  C   UNL A   1      36.744  32.360  29.319  1.00  0.00     0.012 A 
ATOM     81  C   UNL A   1      36.701  33.351  31.523  1.00  0.00     0.148 A 
ATOM     82  C   UNL A   1      35.368  32.588  29.189  1.00  0.00     0.002 A 
ATOM     83  C   UNL A   1      35.338  33.600  31.378  1.00  0.00     0.091 A 
ATOM     84  F   UNL A   1      37.302  33.616  32.690  1.00  0.00    -0.205 F 
ATOM     85  C   UNL A   1      34.664  33.207  30.218  1.00  0.00     0.022 A 
BRANCH  83  86
ATOM     86  S   UNL A   1      34.400  34.415  32.677  1.00  0.00     0.127 S 
ATOM     87  O   UNL A   1      34.413  33.421  33.750  1.00  0.00    -0.237 OA
ATOM     88  O   UNL A   1      35.204  35.606  32.938  1.00  0.00    -0.237 OA
ATOM     89  O   UNL A   1      33.078  34.646  32.103  1.00  0.00    -0.744 OA
ENDBRANCH  83  86
ENDBRANCH  55  79
BRANCH  67  90
ATOM     90  C   UNL A   1      42.663  31.631  33.798  1.00  0.00     0.023 A 
ATOM     91  C   UNL A   1      42.481  32.001  35.147  1.00  0.00     0.012 A 
ATOM     92  C   UNL A   1      42.409  30.302  33.417  1.00  0.00     0.148 A 
ATOM     93  C   UNL A   1      42.077  31.066  36.100  1.00  0.00     0.002 A 
ATOM     94  C   UNL A   1      41.969  29.381  34.363  1.00  0.00     0.091 A 
ATOM     95  F   UNL A   1      42.564  29.970  32.126  1.00  0.00    -0.205 F 
ATOM     96  C   UNL A   1      41.809  29.758  35.707  1.00  0.00     0.022 A 
BRANCH  94  97
ATOM     97  S   UNL A   1      41.485  27.711  33.914  1.00  0.00     0.127 S 
ATOM     98  O   UNL A   1      41.156  27.126  35.213  1.00  0.00    -0.237 OA
ATOM     99  O   UNL A   1      40.336  27.942  33.037  1.00  0.00    -0.237 OA
ATOM    100  O   UNL A   1      42.638  27.125  33.241  1.00  0.00    -0.744 OA
ENDBRANCH  94  97
ENDBRANCH  67  90
ENDBRANCH  41  42
ENDBRANCH  33  36
ENDBRANCH  31  32
ENDBRANCH   1  31
TORSDOF 16
ENDMDL
MODEL 2
REMARK VINA RESULT:     -12.4      4.863     11.813
REMARK SMILES Cc1nc2cc(S(=O)(=O)N3CCC(C(=O)NCCCNC(=O)c4ccc(-c5c6nc(c(-c7cccc(S(=O)(=O)[O-])c7F)c7ccc([nH]7)c(-c7cccc(S(=O)(=O)[O-])c7F)c7nc(c(-c8cccc(S(=O)(=O)[O-])c8F)c8ccc5[nH]8)C=C7)C=C6)cc4)CC3)ccc2n1C1CCCC1
REMARK SMILES IDX 18 1 17 2 16 3 14 4 15 5 13 7 10 8 11 9 87 10 12 11 86 12
REMARK SMILES IDX 7 13 8 14 9 15 6 16 1 17 2 18 3 19 91 20 4 21 90 22 5 23
REMARK SMILES IDX 89 24 88 25 92 26 93 27 96 28 94 29 95 30 19 31 20 32 21 33
REMARK SMILES IDX 22 35 23 36 24 37 85 38 25 39 84 40 26 41 27 42 28 43 78 44
REMARK SMILES IDX 29 45 83 46 77 47 79 48 30 49 82 50 76 51 75 52 31 54 63 55
REMARK SMILES IDX 43 56 62 57 44 58 47 59 61 60 80 61 45 62 46 63 60 65 81 66
REMARK SMILES IDX 48 67 32 68 33 69 41 70 34 71 36 72 42 73 35 74 37 75 38 76
REMARK SMILES IDX 39 77 40 78 64 79 65 80 73 81 66 82 68 83 74 84 67 85 69 86
REMARK SMILES IDX 70 87 71 88 72 89 49 90 50 91 58 92 51 93 53 94 59 95 52 96
REMARK SMILES IDX 54 97 55 98 56 99 57 100
REMARK H PARENT 16 6 20 34 79 53 47 64
REMARK Flexibility Score: inf
ROOT
ATOM      1  C   UNL A   1      34.046  35.721  28.379  1.00  0.00     0.042 C 
ENDROOT
BRANCH   1   2
ATOM      2  C   UNL A   1      33.953  36.596  29.622  1.00  0.00     0.117 C 
BRANCH   2   3
ATOM      3  N   UNL A   1      32.973  36.102  30.578  1.00  0.00    -0.356 N 
ATOM      4  C   UNL A   1      33.091  35.262  31.639  1.00  0.00     0.223 C 
ATOM      5  O   UNL A   1      32.073  34.997  32.285  1.00  0.00    -0.275 OA
ATOM      6  H   UNL A   1      32.059  36.438  30.429  1.00  0.00     0.163 HD
BRANCH   4   7
ATOM      7  C   UNL A   1      34.428  34.668  32.046  1.00  0.00     0.081 C 
ATOM      8  N   UNL A   1      36.156  33.019  33.665  1.00  0.00    -0.198 NA
ATOM      9  C   UNL A   1      36.129  34.478  33.912  1.00  0.00     0.103 C 
ATOM     10  C   UNL A   1      35.697  32.490  32.362  1.00  0.00     0.103 C 
ATOM     11  C   UNL A   1      34.845  35.123  33.438  1.00  0.00     0.030 C 
ATOM     12  C   UNL A   1      34.434  33.155  31.857  1.00  0.00     0.030 C 
BRANCH   8  13
ATOM     13  S   UNL A   1      37.501  32.194  34.353  1.00  0.00     0.243 S 
ATOM     14  O   UNL A   1      37.550  30.874  33.747  1.00  0.00    -0.207 OA
ATOM     15  O   UNL A   1      37.454  32.388  35.779  1.00  0.00    -0.207 OA
BRANCH  13  16
ATOM     16  C   UNL A   1      38.960  33.047  33.780  1.00  0.00     0.085 A 
ATOM     17  C   UNL A   1      42.831  34.755  29.559  1.00  0.00     0.088 C 
ATOM     18  C   UNL A   1      41.960  34.464  30.726  1.00  0.00     0.106 A 
ATOM     19  N   UNL A   1      40.863  33.735  30.654  1.00  0.00    -0.233 NA
ATOM     20  N   UNL A   1      42.170  34.910  32.015  1.00  0.00    -0.325 N 
ATOM     21  C   UNL A   1      40.371  33.654  31.926  1.00  0.00     0.090 A 
ATOM     22  C   UNL A   1      41.182  34.360  32.807  1.00  0.00     0.068 A 
ATOM     23  C   UNL A   1      39.236  32.983  32.406  1.00  0.00     0.052 A 
ATOM     24  C   UNL A   1      40.929  34.416  34.176  1.00  0.00     0.030 A 
ATOM     25  C   UNL A   1      39.802  33.753  34.642  1.00  0.00     0.024 A 
BRANCH  20  26
ATOM     26  C   UNL A   1      43.234  35.778  32.484  1.00  0.00     0.089 C 
ATOM     27  C   UNL A   1      44.579  35.082  32.718  1.00  0.00     0.025 C 
ATOM     28  C   UNL A   1      43.553  36.938  31.533  1.00  0.00     0.025 C 
ATOM     29  C   UNL A   1      45.593  36.215  32.694  1.00  0.00     0.002 C 
ATOM     30  C   UNL A   1      45.024  37.277  31.758  1.00  0.00     0.002 C 
ENDBRANCH  20  26
ENDBRANCH  13  16
ENDBRANCH   8  13
ENDBRANCH   4   7
ENDBRANCH   2   3
ENDBRANCH   1   2
BRANCH   1  31
ATOM     31  C   UNL A   1      34.885  34.461  28.569  1.00  0.00     0.118 C 
BRANCH  31  32
ATOM     32  N   UNL A   1      34.200  33.233  28.219  1.00  0.00    -0.352 N 
ATOM     33  C   UNL A   1      34.519  31.904  28.269  1.00  0.00     0.251 C 
ATOM     34  H   UNL A   1      33.296  33.393  27.864  1.00  0.00     0.163 HD
ATOM     35  O   UNL A   1      33.621  31.131  27.926  1.00  0.00    -0.269 OA
BRANCH  33  36
ATOM     36  C   UNL A   1      35.850  31.352  28.646  1.00  0.00     0.039 A 
ATOM     37  C   UNL A   1      37.014  32.097  28.838  1.00  0.00     0.014 A 
ATOM     38  C   UNL A   1      35.928  29.954  28.778  1.00  0.00     0.014 A 
ATOM     39  C   UNL A   1      38.239  31.468  29.039  1.00  0.00     0.010 A 
ATOM     40  C   UNL A   1      37.142  29.319  29.023  1.00  0.00     0.010 A 
ATOM     41  C   UNL A   1      38.309  30.077  29.102  1.00  0.00    -0.014 A 
BRANCH  41  42
ATOM     42  C   UNL A   1      39.627  29.471  29.262  1.00  0.00     0.031 A 
ATOM     43  C   UNL A   1      40.151  29.315  30.649  1.00  0.00     0.074 A 
ATOM     44  C   UNL A   1      40.331  28.967  28.230  1.00  0.00     0.049 A 
ATOM     45  N   UNL A   1      41.230  29.825  31.157  1.00  0.00    -0.248 NA
ATOM     46  C   UNL A   1      39.357  28.521  31.594  1.00  0.00     0.031 C 
ATOM     47  C   UNL A   1      39.890  28.767  26.850  1.00  0.00     0.029 A 
ATOM     48  N   UNL A   1      41.569  28.397  28.255  1.00  0.00    -0.354 N 
ATOM     49  C   UNL A   1      41.344  29.286  32.437  1.00  0.00     0.074 A 
ATOM     50  C   UNL A   1      40.119  28.564  32.688  1.00  0.00     0.031 C 
ATOM     51  C   UNL A   1      40.732  27.901  26.246  1.00  0.00     0.029 A 
ATOM     52  C   UNL A   1      41.827  27.599  27.150  1.00  0.00     0.049 A 
ATOM     53  H   UNL A   1      42.216  28.536  28.984  1.00  0.00     0.167 HD
ATOM     54  C   UNL A   1      42.490  29.332  33.170  1.00  0.00     0.034 A 
ATOM     55  C   UNL A   1      42.826  26.694  27.033  1.00  0.00     0.034 A 
ATOM     56  C   UNL A   1      43.475  30.221  32.629  1.00  0.00     0.049 A 
ATOM     57  C   UNL A   1      43.884  27.077  27.996  1.00  0.00     0.074 A 
ATOM     58  C   UNL A   1      43.558  31.577  32.392  1.00  0.00     0.029 A 
ATOM     59  N   UNL A   1      44.531  29.657  31.956  1.00  0.00    -0.354 N 
ATOM     60  N   UNL A   1      44.612  28.154  27.889  1.00  0.00    -0.248 NA
ATOM     61  C   UNL A   1      43.930  26.422  29.294  1.00  0.00     0.031 C 
ATOM     62  C   UNL A   1      44.371  31.701  31.227  1.00  0.00     0.029 A 
ATOM     63  C   UNL A   1      44.724  30.409  30.829  1.00  0.00     0.049 A 
ATOM     64  H   UNL A   1      45.048  28.866  32.231  1.00  0.00     0.167 HD
ATOM     65  C   UNL A   1      44.868  28.540  29.197  1.00  0.00     0.074 A 
ATOM     66  C   UNL A   1      44.552  27.366  30.004  1.00  0.00     0.031 C 
ATOM     67  C   UNL A   1      45.034  29.855  29.528  1.00  0.00     0.034 A 
BRANCH  54  68
ATOM     68  C   UNL A   1      42.836  28.374  34.274  1.00  0.00     0.023 A 
ATOM     69  C   UNL A   1      42.872  28.853  35.600  1.00  0.00     0.012 A 
ATOM     70  C   UNL A   1      43.351  27.083  34.032  1.00  0.00     0.148 A 
ATOM     71  C   UNL A   1      43.388  28.075  36.643  1.00  0.00     0.002 A 
ATOM     72  C   UNL A   1      43.798  26.287  35.081  1.00  0.00     0.091 A 
ATOM     73  F   UNL A   1      43.516  26.666  32.769  1.00  0.00    -0.205 F 
ATOM     74  C   UNL A   1      43.836  26.783  36.386  1.00  0.00     0.022 A 
BRANCH  72  75
ATOM     75  S   UNL A   1      44.320  24.594  34.791  1.00  0.00     0.127 S 
ATOM     76  O   UNL A   1      43.430  24.190  33.708  1.00  0.00    -0.237 OA
ATOM     77  O   UNL A   1      45.723  24.762  34.410  1.00  0.00    -0.237 OA
ATOM     78  O   UNL A   1      44.131  23.928  36.074  1.00  0.00    -0.744 OA
ENDBRANCH  72  75
ENDBRANCH  54  68
BRANCH  55  79
ATOM     79  C   UNL A   1      42.857  25.423  26.271  1.00  0.00     0.023 A 
ATOM     80  C   UNL A   1      43.857  25.227  25.298  1.00  0.00     0.012 A 
ATOM     81  C   UNL A   1      42.075  24.306  26.646  1.00  0.00     0.148 A 
ATOM     82  C   UNL A   1      44.089  23.963  24.740  1.00  0.00     0.002 A 
ATOM     83  C   UNL A   1      42.290  23.058  26.068  1.00  0.00     0.091 A 
ATOM     84  F   UNL A   1      41.185  24.431  27.640  1.00  0.00    -0.205 F 
ATOM     85  C   UNL A   1      43.306  22.878  25.125  1.00  0.00     0.022 A 
BRANCH  83  86
ATOM     86  S   UNL A   1      41.288  21.636  26.525  1.00  0.00     0.127 S 
ATOM     87  O   UNL A   1      41.554  21.508  27.958  1.00  0.00    -0.237 OA
ATOM     88  O   UNL A   1      39.940  22.090  26.192  1.00  0.00    -0.237 OA
ATOM     89  O   UNL A   1      41.809  20.531  25.727  1.00  0.00    -0.744 OA
ENDBRANCH  83  86
ENDBRANCH  55  79
BRANCH  67  90
ATOM     90  C   UNL A   1      45.180  30.854  28.406  1.00  0.00     0.023 A 
ATOM     91  C   UNL A   1      44.046  31.460  27.825  1.00  0.00     0.012 A 
ATOM     92  C   UNL A   1      46.456  31.340  28.072  1.00  0.00     0.148 A 
ATOM     93  C   UNL A   1      44.178  32.511  26.917  1.00  0.00     0.002 A 
ATOM     94  C   UNL A   1      46.582  32.414  27.196  1.00  0.00     0.091 A 
ATOM     95  F   UNL A   1      47.524  30.769  28.650  1.00  0.00    -0.205 F 
ATOM     96  C   UNL A   1      45.446  32.997  26.612  1.00  0.00     0.022 A 
BRANCH  94  97
ATOM     97  S   UNL A   1      48.171  33.177  26.847  1.00  0.00     0.127 S 
ATOM     98  O   UNL A   1      48.977  32.031  26.431  1.00  0.00    -0.237 OA
ATOM     99  O   UNL A   1      47.839  34.116  25.775  1.00  0.00    -0.237 OA
ATOM    100  O   UNL A   1      48.592  33.817  28.088  1.00  0.00    -0.744 OA
ENDBRANCH  94  97
ENDBRANCH  67  90
ENDBRANCH  41  42
ENDBRANCH  33  36
ENDBRANCH  31  32
ENDBRANCH   1  31
TORSDOF 16
ENDMDL
MODEL 3
REMARK VINA RESULT:     -12.2      2.862      9.218
REMARK SMILES Cc1nc2cc(S(=O)(=O)N3CCC(C(=O)NCCCNC(=O)c4ccc(-c5c6nc(c(-c7cccc(S(=O)(=O)[O-])c7F)c7ccc([nH]7)c(-c7cccc(S(=O)(=O)[O-])c7F)c7nc(c(-c8cccc(S(=O)(=O)[O-])c8F)c8ccc5[nH]8)C=C7)C=C6)cc4)CC3)ccc2n1C1CCCC1
REMARK SMILES IDX 18 1 17 2 16 3 14 4 15 5 13 7 10 8 11 9 87 10 12 11 86 12
REMARK SMILES IDX 7 13 8 14 9 15 6 16 1 17 2 18 3 19 91 20 4 21 90 22 5 23
REMARK SMILES IDX 89 24 88 25 92 26 93 27 96 28 94 29 95 30 19 31 20 32 21 33
REMARK SMILES IDX 22 35 23 36 24 37 85 38 25 39 84 40 26 41 27 42 28 43 78 44
REMARK SMILES IDX 29 45 83 46 77 47 79 48 30 49 82 50 76 51 75 52 31 54 63 55
REMARK SMILES IDX 43 56 62 57 44 58 47 59 61 60 80 61 45 62 46 63 60 65 81 66
REMARK SMILES IDX 48 67 32 68 33 69 41 70 34 71 36 72 42 73 35 74 37 75 38 76
REMARK SMILES IDX 39 77 40 78 64 79 65 80 73 81 66 82 68 83 74 84 67 85 69 86
REMARK SMILES IDX 70 87 71 88 72 89 49 90 50 91 58 92 51 93 53 94 59 95 52 96
REMARK SMILES IDX 54 97 55 98 56 99 57 100
REMARK H PARENT 16 6 20 34 79 53 47 64
REMARK Flexibility Score: inf
ROOT
ATOM      1  C   UNL A   1      32.888  29.416  24.778  1.00  0.00     0.042 C 
ENDROOT
BRANCH   1   2
ATOM      2  C   UNL A   1      31.431  29.859  24.815  1.00  0.00     0.117 C 
BRANCH   2   3
ATOM      3  N   UNL A   1      30.638  29.252  23.755  1.00  0.00    -0.356 N 
ATOM      4  C   UNL A   1      30.428  27.954  23.417  1.00  0.00     0.223 C 
ATOM      5  O   UNL A   1      29.704  27.718  22.445  1.00  0.00    -0.275 OA
ATOM      6  H   UNL A   1      30.170  29.901  23.181  1.00  0.00     0.163 HD
BRANCH   4   7
ATOM      7  C   UNL A   1      31.041  26.810  24.207  1.00  0.00     0.081 C 
ATOM      8  N   UNL A   1      31.071  24.159  25.345  1.00  0.00    -0.198 NA
ATOM      9  C   UNL A   1      30.771  25.309  26.227  1.00  0.00     0.103 C 
ATOM     10  C   UNL A   1      31.783  24.385  24.067  1.00  0.00     0.103 C 
ATOM     11  C   UNL A   1      30.240  26.503  25.464  1.00  0.00     0.030 C 
ATOM     12  C   UNL A   1      31.287  25.601  23.312  1.00  0.00     0.030 C 
BRANCH   8  13
ATOM     13  S   UNL A   1      31.493  22.707  26.167  1.00  0.00     0.243 S 
ATOM     14  O   UNL A   1      30.950  21.603  25.395  1.00  0.00    -0.207 OA
ATOM     15  O   UNL A   1      31.200  22.892  27.564  1.00  0.00    -0.207 OA
BRANCH  13  16
ATOM     16  C   UNL A   1      33.268  22.559  26.045  1.00  0.00     0.085 A 
ATOM     17  C   UNL A   1      38.297  19.623  24.702  1.00  0.00     0.088 C 
ATOM     18  C   UNL A   1      37.163  20.515  25.052  1.00  0.00     0.106 A 
ATOM     19  N   UNL A   1      35.897  20.162  24.944  1.00  0.00    -0.233 NA
ATOM     20  N   UNL A   1      37.275  21.807  25.524  1.00  0.00    -0.325 N 
ATOM     21  C   UNL A   1      35.163  21.219  25.403  1.00  0.00     0.090 A 
ATOM     22  C   UNL A   1      35.999  22.257  25.796  1.00  0.00     0.068 A 
ATOM     23  C   UNL A   1      33.772  21.359  25.521  1.00  0.00     0.052 A 
ATOM     24  C   UNL A   1      35.512  23.447  26.335  1.00  0.00     0.030 A 
ATOM     25  C   UNL A   1      34.135  23.578  26.445  1.00  0.00     0.024 A 
BRANCH  20  26
ATOM     26  C   UNL A   1      38.493  22.569  25.725  1.00  0.00     0.089 C 
ATOM     27  C   UNL A   1      38.283  24.007  26.212  1.00  0.00     0.025 C 
ATOM     28  C   UNL A   1      39.453  21.946  26.746  1.00  0.00     0.025 C 
ATOM     29  C   UNL A   1      39.624  24.395  26.815  1.00  0.00     0.002 C 
ATOM     30  C   UNL A   1      40.241  23.106  27.348  1.00  0.00     0.002 C 
ENDBRANCH  20  26
ENDBRANCH  13  16
ENDBRANCH   8  13
ENDBRANCH   4   7
ENDBRANCH   2   3
ENDBRANCH   1   2
BRANCH   1  31
ATOM     31  C   UNL A   1      33.516  29.236  26.157  1.00  0.00     0.118 C 
BRANCH  31  32
ATOM     32  N   UNL A   1      33.380  30.387  27.026  1.00  0.00    -0.352 N 
ATOM     33  C   UNL A   1      34.237  31.106  27.814  1.00  0.00     0.251 C 
ATOM     34  H   UNL A   1      32.459  30.731  27.057  1.00  0.00     0.163 HD
ATOM     35  O   UNL A   1      33.742  32.087  28.375  1.00  0.00    -0.269 OA
BRANCH  33  36
ATOM     36  C   UNL A   1      35.664  30.764  28.069  1.00  0.00     0.039 A 
ATOM     37  C   UNL A   1      36.211  29.480  28.032  1.00  0.00     0.014 A 
ATOM     38  C   UNL A   1      36.507  31.835  28.414  1.00  0.00     0.014 A 
ATOM     39  C   UNL A   1      37.522  29.252  28.437  1.00  0.00     0.010 A 
ATOM     40  C   UNL A   1      37.834  31.620  28.777  1.00  0.00     0.010 A 
ATOM     41  C   UNL A   1      38.326  30.318  28.838  1.00  0.00    -0.014 A 
BRANCH  41  42
ATOM     42  C   UNL A   1      39.677  30.012  29.301  1.00  0.00     0.031 A 
ATOM     43  C   UNL A   1      40.053  30.458  30.673  1.00  0.00     0.074 A 
ATOM     44  C   UNL A   1      40.545  29.272  28.586  1.00  0.00     0.049 A 
ATOM     45  N   UNL A   1      41.004  31.270  31.016  1.00  0.00    -0.248 NA
ATOM     46  C   UNL A   1      39.249  29.962  31.797  1.00  0.00     0.031 C 
ATOM     47  C   UNL A   1      40.289  28.515  27.361  1.00  0.00     0.029 A 
ATOM     48  N   UNL A   1      41.828  28.938  28.905  1.00  0.00    -0.354 N 
ATOM     49  C   UNL A   1      41.029  31.264  32.410  1.00  0.00     0.074 A 
ATOM     50  C   UNL A   1      39.872  30.515  32.838  1.00  0.00     0.031 C 
ATOM     51  C   UNL A   1      41.285  27.620  27.187  1.00  0.00     0.029 A 
ATOM     52  C   UNL A   1      42.297  27.835  28.206  1.00  0.00     0.049 A 
ATOM     53  H   UNL A   1      42.367  29.429  29.565  1.00  0.00     0.167 HD
ATOM     54  C   UNL A   1      42.072  31.744  33.142  1.00  0.00     0.034 A 
ATOM     55  C   UNL A   1      43.396  27.107  28.507  1.00  0.00     0.034 A 
ATOM     56  C   UNL A   1      43.008  32.504  32.367  1.00  0.00     0.049 A 
ATOM     57  C   UNL A   1      44.289  27.968  29.317  1.00  0.00     0.074 A 
ATOM     58  C   UNL A   1      42.967  33.673  31.637  1.00  0.00     0.029 A 
ATOM     59  N   UNL A   1      44.190  31.892  32.029  1.00  0.00    -0.354 N 
ATOM     60  N   UNL A   1      44.901  29.023  28.854  1.00  0.00    -0.248 NA
ATOM     61  C   UNL A   1      44.259  27.853  30.767  1.00  0.00     0.031 C 
ATOM     62  C   UNL A   1      43.888  33.476  30.567  1.00  0.00     0.029 A 
ATOM     63  C   UNL A   1      44.425  32.194  30.714  1.00  0.00     0.049 A 
ATOM     64  H   UNL A   1      44.757  31.342  32.617  1.00  0.00     0.167 HD
ATOM     65  C   UNL A   1      44.961  29.898  29.931  1.00  0.00     0.074 A 
ATOM     66  C   UNL A   1      44.688  29.072  31.101  1.00  0.00     0.031 C 
ATOM     67  C   UNL A   1      44.941  31.251  29.745  1.00  0.00     0.034 A 
BRANCH  54  68
ATOM     68  C   UNL A   1      42.394  31.322  34.546  1.00  0.00     0.023 A 
ATOM     69  C   UNL A   1      42.531  32.316  35.538  1.00  0.00     0.012 A 
ATOM     70  C   UNL A   1      42.793  30.011  34.878  1.00  0.00     0.148 A 
ATOM     71  C   UNL A   1      43.034  32.015  36.809  1.00  0.00     0.002 A 
ATOM     72  C   UNL A   1      43.226  29.702  36.163  1.00  0.00     0.091 A 
ATOM     73  F   UNL A   1      42.864  29.081  33.916  1.00  0.00    -0.205 F 
ATOM     74  C   UNL A   1      43.366  30.702  37.128  1.00  0.00     0.022 A 
BRANCH  72  75
ATOM     75  S   UNL A   1      43.599  28.008  36.625  1.00  0.00     0.127 S 
ATOM     76  O   UNL A   1      44.411  27.564  35.498  1.00  0.00    -0.237 OA
ATOM     77  O   UNL A   1      44.327  28.181  37.883  1.00  0.00    -0.237 OA
ATOM     78  O   UNL A   1      42.295  27.374  36.779  1.00  0.00    -0.744 OA
ENDBRANCH  72  75
ENDBRANCH  54  68
BRANCH  55  79
ATOM     79  C   UNL A   1      43.655  25.664  28.290  1.00  0.00     0.023 A 
ATOM     80  C   UNL A   1      43.426  24.757  29.344  1.00  0.00     0.012 A 
ATOM     81  C   UNL A   1      43.894  25.131  27.002  1.00  0.00     0.148 A 
ATOM     82  C   UNL A   1      43.406  23.374  29.119  1.00  0.00     0.002 A 
ATOM     83  C   UNL A   1      43.901  23.755  26.789  1.00  0.00     0.091 A 
ATOM     84  F   UNL A   1      44.014  25.963  25.959  1.00  0.00    -0.205 F 
ATOM     85  C   UNL A   1      43.643  22.873  27.843  1.00  0.00     0.022 A 
BRANCH  83  86
ATOM     86  S   UNL A   1      44.222  23.069  25.158  1.00  0.00     0.127 S 
ATOM     87  O   UNL A   1      45.013  21.877  25.466  1.00  0.00    -0.237 OA
ATOM     88  O   UNL A   1      42.874  22.797  24.668  1.00  0.00    -0.237 OA
ATOM     89  O   UNL A   1      44.967  24.105  24.450  1.00  0.00    -0.744 OA
ENDBRANCH  83  86
ENDBRANCH  55  79
BRANCH  67  90
ATOM     90  C   UNL A   1      45.103  31.776  28.339  1.00  0.00     0.023 A 
ATOM     91  C   UNL A   1      44.004  31.826  27.455  1.00  0.00     0.012 A 
ATOM     92  C   UNL A   1      46.303  32.408  27.969  1.00  0.00     0.148 A 
ATOM     93  C   UNL A   1      44.102  32.471  26.223  1.00  0.00     0.002 A 
ATOM     94  C   UNL A   1      46.384  33.084  26.755  1.00  0.00     0.091 A 
ATOM     95  F   UNL A   1      47.331  32.372  28.829  1.00  0.00    -0.205 F 
ATOM     96  C   UNL A   1      45.289  33.111  25.877  1.00  0.00     0.022 A 
BRANCH  94  97
ATOM     97  S   UNL A   1      47.835  34.037  26.291  1.00  0.00     0.127 S 
ATOM     98  O   UNL A   1      48.879  33.014  26.264  1.00  0.00    -0.237 OA
ATOM     99  O   UNL A   1      47.458  34.563  24.979  1.00  0.00    -0.237 OA
ATOM    100  O   UNL A   1      47.991  35.059  27.320  1.00  0.00    -0.744 OA
ENDBRANCH  94  97
ENDBRANCH  67  90
ENDBRANCH  41  42
ENDBRANCH  33  36
ENDBRANCH  31  32
ENDBRANCH   1  31
TORSDOF 16
ENDMDL
