MODEL 1
REMARK VINA RESULT:     -11.1      0.000      0.000
REMARK SMILES CCC(CC)(NC(=O)N(C)C1CC[NH2+]CC1)C(=O)NCCCNC(=O)c1ccc(-c2c3nc(c(-c4cccc(S(=O)(=O)[O-])c4F)c4ccc([nH]4)c(-c4cccc(S(=O)(=O)[O-])c4F)c4nc(c(-c5cccc(S(=O)(=O)[O-])c5F)c5ccc2[nH]5)C=C4)C=C3)cc1
REMARK SMILES IDX 21 1 20 2 19 3 17 4 18 5 3 7 2 8 1 9 4 10 5 11 6 12 7 13
REMARK SMILES IDX 8 15 9 16 10 17 11 18 12 19 16 20 13 21 15 22 14 23 22 26
REMARK SMILES IDX 23 27 24 28 25 30 26 31 27 32 88 33 28 34 87 35 29 36 30 37
REMARK SMILES IDX 31 38 81 39 32 40 86 41 80 42 82 43 33 44 85 45 79 46 78 47
REMARK SMILES IDX 34 49 66 50 46 51 65 52 47 53 50 54 64 55 83 56 48 57 49 58
REMARK SMILES IDX 63 60 84 61 51 62 35 63 36 64 44 65 37 66 39 67 45 68 38 69
REMARK SMILES IDX 40 70 41 71 42 72 43 73 67 74 68 75 76 76 69 77 71 78 77 79
REMARK SMILES IDX 70 80 72 81 73 82 74 83 75 84 52 85 53 86 61 87 54 88 56 89
REMARK SMILES IDX 62 90 55 91 57 92 58 93 59 94 60 95
REMARK H PARENT 19 6 6 14 14 24 14 25 23 29 82 48 50 59
REMARK Flexibility Score: inf
ROOT
ATOM      1  C   UNL A   1      37.190  19.808  24.881  1.00  0.00     0.042 C 
ENDROOT
BRANCH   1   2
ATOM      2  C   UNL A   1      35.944  20.675  24.933  1.00  0.00     0.117 C 
BRANCH   2   3
ATOM      3  N   UNL A   1      34.695  19.965  25.188  1.00  0.00    -0.354 N 
ATOM      4  C   UNL A   1      33.400  20.376  25.374  1.00  0.00     0.245 C 
ATOM      5  O   UNL A   1      32.552  19.476  25.337  1.00  0.00    -0.272 OA
ATOM      6  H   UNL A   1      34.804  18.987  25.237  1.00  0.00     0.163 HD
BRANCH   4   7
ATOM      7  C   UNL A   1      32.989  21.882  25.501  1.00  0.00     0.120 C 
BRANCH   7   8
ATOM      8  C   UNL A   1      33.390  22.591  26.836  1.00  0.00     0.035 C 
ATOM      9  C   UNL A   1      34.738  23.310  26.873  1.00  0.00     0.007 C 
ENDBRANCH   7   8
BRANCH   7  10
ATOM     10  C   UNL A   1      31.413  21.879  25.415  1.00  0.00     0.035 C 
ATOM     11  C   UNL A   1      30.657  22.786  26.382  1.00  0.00     0.007 C 
ENDBRANCH   7  10
BRANCH   7  12
ATOM     12  N   UNL A   1      33.574  22.648  24.366  1.00  0.00    -0.323 N 
ATOM     13  C   UNL A   1      33.298  23.685  23.551  1.00  0.00     0.318 C 
ATOM     14  H   UNL A   1      34.454  22.273  24.134  1.00  0.00     0.166 HD
ATOM     15  O   UNL A   1      34.055  23.715  22.579  1.00  0.00    -0.249 OA
BRANCH  13  16
ATOM     16  N   UNL A   1      32.368  24.662  23.771  1.00  0.00    -0.324 N 
ATOM     17  C   UNL A   1      31.083  24.798  23.104  1.00  0.00     0.149 C 
BRANCH  16  18
ATOM     18  C   UNL A   1      32.539  25.638  24.909  1.00  0.00     0.097 C 
ATOM     19  C   UNL A   1      31.368  26.566  25.263  1.00  0.00     0.086 C 
ATOM     20  C   UNL A   1      33.867  26.394  24.864  1.00  0.00     0.086 C 
ATOM     21  C   UNL A   1      31.461  27.993  24.710  1.00  0.00     0.262 C 
ATOM     22  C   UNL A   1      33.782  27.729  24.140  1.00  0.00     0.262 C 
ATOM     23  N   UNL A   1      32.804  28.564  24.823  1.00  0.00    -0.346 N 
ATOM     24  H   UNL A   1      33.056  28.634  25.809  1.00  0.00     0.346 HD
ATOM     25  H   UNL A   1      32.803  29.486  24.388  1.00  0.00     0.346 HD
ENDBRANCH  16  18
ENDBRANCH  13  16
ENDBRANCH   7  12
ENDBRANCH   4   7
ENDBRANCH   2   3
ENDBRANCH   1   2
BRANCH   1  26
ATOM     26  C   UNL A   1      38.438  20.369  25.544  1.00  0.00     0.118 C 
BRANCH  26  27
ATOM     27  N   UNL A   1      39.498  19.411  25.763  1.00  0.00    -0.352 N 
ATOM     28  C   UNL A   1      40.791  19.625  26.197  1.00  0.00     0.251 C 
ATOM     29  H   UNL A   1      39.266  18.474  25.574  1.00  0.00     0.163 HD
ATOM     30  O   UNL A   1      41.558  18.668  26.248  1.00  0.00    -0.269 OA
BRANCH  28  31
ATOM     31  C   UNL A   1      41.290  20.984  26.556  1.00  0.00     0.039 A 
ATOM     32  C   UNL A   1      41.736  21.807  25.517  1.00  0.00     0.014 A 
ATOM     33  C   UNL A   1      41.373  21.451  27.873  1.00  0.00     0.014 A 
ATOM     34  C   UNL A   1      42.211  23.097  25.786  1.00  0.00     0.010 A 
ATOM     35  C   UNL A   1      41.781  22.767  28.134  1.00  0.00     0.010 A 
ATOM     36  C   UNL A   1      42.214  23.607  27.095  1.00  0.00    -0.014 A 
BRANCH  36  37
ATOM     37  C   UNL A   1      42.657  25.008  27.362  1.00  0.00     0.031 A 
ATOM     38  C   UNL A   1      41.730  26.013  27.999  1.00  0.00     0.074 A 
ATOM     39  C   UNL A   1      43.900  25.399  27.012  1.00  0.00     0.049 A 
ATOM     40  N   UNL A   1      41.962  27.262  28.322  1.00  0.00    -0.248 NA
ATOM     41  C   UNL A   1      40.363  25.564  28.305  1.00  0.00     0.031 C 
ATOM     42  C   UNL A   1      44.890  24.557  26.338  1.00  0.00     0.029 A 
ATOM     43  N   UNL A   1      44.540  26.608  27.158  1.00  0.00    -0.354 N 
ATOM     44  C   UNL A   1      40.771  27.754  28.842  1.00  0.00     0.074 A 
ATOM     45  C   UNL A   1      39.808  26.676  28.770  1.00  0.00     0.031 C 
ATOM     46  C   UNL A   1      46.010  25.270  26.137  1.00  0.00     0.029 A 
ATOM     47  C   UNL A   1      45.811  26.630  26.631  1.00  0.00     0.049 A 
ATOM     48  H   UNL A   1      44.126  27.384  27.599  1.00  0.00     0.167 HD
ATOM     49  C   UNL A   1      40.502  28.980  29.355  1.00  0.00     0.034 A 
ATOM     50  C   UNL A   1      46.713  27.629  26.539  1.00  0.00     0.034 A 
ATOM     51  C   UNL A   1      41.459  30.052  29.456  1.00  0.00     0.049 A 
ATOM     52  C   UNL A   1      46.388  28.983  27.113  1.00  0.00     0.074 A 
ATOM     53  C   UNL A   1      41.294  31.297  30.039  1.00  0.00     0.029 A 
ATOM     54  N   UNL A   1      42.748  30.021  28.950  1.00  0.00    -0.354 N 
ATOM     55  N   UNL A   1      45.311  29.374  27.749  1.00  0.00    -0.248 NA
ATOM     56  C   UNL A   1      47.417  30.027  26.983  1.00  0.00     0.031 C 
ATOM     57  C   UNL A   1      42.468  32.033  29.851  1.00  0.00     0.029 A 
ATOM     58  C   UNL A   1      43.380  31.231  29.185  1.00  0.00     0.049 A 
ATOM     59  H   UNL A   1      43.155  29.251  28.490  1.00  0.00     0.167 HD
ATOM     60  C   UNL A   1      45.545  30.694  28.122  1.00  0.00     0.074 A 
ATOM     61  C   UNL A   1      46.876  31.029  27.663  1.00  0.00     0.031 C 
ATOM     62  C   UNL A   1      44.723  31.552  28.773  1.00  0.00     0.034 A 
BRANCH  49  63
ATOM     63  C   UNL A   1      39.115  29.231  29.893  1.00  0.00     0.023 A 
ATOM     64  C   UNL A   1      38.786  28.806  31.197  1.00  0.00     0.012 A 
ATOM     65  C   UNL A   1      38.166  29.955  29.143  1.00  0.00     0.148 A 
ATOM     66  C   UNL A   1      37.526  29.067  31.733  1.00  0.00     0.002 A 
ATOM     67  C   UNL A   1      36.928  30.249  29.702  1.00  0.00     0.091 A 
ATOM     68  F   UNL A   1      38.491  30.340  27.901  1.00  0.00    -0.205 F 
ATOM     69  C   UNL A   1      36.602  29.796  30.991  1.00  0.00     0.022 A 
BRANCH  67  70
ATOM     70  S   UNL A   1      35.697  31.254  28.860  1.00  0.00     0.127 S 
ATOM     71  O   UNL A   1      36.533  32.263  28.214  1.00  0.00    -0.237 OA
ATOM     72  O   UNL A   1      35.088  30.289  27.944  1.00  0.00    -0.237 OA
ATOM     73  O   UNL A   1      34.806  31.752  29.899  1.00  0.00    -0.744 OA
ENDBRANCH  67  70
ENDBRANCH  49  63
BRANCH  50  74
ATOM     74  C   UNL A   1      48.039  27.378  25.903  1.00  0.00     0.023 A 
ATOM     75  C   UNL A   1      49.121  26.948  26.696  1.00  0.00     0.012 A 
ATOM     76  C   UNL A   1      48.229  27.554  24.519  1.00  0.00     0.148 A 
ATOM     77  C   UNL A   1      50.377  26.730  26.127  1.00  0.00     0.002 A 
ATOM     78  C   UNL A   1      49.466  27.279  23.949  1.00  0.00     0.091 A 
ATOM     79  F   UNL A   1      47.191  27.979  23.785  1.00  0.00    -0.205 F 
ATOM     80  C   UNL A   1      50.546  26.886  24.753  1.00  0.00     0.022 A 
BRANCH  78  81
ATOM     81  S   UNL A   1      49.740  27.321  22.175  1.00  0.00     0.127 S 
ATOM     82  O   UNL A   1      51.155  26.971  22.082  1.00  0.00    -0.237 OA
ATOM     83  O   UNL A   1      48.816  26.289  21.704  1.00  0.00    -0.237 OA
ATOM     84  O   UNL A   1      49.393  28.674  21.756  1.00  0.00    -0.744 OA
ENDBRANCH  78  81
ENDBRANCH  50  74
BRANCH  62  85
ATOM     85  C   UNL A   1      45.238  32.940  29.068  1.00  0.00     0.023 A 
ATOM     86  C   UNL A   1      45.929  33.193  30.270  1.00  0.00     0.012 A 
ATOM     87  C   UNL A   1      45.106  33.974  28.119  1.00  0.00     0.148 A 
ATOM     88  C   UNL A   1      46.454  34.459  30.535  1.00  0.00     0.002 A 
ATOM     89  C   UNL A   1      45.675  35.219  28.368  1.00  0.00     0.091 A 
ATOM     90  F   UNL A   1      44.433  33.720  26.987  1.00  0.00    -0.205 F 
ATOM     91  C   UNL A   1      46.336  35.466  29.580  1.00  0.00     0.022 A 
BRANCH  89  92
ATOM     92  S   UNL A   1      45.659  36.550  27.162  1.00  0.00     0.127 S 
ATOM     93  O   UNL A   1      44.227  36.811  27.024  1.00  0.00    -0.237 OA
ATOM     94  O   UNL A   1      46.406  37.601  27.852  1.00  0.00    -0.237 OA
ATOM     95  O   UNL A   1      46.311  36.024  25.970  1.00  0.00    -0.744 OA
ENDBRANCH  89  92
ENDBRANCH  62  85
ENDBRANCH  36  37
ENDBRANCH  28  31
ENDBRANCH  26  27
ENDBRANCH   1  26
TORSDOF 18
ENDMDL
MODEL 2
REMARK VINA RESULT:     -11.0      6.111     11.321
REMARK SMILES CCC(CC)(NC(=O)N(C)C1CC[NH2+]CC1)C(=O)NCCCNC(=O)c1ccc(-c2c3nc(c(-c4cccc(S(=O)(=O)[O-])c4F)c4ccc([nH]4)c(-c4cccc(S(=O)(=O)[O-])c4F)c4nc(c(-c5cccc(S(=O)(=O)[O-])c5F)c5ccc2[nH]5)C=C4)C=C3)cc1
REMARK SMILES IDX 21 1 20 2 19 3 17 4 18 5 3 7 2 8 1 9 4 10 5 11 6 12 7 13
REMARK SMILES IDX 8 15 9 16 10 17 11 18 12 19 16 20 13 21 15 22 14 23 22 26
REMARK SMILES IDX 23 27 24 28 25 30 26 31 27 32 88 33 28 34 87 35 29 36 30 37
REMARK SMILES IDX 31 38 81 39 32 40 86 41 80 42 82 43 33 44 85 45 79 46 78 47
REMARK SMILES IDX 34 49 66 50 46 51 65 52 47 53 50 54 64 55 83 56 48 57 49 58
REMARK SMILES IDX 63 60 84 61 51 62 35 63 36 64 44 65 37 66 39 67 45 68 38 69
REMARK SMILES IDX 40 70 41 71 42 72 43 73 67 74 68 75 76 76 69 77 71 78 77 79
REMARK SMILES IDX 70 80 72 81 73 82 74 83 75 84 52 85 53 86 61 87 54 88 56 89
REMARK SMILES IDX 62 90 55 91 57 92 58 93 59 94 60 95
REMARK H PARENT 19 6 6 14 14 24 14 25 23 29 82 48 50 59
REMARK Flexibility Score: inf
ROOT
ATOM      1  C   UNL A   1      31.578  31.343  26.662  1.00  0.00     0.042 C 
ENDROOT
BRANCH   1   2
ATOM      2  C   UNL A   1      31.832  29.966  26.075  1.00  0.00     0.117 C 
BRANCH   2   3
ATOM      3  N   UNL A   1      32.785  29.920  24.971  1.00  0.00    -0.354 N 
ATOM      4  C   UNL A   1      33.071  28.981  24.013  1.00  0.00     0.245 C 
ATOM      5  O   UNL A   1      33.788  29.376  23.086  1.00  0.00    -0.272 OA
ATOM      6  H   UNL A   1      33.339  30.731  24.898  1.00  0.00     0.163 HD
BRANCH   4   7
ATOM      7  C   UNL A   1      32.445  27.545  24.007  1.00  0.00     0.120 C 
BRANCH   7   8
ATOM      8  C   UNL A   1      30.923  27.460  24.359  1.00  0.00     0.035 C 
ATOM      9  C   UNL A   1      29.927  27.899  23.286  1.00  0.00     0.007 C 
ENDBRANCH   7   8
BRANCH   7  10
ATOM     10  C   UNL A   1      33.237  26.754  25.118  1.00  0.00     0.035 C 
ATOM     11  C   UNL A   1      32.419  25.957  26.130  1.00  0.00     0.007 C 
ENDBRANCH   7  10
BRANCH   7  12
ATOM     12  N   UNL A   1      32.655  26.923  22.670  1.00  0.00    -0.323 N 
ATOM     13  C   UNL A   1      32.757  25.715  22.083  1.00  0.00     0.318 C 
ATOM     14  H   UNL A   1      32.752  27.629  21.990  1.00  0.00     0.166 HD
ATOM     15  O   UNL A   1      33.213  25.801  20.941  1.00  0.00    -0.249 OA
BRANCH  13  16
ATOM     16  N   UNL A   1      32.340  24.524  22.605  1.00  0.00    -0.324 N 
ATOM     17  C   UNL A   1      30.995  24.200  23.053  1.00  0.00     0.149 C 
BRANCH  16  18
ATOM     18  C   UNL A   1      33.256  23.325  22.604  1.00  0.00     0.097 C 
ATOM     19  C   UNL A   1      32.687  21.964  23.034  1.00  0.00     0.086 C 
ATOM     20  C   UNL A   1      34.615  23.600  23.248  1.00  0.00     0.086 C 
ATOM     21  C   UNL A   1      32.991  21.544  24.476  1.00  0.00     0.262 C 
ATOM     22  C   UNL A   1      34.667  23.250  24.728  1.00  0.00     0.262 C 
ATOM     23  N   UNL A   1      34.368  21.833  24.878  1.00  0.00    -0.346 N 
ATOM     24  H   UNL A   1      35.007  21.294  24.294  1.00  0.00     0.346 HD
ATOM     25  H   UNL A   1      34.481  21.579  25.860  1.00  0.00     0.346 HD
ENDBRANCH  16  18
ENDBRANCH  13  16
ENDBRANCH   7  12
ENDBRANCH   4   7
ENDBRANCH   2   3
ENDBRANCH   1   2
BRANCH   1  26
ATOM     26  C   UNL A   1      32.801  32.209  26.922  1.00  0.00     0.118 C 
BRANCH  26  27
ATOM     27  N   UNL A   1      32.516  33.546  27.394  1.00  0.00    -0.352 N 
ATOM     28  C   UNL A   1      33.168  34.289  28.356  1.00  0.00     0.251 C 
ATOM     29  H   UNL A   1      31.747  33.988  26.968  1.00  0.00     0.163 HD
ATOM     30  O   UNL A   1      32.714  35.390  28.655  1.00  0.00    -0.269 OA
BRANCH  28  31
ATOM     31  C   UNL A   1      34.372  33.774  29.071  1.00  0.00     0.039 A 
ATOM     32  C   UNL A   1      34.165  33.011  30.225  1.00  0.00     0.014 A 
ATOM     33  C   UNL A   1      35.684  34.055  28.671  1.00  0.00     0.014 A 
ATOM     34  C   UNL A   1      35.252  32.492  30.938  1.00  0.00     0.010 A 
ATOM     35  C   UNL A   1      36.770  33.477  29.346  1.00  0.00     0.010 A 
ATOM     36  C   UNL A   1      36.570  32.693  30.494  1.00  0.00    -0.014 A 
BRANCH  36  37
ATOM     37  C   UNL A   1      37.719  32.078  31.223  1.00  0.00     0.031 A 
ATOM     38  C   UNL A   1      38.505  30.937  30.626  1.00  0.00     0.074 A 
ATOM     39  C   UNL A   1      38.057  32.530  32.449  1.00  0.00     0.049 A 
ATOM     40  N   UNL A   1      39.543  30.304  31.113  1.00  0.00    -0.248 NA
ATOM     41  C   UNL A   1      38.062  30.433  29.316  1.00  0.00     0.031 C 
ATOM     42  C   UNL A   1      37.358  33.588  33.180  1.00  0.00     0.029 A 
ATOM     43  N   UNL A   1      39.062  32.145  33.306  1.00  0.00    -0.354 N 
ATOM     44  C   UNL A   1      39.863  29.316  30.190  1.00  0.00     0.074 A 
ATOM     45  C   UNL A   1      38.891  29.416  29.121  1.00  0.00     0.031 C 
ATOM     46  C   UNL A   1      37.958  33.773  34.368  1.00  0.00     0.029 A 
ATOM     47  C   UNL A   1      39.061  32.825  34.503  1.00  0.00     0.049 A 
ATOM     48  H   UNL A   1      39.722  31.450  33.083  1.00  0.00     0.167 HD
ATOM     49  C   UNL A   1      40.881  28.421  30.211  1.00  0.00     0.034 A 
ATOM     50  C   UNL A   1      39.843  32.696  35.594  1.00  0.00     0.034 A 
ATOM     51  C   UNL A   1      41.868  28.330  31.256  1.00  0.00     0.049 A 
ATOM     52  C   UNL A   1      40.965  31.690  35.594  1.00  0.00     0.074 A 
ATOM     53  C   UNL A   1      42.982  27.509  31.314  1.00  0.00     0.029 A 
ATOM     54  N   UNL A   1      41.856  29.065  32.430  1.00  0.00    -0.354 N 
ATOM     55  N   UNL A   1      41.347  30.880  34.638  1.00  0.00    -0.248 NA
ATOM     56  C   UNL A   1      41.784  31.604  36.814  1.00  0.00     0.031 C 
ATOM     57  C   UNL A   1      43.621  27.717  32.540  1.00  0.00     0.029 A 
ATOM     58  C   UNL A   1      42.928  28.698  33.229  1.00  0.00     0.049 A 
ATOM     59  H   UNL A   1      41.185  29.745  32.663  1.00  0.00     0.167 HD
ATOM     60  C   UNL A   1      42.466  30.213  35.127  1.00  0.00     0.074 A 
ATOM     61  C   UNL A   1      42.716  30.731  36.455  1.00  0.00     0.031 C 
ATOM     62  C   UNL A   1      43.209  29.248  34.532  1.00  0.00     0.034 A 
BRANCH  49  63
ATOM     63  C   UNL A   1      41.014  27.477  29.042  1.00  0.00     0.023 A 
ATOM     64  C   UNL A   1      40.138  26.376  28.933  1.00  0.00     0.012 A 
ATOM     65  C   UNL A   1      41.945  27.722  28.014  1.00  0.00     0.148 A 
ATOM     66  C   UNL A   1      40.211  25.517  27.838  1.00  0.00     0.002 A 
ATOM     67  C   UNL A   1      41.982  26.886  26.904  1.00  0.00     0.091 A 
ATOM     68  F   UNL A   1      42.778  28.765  28.140  1.00  0.00    -0.205 F 
ATOM     69  C   UNL A   1      41.124  25.776  26.820  1.00  0.00     0.022 A 
BRANCH  67  70
ATOM     70  S   UNL A   1      43.065  27.181  25.500  1.00  0.00     0.127 S 
ATOM     71  O   UNL A   1      42.296  28.164  24.737  1.00  0.00    -0.237 OA
ATOM     72  O   UNL A   1      44.265  27.714  26.144  1.00  0.00    -0.237 OA
ATOM     73  O   UNL A   1      43.245  25.890  24.851  1.00  0.00    -0.744 OA
ENDBRANCH  67  70
ENDBRANCH  49  63
BRANCH  50  74
ATOM     74  C   UNL A   1      39.617  33.572  36.780  1.00  0.00     0.023 A 
ATOM     75  C   UNL A   1      40.060  34.910  36.751  1.00  0.00     0.012 A 
ATOM     76  C   UNL A   1      38.959  33.092  37.928  1.00  0.00     0.148 A 
ATOM     77  C   UNL A   1      39.881  35.741  37.858  1.00  0.00     0.002 A 
ATOM     78  C   UNL A   1      38.731  33.942  39.003  1.00  0.00     0.091 A 
ATOM     79  F   UNL A   1      38.559  31.812  37.941  1.00  0.00    -0.205 F 
ATOM     80  C   UNL A   1      39.209  35.260  38.979  1.00  0.00     0.022 A 
BRANCH  78  81
ATOM     81  S   UNL A   1      37.757  33.451  40.430  1.00  0.00     0.127 S 
ATOM     82  O   UNL A   1      36.479  33.106  39.817  1.00  0.00    -0.237 OA
ATOM     83  O   UNL A   1      38.525  32.316  40.941  1.00  0.00    -0.237 OA
ATOM     84  O   UNL A   1      37.743  34.612  41.313  1.00  0.00    -0.744 OA
ENDBRANCH  78  81
ENDBRANCH  50  74
BRANCH  62  85
ATOM     85  C   UNL A   1      44.392  28.697  35.288  1.00  0.00     0.023 A 
ATOM     86  C   UNL A   1      45.675  29.244  35.084  1.00  0.00     0.012 A 
ATOM     87  C   UNL A   1      44.220  27.691  36.261  1.00  0.00     0.148 A 
ATOM     88  C   UNL A   1      46.771  28.779  35.811  1.00  0.00     0.002 A 
ATOM     89  C   UNL A   1      45.308  27.267  37.018  1.00  0.00     0.091 A 
ATOM     90  F   UNL A   1      42.997  27.171  36.433  1.00  0.00    -0.205 F 
ATOM     91  C   UNL A   1      46.585  27.800  36.785  1.00  0.00     0.022 A 
BRANCH  89  92
ATOM     92  S   UNL A   1      45.152  26.080  38.358  1.00  0.00     0.127 S 
ATOM     93  O   UNL A   1      46.532  25.984  38.832  1.00  0.00    -0.237 OA
ATOM     94  O   UNL A   1      44.239  26.766  39.273  1.00  0.00    -0.237 OA
ATOM     95  O   UNL A   1      44.615  24.865  37.762  1.00  0.00    -0.744 OA
ENDBRANCH  89  92
ENDBRANCH  62  85
ENDBRANCH  36  37
ENDBRANCH  28  31
ENDBRANCH  26  27
ENDBRANCH   1  26
TORSDOF 18
ENDMDL
MODEL 3
REMARK VINA RESULT:     -11.0      5.753     11.182
REMARK SMILES CCC(CC)(NC(=O)N(C)C1CC[NH2+]CC1)C(=O)NCCCNC(=O)c1ccc(-c2c3nc(c(-c4cccc(S(=O)(=O)[O-])c4F)c4ccc([nH]4)c(-c4cccc(S(=O)(=O)[O-])c4F)c4nc(c(-c5cccc(S(=O)(=O)[O-])c5F)c5ccc2[nH]5)C=C4)C=C3)cc1
REMARK SMILES IDX 21 1 20 2 19 3 17 4 18 5 3 7 2 8 1 9 4 10 5 11 6 12 7 13
REMARK SMILES IDX 8 15 9 16 10 17 11 18 12 19 16 20 13 21 15 22 14 23 22 26
REMARK SMILES IDX 23 27 24 28 25 30 26 31 27 32 88 33 28 34 87 35 29 36 30 37
REMARK SMILES IDX 31 38 81 39 32 40 86 41 80 42 82 43 33 44 85 45 79 46 78 47
REMARK SMILES IDX 34 49 66 50 46 51 65 52 47 53 50 54 64 55 83 56 48 57 49 58
REMARK SMILES IDX 63 60 84 61 51 62 35 63 36 64 44 65 37 66 39 67 45 68 38 69
REMARK SMILES IDX 40 70 41 71 42 72 43 73 67 74 68 75 76 76 69 77 71 78 77 79
REMARK SMILES IDX 70 80 72 81 73 82 74 83 75 84 52 85 53 86 61 87 54 88 56 89
REMARK SMILES IDX 62 90 55 91 57 92 58 93 59 94 60 95
REMARK H PARENT 19 6 6 14 14 24 14 25 23 29 82 48 50 59
REMARK Flexibility Score: inf
ROOT
ATOM      1  C   UNL A   1      31.437  31.356  26.408  1.00  0.00     0.042 C 
ENDROOT
BRANCH   1   2
ATOM      2  C   UNL A   1      31.642  29.965  25.835  1.00  0.00     0.117 C 
BRANCH   2   3
ATOM      3  N   UNL A   1      32.621  29.867  24.758  1.00  0.00    -0.354 N 
ATOM      4  C   UNL A   1      32.944  28.876  23.868  1.00  0.00     0.245 C 
ATOM      5  O   UNL A   1      33.677  29.225  22.934  1.00  0.00    -0.272 OA
ATOM      6  H   UNL A   1      33.163  30.682  24.647  1.00  0.00     0.163 HD
BRANCH   4   7
ATOM      7  C   UNL A   1      32.343  27.432  23.937  1.00  0.00     0.120 C 
BRANCH   7   8
ATOM      8  C   UNL A   1      30.807  27.343  24.223  1.00  0.00     0.035 C 
ATOM      9  C   UNL A   1      29.858  27.828  23.128  1.00  0.00     0.007 C 
ENDBRANCH   7   8
BRANCH   7  10
ATOM     10  C   UNL A   1      33.094  26.738  25.138  1.00  0.00     0.035 C 
ATOM     11  C   UNL A   1      32.248  25.949  26.133  1.00  0.00     0.007 C 
ENDBRANCH   7  10
BRANCH   7  12
ATOM     12  N   UNL A   1      32.626  26.719  22.660  1.00  0.00    -0.323 N 
ATOM     13  C   UNL A   1      32.802  25.476  22.173  1.00  0.00     0.318 C 
ATOM     14  H   UNL A   1      32.713  27.374  21.930  1.00  0.00     0.166 HD
ATOM     15  O   UNL A   1      33.292  25.495  21.042  1.00  0.00    -0.249 OA
BRANCH  13  16
ATOM     16  N   UNL A   1      32.421  24.310  22.774  1.00  0.00    -0.324 N 
ATOM     17  C   UNL A   1      31.074  23.948  23.184  1.00  0.00     0.149 C 
BRANCH  16  18
ATOM     18  C   UNL A   1      33.398  23.168  22.917  1.00  0.00     0.097 C 
ATOM     19  C   UNL A   1      32.893  21.836  23.491  1.00  0.00     0.086 C 
ATOM     20  C   UNL A   1      34.730  23.586  23.541  1.00  0.00     0.086 C 
ATOM     21  C   UNL A   1      33.195  21.597  24.975  1.00  0.00     0.262 C 
ATOM     22  C   UNL A   1      34.776  23.407  25.051  1.00  0.00     0.262 C 
ATOM     23  N   UNL A   1      34.548  22.002  25.357  1.00  0.00    -0.346 N 
ATOM     24  H   UNL A   1      35.224  21.435  24.844  1.00  0.00     0.346 HD
ATOM     25  H   UNL A   1      34.657  21.866  26.362  1.00  0.00     0.346 HD
ENDBRANCH  16  18
ENDBRANCH  13  16
ENDBRANCH   7  12
ENDBRANCH   4   7
ENDBRANCH   2   3
ENDBRANCH   1   2
BRANCH   1  26
ATOM     26  C   UNL A   1      32.692  32.132  26.776  1.00  0.00     0.118 C 
BRANCH  26  27
ATOM     27  N   UNL A   1      32.462  33.476  27.258  1.00  0.00    -0.352 N 
ATOM     28  C   UNL A   1      33.159  34.193  28.209  1.00  0.00     0.251 C 
ATOM     29  H   UNL A   1      31.699  33.946  26.850  1.00  0.00     0.163 HD
ATOM     30  O   UNL A   1      32.748  35.307  28.521  1.00  0.00    -0.269 OA
BRANCH  28  31
ATOM     31  C   UNL A   1      34.359  33.636  28.897  1.00  0.00     0.039 A 
ATOM     32  C   UNL A   1      34.163  32.574  29.786  1.00  0.00     0.014 A 
ATOM     33  C   UNL A   1      35.651  34.149  28.729  1.00  0.00     0.014 A 
ATOM     34  C   UNL A   1      35.249  32.001  30.459  1.00  0.00     0.010 A 
ATOM     35  C   UNL A   1      36.746  33.530  29.349  1.00  0.00     0.010 A 
ATOM     36  C   UNL A   1      36.560  32.451  30.229  1.00  0.00    -0.014 A 
BRANCH  36  37
ATOM     37  C   UNL A   1      37.719  31.788  30.899  1.00  0.00     0.031 A 
ATOM     38  C   UNL A   1      38.552  30.755  30.181  1.00  0.00     0.074 A 
ATOM     39  C   UNL A   1      38.022  32.095  32.178  1.00  0.00     0.049 A 
ATOM     40  N   UNL A   1      39.604  30.101  30.607  1.00  0.00    -0.248 NA
ATOM     41  C   UNL A   1      38.146  30.403  28.811  1.00  0.00     0.031 C 
ATOM     42  C   UNL A   1      37.277  33.032  33.020  1.00  0.00     0.029 A 
ATOM     43  N   UNL A   1      39.027  31.641  33.000  1.00  0.00    -0.354 N 
ATOM     44  C   UNL A   1      39.971  29.245  29.575  1.00  0.00     0.074 A 
ATOM     45  C   UNL A   1      39.012  29.444  28.509  1.00  0.00     0.031 C 
ATOM     46  C   UNL A   1      37.852  33.089  34.232  1.00  0.00     0.029 A 
ATOM     47  C   UNL A   1      38.985  32.167  34.271  1.00  0.00     0.049 A 
ATOM     48  H   UNL A   1      39.714  30.999  32.705  1.00  0.00     0.167 HD
ATOM     49  C   UNL A   1      41.018  28.387  29.505  1.00  0.00     0.034 A 
ATOM     50  C   UNL A   1      39.755  31.929  35.353  1.00  0.00     0.034 A 
ATOM     51  C   UNL A   1      41.993  28.200  30.550  1.00  0.00     0.049 A 
ATOM     52  C   UNL A   1      40.910  30.968  35.250  1.00  0.00     0.074 A 
ATOM     53  C   UNL A   1      43.133  27.414  30.528  1.00  0.00     0.029 A 
ATOM     54  N   UNL A   1      41.938  28.783  31.805  1.00  0.00    -0.354 N 
ATOM     55  N   UNL A   1      41.334  30.295  34.209  1.00  0.00    -0.248 NA
ATOM     56  C   UNL A   1      41.713  30.758  36.465  1.00  0.00     0.031 C 
ATOM     57  C   UNL A   1      43.746  27.490  31.782  1.00  0.00     0.029 A 
ATOM     58  C   UNL A   1      43.010  28.356  32.573  1.00  0.00     0.049 A 
ATOM     59  H   UNL A   1      41.241  29.408  32.107  1.00  0.00     0.167 HD
ATOM     60  C   UNL A   1      42.468  29.609  34.633  1.00  0.00     0.074 A 
ATOM     61  C   UNL A   1      42.680  29.967  36.020  1.00  0.00     0.031 C 
ATOM     62  C   UNL A   1      43.252  28.749  33.939  1.00  0.00     0.034 A 
BRANCH  49  63
ATOM     63  C   UNL A   1      41.201  27.600  28.232  1.00  0.00     0.023 A 
ATOM     64  C   UNL A   1      41.827  28.206  27.122  1.00  0.00     0.012 A 
ATOM     65  C   UNL A   1      40.829  26.243  28.158  1.00  0.00     0.148 A 
ATOM     66  C   UNL A   1      42.049  27.484  25.950  1.00  0.00     0.002 A 
ATOM     67  C   UNL A   1      41.094  25.518  27.002  1.00  0.00     0.091 A 
ATOM     68  F   UNL A   1      40.224  25.687  29.217  1.00  0.00    -0.205 F 
ATOM     69  C   UNL A   1      41.692  26.140  25.893  1.00  0.00     0.022 A 
BRANCH  67  70
ATOM     70  S   UNL A   1      40.749  23.760  26.856  1.00  0.00     0.127 S 
ATOM     71  O   UNL A   1      41.611  23.383  25.738  1.00  0.00    -0.237 OA
ATOM     72  O   UNL A   1      41.182  23.253  28.159  1.00  0.00    -0.237 OA
ATOM     73  O   UNL A   1      39.318  23.650  26.606  1.00  0.00    -0.744 OA
ENDBRANCH  67  70
ENDBRANCH  49  63
BRANCH  50  74
ATOM     74  C   UNL A   1      39.481  32.645  36.632  1.00  0.00     0.023 A 
ATOM     75  C   UNL A   1      40.186  33.828  36.932  1.00  0.00     0.012 A 
ATOM     76  C   UNL A   1      38.524  32.166  37.546  1.00  0.00     0.148 A 
ATOM     77  C   UNL A   1      39.964  34.502  38.135  1.00  0.00     0.002 A 
ATOM     78  C   UNL A   1      38.265  32.873  38.713  1.00  0.00     0.091 A 
ATOM     79  F   UNL A   1      37.876  31.030  37.249  1.00  0.00    -0.205 F 
ATOM     80  C   UNL A   1      38.997  34.030  39.020  1.00  0.00     0.022 A 
BRANCH  78  81
ATOM     81  S   UNL A   1      36.947  32.417  39.845  1.00  0.00     0.127 S 
ATOM     82  O   UNL A   1      37.370  31.089  40.278  1.00  0.00    -0.237 OA
ATOM     83  O   UNL A   1      37.051  33.462  40.863  1.00  0.00    -0.237 OA
ATOM     84  O   UNL A   1      35.719  32.466  39.059  1.00  0.00    -0.744 OA
ENDBRANCH  78  81
ENDBRANCH  50  74
BRANCH  62  85
ATOM     85  C   UNL A   1      44.443  28.147  34.644  1.00  0.00     0.023 A 
ATOM     86  C   UNL A   1      45.689  28.805  34.607  1.00  0.00     0.012 A 
ATOM     87  C   UNL A   1      44.307  26.972  35.410  1.00  0.00     0.148 A 
ATOM     88  C   UNL A   1      46.786  28.287  35.295  1.00  0.00     0.002 A 
ATOM     89  C   UNL A   1      45.392  26.488  36.133  1.00  0.00     0.091 A 
ATOM     90  F   UNL A   1      43.119  26.350  35.423  1.00  0.00    -0.205 F 
ATOM     91  C   UNL A   1      46.635  27.136  36.066  1.00  0.00     0.022 A 
BRANCH  89  92
ATOM     92  S   UNL A   1      45.272  25.069  37.229  1.00  0.00     0.127 S 
ATOM     93  O   UNL A   1      44.954  23.994  36.291  1.00  0.00    -0.237 OA
ATOM     94  O   UNL A   1      46.618  25.003  37.798  1.00  0.00    -0.237 OA
ATOM     95  O   UNL A   1      44.223  25.387  38.188  1.00  0.00    -0.744 OA
ENDBRANCH  89  92
ENDBRANCH  62  85
ENDBRANCH  36  37
ENDBRANCH  28  31
ENDBRANCH  26  27
ENDBRANCH   1  26
TORSDOF 18
ENDMDL
