MODEL 1
REMARK VINA RESULT:     -12.3      0.000      0.000
REMARK SMILES Cn1ccc(NC(=O)[C@@H]2CCCC[C@@H]2C(=O)NCCCNC(=O)c2ccc(-c3c4nc(c(-c5cccc(S(=O)(=O)[O-])c5F)c5ccc([nH]5)c(-c5cccc(S(=O)(=O)[O-])c5F)c5nc(c(-c6cccc(S(=O)(=O)[O-])c6F)c6ccc3[nH]6)C=C5)C=C4)cc2)n1
REMARK SMILES IDX 19 1 18 2 17 3 15 4 16 5 14 7 9 8 10 9 11 10 13 11 12 12
REMARK SMILES IDX 7 13 6 14 8 16 5 17 1 18 2 19 3 20 87 21 4 22 20 23 21 24
REMARK SMILES IDX 22 25 23 27 24 28 25 29 86 30 26 31 85 32 27 33 28 34 29 35
REMARK SMILES IDX 79 36 30 37 84 38 78 39 80 40 31 41 83 42 77 43 76 44 32 46
REMARK SMILES IDX 64 47 44 48 63 49 45 50 48 51 62 52 81 53 46 54 47 55 61 57
REMARK SMILES IDX 82 58 49 59 33 60 34 61 42 62 35 63 37 64 43 65 36 66 38 67
REMARK SMILES IDX 39 68 40 69 41 70 65 71 66 72 74 73 67 74 69 75 75 76 68 77
REMARK SMILES IDX 70 78 71 79 72 80 73 81 50 82 51 83 59 84 52 85 54 86 60 87
REMARK SMILES IDX 53 88 55 89 56 90 57 91 58 92
REMARK H PARENT 17 6 6 15 21 26 80 45 48 56
REMARK Flexibility Score: inf
ROOT
ATOM      1  C   UNL A   1      31.431  32.170  26.793  1.00  0.00     0.042 C 
ENDROOT
BRANCH   1   2
ATOM      2  C   UNL A   1      31.661  30.813  26.149  1.00  0.00     0.117 C 
BRANCH   2   3
ATOM      3  N   UNL A   1      31.653  29.764  27.136  1.00  0.00    -0.356 N 
ATOM      4  C   UNL A   1      31.541  28.419  26.992  1.00  0.00     0.223 C 
ATOM      5  O   UNL A   1      31.668  27.765  28.030  1.00  0.00    -0.275 OA
ATOM      6  H   UNL A   1      31.742  30.072  28.067  1.00  0.00     0.163 HD
BRANCH   4   7
ATOM      7  C   UNL A   1      31.389  27.762  25.606  1.00  0.00     0.091 C 
ATOM      8  C   UNL A   1      31.497  26.218  25.497  1.00  0.00     0.091 C 
ATOM      9  C   UNL A   1      32.848  25.781  26.089  1.00  0.00     0.014 C 
ATOM     10  C   UNL A   1      34.000  26.347  25.261  1.00  0.00     0.001 C 
ATOM     11  C   UNL A   1      32.476  28.328  24.656  1.00  0.00     0.014 C 
ATOM     12  C   UNL A   1      33.893  27.848  24.998  1.00  0.00     0.001 C 
BRANCH   8  13
ATOM     13  C   UNL A   1      30.349  25.321  25.971  1.00  0.00     0.229 C 
ATOM     14  N   UNL A   1      30.232  24.010  25.615  1.00  0.00    -0.309 N 
ATOM     15  H   UNL A   1      29.453  23.537  25.990  1.00  0.00     0.171 HD
ATOM     16  O   UNL A   1      29.463  25.767  26.711  1.00  0.00    -0.274 OA
BRANCH  14  17
ATOM     17  C   UNL A   1      31.047  23.258  24.808  1.00  0.00     0.154 A 
ATOM     18  C   UNL A   1      33.817  21.211  24.354  1.00  0.00     0.173 C 
ATOM     19  N   UNL A   1      32.654  22.046  24.172  1.00  0.00    -0.274 N 
ATOM     20  C   UNL A   1      32.285  22.725  23.051  1.00  0.00     0.110 A 
ATOM     21  N   UNL A   1      31.885  22.317  25.234  1.00  0.00    -0.155 NA
ATOM     22  C   UNL A   1      31.187  23.471  23.414  1.00  0.00     0.068 A 
ENDBRANCH  14  17
ENDBRANCH   8  13
ENDBRANCH   4   7
ENDBRANCH   2   3
ENDBRANCH   1   2
BRANCH   1  23
ATOM     23  C   UNL A   1      32.698  32.783  27.356  1.00  0.00     0.118 C 
BRANCH  23  24
ATOM     24  N   UNL A   1      32.522  34.192  27.683  1.00  0.00    -0.352 N 
ATOM     25  C   UNL A   1      33.118  34.940  28.666  1.00  0.00     0.251 C 
ATOM     26  H   UNL A   1      31.881  34.678  27.116  1.00  0.00     0.163 HD
ATOM     27  O   UNL A   1      32.679  36.064  28.914  1.00  0.00    -0.269 OA
BRANCH  25  28
ATOM     28  C   UNL A   1      34.261  34.398  29.431  1.00  0.00     0.039 A 
ATOM     29  C   UNL A   1      34.010  33.644  30.579  1.00  0.00     0.014 A 
ATOM     30  C   UNL A   1      35.576  34.632  29.022  1.00  0.00     0.014 A 
ATOM     31  C   UNL A   1      35.076  33.083  31.284  1.00  0.00     0.010 A 
ATOM     32  C   UNL A   1      36.626  33.982  29.660  1.00  0.00     0.010 A 
ATOM     33  C   UNL A   1      36.391  33.218  30.810  1.00  0.00    -0.014 A 
BRANCH  33  34
ATOM     34  C   UNL A   1      37.537  32.581  31.507  1.00  0.00     0.031 A 
ATOM     35  C   UNL A   1      38.273  31.440  30.856  1.00  0.00     0.074 A 
ATOM     36  C   UNL A   1      37.856  32.971  32.756  1.00  0.00     0.049 A 
ATOM     37  N   UNL A   1      39.254  30.716  31.329  1.00  0.00    -0.248 NA
ATOM     38  C   UNL A   1      37.829  31.034  29.511  1.00  0.00     0.031 C 
ATOM     39  C   UNL A   1      37.164  34.011  33.523  1.00  0.00     0.029 A 
ATOM     40  N   UNL A   1      38.830  32.523  33.612  1.00  0.00    -0.354 N 
ATOM     41  C   UNL A   1      39.512  29.750  30.365  1.00  0.00     0.074 A 
ATOM     42  C   UNL A   1      38.561  29.953  29.295  1.00  0.00     0.031 C 
ATOM     43  C   UNL A   1      37.742  34.128  34.729  1.00  0.00     0.029 A 
ATOM     44  C   UNL A   1      38.818  33.149  34.838  1.00  0.00     0.049 A 
ATOM     45  H   UNL A   1      39.476  31.819  33.373  1.00  0.00     0.167 HD
ATOM     46  C   UNL A   1      40.472  28.795  30.356  1.00  0.00     0.034 A 
ATOM     47  C   UNL A   1      39.582  32.949  35.929  1.00  0.00     0.034 A 
ATOM     48  C   UNL A   1      41.443  28.627  31.402  1.00  0.00     0.049 A 
ATOM     49  C   UNL A   1      40.666  31.907  35.878  1.00  0.00     0.074 A 
ATOM     50  C   UNL A   1      42.517  27.757  31.447  1.00  0.00     0.029 A 
ATOM     51  N   UNL A   1      41.450  29.334  32.594  1.00  0.00    -0.354 N 
ATOM     52  N   UNL A   1      40.999  31.110  34.891  1.00  0.00    -0.248 NA
ATOM     53  C   UNL A   1      41.502  31.759  37.077  1.00  0.00     0.031 C 
ATOM     54  C   UNL A   1      43.153  27.913  32.682  1.00  0.00     0.029 A 
ATOM     55  C   UNL A   1      42.501  28.910  33.389  1.00  0.00     0.049 A 
ATOM     56  H   UNL A   1      40.804  30.035  32.839  1.00  0.00     0.167 HD
ATOM     57  C   UNL A   1      42.106  30.395  35.334  1.00  0.00     0.074 A 
ATOM     58  C   UNL A   1      42.398  30.869  36.672  1.00  0.00     0.031 C 
ATOM     59  C   UNL A   1      42.809  29.427  34.698  1.00  0.00     0.034 A 
BRANCH  46  60
ATOM     60  C   UNL A   1      40.549  27.885  29.157  1.00  0.00     0.023 A 
ATOM     61  C   UNL A   1      39.678  26.779  29.059  1.00  0.00     0.012 A 
ATOM     62  C   UNL A   1      41.442  28.154  28.103  1.00  0.00     0.148 A 
ATOM     63  C   UNL A   1      39.720  25.937  27.949  1.00  0.00     0.002 A 
ATOM     64  C   UNL A   1      41.445  27.339  26.977  1.00  0.00     0.091 A 
ATOM     65  F   UNL A   1      42.277  29.196  28.222  1.00  0.00    -0.205 F 
ATOM     66  C   UNL A   1      40.595  26.223  26.904  1.00  0.00     0.022 A 
BRANCH  64  67
ATOM     67  S   UNL A   1      42.471  27.669  25.541  1.00  0.00     0.127 S 
ATOM     68  O   UNL A   1      43.805  27.720  26.137  1.00  0.00    -0.237 OA
ATOM     69  O   UNL A   1      42.220  26.493  24.707  1.00  0.00    -0.237 OA
ATOM     70  O   UNL A   1      41.990  28.925  24.982  1.00  0.00    -0.744 OA
ENDBRANCH  64  67
ENDBRANCH  46  60
BRANCH  47  71
ATOM     71  C   UNL A   1      39.388  33.793  37.143  1.00  0.00     0.023 A 
ATOM     72  C   UNL A   1      39.857  35.121  37.144  1.00  0.00     0.012 A 
ATOM     73  C   UNL A   1      38.730  33.296  38.284  1.00  0.00     0.148 A 
ATOM     74  C   UNL A   1      39.709  35.927  38.273  1.00  0.00     0.002 A 
ATOM     75  C   UNL A   1      38.534  34.123  39.385  1.00  0.00     0.091 A 
ATOM     76  F   UNL A   1      38.297  32.028  38.267  1.00  0.00    -0.205 F 
ATOM     77  C   UNL A   1      39.041  35.433  39.389  1.00  0.00     0.022 A 
BRANCH  75  78
ATOM     78  S   UNL A   1      37.577  33.616  40.817  1.00  0.00     0.127 S 
ATOM     79  O   UNL A   1      37.409  34.882  41.527  1.00  0.00    -0.237 OA
ATOM     80  O   UNL A   1      36.360  33.093  40.194  1.00  0.00    -0.237 OA
ATOM     81  O   UNL A   1      38.384  32.613  41.495  1.00  0.00    -0.744 OA
ENDBRANCH  75  78
ENDBRANCH  47  71
BRANCH  59  82
ATOM     82  C   UNL A   1      43.998  28.842  35.413  1.00  0.00     0.023 A 
ATOM     83  C   UNL A   1      45.278  29.401  35.232  1.00  0.00     0.012 A 
ATOM     84  C   UNL A   1      43.829  27.781  36.326  1.00  0.00     0.148 A 
ATOM     85  C   UNL A   1      46.377  28.893  35.923  1.00  0.00     0.002 A 
ATOM     86  C   UNL A   1      44.918  27.316  37.051  1.00  0.00     0.091 A 
ATOM     87  F   UNL A   1      42.606  27.252  36.472  1.00  0.00    -0.205 F 
ATOM     88  C   UNL A   1      46.196  27.861  36.841  1.00  0.00     0.022 A 
BRANCH  86  89
ATOM     89  S   UNL A   1      44.761  26.062  38.328  1.00  0.00     0.127 S 
ATOM     90  O   UNL A   1      43.829  26.699  39.256  1.00  0.00    -0.237 OA
ATOM     91  O   UNL A   1      44.207  24.932  37.584  1.00  0.00    -0.237 OA
ATOM     92  O   UNL A   1      46.105  25.845  38.847  1.00  0.00    -0.744 OA
ENDBRANCH  86  89
ENDBRANCH  59  82
ENDBRANCH  33  34
ENDBRANCH  25  28
ENDBRANCH  23  24
ENDBRANCH   1  23
TORSDOF 15
ENDMDL
MODEL 2
REMARK VINA RESULT:     -12.3      4.130      9.292
REMARK SMILES Cn1ccc(NC(=O)[C@@H]2CCCC[C@@H]2C(=O)NCCCNC(=O)c2ccc(-c3c4nc(c(-c5cccc(S(=O)(=O)[O-])c5F)c5ccc([nH]5)c(-c5cccc(S(=O)(=O)[O-])c5F)c5nc(c(-c6cccc(S(=O)(=O)[O-])c6F)c6ccc3[nH]6)C=C5)C=C4)cc2)n1
REMARK SMILES IDX 19 1 18 2 17 3 15 4 16 5 14 7 9 8 10 9 11 10 13 11 12 12
REMARK SMILES IDX 7 13 6 14 8 16 5 17 1 18 2 19 3 20 87 21 4 22 20 23 21 24
REMARK SMILES IDX 22 25 23 27 24 28 25 29 86 30 26 31 85 32 27 33 28 34 29 35
REMARK SMILES IDX 79 36 30 37 84 38 78 39 80 40 31 41 83 42 77 43 76 44 32 46
REMARK SMILES IDX 64 47 44 48 63 49 45 50 48 51 62 52 81 53 46 54 47 55 61 57
REMARK SMILES IDX 82 58 49 59 33 60 34 61 42 62 35 63 37 64 43 65 36 66 38 67
REMARK SMILES IDX 39 68 40 69 41 70 65 71 66 72 74 73 67 74 69 75 75 76 68 77
REMARK SMILES IDX 70 78 71 79 72 80 73 81 50 82 51 83 59 84 52 85 54 86 60 87
REMARK SMILES IDX 53 88 55 89 56 90 57 91 58 92
REMARK H PARENT 17 6 6 15 21 26 80 45 48 56
REMARK Flexibility Score: inf
ROOT
ATOM      1  C   UNL A   1      33.672  27.694  25.082  1.00  0.00     0.042 C 
ENDROOT
BRANCH   1   2
ATOM      2  C   UNL A   1      33.719  26.188  24.879  1.00  0.00     0.117 C 
BRANCH   2   3
ATOM      3  N   UNL A   1      34.785  25.596  25.645  1.00  0.00    -0.356 N 
ATOM      4  C   UNL A   1      35.247  24.320  25.673  1.00  0.00     0.223 C 
ATOM      5  O   UNL A   1      36.251  24.138  26.366  1.00  0.00    -0.275 OA
ATOM      6  H   UNL A   1      35.256  26.218  26.246  1.00  0.00     0.163 HD
BRANCH   4   7
ATOM      7  C   UNL A   1      34.625  23.214  24.799  1.00  0.00     0.091 C 
ATOM      8  C   UNL A   1      34.772  21.736  25.251  1.00  0.00     0.091 C 
ATOM      9  C   UNL A   1      36.269  21.426  25.424  1.00  0.00     0.014 C 
ATOM     10  C   UNL A   1      36.993  21.534  24.083  1.00  0.00     0.001 C 
ATOM     11  C   UNL A   1      35.243  23.282  23.379  1.00  0.00     0.014 C 
ATOM     12  C   UNL A   1      36.710  22.834  23.331  1.00  0.00     0.001 C 
BRANCH   8  13
ATOM     13  C   UNL A   1      33.938  21.191  26.415  1.00  0.00     0.229 C 
ATOM     14  N   UNL A   1      33.176  20.063  26.321  1.00  0.00    -0.309 N 
ATOM     15  H   UNL A   1      32.691  19.811  27.140  1.00  0.00     0.171 HD
ATOM     16  O   UNL A   1      33.923  21.770  27.508  1.00  0.00    -0.274 OA
BRANCH  14  17
ATOM     17  C   UNL A   1      32.992  19.232  25.246  1.00  0.00     0.154 A 
ATOM     18  C   UNL A   1      34.036  16.608  23.223  1.00  0.00     0.173 C 
ATOM     19  N   UNL A   1      33.342  17.733  23.800  1.00  0.00    -0.274 N 
ATOM     20  C   UNL A   1      32.525  18.621  23.169  1.00  0.00     0.110 A 
ATOM     21  N   UNL A   1      33.596  18.060  25.075  1.00  0.00    -0.155 NA
ATOM     22  C   UNL A   1      32.215  19.575  24.111  1.00  0.00     0.068 A 
ENDBRANCH  14  17
ENDBRANCH   8  13
ENDBRANCH   4   7
ENDBRANCH   2   3
ENDBRANCH   1   2
BRANCH   1  23
ATOM     23  C   UNL A   1      33.963  28.109  26.511  1.00  0.00     0.118 C 
BRANCH  23  24
ATOM     24  N   UNL A   1      33.762  29.538  26.712  1.00  0.00    -0.352 N 
ATOM     25  C   UNL A   1      34.499  30.427  27.452  1.00  0.00     0.251 C 
ATOM     26  H   UNL A   1      32.981  29.923  26.250  1.00  0.00     0.163 HD
ATOM     27  O   UNL A   1      34.045  31.552  27.666  1.00  0.00    -0.269 OA
BRANCH  25  28
ATOM     28  C   UNL A   1      35.814  30.034  28.001  1.00  0.00     0.039 A 
ATOM     29  C   UNL A   1      35.878  29.507  29.293  1.00  0.00     0.014 A 
ATOM     30  C   UNL A   1      36.982  30.186  27.250  1.00  0.00     0.014 A 
ATOM     31  C   UNL A   1      37.105  29.084  29.807  1.00  0.00     0.010 A 
ATOM     32  C   UNL A   1      38.182  29.664  27.720  1.00  0.00     0.010 A 
ATOM     33  C   UNL A   1      38.261  29.127  29.011  1.00  0.00    -0.014 A 
BRANCH  33  34
ATOM     34  C   UNL A   1      39.567  28.628  29.512  1.00  0.00     0.031 A 
ATOM     35  C   UNL A   1      40.276  29.358  30.622  1.00  0.00     0.074 A 
ATOM     36  C   UNL A   1      40.152  27.573  28.911  1.00  0.00     0.049 A 
ATOM     37  N   UNL A   1      41.447  29.116  31.152  1.00  0.00    -0.248 NA
ATOM     38  C   UNL A   1      39.597  30.536  31.192  1.00  0.00     0.031 C 
ATOM     39  C   UNL A   1      39.601  26.834  27.773  1.00  0.00     0.029 A 
ATOM     40  N   UNL A   1      41.351  26.954  29.158  1.00  0.00    -0.354 N 
ATOM     41  C   UNL A   1      41.661  30.129  32.078  1.00  0.00     0.074 A 
ATOM     42  C   UNL A   1      40.518  31.012  32.014  1.00  0.00     0.031 C 
ATOM     43  C   UNL A   1      40.453  25.855  27.428  1.00  0.00     0.029 A 
ATOM     44  C   UNL A   1      41.627  25.921  28.293  1.00  0.00     0.049 A 
ATOM     45  H   UNL A   1      41.958  27.225  29.885  1.00  0.00     0.167 HD
ATOM     46  C   UNL A   1      42.703  30.296  32.927  1.00  0.00     0.034 A 
ATOM     47  C   UNL A   1      42.708  25.123  28.200  1.00  0.00     0.034 A 
ATOM     48  C   UNL A   1      43.814  29.390  33.016  1.00  0.00     0.049 A 
ATOM     49  C   UNL A   1      43.834  25.307  29.180  1.00  0.00     0.074 A 
ATOM     50  C   UNL A   1      44.872  29.412  33.908  1.00  0.00     0.029 A 
ATOM     51  N   UNL A   1      44.020  28.306  32.178  1.00  0.00    -0.354 N 
ATOM     52  N   UNL A   1      43.945  26.174  30.157  1.00  0.00    -0.248 NA
ATOM     53  C   UNL A   1      44.970  24.382  29.068  1.00  0.00     0.031 C 
ATOM     54  C   UNL A   1      45.737  28.363  33.584  1.00  0.00     0.029 A 
ATOM     55  C   UNL A   1      45.196  27.661  32.519  1.00  0.00     0.049 A 
ATOM     56  H   UNL A   1      43.419  28.036  31.447  1.00  0.00     0.167 HD
ATOM     57  C   UNL A   1      45.140  25.875  30.801  1.00  0.00     0.074 A 
ATOM     58  C   UNL A   1      45.708  24.733  30.113  1.00  0.00     0.031 C 
ATOM     59  C   UNL A   1      45.721  26.495  31.856  1.00  0.00     0.034 A 
BRANCH  46  60
ATOM     60  C   UNL A   1      42.669  31.481  33.858  1.00  0.00     0.023 A 
ATOM     61  C   UNL A   1      43.172  32.727  33.427  1.00  0.00     0.012 A 
ATOM     62  C   UNL A   1      42.090  31.377  35.137  1.00  0.00     0.148 A 
ATOM     63  C   UNL A   1      43.133  33.839  34.267  1.00  0.00     0.002 A 
ATOM     64  C   UNL A   1      42.009  32.502  35.950  1.00  0.00     0.091 A 
ATOM     65  F   UNL A   1      41.637  30.181  35.539  1.00  0.00    -0.205 F 
ATOM     66  C   UNL A   1      42.541  33.729  35.523  1.00  0.00     0.022 A 
BRANCH  64  67
ATOM     67  S   UNL A   1      41.192  32.487  37.549  1.00  0.00     0.127 S 
ATOM     68  O   UNL A   1      39.873  31.960  37.202  1.00  0.00    -0.237 OA
ATOM     69  O   UNL A   1      42.034  31.568  38.316  1.00  0.00    -0.237 OA
ATOM     70  O   UNL A   1      41.207  33.865  38.022  1.00  0.00    -0.744 OA
ENDBRANCH  64  67
ENDBRANCH  46  60
BRANCH  47  71
ATOM     71  C   UNL A   1      42.752  24.038  27.178  1.00  0.00     0.023 A 
ATOM     72  C   UNL A   1      43.466  24.245  25.981  1.00  0.00     0.012 A 
ATOM     73  C   UNL A   1      42.110  22.804  27.389  1.00  0.00     0.148 A 
ATOM     74  C   UNL A   1      43.508  23.256  24.997  1.00  0.00     0.002 A 
ATOM     75  C   UNL A   1      42.203  21.802  26.430  1.00  0.00     0.091 A 
ATOM     76  F   UNL A   1      41.430  22.628  28.531  1.00  0.00    -0.205 F 
ATOM     77  C   UNL A   1      42.885  22.033  25.225  1.00  0.00     0.022 A 
BRANCH  75  78
ATOM     78  S   UNL A   1      41.541  20.153  26.686  1.00  0.00     0.127 S 
ATOM     79  O   UNL A   1      40.114  20.425  26.842  1.00  0.00    -0.237 OA
ATOM     80  O   UNL A   1      41.907  19.485  25.436  1.00  0.00    -0.237 OA
ATOM     81  O   UNL A   1      42.219  19.635  27.866  1.00  0.00    -0.744 OA
ENDBRANCH  75  78
ENDBRANCH  47  71
BRANCH  59  82
ATOM     82  C   UNL A   1      47.018  25.928  32.373  1.00  0.00     0.023 A 
ATOM     83  C   UNL A   1      47.016  25.049  33.473  1.00  0.00     0.012 A 
ATOM     84  C   UNL A   1      48.231  26.211  31.715  1.00  0.00     0.148 A 
ATOM     85  C   UNL A   1      48.206  24.486  33.932  1.00  0.00     0.002 A 
ATOM     86  C   UNL A   1      49.405  25.605  32.142  1.00  0.00     0.091 A 
ATOM     87  F   UNL A   1      48.214  27.063  30.680  1.00  0.00    -0.205 F 
ATOM     88  C   UNL A   1      49.398  24.753  33.259  1.00  0.00     0.022 A 
BRANCH  86  89
ATOM     89  S   UNL A   1      50.966  25.807  31.277  1.00  0.00     0.127 S 
ATOM     90  O   UNL A   1      51.231  27.231  31.473  1.00  0.00    -0.237 OA
ATOM     91  O   UNL A   1      51.851  24.913  32.023  1.00  0.00    -0.237 OA
ATOM     92  O   UNL A   1      50.718  25.403  29.899  1.00  0.00    -0.744 OA
ENDBRANCH  86  89
ENDBRANCH  59  82
ENDBRANCH  33  34
ENDBRANCH  25  28
ENDBRANCH  23  24
ENDBRANCH   1  23
TORSDOF 15
ENDMDL
MODEL 3
REMARK VINA RESULT:     -12.0      6.728     11.774
REMARK SMILES Cn1ccc(NC(=O)[C@@H]2CCCC[C@@H]2C(=O)NCCCNC(=O)c2ccc(-c3c4nc(c(-c5cccc(S(=O)(=O)[O-])c5F)c5ccc([nH]5)c(-c5cccc(S(=O)(=O)[O-])c5F)c5nc(c(-c6cccc(S(=O)(=O)[O-])c6F)c6ccc3[nH]6)C=C5)C=C4)cc2)n1
REMARK SMILES IDX 19 1 18 2 17 3 15 4 16 5 14 7 9 8 10 9 11 10 13 11 12 12
REMARK SMILES IDX 7 13 6 14 8 16 5 17 1 18 2 19 3 20 87 21 4 22 20 23 21 24
REMARK SMILES IDX 22 25 23 27 24 28 25 29 86 30 26 31 85 32 27 33 28 34 29 35
REMARK SMILES IDX 79 36 30 37 84 38 78 39 80 40 31 41 83 42 77 43 76 44 32 46
REMARK SMILES IDX 64 47 44 48 63 49 45 50 48 51 62 52 81 53 46 54 47 55 61 57
REMARK SMILES IDX 82 58 49 59 33 60 34 61 42 62 35 63 37 64 43 65 36 66 38 67
REMARK SMILES IDX 39 68 40 69 41 70 65 71 66 72 74 73 67 74 69 75 75 76 68 77
REMARK SMILES IDX 70 78 71 79 72 80 73 81 50 82 51 83 59 84 52 85 54 86 60 87
REMARK SMILES IDX 53 88 55 89 56 90 57 91 58 92
REMARK H PARENT 17 6 6 15 21 26 80 45 48 56
REMARK Flexibility Score: inf
ROOT
ATOM      1  C   UNL A   1      38.237  19.637  24.698  1.00  0.00     0.042 C 
ENDROOT
BRANCH   1   2
ATOM      2  C   UNL A   1      36.734  19.789  24.860  1.00  0.00     0.117 C 
BRANCH   2   3
ATOM      3  N   UNL A   1      36.350  21.177  24.851  1.00  0.00    -0.356 N 
ATOM      4  C   UNL A   1      35.184  21.771  25.210  1.00  0.00     0.223 C 
ATOM      5  O   UNL A   1      35.191  23.004  25.184  1.00  0.00    -0.275 OA
ATOM      6  H   UNL A   1      37.046  21.796  24.532  1.00  0.00     0.163 HD
BRANCH   4   7
ATOM      7  C   UNL A   1      33.983  20.955  25.728  1.00  0.00     0.091 C 
ATOM      8  C   UNL A   1      32.626  21.071  24.984  1.00  0.00     0.091 C 
ATOM      9  C   UNL A   1      32.217  22.554  24.945  1.00  0.00     0.014 C 
ATOM     10  C   UNL A   1      31.972  23.075  26.360  1.00  0.00     0.001 C 
ATOM     11  C   UNL A   1      33.693  21.357  27.197  1.00  0.00     0.014 C 
ATOM     12  C   UNL A   1      33.106  22.769  27.337  1.00  0.00     0.001 C 
BRANCH   8  13
ATOM     13  C   UNL A   1      32.419  20.386  23.629  1.00  0.00     0.229 C 
ATOM     14  N   UNL A   1      32.654  19.058  23.422  1.00  0.00    -0.309 N 
ATOM     15  H   UNL A   1      32.478  18.735  22.509  1.00  0.00     0.171 HD
ATOM     16  O   UNL A   1      32.024  21.030  22.649  1.00  0.00    -0.274 OA
BRANCH  14  17
ATOM     17  C   UNL A   1      33.102  18.112  24.308  1.00  0.00     0.154 A 
ATOM     18  C   UNL A   1      35.405  15.690  25.255  1.00  0.00     0.173 C 
ATOM     19  N   UNL A   1      34.265  16.569  25.158  1.00  0.00    -0.274 N 
ATOM     20  C   UNL A   1      33.028  16.389  25.697  1.00  0.00     0.110 A 
ATOM     21  N   UNL A   1      34.344  17.637  24.353  1.00  0.00    -0.155 NA
ATOM     22  C   UNL A   1      32.261  17.428  25.220  1.00  0.00     0.068 A 
ENDBRANCH  14  17
ENDBRANCH   8  13
ENDBRANCH   4   7
ENDBRANCH   2   3
ENDBRANCH   1   2
BRANCH   1  23
ATOM     23  C   UNL A   1      39.012  20.064  25.930  1.00  0.00     0.118 C 
BRANCH  23  24
ATOM     24  N   UNL A   1      40.199  19.244  26.136  1.00  0.00    -0.352 N 
ATOM     25  C   UNL A   1      41.495  19.628  26.369  1.00  0.00     0.251 C 
ATOM     26  H   UNL A   1      40.049  18.272  26.103  1.00  0.00     0.163 HD
ATOM     27  O   UNL A   1      42.391  18.785  26.307  1.00  0.00    -0.269 OA
BRANCH  25  28
ATOM     28  C   UNL A   1      41.815  21.039  26.671  1.00  0.00     0.039 A 
ATOM     29  C   UNL A   1      42.219  21.380  27.964  1.00  0.00     0.014 A 
ATOM     30  C   UNL A   1      41.716  22.026  25.687  1.00  0.00     0.014 A 
ATOM     31  C   UNL A   1      42.574  22.699  28.252  1.00  0.00     0.010 A 
ATOM     32  C   UNL A   1      42.174  23.313  25.947  1.00  0.00     0.010 A 
ATOM     33  C   UNL A   1      42.588  23.669  27.237  1.00  0.00    -0.014 A 
BRANCH  33  34
ATOM     34  C   UNL A   1      43.018  25.065  27.503  1.00  0.00     0.031 A 
ATOM     35  C   UNL A   1      42.058  26.042  28.130  1.00  0.00     0.074 A 
ATOM     36  C   UNL A   1      44.238  25.473  27.103  1.00  0.00     0.049 A 
ATOM     37  N   UNL A   1      42.225  27.314  28.383  1.00  0.00    -0.248 NA
ATOM     38  C   UNL A   1      40.723  25.534  28.489  1.00  0.00     0.031 C 
ATOM     39  C   UNL A   1      45.226  24.640  26.413  1.00  0.00     0.029 A 
ATOM     40  N   UNL A   1      44.848  26.698  27.198  1.00  0.00    -0.354 N 
ATOM     41  C   UNL A   1      41.011  27.763  28.886  1.00  0.00     0.074 A 
ATOM     42  C   UNL A   1      40.102  26.639  28.868  1.00  0.00     0.031 C 
ATOM     43  C   UNL A   1      46.321  25.375  26.158  1.00  0.00     0.029 A 
ATOM     44  C   UNL A   1      46.100  26.737  26.629  1.00  0.00     0.049 A 
ATOM     45  H   UNL A   1      44.428  27.477  27.632  1.00  0.00     0.167 HD
ATOM     46  C   UNL A   1      40.687  28.994  29.348  1.00  0.00     0.034 A 
ATOM     47  C   UNL A   1      46.967  27.759  26.494  1.00  0.00     0.034 A 
ATOM     48  C   UNL A   1      41.610  30.095  29.404  1.00  0.00     0.049 A 
ATOM     49  C   UNL A   1      46.597  29.107  27.050  1.00  0.00     0.074 A 
ATOM     50  C   UNL A   1      41.413  31.353  29.944  1.00  0.00     0.029 A 
ATOM     51  N   UNL A   1      42.897  30.074  28.892  1.00  0.00    -0.354 N 
ATOM     52  N   UNL A   1      45.500  29.471  27.670  1.00  0.00    -0.248 NA
ATOM     53  C   UNL A   1      47.595  30.177  26.919  1.00  0.00     0.031 C 
ATOM     54  C   UNL A   1      42.571  32.106  29.725  1.00  0.00     0.029 A 
ATOM     55  C   UNL A   1      43.503  31.303  29.088  1.00  0.00     0.049 A 
ATOM     56  H   UNL A   1      43.318  29.300  28.454  1.00  0.00     0.167 HD
ATOM     57  C   UNL A   1      45.691  30.798  28.038  1.00  0.00     0.074 A 
ATOM     58  C   UNL A   1      47.018  31.166  27.588  1.00  0.00     0.031 C 
ATOM     59  C   UNL A   1      44.843  31.638  28.679  1.00  0.00     0.034 A 
BRANCH  46  60
ATOM     60  C   UNL A   1      39.290  29.205  29.871  1.00  0.00     0.023 A 
ATOM     61  C   UNL A   1      38.968  28.821  31.190  1.00  0.00     0.012 A 
ATOM     62  C   UNL A   1      38.310  29.834  29.079  1.00  0.00     0.148 A 
ATOM     63  C   UNL A   1      37.687  29.024  31.698  1.00  0.00     0.002 A 
ATOM     64  C   UNL A   1      37.049  30.079  29.609  1.00  0.00     0.091 A 
ATOM     65  F   UNL A   1      38.626  30.174  27.822  1.00  0.00    -0.205 F 
ATOM     66  C   UNL A   1      36.731  29.664  30.913  1.00  0.00     0.022 A 
BRANCH  64  67
ATOM     67  S   UNL A   1      35.774  30.971  28.711  1.00  0.00     0.127 S 
ATOM     68  O   UNL A   1      35.211  29.914  27.872  1.00  0.00    -0.237 OA
ATOM     69  O   UNL A   1      34.898  31.424  29.792  1.00  0.00    -0.237 OA
ATOM     70  O   UNL A   1      36.458  32.038  27.994  1.00  0.00    -0.744 OA
ENDBRANCH  64  67
ENDBRANCH  46  60
BRANCH  47  71
ATOM     71  C   UNL A   1      48.295  27.534  25.856  1.00  0.00     0.023 A 
ATOM     72  C   UNL A   1      49.403  27.204  26.661  1.00  0.00     0.012 A 
ATOM     73  C   UNL A   1      48.465  27.625  24.461  1.00  0.00     0.148 A 
ATOM     74  C   UNL A   1      50.663  27.008  26.094  1.00  0.00     0.002 A 
ATOM     75  C   UNL A   1      49.710  27.373  23.897  1.00  0.00     0.091 A 
ATOM     76  F   UNL A   1      47.401  27.946  23.712  1.00  0.00    -0.205 F 
ATOM     77  C   UNL A   1      50.815  27.083  24.713  1.00  0.00     0.022 A 
BRANCH  75  78
ATOM     78  S   UNL A   1      49.974  27.323  22.121  1.00  0.00     0.127 S 
ATOM     79  O   UNL A   1      49.726  28.712  21.743  1.00  0.00    -0.237 OA
ATOM     80  O   UNL A   1      51.375  26.904  22.039  1.00  0.00    -0.237 OA
ATOM     81  O   UNL A   1      49.023  26.348  21.608  1.00  0.00    -0.744 OA
ENDBRANCH  75  78
ENDBRANCH  47  71
BRANCH  59  82
ATOM     82  C   UNL A   1      45.333  33.030  28.982  1.00  0.00     0.023 A 
ATOM     83  C   UNL A   1      45.983  33.301  30.202  1.00  0.00     0.012 A 
ATOM     84  C   UNL A   1      45.216  34.052  28.019  1.00  0.00     0.148 A 
ATOM     85  C   UNL A   1      46.478  34.575  30.473  1.00  0.00     0.002 A 
ATOM     86  C   UNL A   1      45.759  35.304  28.273  1.00  0.00     0.091 A 
ATOM     87  F   UNL A   1      44.579  33.778  26.871  1.00  0.00    -0.205 F 
ATOM     88  C   UNL A   1      46.378  35.573  29.505  1.00  0.00     0.022 A 
BRANCH  86  89
ATOM     89  S   UNL A   1      45.769  36.617  27.047  1.00  0.00     0.127 S 
ATOM     90  O   UNL A   1      46.284  35.920  25.870  1.00  0.00    -0.237 OA
ATOM     91  O   UNL A   1      44.354  36.980  26.972  1.00  0.00    -0.237 OA
ATOM     92  O   UNL A   1      46.634  37.661  27.581  1.00  0.00    -0.744 OA
ENDBRANCH  86  89
ENDBRANCH  59  82
ENDBRANCH  33  34
ENDBRANCH  25  28
ENDBRANCH  23  24
ENDBRANCH   1  23
TORSDOF 15
ENDMDL
