MODEL 1
REMARK VINA RESULT:     -11.9      0.000      0.000
REMARK SMILES Cc1nc(Nc2ccc(F)cc2)nc(OCC(=O)NCCCNC(=O)c2ccc(-c3c4nc(c(-c5cccc(S(=O)(=O)[O-])c5F)c5ccc([nH]5)c(-c5cccc(S(=O)(=O)[O-])c5F)c5nc(c(-c6cccc(S(=O)(=O)[O-])c6F)c6ccc3[nH]6)C=C5)C=C4)cc2)c1CCO
REMARK SMILES IDX 20 1 19 2 17 3 18 4 16 6 15 7 14 8 1 9 2 10 3 11 89 12 4 13
REMARK SMILES IDX 13 14 90 15 91 16 92 17 5 19 6 21 7 22 12 23 8 24 11 25 9 26
REMARK SMILES IDX 10 27 21 28 22 29 23 30 24 31 25 33 26 34 27 35 88 36 28 37
REMARK SMILES IDX 87 38 29 39 30 40 31 41 81 42 32 43 86 44 80 45 82 46 33 47
REMARK SMILES IDX 85 48 79 49 78 50 34 52 66 53 46 54 65 55 47 56 50 57 64 58
REMARK SMILES IDX 83 59 48 60 49 61 63 63 84 64 51 65 35 66 36 67 44 68 37 69
REMARK SMILES IDX 39 70 45 71 38 72 40 73 41 74 42 75 43 76 67 77 68 78 76 79
REMARK SMILES IDX 69 80 71 81 77 82 70 83 72 84 73 85 74 86 75 87 52 88 53 89
REMARK SMILES IDX 61 90 54 91 56 92 62 93 55 94 57 95 58 96 59 97 60 98
REMARK H PARENT 19 5 92 18 5 20 23 32 82 51 50 62
REMARK Flexibility Score: inf
ROOT
ATOM      1  C   UNL A   1      31.674  27.353  25.548  1.00  0.00     0.117 C 
ENDROOT
BRANCH   1   2
ATOM      2  N   UNL A   1      31.249  26.189  26.296  1.00  0.00    -0.353 N 
ATOM      3  C   UNL A   1      31.947  25.060  26.581  1.00  0.00     0.258 C 
ATOM      4  O   UNL A   1      31.393  24.206  27.277  1.00  0.00    -0.271 OA
ATOM      5  H   UNL A   1      30.328  26.222  26.646  1.00  0.00     0.163 HD
BRANCH   3   6
ATOM      6  C   UNL A   1      33.402  24.922  26.115  1.00  0.00     0.331 C 
BRANCH   6   7
ATOM      7  O   UNL A   1      33.743  24.246  24.926  1.00  0.00    -0.467 OA
BRANCH   7   8
ATOM      8  C   UNL A   1      34.344  23.028  24.879  1.00  0.00     0.222 A 
ATOM      9  C   UNL A   1      37.366  20.778  25.021  1.00  0.00     0.067 C 
ATOM     10  C   UNL A   1      35.990  21.368  24.924  1.00  0.00     0.050 A 
ATOM     11  N   UNL A   1      35.043  20.429  24.772  1.00  0.00    -0.218 NA
ATOM     12  C   UNL A   1      35.703  22.732  24.895  1.00  0.00     0.038 A 
ATOM     13  C   UNL A   1      33.779  20.801  24.585  1.00  0.00     0.230 A 
ATOM     14  N   UNL A   1      33.400  22.078  24.673  1.00  0.00    -0.177 NA
BRANCH  12  15
ATOM     15  C   UNL A   1      36.816  23.737  24.765  1.00  0.00     0.071 C 
BRANCH  15  16
ATOM     16  C   UNL A   1      37.519  24.095  26.081  1.00  0.00     0.161 C 
BRANCH  16  17
ATOM     17  O   UNL A   1      38.919  24.292  25.950  1.00  0.00    -0.396 OA
ATOM     18  H   UNL A   1      39.108  24.726  25.103  1.00  0.00     0.210 HD
ENDBRANCH  16  17
ENDBRANCH  15  16
ENDBRANCH  12  15
BRANCH  13  19
ATOM     19  N   UNL A   1      32.856  19.848  24.151  1.00  0.00    -0.324 N 
ATOM     20  H   UNL A   1      32.105  20.182  23.608  1.00  0.00     0.170 HD
BRANCH  19  21
ATOM     21  C   UNL A   1      32.879  18.468  24.402  1.00  0.00     0.041 A 
ATOM     22  C   UNL A   1      32.505  17.954  25.654  1.00  0.00     0.029 A 
ATOM     23  C   UNL A   1      33.412  17.583  23.453  1.00  0.00     0.029 A 
ATOM     24  C   UNL A   1      32.654  16.598  25.956  1.00  0.00     0.041 A 
ATOM     25  C   UNL A   1      33.585  16.228  23.759  1.00  0.00     0.041 A 
ATOM     26  C   UNL A   1      33.206  15.749  25.009  1.00  0.00     0.123 A 
ATOM     27  F   UNL A   1      33.398  14.458  25.309  1.00  0.00    -0.207 F 
ENDBRANCH  19  21
ENDBRANCH  13  19
ENDBRANCH   7   8
ENDBRANCH   6   7
ENDBRANCH   3   6
ENDBRANCH   1   2
BRANCH   1  28
ATOM     28  C   UNL A   1      31.740  28.596  26.419  1.00  0.00     0.042 C 
BRANCH  28  29
ATOM     29  C   UNL A   1      33.070  29.339  26.346  1.00  0.00     0.118 C 
BRANCH  29  30
ATOM     30  N   UNL A   1      32.950  30.758  26.669  1.00  0.00    -0.352 N 
ATOM     31  C   UNL A   1      33.715  31.549  27.484  1.00  0.00     0.251 C 
ATOM     32  H   UNL A   1      32.198  31.219  26.231  1.00  0.00     0.163 HD
ATOM     33  O   UNL A   1      33.320  32.680  27.774  1.00  0.00    -0.269 OA
BRANCH  31  34
ATOM     34  C   UNL A   1      34.993  31.050  28.024  1.00  0.00     0.039 A 
ATOM     35  C   UNL A   1      36.095  31.908  28.059  1.00  0.00     0.014 A 
ATOM     36  C   UNL A   1      35.110  29.736  28.486  1.00  0.00     0.014 A 
ATOM     37  C   UNL A   1      37.296  31.464  28.614  1.00  0.00     0.010 A 
ATOM     38  C   UNL A   1      36.274  29.330  29.126  1.00  0.00     0.010 A 
ATOM     39  C   UNL A   1      37.385  30.182  29.184  1.00  0.00    -0.014 A 
BRANCH  39  40
ATOM     40  C   UNL A   1      38.634  29.720  29.840  1.00  0.00     0.031 A 
ATOM     41  C   UNL A   1      39.037  30.275  31.179  1.00  0.00     0.074 A 
ATOM     42  C   UNL A   1      39.437  28.848  29.198  1.00  0.00     0.049 A 
ATOM     43  N   UNL A   1      40.098  30.005  31.893  1.00  0.00    -0.248 NA
ATOM     44  C   UNL A   1      38.151  31.283  31.787  1.00  0.00     0.031 C 
ATOM     45  C   UNL A   1      39.193  28.304  27.859  1.00  0.00     0.029 A 
ATOM     46  N   UNL A   1      40.626  28.276  29.574  1.00  0.00    -0.354 N 
ATOM     47  C   UNL A   1      40.023  30.826  33.012  1.00  0.00     0.074 A 
ATOM     48  C   UNL A   1      38.836  31.636  32.865  1.00  0.00     0.031 C 
ATOM     49  C   UNL A   1      40.186  27.462  27.538  1.00  0.00     0.029 A 
ATOM     50  C   UNL A   1      41.157  27.431  28.628  1.00  0.00     0.049 A 
ATOM     51  H   UNL A   1      41.059  28.455  30.441  1.00  0.00     0.167 HD
ATOM     52  C   UNL A   1      40.847  30.871  34.082  1.00  0.00     0.034 A 
ATOM     53  C   UNL A   1      42.297  26.710  28.635  1.00  0.00     0.034 A 
ATOM     54  C   UNL A   1      41.995  30.023  34.246  1.00  0.00     0.049 A 
ATOM     55  C   UNL A   1      43.179  26.755  29.853  1.00  0.00     0.074 A 
ATOM     56  C   UNL A   1      42.837  29.927  35.339  1.00  0.00     0.029 A 
ATOM     57  N   UNL A   1      42.465  29.133  33.294  1.00  0.00    -0.354 N 
ATOM     58  N   UNL A   1      43.004  27.418  30.970  1.00  0.00    -0.248 NA
ATOM     59  C   UNL A   1      44.398  25.931  29.829  1.00  0.00     0.031 C 
ATOM     60  C   UNL A   1      43.837  29.001  35.034  1.00  0.00     0.029 A 
ATOM     61  C   UNL A   1      43.597  28.495  33.767  1.00  0.00     0.049 A 
ATOM     62  H   UNL A   1      42.054  28.978  32.413  1.00  0.00     0.167 HD
ATOM     63  C   UNL A   1      44.071  27.073  31.791  1.00  0.00     0.074 A 
ATOM     64  C   UNL A   1      44.878  26.126  31.051  1.00  0.00     0.031 C 
ATOM     65  C   UNL A   1      44.361  27.513  33.039  1.00  0.00     0.034 A 
BRANCH  52  66
ATOM     66  C   UNL A   1      40.509  31.821  35.201  1.00  0.00     0.023 A 
ATOM     67  C   UNL A   1      41.198  33.047  35.303  1.00  0.00     0.012 A 
ATOM     68  C   UNL A   1      39.442  31.552  36.082  1.00  0.00     0.148 A 
ATOM     69  C   UNL A   1      40.847  33.981  36.274  1.00  0.00     0.002 A 
ATOM     70  C   UNL A   1      39.066  32.510  37.017  1.00  0.00     0.091 A 
ATOM     71  F   UNL A   1      38.812  30.374  35.980  1.00  0.00    -0.205 F 
ATOM     72  C   UNL A   1      39.773  33.720  37.121  1.00  0.00     0.022 A 
BRANCH  70  73
ATOM     73  S   UNL A   1      37.643  32.311  38.094  1.00  0.00     0.127 S 
ATOM     74  O   UNL A   1      36.636  33.116  37.404  1.00  0.00    -0.237 OA
ATOM     75  O   UNL A   1      37.415  30.868  38.036  1.00  0.00    -0.237 OA
ATOM     76  O   UNL A   1      38.050  32.814  39.399  1.00  0.00    -0.744 OA
ENDBRANCH  70  73
ENDBRANCH  52  66
BRANCH  53  77
ATOM     77  C   UNL A   1      42.619  25.831  27.476  1.00  0.00     0.023 A 
ATOM     78  C   UNL A   1      43.483  26.304  26.469  1.00  0.00     0.012 A 
ATOM     79  C   UNL A   1      42.133  24.511  27.396  1.00  0.00     0.148 A 
ATOM     80  C   UNL A   1      43.839  25.488  25.394  1.00  0.00     0.002 A 
ATOM     81  C   UNL A   1      42.537  23.684  26.355  1.00  0.00     0.091 A 
ATOM     82  F   UNL A   1      41.305  24.082  28.360  1.00  0.00    -0.205 F 
ATOM     83  C   UNL A   1      43.377  24.176  25.344  1.00  0.00     0.022 A 
BRANCH  81  84
ATOM     84  S   UNL A   1      42.111  21.940  26.285  1.00  0.00     0.127 S 
ATOM     85  O   UNL A   1      40.680  21.993  25.992  1.00  0.00    -0.237 OA
ATOM     86  O   UNL A   1      42.949  21.471  25.180  1.00  0.00    -0.237 OA
ATOM     87  O   UNL A   1      42.469  21.392  27.585  1.00  0.00    -0.744 OA
ENDBRANCH  81  84
ENDBRANCH  53  77
BRANCH  65  88
ATOM     88  C   UNL A   1      45.593  26.977  33.719  1.00  0.00     0.023 A 
ATOM     89  C   UNL A   1      46.793  27.710  33.664  1.00  0.00     0.012 A 
ATOM     90  C   UNL A   1      45.513  25.834  34.541  1.00  0.00     0.148 A 
ATOM     91  C   UNL A   1      47.901  27.309  34.409  1.00  0.00     0.002 A 
ATOM     92  C   UNL A   1      46.604  25.470  35.321  1.00  0.00     0.091 A 
ATOM     93  F   UNL A   1      44.362  25.147  34.570  1.00  0.00    -0.205 F 
ATOM     94  C   UNL A   1      47.801  26.202  35.250  1.00  0.00     0.022 A 
BRANCH  92  95
ATOM     95  S   UNL A   1      46.538  24.129  36.515  1.00  0.00     0.127 S 
ATOM     96  O   UNL A   1      47.875  24.190  37.104  1.00  0.00    -0.237 OA
ATOM     97  O   UNL A   1      45.459  24.563  37.403  1.00  0.00    -0.237 OA
ATOM     98  O   UNL A   1      46.253  22.921  35.753  1.00  0.00    -0.744 OA
ENDBRANCH  92  95
ENDBRANCH  65  88
ENDBRANCH  39  40
ENDBRANCH  31  34
ENDBRANCH  29  30
ENDBRANCH  28  29
ENDBRANCH   1  28
TORSDOF 20
ENDMDL
MODEL 2
REMARK VINA RESULT:     -11.8      1.163      1.799
REMARK SMILES Cc1nc(Nc2ccc(F)cc2)nc(OCC(=O)NCCCNC(=O)c2ccc(-c3c4nc(c(-c5cccc(S(=O)(=O)[O-])c5F)c5ccc([nH]5)c(-c5cccc(S(=O)(=O)[O-])c5F)c5nc(c(-c6cccc(S(=O)(=O)[O-])c6F)c6ccc3[nH]6)C=C5)C=C4)cc2)c1CCO
REMARK SMILES IDX 20 1 19 2 17 3 18 4 16 6 15 7 14 8 1 9 2 10 3 11 89 12 4 13
REMARK SMILES IDX 13 14 90 15 91 16 92 17 5 19 6 21 7 22 12 23 8 24 11 25 9 26
REMARK SMILES IDX 10 27 21 28 22 29 23 30 24 31 25 33 26 34 27 35 88 36 28 37
REMARK SMILES IDX 87 38 29 39 30 40 31 41 81 42 32 43 86 44 80 45 82 46 33 47
REMARK SMILES IDX 85 48 79 49 78 50 34 52 66 53 46 54 65 55 47 56 50 57 64 58
REMARK SMILES IDX 83 59 48 60 49 61 63 63 84 64 51 65 35 66 36 67 44 68 37 69
REMARK SMILES IDX 39 70 45 71 38 72 40 73 41 74 42 75 43 76 67 77 68 78 76 79
REMARK SMILES IDX 69 80 71 81 77 82 70 83 72 84 73 85 74 86 75 87 52 88 53 89
REMARK SMILES IDX 61 90 54 91 56 92 62 93 55 94 57 95 58 96 59 97 60 98
REMARK H PARENT 19 5 92 18 5 20 23 32 82 51 50 62
REMARK Flexibility Score: inf
ROOT
ATOM      1  C   UNL A   1      31.599  27.682  25.772  1.00  0.00     0.117 C 
ENDROOT
BRANCH   1   2
ATOM      2  N   UNL A   1      30.904  26.635  26.490  1.00  0.00    -0.353 N 
ATOM      3  C   UNL A   1      30.144  25.625  25.995  1.00  0.00     0.258 C 
ATOM      4  O   UNL A   1      29.676  24.814  26.798  1.00  0.00    -0.271 OA
ATOM      5  H   UNL A   1      30.995  26.658  27.471  1.00  0.00     0.163 HD
BRANCH   3   6
ATOM      6  C   UNL A   1      29.966  25.474  24.478  1.00  0.00     0.331 C 
BRANCH   6   7
ATOM      7  O   UNL A   1      30.682  24.512  23.736  1.00  0.00    -0.467 OA
BRANCH   7   8
ATOM      8  C   UNL A   1      31.795  23.871  24.179  1.00  0.00     0.222 A 
ATOM      9  C   UNL A   1      35.498  23.675  24.861  1.00  0.00     0.067 C 
ATOM     10  C   UNL A   1      34.023  23.430  24.733  1.00  0.00     0.050 A 
ATOM     11  N   UNL A   1      33.662  22.232  25.220  1.00  0.00    -0.218 NA
ATOM     12  C   UNL A   1      33.121  24.283  24.099  1.00  0.00     0.038 A 
ATOM     13  C   UNL A   1      32.399  21.834  25.100  1.00  0.00     0.230 A 
ATOM     14  N   UNL A   1      31.447  22.640  24.625  1.00  0.00    -0.177 NA
BRANCH  12  15
ATOM     15  C   UNL A   1      33.622  25.462  23.308  1.00  0.00     0.071 C 
BRANCH  15  16
ATOM     16  C   UNL A   1      32.982  25.630  21.924  1.00  0.00     0.161 C 
BRANCH  16  17
ATOM     17  O   UNL A   1      33.458  26.756  21.202  1.00  0.00    -0.396 OA
ATOM     18  H   UNL A   1      33.965  27.331  21.797  1.00  0.00     0.210 HD
ENDBRANCH  16  17
ENDBRANCH  15  16
ENDBRANCH  12  15
BRANCH  13  19
ATOM     19  N   UNL A   1      32.091  20.495  25.349  1.00  0.00    -0.324 N 
ATOM     20  H   UNL A   1      31.466  20.319  26.089  1.00  0.00     0.170 HD
BRANCH  19  21
ATOM     21  C   UNL A   1      32.575  19.371  24.661  1.00  0.00     0.041 A 
ATOM     22  C   UNL A   1      33.607  18.584  25.197  1.00  0.00     0.029 A 
ATOM     23  C   UNL A   1      32.135  19.092  23.359  1.00  0.00     0.029 A 
ATOM     24  C   UNL A   1      34.185  17.547  24.461  1.00  0.00     0.041 A 
ATOM     25  C   UNL A   1      32.728  18.070  22.608  1.00  0.00     0.041 A 
ATOM     26  C   UNL A   1      33.749  17.309  23.167  1.00  0.00     0.123 A 
ATOM     27  F   UNL A   1      34.333  16.349  22.437  1.00  0.00    -0.207 F 
ENDBRANCH  19  21
ENDBRANCH  13  19
ENDBRANCH   7   8
ENDBRANCH   6   7
ENDBRANCH   3   6
ENDBRANCH   1   2
BRANCH   1  28
ATOM     28  C   UNL A   1      31.905  28.875  26.663  1.00  0.00     0.042 C 
BRANCH  28  29
ATOM     29  C   UNL A   1      33.008  29.783  26.130  1.00  0.00     0.118 C 
BRANCH  29  30
ATOM     30  N   UNL A   1      32.856  31.173  26.552  1.00  0.00    -0.352 N 
ATOM     31  C   UNL A   1      33.581  31.911  27.449  1.00  0.00     0.251 C 
ATOM     32  H   UNL A   1      32.113  31.656  26.123  1.00  0.00     0.163 HD
ATOM     33  O   UNL A   1      33.160  33.014  27.807  1.00  0.00    -0.269 OA
BRANCH  31  34
ATOM     34  C   UNL A   1      34.848  31.390  27.994  1.00  0.00     0.039 A 
ATOM     35  C   UNL A   1      35.956  32.239  28.065  1.00  0.00     0.014 A 
ATOM     36  C   UNL A   1      34.948  30.065  28.427  1.00  0.00     0.014 A 
ATOM     37  C   UNL A   1      37.145  31.772  28.626  1.00  0.00     0.010 A 
ATOM     38  C   UNL A   1      36.100  29.635  29.075  1.00  0.00     0.010 A 
ATOM     39  C   UNL A   1      37.216  30.477  29.168  1.00  0.00    -0.014 A 
BRANCH  39  40
ATOM     40  C   UNL A   1      38.453  29.990  29.830  1.00  0.00     0.031 A 
ATOM     41  C   UNL A   1      38.826  30.490  31.199  1.00  0.00     0.074 A 
ATOM     42  C   UNL A   1      39.271  29.147  29.169  1.00  0.00     0.049 A 
ATOM     43  N   UNL A   1      39.872  30.192  31.924  1.00  0.00    -0.248 NA
ATOM     44  C   UNL A   1      37.924  31.470  31.830  1.00  0.00     0.031 C 
ATOM     45  C   UNL A   1      39.056  28.659  27.804  1.00  0.00     0.029 A 
ATOM     46  N   UNL A   1      40.454  28.561  29.546  1.00  0.00    -0.354 N 
ATOM     47  C   UNL A   1      39.772  30.965  33.074  1.00  0.00     0.074 A 
ATOM     48  C   UNL A   1      38.586  31.779  32.936  1.00  0.00     0.031 C 
ATOM     49  C   UNL A   1      40.058  27.832  27.470  1.00  0.00     0.029 A 
ATOM     50  C   UNL A   1      41.006  27.757  28.578  1.00  0.00     0.049 A 
ATOM     51  H   UNL A   1      40.867  28.705  30.429  1.00  0.00     0.167 HD
ATOM     52  C   UNL A   1      40.573  30.968  34.162  1.00  0.00     0.034 A 
ATOM     53  C   UNL A   1      42.147  27.038  28.579  1.00  0.00     0.034 A 
ATOM     54  C   UNL A   1      41.720  30.116  34.315  1.00  0.00     0.049 A 
ATOM     55  C   UNL A   1      43.003  27.034  29.816  1.00  0.00     0.074 A 
ATOM     56  C   UNL A   1      42.538  29.975  35.420  1.00  0.00     0.029 A 
ATOM     57  N   UNL A   1      42.212  29.266  33.336  1.00  0.00    -0.354 N 
ATOM     58  N   UNL A   1      42.804  27.650  30.956  1.00  0.00    -0.248 NA
ATOM     59  C   UNL A   1      44.224  26.214  29.784  1.00  0.00     0.031 C 
ATOM     60  C   UNL A   1      43.547  29.065  35.099  1.00  0.00     0.029 A 
ATOM     61  C   UNL A   1      43.335  28.611  33.807  1.00  0.00     0.049 A 
ATOM     62  H   UNL A   1      41.820  29.147  32.442  1.00  0.00     0.167 HD
ATOM     63  C   UNL A   1      43.854  27.273  31.784  1.00  0.00     0.074 A 
ATOM     64  C   UNL A   1      44.679  26.359  31.023  1.00  0.00     0.031 C 
ATOM     65  C   UNL A   1      44.117  27.662  33.055  1.00  0.00     0.034 A 
BRANCH  52  66
ATOM     66  C   UNL A   1      40.210  31.870  35.312  1.00  0.00     0.023 A 
ATOM     67  C   UNL A   1      40.774  33.159  35.388  1.00  0.00     0.012 A 
ATOM     68  C   UNL A   1      39.233  31.486  36.253  1.00  0.00     0.148 A 
ATOM     69  C   UNL A   1      40.389  34.046  36.391  1.00  0.00     0.002 A 
ATOM     70  C   UNL A   1      38.819  32.393  37.221  1.00  0.00     0.091 A 
ATOM     71  F   UNL A   1      38.722  30.250  36.174  1.00  0.00    -0.205 F 
ATOM     72  C   UNL A   1      39.403  33.669  37.298  1.00  0.00     0.022 A 
BRANCH  70  73
ATOM     73  S   UNL A   1      37.493  32.040  38.381  1.00  0.00     0.127 S 
ATOM     74  O   UNL A   1      38.122  32.376  39.658  1.00  0.00    -0.237 OA
ATOM     75  O   UNL A   1      36.453  32.973  37.949  1.00  0.00    -0.237 OA
ATOM     76  O   UNL A   1      37.165  30.633  38.203  1.00  0.00    -0.744 OA
ENDBRANCH  70  73
ENDBRANCH  52  66
BRANCH  53  77
ATOM     77  C   UNL A   1      42.496  26.208  27.391  1.00  0.00     0.023 A 
ATOM     78  C   UNL A   1      43.309  26.757  26.380  1.00  0.00     0.012 A 
ATOM     79  C   UNL A   1      42.086  24.864  27.287  1.00  0.00     0.148 A 
ATOM     80  C   UNL A   1      43.689  25.990  25.278  1.00  0.00     0.002 A 
ATOM     81  C   UNL A   1      42.516  24.089  26.217  1.00  0.00     0.091 A 
ATOM     82  F   UNL A   1      41.305  24.364  28.256  1.00  0.00    -0.205 F 
ATOM     83  C   UNL A   1      43.304  24.654  25.203  1.00  0.00     0.022 A 
BRANCH  81  84
ATOM     84  S   UNL A   1      42.191  22.325  26.110  1.00  0.00     0.127 S 
ATOM     85  O   UNL A   1      42.926  21.959  24.901  1.00  0.00    -0.237 OA
ATOM     86  O   UNL A   1      42.777  21.836  27.360  1.00  0.00    -0.237 OA
ATOM     87  O   UNL A   1      40.744  22.192  26.033  1.00  0.00    -0.744 OA
ENDBRANCH  81  84
ENDBRANCH  53  77
BRANCH  65  88
ATOM     88  C   UNL A   1      45.335  27.099  33.738  1.00  0.00     0.023 A 
ATOM     89  C   UNL A   1      46.541  27.826  33.719  1.00  0.00     0.012 A 
ATOM     90  C   UNL A   1      45.237  25.936  34.528  1.00  0.00     0.148 A 
ATOM     91  C   UNL A   1      47.635  27.398  34.469  1.00  0.00     0.002 A 
ATOM     92  C   UNL A   1      46.314  25.545  35.314  1.00  0.00     0.091 A 
ATOM     93  F   UNL A   1      44.081  25.256  34.523  1.00  0.00    -0.205 F 
ATOM     94  C   UNL A   1      47.516  26.269  35.279  1.00  0.00     0.022 A 
BRANCH  92  95
ATOM     95  S   UNL A   1      46.222  24.174  36.471  1.00  0.00     0.127 S 
ATOM     96  O   UNL A   1      45.346  24.718  37.508  1.00  0.00    -0.237 OA
ATOM     97  O   UNL A   1      45.618  23.122  35.653  1.00  0.00    -0.237 OA
ATOM     98  O   UNL A   1      47.589  23.907  36.895  1.00  0.00    -0.744 OA
ENDBRANCH  92  95
ENDBRANCH  65  88
ENDBRANCH  39  40
ENDBRANCH  31  34
ENDBRANCH  29  30
ENDBRANCH  28  29
ENDBRANCH   1  28
TORSDOF 20
ENDMDL
MODEL 3
REMARK VINA RESULT:     -11.7      1.578      1.952
REMARK SMILES Cc1nc(Nc2ccc(F)cc2)nc(OCC(=O)NCCCNC(=O)c2ccc(-c3c4nc(c(-c5cccc(S(=O)(=O)[O-])c5F)c5ccc([nH]5)c(-c5cccc(S(=O)(=O)[O-])c5F)c5nc(c(-c6cccc(S(=O)(=O)[O-])c6F)c6ccc3[nH]6)C=C5)C=C4)cc2)c1CCO
REMARK SMILES IDX 20 1 19 2 17 3 18 4 16 6 15 7 14 8 1 9 2 10 3 11 89 12 4 13
REMARK SMILES IDX 13 14 90 15 91 16 92 17 5 19 6 21 7 22 12 23 8 24 11 25 9 26
REMARK SMILES IDX 10 27 21 28 22 29 23 30 24 31 25 33 26 34 27 35 88 36 28 37
REMARK SMILES IDX 87 38 29 39 30 40 31 41 81 42 32 43 86 44 80 45 82 46 33 47
REMARK SMILES IDX 85 48 79 49 78 50 34 52 66 53 46 54 65 55 47 56 50 57 64 58
REMARK SMILES IDX 83 59 48 60 49 61 63 63 84 64 51 65 35 66 36 67 44 68 37 69
REMARK SMILES IDX 39 70 45 71 38 72 40 73 41 74 42 75 43 76 67 77 68 78 76 79
REMARK SMILES IDX 69 80 71 81 77 82 70 83 72 84 73 85 74 86 75 87 52 88 53 89
REMARK SMILES IDX 61 90 54 91 56 92 62 93 55 94 57 95 58 96 59 97 60 98
REMARK H PARENT 19 5 92 18 5 20 23 32 82 51 50 62
REMARK Flexibility Score: inf
ROOT
ATOM      1  C   UNL A   1      33.608  27.546  24.314  1.00  0.00     0.117 C 
ENDROOT
BRANCH   1   2
ATOM      2  N   UNL A   1      32.481  26.687  24.022  1.00  0.00    -0.353 N 
ATOM      3  C   UNL A   1      32.411  25.640  23.161  1.00  0.00     0.258 C 
ATOM      4  O   UNL A   1      31.348  25.017  23.103  1.00  0.00    -0.271 OA
ATOM      5  H   UNL A   1      31.653  26.890  24.515  1.00  0.00     0.163 HD
BRANCH   3   6
ATOM      6  C   UNL A   1      33.655  25.216  22.369  1.00  0.00     0.331 C 
BRANCH   6   7
ATOM      7  O   UNL A   1      34.384  24.053  22.693  1.00  0.00    -0.467 OA
BRANCH   7   8
ATOM      8  C   UNL A   1      34.127  23.257  23.764  1.00  0.00     0.222 A 
ATOM      9  C   UNL A   1      34.402  22.371  27.419  1.00  0.00     0.067 C 
ATOM     10  C   UNL A   1      34.094  22.432  25.951  1.00  0.00     0.050 A 
ATOM     11  N   UNL A   1      33.305  21.421  25.554  1.00  0.00    -0.218 NA
ATOM     12  C   UNL A   1      34.627  23.360  25.058  1.00  0.00     0.038 A 
ATOM     13  C   UNL A   1      33.014  21.289  24.263  1.00  0.00     0.230 A 
ATOM     14  N   UNL A   1      33.374  22.205  23.361  1.00  0.00    -0.177 NA
BRANCH  12  15
ATOM     15  C   UNL A   1      35.735  24.281  25.494  1.00  0.00     0.071 C 
BRANCH  15  16
ATOM     16  C   UNL A   1      37.149  23.700  25.357  1.00  0.00     0.161 C 
BRANCH  16  17
ATOM     17  O   UNL A   1      38.079  24.222  26.294  1.00  0.00    -0.396 OA
ATOM     18  H   UNL A   1      38.243  25.159  26.100  1.00  0.00     0.210 HD
ENDBRANCH  16  17
ENDBRANCH  15  16
ENDBRANCH  12  15
BRANCH  13  19
ATOM     19  N   UNL A   1      32.437  20.096  23.824  1.00  0.00    -0.324 N 
ATOM     20  H   UNL A   1      31.679  20.180  23.201  1.00  0.00     0.170 HD
BRANCH  19  21
ATOM     21  C   UNL A   1      32.817  18.791  24.173  1.00  0.00     0.041 A 
ATOM     22  C   UNL A   1      33.363  17.917  23.218  1.00  0.00     0.029 A 
ATOM     23  C   UNL A   1      32.529  18.285  25.448  1.00  0.00     0.029 A 
ATOM     24  C   UNL A   1      33.617  16.578  23.522  1.00  0.00     0.041 A 
ATOM     25  C   UNL A   1      32.759  16.937  25.750  1.00  0.00     0.041 A 
ATOM     26  C   UNL A   1      33.299  16.096  24.783  1.00  0.00     0.123 A 
ATOM     27  F   UNL A   1      33.494  14.801  25.066  1.00  0.00    -0.207 F 
ENDBRANCH  19  21
ENDBRANCH  13  19
ENDBRANCH   7   8
ENDBRANCH   6   7
ENDBRANCH   3   6
ENDBRANCH   1   2
BRANCH   1  28
ATOM     28  C   UNL A   1      33.182  28.989  24.532  1.00  0.00     0.042 C 
BRANCH  28  29
ATOM     29  C   UNL A   1      32.510  29.243  25.878  1.00  0.00     0.118 C 
BRANCH  29  30
ATOM     30  N   UNL A   1      32.311  30.662  26.158  1.00  0.00    -0.352 N 
ATOM     31  C   UNL A   1      32.988  31.503  27.001  1.00  0.00     0.251 C 
ATOM     32  H   UNL A   1      31.572  31.081  25.661  1.00  0.00     0.163 HD
ATOM     33  O   UNL A   1      32.529  32.622  27.237  1.00  0.00    -0.269 OA
BRANCH  31  34
ATOM     34  C   UNL A   1      34.248  31.071  27.634  1.00  0.00     0.039 A 
ATOM     35  C   UNL A   1      35.250  32.016  27.865  1.00  0.00     0.014 A 
ATOM     36  C   UNL A   1      34.447  29.734  27.990  1.00  0.00     0.014 A 
ATOM     37  C   UNL A   1      36.426  31.630  28.509  1.00  0.00     0.010 A 
ATOM     38  C   UNL A   1      35.574  29.374  28.718  1.00  0.00     0.010 A 
ATOM     39  C   UNL A   1      36.583  30.312  28.973  1.00  0.00    -0.014 A 
BRANCH  39  40
ATOM     40  C   UNL A   1      37.799  29.903  29.720  1.00  0.00     0.031 A 
ATOM     41  C   UNL A   1      38.054  30.439  31.102  1.00  0.00     0.074 A 
ATOM     42  C   UNL A   1      38.703  29.099  29.126  1.00  0.00     0.049 A 
ATOM     43  N   UNL A   1      39.066  30.208  31.897  1.00  0.00    -0.248 NA
ATOM     44  C   UNL A   1      37.062  31.375  31.659  1.00  0.00     0.031 C 
ATOM     45  C   UNL A   1      38.604  28.583  27.758  1.00  0.00     0.029 A 
ATOM     46  N   UNL A   1      39.889  28.584  29.587  1.00  0.00    -0.354 N 
ATOM     47  C   UNL A   1      38.849  30.988  33.026  1.00  0.00     0.074 A 
ATOM     48  C   UNL A   1      37.632  31.733  32.800  1.00  0.00     0.031 C 
ATOM     49  C   UNL A   1      39.670  27.810  27.501  1.00  0.00     0.029 A 
ATOM     50  C   UNL A   1      40.546  27.801  28.669  1.00  0.00     0.049 A 
ATOM     51  H   UNL A   1      40.236  28.761  30.492  1.00  0.00     0.167 HD
ATOM     52  C   UNL A   1      39.577  31.049  34.164  1.00  0.00     0.034 A 
ATOM     53  C   UNL A   1      41.723  27.147  28.754  1.00  0.00     0.034 A 
ATOM     54  C   UNL A   1      40.756  30.263  34.403  1.00  0.00     0.049 A 
ATOM     55  C   UNL A   1      42.496  27.204  30.044  1.00  0.00     0.074 A 
ATOM     56  C   UNL A   1      41.508  30.182  35.560  1.00  0.00     0.029 A 
ATOM     57  N   UNL A   1      41.357  29.431  33.471  1.00  0.00    -0.354 N 
ATOM     58  N   UNL A   1      42.189  27.822  31.158  1.00  0.00    -0.248 NA
ATOM     59  C   UNL A   1      43.759  26.453  30.103  1.00  0.00     0.031 C 
ATOM     60  C   UNL A   1      42.584  29.325  35.318  1.00  0.00     0.029 A 
ATOM     61  C   UNL A   1      42.481  28.845  34.022  1.00  0.00     0.049 A 
ATOM     62  H   UNL A   1      41.030  29.280  32.555  1.00  0.00     0.167 HD
ATOM     63  C   UNL A   1      43.202  27.514  32.058  1.00  0.00     0.074 A 
ATOM     64  C   UNL A   1      44.124  26.638  31.366  1.00  0.00     0.031 C 
ATOM     65  C   UNL A   1      43.360  27.932  33.337  1.00  0.00     0.034 A 
BRANCH  52  66
ATOM     66  C   UNL A   1      39.091  31.942  35.274  1.00  0.00     0.023 A 
ATOM     67  C   UNL A   1      38.174  31.438  36.219  1.00  0.00     0.012 A 
ATOM     68  C   UNL A   1      39.620  33.237  35.446  1.00  0.00     0.148 A 
ATOM     69  C   UNL A   1      37.775  32.213  37.305  1.00  0.00     0.002 A 
ATOM     70  C   UNL A   1      39.254  33.986  36.559  1.00  0.00     0.091 A 
ATOM     71  F   UNL A   1      40.477  33.704  34.528  1.00  0.00    -0.205 F 
ATOM     72  C   UNL A   1      38.324  33.480  37.483  1.00  0.00     0.022 A 
BRANCH  70  73
ATOM     73  S   UNL A   1      39.970  35.591  36.930  1.00  0.00     0.127 S 
ATOM     74  O   UNL A   1      39.294  35.933  38.180  1.00  0.00    -0.237 OA
ATOM     75  O   UNL A   1      41.389  35.267  37.073  1.00  0.00    -0.237 OA
ATOM     76  O   UNL A   1      39.650  36.448  35.797  1.00  0.00    -0.744 OA
ENDBRANCH  70  73
ENDBRANCH  52  66
BRANCH  53  77
ATOM     77  C   UNL A   1      42.193  26.323  27.604  1.00  0.00     0.023 A 
ATOM     78  C   UNL A   1      43.121  26.870  26.697  1.00  0.00     0.012 A 
ATOM     79  C   UNL A   1      41.780  24.986  27.440  1.00  0.00     0.148 A 
ATOM     80  C   UNL A   1      43.614  26.108  25.636  1.00  0.00     0.002 A 
ATOM     81  C   UNL A   1      42.318  24.215  26.417  1.00  0.00     0.091 A 
ATOM     82  F   UNL A   1      40.889  24.487  28.309  1.00  0.00    -0.205 F 
ATOM     83  C   UNL A   1      43.223  24.779  25.504  1.00  0.00     0.022 A 
BRANCH  81  84
ATOM     84  S   UNL A   1      41.986  22.456  26.255  1.00  0.00     0.127 S 
ATOM     85  O   UNL A   1      42.738  22.120  25.047  1.00  0.00    -0.237 OA
ATOM     86  O   UNL A   1      42.551  21.929  27.499  1.00  0.00    -0.237 OA
ATOM     87  O   UNL A   1      40.540  22.334  26.152  1.00  0.00    -0.744 OA
ENDBRANCH  81  84
ENDBRANCH  53  77
BRANCH  65  88
ATOM     88  C   UNL A   1      44.561  27.446  34.106  1.00  0.00     0.023 A 
ATOM     89  C   UNL A   1      45.723  28.239  34.154  1.00  0.00     0.012 A 
ATOM     90  C   UNL A   1      44.476  26.287  34.904  1.00  0.00     0.148 A 
ATOM     91  C   UNL A   1      46.788  27.882  34.979  1.00  0.00     0.002 A 
ATOM     92  C   UNL A   1      45.520  25.966  35.763  1.00  0.00     0.091 A 
ATOM     93  F   UNL A   1      43.363  25.543  34.834  1.00  0.00    -0.205 F 
ATOM     94  C   UNL A   1      46.680  26.757  35.796  1.00  0.00     0.022 A 
BRANCH  92  95
ATOM     95  S   UNL A   1      45.428  24.604  36.931  1.00  0.00     0.127 S 
ATOM     96  O   UNL A   1      46.728  24.694  37.595  1.00  0.00    -0.237 OA
ATOM     97  O   UNL A   1      44.290  24.990  37.765  1.00  0.00    -0.237 OA
ATOM     98  O   UNL A   1      45.223  23.401  36.137  1.00  0.00    -0.744 OA
ENDBRANCH  92  95
ENDBRANCH  65  88
ENDBRANCH  39  40
ENDBRANCH  31  34
ENDBRANCH  29  30
ENDBRANCH  28  29
ENDBRANCH   1  28
TORSDOF 20
ENDMDL
