MODEL 1
REMARK VINA RESULT:     -11.4      0.000      0.000
REMARK SMILES CCOC(=O)C1=NN(c2ccc(OC(F)(F)F)cc2)[C@@](C)(C(=O)NCCCNC(=O)c2ccc(-c3c4nc(c(-c5cccc(S(=O)(=O)[O-])c5F)c5ccc([nH]5)c(-c5cccc(S(=O)(=O)[O-])c5F)c5nc(c(-c6cccc(S(=O)(=O)[O-])c6F)c6ccc3[nH]6)C=C5)C=C4)cc2)C1
REMARK SMILES IDX 26 1 25 2 24 3 22 4 23 5 20 7 6 8 7 9 94 10 8 11 21 12 4 13
REMARK SMILES IDX 5 14 3 15 2 16 1 17 9 18 10 19 19 20 11 21 18 22 12 23 13 24
REMARK SMILES IDX 14 25 15 26 16 27 17 28 27 29 28 30 29 31 30 33 31 34 32 35
REMARK SMILES IDX 93 36 33 37 92 38 34 39 35 40 36 41 86 42 37 43 91 44 85 45
REMARK SMILES IDX 87 46 38 47 90 48 84 49 83 50 39 52 71 53 51 54 70 55 52 56
REMARK SMILES IDX 55 57 69 58 88 59 53 60 54 61 68 63 89 64 56 65 40 66 41 67
REMARK SMILES IDX 49 68 42 69 44 70 50 71 43 72 45 73 46 74 47 75 48 76 72 77
REMARK SMILES IDX 73 78 81 79 74 80 76 81 82 82 75 83 77 84 78 85 79 86 80 87
REMARK SMILES IDX 57 88 58 89 66 90 59 91 61 92 67 93 60 94 62 95 63 96 64 97
REMARK SMILES IDX 65 98
REMARK H PARENT 24 6 28 32 87 51 55 62
REMARK Flexibility Score: inf
ROOT
ATOM      1  C   UNL A   1      32.042  31.704  27.122  1.00  0.00     0.042 C 
ENDROOT
BRANCH   1   2
ATOM      2  C   UNL A   1      32.842  30.422  27.334  1.00  0.00     0.117 C 
BRANCH   2   3
ATOM      3  N   UNL A   1      33.539  29.985  26.141  1.00  0.00    -0.354 N 
ATOM      4  C   UNL A   1      33.408  28.905  25.325  1.00  0.00     0.248 C 
ATOM      5  O   UNL A   1      34.236  28.867  24.403  1.00  0.00    -0.272 OA
ATOM      6  H   UNL A   1      34.257  30.599  25.863  1.00  0.00     0.163 HD
BRANCH   4   7
ATOM      7  C   UNL A   1      32.294  27.816  25.447  1.00  0.00     0.144 C 
ATOM      8  C   UNL A   1      30.878  28.138  23.645  1.00  0.00     0.149 C 
ATOM      9  N   UNL A   1      31.655  27.178  23.257  1.00  0.00    -0.169 NA
ATOM     10  C   UNL A   1      30.937  28.487  25.086  1.00  0.00     0.106 C 
ATOM     11  N   UNL A   1      32.394  26.804  24.360  1.00  0.00    -0.249 N 
ATOM     12  C   UNL A   1      32.149  27.299  26.874  1.00  0.00     0.048 C 
BRANCH   8  13
ATOM     13  C   UNL A   1      29.876  28.821  22.756  1.00  0.00     0.354 C 
ATOM     14  O   UNL A   1      30.088  29.014  21.573  1.00  0.00    -0.245 OA
BRANCH  13  15
ATOM     15  O   UNL A   1      28.836  29.255  23.495  1.00  0.00    -0.461 OA
BRANCH  15  16
ATOM     16  C   UNL A   1      27.853  30.020  22.789  1.00  0.00     0.230 C 
ATOM     17  C   UNL A   1      27.670  31.379  23.442  1.00  0.00     0.049 C 
ENDBRANCH  15  16
ENDBRANCH  13  15
ENDBRANCH   8  13
BRANCH  11  18
ATOM     18  C   UNL A   1      33.148  25.646  24.247  1.00  0.00     0.061 A 
ATOM     19  C   UNL A   1      34.171  25.376  25.174  1.00  0.00     0.032 A 
ATOM     20  C   UNL A   1      33.000  24.715  23.214  1.00  0.00     0.032 A 
ATOM     21  C   UNL A   1      34.944  24.208  25.118  1.00  0.00     0.049 A 
ATOM     22  C   UNL A   1      33.772  23.541  23.146  1.00  0.00     0.049 A 
ATOM     23  C   UNL A   1      34.738  23.272  24.110  1.00  0.00     0.129 A 
BRANCH  23  24
ATOM     24  O   UNL A   1      35.538  22.171  24.179  1.00  0.00    -0.406 OA
BRANCH  24  25
ATOM     25  C   UNL A   1      35.151  21.125  25.050  1.00  0.00     0.573 C 
ATOM     26  F   UNL A   1      35.499  21.401  26.329  1.00  0.00    -0.132 F 
ATOM     27  F   UNL A   1      33.815  20.918  24.999  1.00  0.00    -0.132 F 
ATOM     28  F   UNL A   1      35.767  19.979  24.690  1.00  0.00    -0.132 F 
ENDBRANCH  24  25
ENDBRANCH  23  24
ENDBRANCH  11  18
ENDBRANCH   4   7
ENDBRANCH   2   3
ENDBRANCH   1   2
BRANCH   1  29
ATOM     29  C   UNL A   1      32.866  32.932  26.748  1.00  0.00     0.118 C 
BRANCH  29  30
ATOM     30  N   UNL A   1      32.530  34.105  27.542  1.00  0.00    -0.352 N 
ATOM     31  C   UNL A   1      33.054  34.545  28.734  1.00  0.00     0.251 C 
ATOM     32  H   UNL A   1      31.819  34.672  27.166  1.00  0.00     0.163 HD
ATOM     33  O   UNL A   1      32.511  35.481  29.317  1.00  0.00    -0.269 OA
BRANCH  31  34
ATOM     34  C   UNL A   1      34.240  33.892  29.335  1.00  0.00     0.039 A 
ATOM     35  C   UNL A   1      35.510  34.348  28.968  1.00  0.00     0.014 A 
ATOM     36  C   UNL A   1      34.116  32.813  30.216  1.00  0.00     0.014 A 
ATOM     37  C   UNL A   1      36.651  33.771  29.534  1.00  0.00     0.010 A 
ATOM     38  C   UNL A   1      35.251  32.264  30.812  1.00  0.00     0.010 A 
ATOM     39  C   UNL A   1      36.528  32.744  30.482  1.00  0.00    -0.014 A 
BRANCH  39  40
ATOM     40  C   UNL A   1      37.723  32.173  31.151  1.00  0.00     0.031 A 
ATOM     41  C   UNL A   1      38.483  31.041  30.521  1.00  0.00     0.074 A 
ATOM     42  C   UNL A   1      38.093  32.640  32.359  1.00  0.00     0.049 A 
ATOM     43  N   UNL A   1      39.493  30.363  31.001  1.00  0.00    -0.248 NA
ATOM     44  C   UNL A   1      38.047  30.613  29.183  1.00  0.00     0.031 C 
ATOM     45  C   UNL A   1      37.422  33.718  33.090  1.00  0.00     0.029 A 
ATOM     46  N   UNL A   1      39.119  32.262  33.187  1.00  0.00    -0.354 N 
ATOM     47  C   UNL A   1      39.783  29.396  30.048  1.00  0.00     0.074 A 
ATOM     48  C   UNL A   1      38.858  29.590  28.952  1.00  0.00     0.031 C 
ATOM     49  C   UNL A   1      38.066  33.925  34.251  1.00  0.00     0.029 A 
ATOM     50  C   UNL A   1      39.176  32.982  34.356  1.00  0.00     0.049 A 
ATOM     51  H   UNL A   1      39.753  31.543  32.964  1.00  0.00     0.167 HD
ATOM     52  C   UNL A   1      40.744  28.442  30.075  1.00  0.00     0.034 A 
ATOM     53  C   UNL A   1      40.026  32.892  35.395  1.00  0.00     0.034 A 
ATOM     54  C   UNL A   1      41.717  28.290  31.123  1.00  0.00     0.049 A 
ATOM     55  C   UNL A   1      41.117  31.860  35.377  1.00  0.00     0.074 A 
ATOM     56  C   UNL A   1      42.754  27.378  31.212  1.00  0.00     0.029 A 
ATOM     57  N   UNL A   1      41.782  29.082  32.258  1.00  0.00    -0.354 N 
ATOM     58  N   UNL A   1      41.425  31.006  34.431  1.00  0.00    -0.248 NA
ATOM     59  C   UNL A   1      41.982  31.785  36.563  1.00  0.00     0.031 C 
ATOM     60  C   UNL A   1      43.467  27.639  32.390  1.00  0.00     0.029 A 
ATOM     61  C   UNL A   1      42.849  28.690  33.047  1.00  0.00     0.049 A 
ATOM     62  H   UNL A   1      41.160  29.814  32.473  1.00  0.00     0.167 HD
ATOM     63  C   UNL A   1      42.525  30.300  34.902  1.00  0.00     0.074 A 
ATOM     64  C   UNL A   1      42.841  30.837  36.210  1.00  0.00     0.031 C 
ATOM     65  C   UNL A   1      43.192  29.279  34.314  1.00  0.00     0.034 A 
BRANCH  52  66
ATOM     66  C   UNL A   1      40.829  27.530  28.886  1.00  0.00     0.023 A 
ATOM     67  C   UNL A   1      39.994  26.398  28.840  1.00  0.00     0.012 A 
ATOM     68  C   UNL A   1      41.711  27.784  27.823  1.00  0.00     0.148 A 
ATOM     69  C   UNL A   1      40.042  25.528  27.751  1.00  0.00     0.002 A 
ATOM     70  C   UNL A   1      41.757  26.907  26.743  1.00  0.00     0.091 A 
ATOM     71  F   UNL A   1      42.513  28.858  27.881  1.00  0.00    -0.205 F 
ATOM     72  C   UNL A   1      40.923  25.781  26.701  1.00  0.00     0.022 A 
BRANCH  70  73
ATOM     73  S   UNL A   1      42.921  27.207  25.411  1.00  0.00     0.127 S 
ATOM     74  O   UNL A   1      44.161  27.496  26.126  1.00  0.00    -0.237 OA
ATOM     75  O   UNL A   1      42.935  25.936  24.682  1.00  0.00    -0.237 OA
ATOM     76  O   UNL A   1      42.313  28.312  24.679  1.00  0.00    -0.744 OA
ENDBRANCH  70  73
ENDBRANCH  52  66
BRANCH  53  77
ATOM     77  C   UNL A   1      39.922  33.867  36.512  1.00  0.00     0.023 A 
ATOM     78  C   UNL A   1      40.323  35.197  36.290  1.00  0.00     0.012 A 
ATOM     79  C   UNL A   1      39.386  33.510  37.759  1.00  0.00     0.148 A 
ATOM     80  C   UNL A   1      40.198  36.154  37.298  1.00  0.00     0.002 A 
ATOM     81  C   UNL A   1      39.237  34.476  38.750  1.00  0.00     0.091 A 
ATOM     82  F   UNL A   1      38.999  32.242  37.960  1.00  0.00    -0.205 F 
ATOM     83  C   UNL A   1      39.649  35.796  38.527  1.00  0.00     0.022 A 
BRANCH  81  84
ATOM     84  S   UNL A   1      38.453  34.031  40.301  1.00  0.00     0.127 S 
ATOM     85  O   UNL A   1      38.372  35.308  41.001  1.00  0.00    -0.237 OA
ATOM     86  O   UNL A   1      37.161  33.485  39.884  1.00  0.00    -0.237 OA
ATOM     87  O   UNL A   1      39.372  33.039  40.852  1.00  0.00    -0.744 OA
ENDBRANCH  81  84
ENDBRANCH  53  77
BRANCH  65  88
ATOM     88  C   UNL A   1      44.330  28.673  35.081  1.00  0.00     0.023 A 
ATOM     89  C   UNL A   1      45.639  29.109  34.805  1.00  0.00     0.012 A 
ATOM     90  C   UNL A   1      44.115  27.725  36.096  1.00  0.00     0.148 A 
ATOM     91  C   UNL A   1      46.722  28.603  35.527  1.00  0.00     0.002 A 
ATOM     92  C   UNL A   1      45.199  27.230  36.815  1.00  0.00     0.091 A 
ATOM     93  F   UNL A   1      42.864  27.313  36.349  1.00  0.00    -0.205 F 
ATOM     94  C   UNL A   1      46.502  27.665  36.534  1.00  0.00     0.022 A 
BRANCH  92  95
ATOM     95  S   UNL A   1      44.920  26.028  38.117  1.00  0.00     0.127 S 
ATOM     96  O   UNL A   1      46.273  25.722  38.572  1.00  0.00    -0.237 OA
ATOM     97  O   UNL A   1      44.111  26.763  39.091  1.00  0.00    -0.237 OA
ATOM     98  O   UNL A   1      44.203  24.954  37.435  1.00  0.00    -0.744 OA
ENDBRANCH  92  95
ENDBRANCH  65  88
ENDBRANCH  39  40
ENDBRANCH  31  34
ENDBRANCH  29  30
ENDBRANCH   1  29
TORSDOF 19
ENDMDL
MODEL 2
REMARK VINA RESULT:     -11.4      5.908     10.869
REMARK SMILES CCOC(=O)C1=NN(c2ccc(OC(F)(F)F)cc2)[C@@](C)(C(=O)NCCCNC(=O)c2ccc(-c3c4nc(c(-c5cccc(S(=O)(=O)[O-])c5F)c5ccc([nH]5)c(-c5cccc(S(=O)(=O)[O-])c5F)c5nc(c(-c6cccc(S(=O)(=O)[O-])c6F)c6ccc3[nH]6)C=C5)C=C4)cc2)C1
REMARK SMILES IDX 26 1 25 2 24 3 22 4 23 5 20 7 6 8 7 9 94 10 8 11 21 12 4 13
REMARK SMILES IDX 5 14 3 15 2 16 1 17 9 18 10 19 19 20 11 21 18 22 12 23 13 24
REMARK SMILES IDX 14 25 15 26 16 27 17 28 27 29 28 30 29 31 30 33 31 34 32 35
REMARK SMILES IDX 93 36 33 37 92 38 34 39 35 40 36 41 86 42 37 43 91 44 85 45
REMARK SMILES IDX 87 46 38 47 90 48 84 49 83 50 39 52 71 53 51 54 70 55 52 56
REMARK SMILES IDX 55 57 69 58 88 59 53 60 54 61 68 63 89 64 56 65 40 66 41 67
REMARK SMILES IDX 49 68 42 69 44 70 50 71 43 72 45 73 46 74 47 75 48 76 72 77
REMARK SMILES IDX 73 78 81 79 74 80 76 81 82 82 75 83 77 84 78 85 79 86 80 87
REMARK SMILES IDX 57 88 58 89 66 90 59 91 61 92 67 93 60 94 62 95 63 96 64 97
REMARK SMILES IDX 65 98
REMARK H PARENT 24 6 28 32 87 51 55 62
REMARK Flexibility Score: inf
ROOT
ATOM      1  C   UNL A   1      35.500  22.012  24.278  1.00  0.00     0.042 C 
ENDROOT
BRANCH   1   2
ATOM      2  C   UNL A   1      35.343  23.250  23.400  1.00  0.00     0.117 C 
BRANCH   2   3
ATOM      3  N   UNL A   1      34.985  24.436  24.152  1.00  0.00    -0.354 N 
ATOM      4  C   UNL A   1      33.832  25.142  24.292  1.00  0.00     0.248 C 
ATOM      5  O   UNL A   1      33.939  26.144  25.013  1.00  0.00    -0.272 OA
ATOM      6  H   UNL A   1      35.735  24.810  24.670  1.00  0.00     0.163 HD
BRANCH   4   7
ATOM      7  C   UNL A   1      32.450  24.737  23.682  1.00  0.00     0.144 C 
ATOM      8  C   UNL A   1      31.249  23.757  25.400  1.00  0.00     0.149 C 
ATOM      9  N   UNL A   1      30.808  24.974  25.372  1.00  0.00    -0.169 NA
ATOM     10  C   UNL A   1      32.079  23.334  24.245  1.00  0.00     0.106 C 
ATOM     11  N   UNL A   1      31.341  25.556  24.241  1.00  0.00    -0.249 N 
ATOM     12  C   UNL A   1      32.514  24.585  22.166  1.00  0.00     0.048 C 
BRANCH   8  13
ATOM     13  C   UNL A   1      30.884  22.754  26.459  1.00  0.00     0.354 C 
ATOM     14  O   UNL A   1      30.047  21.891  26.270  1.00  0.00    -0.245 OA
BRANCH  13  15
ATOM     15  O   UNL A   1      31.524  23.053  27.606  1.00  0.00    -0.461 OA
BRANCH  15  16
ATOM     16  C   UNL A   1      32.951  22.932  27.568  1.00  0.00     0.230 C 
ATOM     17  C   UNL A   1      33.353  21.485  27.341  1.00  0.00     0.049 C 
ENDBRANCH  15  16
ENDBRANCH  13  15
ENDBRANCH   8  13
BRANCH  11  18
ATOM     18  C   UNL A   1      30.842  26.799  23.880  1.00  0.00     0.061 A 
ATOM     19  C   UNL A   1      31.533  27.970  24.239  1.00  0.00     0.032 A 
ATOM     20  C   UNL A   1      29.632  26.988  23.204  1.00  0.00     0.032 A 
ATOM     21  C   UNL A   1      31.084  29.247  23.876  1.00  0.00     0.049 A 
ATOM     22  C   UNL A   1      29.170  28.264  22.837  1.00  0.00     0.049 A 
ATOM     23  C   UNL A   1      29.904  29.402  23.156  1.00  0.00     0.129 A 
BRANCH  23  24
ATOM     24  O   UNL A   1      29.588  30.691  22.846  1.00  0.00    -0.406 OA
BRANCH  24  25
ATOM     25  C   UNL A   1      28.365  31.208  23.336  1.00  0.00     0.573 C 
ATOM     26  F   UNL A   1      27.701  31.888  22.371  1.00  0.00    -0.132 F 
ATOM     27  F   UNL A   1      27.567  30.218  23.797  1.00  0.00    -0.132 F 
ATOM     28  F   UNL A   1      28.606  32.062  24.354  1.00  0.00    -0.132 F 
ENDBRANCH  24  25
ENDBRANCH  23  24
ENDBRANCH  11  18
ENDBRANCH   4   7
ENDBRANCH   2   3
ENDBRANCH   1   2
BRANCH   1  29
ATOM     29  C   UNL A   1      36.421  22.180  25.483  1.00  0.00     0.118 C 
BRANCH  29  30
ATOM     30  N   UNL A   1      37.388  21.101  25.615  1.00  0.00    -0.352 N 
ATOM     31  C   UNL A   1      38.723  21.145  25.939  1.00  0.00     0.251 C 
ATOM     32  H   UNL A   1      37.031  20.199  25.447  1.00  0.00     0.163 HD
ATOM     33  O   UNL A   1      39.397  20.122  25.838  1.00  0.00    -0.269 OA
BRANCH  31  34
ATOM     34  C   UNL A   1      39.361  22.406  26.381  1.00  0.00     0.039 A 
ATOM     35  C   UNL A   1      40.426  22.334  27.285  1.00  0.00     0.014 A 
ATOM     36  C   UNL A   1      38.895  23.653  25.952  1.00  0.00     0.014 A 
ATOM     37  C   UNL A   1      41.068  23.503  27.705  1.00  0.00     0.010 A 
ATOM     38  C   UNL A   1      39.560  24.817  26.339  1.00  0.00     0.010 A 
ATOM     39  C   UNL A   1      40.657  24.751  27.212  1.00  0.00    -0.014 A 
BRANCH  39  40
ATOM     40  C   UNL A   1      41.375  25.995  27.584  1.00  0.00     0.031 A 
ATOM     41  C   UNL A   1      40.701  27.044  28.421  1.00  0.00     0.074 A 
ATOM     42  C   UNL A   1      42.622  26.205  27.120  1.00  0.00     0.049 A 
ATOM     43  N   UNL A   1      41.141  28.226  28.769  1.00  0.00    -0.248 NA
ATOM     44  C   UNL A   1      39.357  26.725  28.927  1.00  0.00     0.031 C 
ATOM     45  C   UNL A   1      43.377  25.278  26.275  1.00  0.00     0.029 A 
ATOM     46  N   UNL A   1      43.469  27.271  27.286  1.00  0.00    -0.354 N 
ATOM     47  C   UNL A   1      40.112  28.813  29.491  1.00  0.00     0.074 A 
ATOM     48  C   UNL A   1      39.034  27.849  29.553  1.00  0.00     0.031 C 
ATOM     49  C   UNL A   1      44.583  25.808  26.013  1.00  0.00     0.029 A 
ATOM     50  C   UNL A   1      44.676  27.120  26.647  1.00  0.00     0.049 A 
ATOM     51  H   UNL A   1      43.234  28.068  27.813  1.00  0.00     0.167 HD
ATOM     52  C   UNL A   1      40.073  30.038  30.067  1.00  0.00     0.034 A 
ATOM     53  C   UNL A   1      45.738  27.944  26.581  1.00  0.00     0.034 A 
ATOM     54  C   UNL A   1      41.166  30.973  30.077  1.00  0.00     0.049 A 
ATOM     55  C   UNL A   1      45.689  29.276  27.272  1.00  0.00     0.074 A 
ATOM     56  C   UNL A   1      41.230  32.221  30.672  1.00  0.00     0.029 A 
ATOM     57  N   UNL A   1      42.394  30.753  29.475  1.00  0.00    -0.354 N 
ATOM     58  N   UNL A   1      44.736  29.782  28.018  1.00  0.00    -0.248 NA
ATOM     59  C   UNL A   1      46.864  30.147  27.121  1.00  0.00     0.031 C 
ATOM     60  C   UNL A   1      42.511  32.744  30.456  1.00  0.00     0.029 A 
ATOM     61  C   UNL A   1      43.229  31.835  29.696  1.00  0.00     0.049 A 
ATOM     62  H   UNL A   1      42.638  29.948  28.964  1.00  0.00     0.167 HD
ATOM     63  C   UNL A   1      45.200  31.023  28.433  1.00  0.00     0.074 A 
ATOM     64  C   UNL A   1      46.525  31.188  27.872  1.00  0.00     0.031 C 
ATOM     65  C   UNL A   1      44.570  31.954  29.188  1.00  0.00     0.034 A 
BRANCH  52  66
ATOM     66  C   UNL A   1      38.816  30.404  30.800  1.00  0.00     0.023 A 
ATOM     67  C   UNL A   1      38.654  29.966  32.127  1.00  0.00     0.012 A 
ATOM     68  C   UNL A   1      37.808  31.175  30.197  1.00  0.00     0.148 A 
ATOM     69  C   UNL A   1      37.501  30.288  32.842  1.00  0.00     0.002 A 
ATOM     70  C   UNL A   1      36.658  31.486  30.916  1.00  0.00     0.091 A 
ATOM     71  F   UNL A   1      37.965  31.578  28.927  1.00  0.00    -0.205 F 
ATOM     72  C   UNL A   1      36.500  31.048  32.238  1.00  0.00     0.022 A 
BRANCH  70  73
ATOM     73  S   UNL A   1      35.350  32.428  30.126  1.00  0.00     0.127 S 
ATOM     74  O   UNL A   1      36.038  33.646  29.708  1.00  0.00    -0.237 OA
ATOM     75  O   UNL A   1      34.936  31.566  29.016  1.00  0.00    -0.237 OA
ATOM     76  O   UNL A   1      34.354  32.566  31.182  1.00  0.00    -0.744 OA
ENDBRANCH  70  73
ENDBRANCH  52  66
BRANCH  53  77
ATOM     77  C   UNL A   1      46.972  27.492  25.889  1.00  0.00     0.023 A 
ATOM     78  C   UNL A   1      47.902  26.712  26.601  1.00  0.00     0.012 A 
ATOM     79  C   UNL A   1      47.208  27.775  24.534  1.00  0.00     0.148 A 
ATOM     80  C   UNL A   1      49.052  26.229  25.974  1.00  0.00     0.002 A 
ATOM     81  C   UNL A   1      48.341  27.266  23.908  1.00  0.00     0.091 A 
ATOM     82  F   UNL A   1      46.314  28.514  23.860  1.00  0.00    -0.205 F 
ATOM     83  C   UNL A   1      49.270  26.500  24.626  1.00  0.00     0.022 A 
BRANCH  81  84
ATOM     84  S   UNL A   1      48.578  27.547  22.152  1.00  0.00     0.127 S 
ATOM     85  O   UNL A   1      49.777  28.377  22.114  1.00  0.00    -0.237 OA
ATOM     86  O   UNL A   1      48.759  26.197  21.615  1.00  0.00    -0.237 OA
ATOM     87  O   UNL A   1      47.326  28.185  21.757  1.00  0.00    -0.744 OA
ENDBRANCH  81  84
ENDBRANCH  53  77
BRANCH  65  88
ATOM     88  C   UNL A   1      45.304  33.236  29.449  1.00  0.00     0.023 A 
ATOM     89  C   UNL A   1      46.113  33.329  30.597  1.00  0.00     0.012 A 
ATOM     90  C   UNL A   1      45.243  34.318  28.555  1.00  0.00     0.148 A 
ATOM     91  C   UNL A   1      46.849  34.487  30.854  1.00  0.00     0.002 A 
ATOM     92  C   UNL A   1      45.983  35.467  28.815  1.00  0.00     0.091 A 
ATOM     93  F   UNL A   1      44.466  34.221  27.466  1.00  0.00    -0.205 F 
ATOM     94  C   UNL A   1      46.786  35.557  29.961  1.00  0.00     0.022 A 
BRANCH  92  95
ATOM     95  S   UNL A   1      45.911  36.843  27.666  1.00  0.00     0.127 S 
ATOM     96  O   UNL A   1      44.484  37.142  27.605  1.00  0.00    -0.237 OA
ATOM     97  O   UNL A   1      46.713  37.878  28.324  1.00  0.00    -0.237 OA
ATOM     98  O   UNL A   1      46.516  36.301  26.454  1.00  0.00    -0.744 OA
ENDBRANCH  92  95
ENDBRANCH  65  88
ENDBRANCH  39  40
ENDBRANCH  31  34
ENDBRANCH  29  30
ENDBRANCH   1  29
TORSDOF 19
ENDMDL
MODEL 3
REMARK VINA RESULT:     -11.3      3.935      8.633
REMARK SMILES CCOC(=O)C1=NN(c2ccc(OC(F)(F)F)cc2)[C@@](C)(C(=O)NCCCNC(=O)c2ccc(-c3c4nc(c(-c5cccc(S(=O)(=O)[O-])c5F)c5ccc([nH]5)c(-c5cccc(S(=O)(=O)[O-])c5F)c5nc(c(-c6cccc(S(=O)(=O)[O-])c6F)c6ccc3[nH]6)C=C5)C=C4)cc2)C1
REMARK SMILES IDX 26 1 25 2 24 3 22 4 23 5 20 7 6 8 7 9 94 10 8 11 21 12 4 13
REMARK SMILES IDX 5 14 3 15 2 16 1 17 9 18 10 19 19 20 11 21 18 22 12 23 13 24
REMARK SMILES IDX 14 25 15 26 16 27 17 28 27 29 28 30 29 31 30 33 31 34 32 35
REMARK SMILES IDX 93 36 33 37 92 38 34 39 35 40 36 41 86 42 37 43 91 44 85 45
REMARK SMILES IDX 87 46 38 47 90 48 84 49 83 50 39 52 71 53 51 54 70 55 52 56
REMARK SMILES IDX 55 57 69 58 88 59 53 60 54 61 68 63 89 64 56 65 40 66 41 67
REMARK SMILES IDX 49 68 42 69 44 70 50 71 43 72 45 73 46 74 47 75 48 76 72 77
REMARK SMILES IDX 73 78 81 79 74 80 76 81 82 82 75 83 77 84 78 85 79 86 80 87
REMARK SMILES IDX 57 88 58 89 66 90 59 91 61 92 67 93 60 94 62 95 63 96 64 97
REMARK SMILES IDX 65 98
REMARK H PARENT 24 6 28 32 87 51 55 62
REMARK Flexibility Score: inf
ROOT
ATOM      1  C   UNL A   1      32.021  28.262  27.183  1.00  0.00     0.042 C 
ENDROOT
BRANCH   1   2
ATOM      2  C   UNL A   1      31.663  26.981  26.434  1.00  0.00     0.117 C 
BRANCH   2   3
ATOM      3  N   UNL A   1      32.782  26.068  26.307  1.00  0.00    -0.354 N 
ATOM      4  C   UNL A   1      32.955  24.887  25.656  1.00  0.00     0.248 C 
ATOM      5  O   UNL A   1      34.074  24.380  25.823  1.00  0.00    -0.272 OA
ATOM      6  H   UNL A   1      33.584  26.365  26.796  1.00  0.00     0.163 HD
BRANCH   4   7
ATOM      7  C   UNL A   1      31.903  24.217  24.714  1.00  0.00     0.144 C 
ATOM      8  C   UNL A   1      32.509  24.793  22.556  1.00  0.00     0.149 C 
ATOM      9  N   UNL A   1      33.004  23.606  22.708  1.00  0.00    -0.169 NA
ATOM     10  C   UNL A   1      31.551  25.241  23.597  1.00  0.00     0.106 C 
ATOM     11  N   UNL A   1      32.508  23.127  23.902  1.00  0.00    -0.249 N 
ATOM     12  C   UNL A   1      30.597  23.908  25.438  1.00  0.00     0.048 C 
BRANCH   8  13
ATOM     13  C   UNL A   1      32.771  25.668  21.362  1.00  0.00     0.354 C 
ATOM     14  O   UNL A   1      33.138  25.211  20.295  1.00  0.00    -0.245 OA
BRANCH  13  15
ATOM     15  O   UNL A   1      32.650  26.963  21.713  1.00  0.00    -0.461 OA
BRANCH  15  16
ATOM     16  C   UNL A   1      33.794  27.539  22.355  1.00  0.00     0.230 C 
ATOM     17  C   UNL A   1      33.434  28.877  22.975  1.00  0.00     0.049 C 
ENDBRANCH  15  16
ENDBRANCH  13  15
ENDBRANCH   8  13
BRANCH  11  18
ATOM     18  C   UNL A   1      32.728  21.786  24.179  1.00  0.00     0.061 A 
ATOM     19  C   UNL A   1      32.233  20.794  23.312  1.00  0.00     0.032 A 
ATOM     20  C   UNL A   1      33.383  21.322  25.324  1.00  0.00     0.032 A 
ATOM     21  C   UNL A   1      32.451  19.428  23.535  1.00  0.00     0.049 A 
ATOM     22  C   UNL A   1      33.605  19.953  25.560  1.00  0.00     0.049 A 
ATOM     23  C   UNL A   1      33.154  18.998  24.655  1.00  0.00     0.129 A 
BRANCH  23  24
ATOM     24  O   UNL A   1      33.316  17.647  24.745  1.00  0.00    -0.406 OA
BRANCH  24  25
ATOM     25  C   UNL A   1      34.587  17.111  24.429  1.00  0.00     0.573 C 
ATOM     26  F   UNL A   1      35.022  16.279  25.405  1.00  0.00    -0.132 F 
ATOM     27  F   UNL A   1      34.552  16.431  23.261  1.00  0.00    -0.132 F 
ATOM     28  F   UNL A   1      35.486  18.111  24.306  1.00  0.00    -0.132 F 
ENDBRANCH  24  25
ENDBRANCH  23  24
ENDBRANCH  11  18
ENDBRANCH   4   7
ENDBRANCH   2   3
ENDBRANCH   1   2
BRANCH   1  29
ATOM     29  C   UNL A   1      33.435  28.783  26.945  1.00  0.00     0.118 C 
BRANCH  29  30
ATOM     30  N   UNL A   1      33.548  30.223  27.127  1.00  0.00    -0.352 N 
ATOM     31  C   UNL A   1      34.521  30.960  27.757  1.00  0.00     0.251 C 
ATOM     32  H   UNL A   1      32.815  30.750  26.735  1.00  0.00     0.163 HD
ATOM     33  O   UNL A   1      34.339  32.162  27.935  1.00  0.00    -0.269 OA
BRANCH  31  34
ATOM     34  C   UNL A   1      35.766  30.324  28.246  1.00  0.00     0.039 A 
ATOM     35  C   UNL A   1      36.880  30.302  27.401  1.00  0.00     0.014 A 
ATOM     36  C   UNL A   1      35.833  29.714  29.503  1.00  0.00     0.014 A 
ATOM     37  C   UNL A   1      38.079  29.731  27.838  1.00  0.00     0.010 A 
ATOM     38  C   UNL A   1      37.040  29.180  29.955  1.00  0.00     0.010 A 
ATOM     39  C   UNL A   1      38.175  29.192  29.130  1.00  0.00    -0.014 A 
BRANCH  39  40
ATOM     40  C   UNL A   1      39.460  28.653  29.641  1.00  0.00     0.031 A 
ATOM     41  C   UNL A   1      40.101  29.240  30.866  1.00  0.00     0.074 A 
ATOM     42  C   UNL A   1      40.080  27.666  28.967  1.00  0.00     0.049 A 
ATOM     43  N   UNL A   1      41.259  28.957  31.403  1.00  0.00    -0.248 NA
ATOM     44  C   UNL A   1      39.344  30.285  31.573  1.00  0.00     0.031 C 
ATOM     45  C   UNL A   1      39.577  27.028  27.748  1.00  0.00     0.029 A 
ATOM     46  N   UNL A   1      41.273  27.033  29.207  1.00  0.00    -0.354 N 
ATOM     47  C   UNL A   1      41.395  29.821  32.481  1.00  0.00     0.074 A 
ATOM     48  C   UNL A   1      40.190  30.622  32.537  1.00  0.00     0.031 C 
ATOM     49  C   UNL A   1      40.447  26.082  27.359  1.00  0.00     0.029 A 
ATOM     50  C   UNL A   1      41.578  26.064  28.282  1.00  0.00     0.049 A 
ATOM     51  H   UNL A   1      41.855  27.253  29.970  1.00  0.00     0.167 HD
ATOM     52  C   UNL A   1      42.422  29.927  33.358  1.00  0.00     0.034 A 
ATOM     53  C   UNL A   1      42.647  25.252  28.188  1.00  0.00     0.034 A 
ATOM     54  C   UNL A   1      43.588  29.084  33.358  1.00  0.00     0.049 A 
ATOM     55  C   UNL A   1      43.748  25.353  29.204  1.00  0.00     0.074 A 
ATOM     56  C   UNL A   1      44.659  29.092  34.235  1.00  0.00     0.029 A 
ATOM     57  N   UNL A   1      43.826  28.071  32.444  1.00  0.00    -0.354 N 
ATOM     58  N   UNL A   1      43.822  26.122  30.263  1.00  0.00    -0.248 NA
ATOM     59  C   UNL A   1      44.909  24.469  29.018  1.00  0.00     0.031 C 
ATOM     60  C   UNL A   1      45.532  28.061  33.868  1.00  0.00     0.029 A 
ATOM     61  C   UNL A   1      45.019  27.437  32.743  1.00  0.00     0.049 A 
ATOM     62  H   UNL A   1      43.235  27.837  31.692  1.00  0.00     0.167 HD
ATOM     63  C   UNL A   1      45.029  25.808  30.875  1.00  0.00     0.074 A 
ATOM     64  C   UNL A   1      45.647  24.767  30.079  1.00  0.00     0.031 C 
ATOM     65  C   UNL A   1      45.588  26.356  31.980  1.00  0.00     0.034 A 
BRANCH  52  66
ATOM     66  C   UNL A   1      42.288  30.957  34.440  1.00  0.00     0.023 A 
ATOM     67  C   UNL A   1      41.738  30.571  35.678  1.00  0.00     0.012 A 
ATOM     68  C   UNL A   1      42.701  32.286  34.251  1.00  0.00     0.148 A 
ATOM     69  C   UNL A   1      41.599  31.499  36.709  1.00  0.00     0.002 A 
ATOM     70  C   UNL A   1      42.553  33.206  35.283  1.00  0.00     0.091 A 
ATOM     71  F   UNL A   1      43.212  32.647  33.063  1.00  0.00    -0.205 F 
ATOM     72  C   UNL A   1      42.005  32.818  36.514  1.00  0.00     0.022 A 
BRANCH  70  73
ATOM     73  S   UNL A   1      43.035  34.915  35.019  1.00  0.00     0.127 S 
ATOM     74  O   UNL A   1      41.995  35.408  34.123  1.00  0.00    -0.237 OA
ATOM     75  O   UNL A   1      42.987  35.491  36.365  1.00  0.00    -0.237 OA
ATOM     76  O   UNL A   1      44.379  34.799  34.464  1.00  0.00    -0.744 OA
ENDBRANCH  70  73
ENDBRANCH  52  66
BRANCH  53  77
ATOM     77  C   UNL A   1      42.686  24.214  27.126  1.00  0.00     0.023 A 
ATOM     78  C   UNL A   1      43.414  24.475  25.950  1.00  0.00     0.012 A 
ATOM     79  C   UNL A   1      42.064  22.965  27.286  1.00  0.00     0.148 A 
ATOM     80  C   UNL A   1      43.513  23.508  24.948  1.00  0.00     0.002 A 
ATOM     81  C   UNL A   1      42.192  21.997  26.296  1.00  0.00     0.091 A 
ATOM     82  F   UNL A   1      41.378  22.723  28.413  1.00  0.00    -0.205 F 
ATOM     83  C   UNL A   1      42.908  22.266  25.122  1.00  0.00     0.022 A 
BRANCH  81  84
ATOM     84  S   UNL A   1      41.482  20.370  26.559  1.00  0.00     0.127 S 
ATOM     85  O   UNL A   1      40.052  20.649  26.635  1.00  0.00    -0.237 OA
ATOM     86  O   UNL A   1      41.892  19.625  25.368  1.00  0.00    -0.237 OA
ATOM     87  O   UNL A   1      42.131  19.932  27.792  1.00  0.00    -0.744 OA
ENDBRANCH  81  84
ENDBRANCH  53  77
BRANCH  65  88
ATOM     88  C   UNL A   1      46.935  25.843  32.394  1.00  0.00     0.023 A 
ATOM     89  C   UNL A   1      47.012  24.931  33.463  1.00  0.00     0.012 A 
ATOM     90  C   UNL A   1      48.106  26.209  31.711  1.00  0.00     0.148 A 
ATOM     91  C   UNL A   1      48.240  24.394  33.851  1.00  0.00     0.002 A 
ATOM     92  C   UNL A   1      49.327  25.666  32.099  1.00  0.00     0.091 A 
ATOM     93  F   UNL A   1      48.024  27.081  30.695  1.00  0.00    -0.205 F 
ATOM     94  C   UNL A   1      49.400  24.760  33.168  1.00  0.00     0.022 A 
BRANCH  92  95
ATOM     95  S   UNL A   1      50.821  26.127  31.218  1.00  0.00     0.127 S 
ATOM     96  O   UNL A   1      50.534  25.707  29.850  1.00  0.00    -0.237 OA
ATOM     97  O   UNL A   1      50.888  27.579  31.399  1.00  0.00    -0.237 OA
ATOM     98  O   UNL A   1      51.866  25.390  31.921  1.00  0.00    -0.744 OA
ENDBRANCH  92  95
ENDBRANCH  65  88
ENDBRANCH  39  40
ENDBRANCH  31  34
ENDBRANCH  29  30
ENDBRANCH   1  29
TORSDOF 19
ENDMDL
