MODEL 1
REMARK VINA RESULT:     -12.8      0.000      0.000
REMARK SMILES CC1(C)S[C@@H]2[C@H]([NH2+]Cn3nnc4ccccc43)C(=O)N2[C@@H]1C(=O)NCCCNC(=O)c1ccc(-c2c3nc(c(-c4cccc(S(=O)(=O)[O-])c4F)c4ccc([nH]4)c(-c4cccc(S(=O)(=O)[O-])c4F)c4nc(c(-c5cccc(S(=O)(=O)[O-])c5F)c5ccc2[nH]5)C=C4)C=C3)cc1
REMARK SMILES IDX 26 1 25 2 24 3 22 4 23 5 21 7 1 8 2 9 3 10 4 11 5 12 20 13
REMARK SMILES IDX 6 14 18 15 19 16 7 17 8 20 9 21 10 22 17 23 11 24 12 25
REMARK SMILES IDX 16 26 13 27 15 28 14 29 27 30 28 31 29 32 30 34 31 35 32 36
REMARK SMILES IDX 93 37 33 38 92 39 34 40 35 41 36 42 86 43 37 44 91 45 85 46
REMARK SMILES IDX 87 47 38 48 90 49 84 50 83 51 39 53 71 54 51 55 70 56 52 57
REMARK SMILES IDX 55 58 69 59 88 60 53 61 54 62 68 64 89 65 56 66 40 67 41 68
REMARK SMILES IDX 49 69 42 70 44 71 50 72 43 73 45 74 46 75 47 76 48 77 72 78
REMARK SMILES IDX 73 79 81 80 74 81 76 82 82 83 75 84 77 85 78 86 79 87 80 88
REMARK SMILES IDX 57 89 58 90 66 91 59 92 61 93 67 94 60 95 62 96 63 97 64 98
REMARK SMILES IDX 65 99
REMARK H PARENT 24 6 7 18 7 19 28 33 87 52 55 63
REMARK Flexibility Score: inf
ROOT
ATOM      1  C   UNL A   1      37.724  21.103  24.771  1.00  0.00     0.042 C 
ENDROOT
BRANCH   1   2
ATOM      2  C   UNL A   1      36.460  20.382  25.269  1.00  0.00     0.117 C 
BRANCH   2   3
ATOM      3  N   UNL A   1      35.664  21.128  26.242  1.00  0.00    -0.354 N 
ATOM      4  C   UNL A   1      34.563  21.926  26.099  1.00  0.00     0.244 C 
ATOM      5  O   UNL A   1      33.887  22.108  27.122  1.00  0.00    -0.273 OA
ATOM      6  H   UNL A   1      35.980  21.040  27.170  1.00  0.00     0.163 HD
BRANCH   4   7
ATOM      7  C   UNL A   1      34.026  22.486  24.755  1.00  0.00     0.191 C 
ATOM      8  C   UNL A   1      35.744  24.425  25.196  1.00  0.00     0.026 C 
ATOM      9  C   UNL A   1      34.727  23.790  24.246  1.00  0.00     0.042 C 
ATOM     10  C   UNL A   1      35.375  23.596  22.864  1.00  0.00     0.026 C 
ATOM     11  S   UNL A   1      33.388  25.059  23.934  1.00  0.00    -0.121 SA
ATOM     12  C   UNL A   1      32.086  23.818  23.882  1.00  0.00     0.213 C 
ATOM     13  N   UNL A   1      32.625  22.796  24.756  1.00  0.00    -0.306 N 
ATOM     14  C   UNL A   1      30.792  23.745  24.751  1.00  0.00     0.307 C 
ATOM     15  C   UNL A   1      31.434  22.263  25.072  1.00  0.00     0.285 C 
ATOM     16  O   UNL A   1      31.140  21.194  25.529  1.00  0.00    -0.268 OA
BRANCH  14  17
ATOM     17  N   UNL A   1      30.723  24.551  25.995  1.00  0.00    -0.315 N 
ATOM     18  H   UNL A   1      31.650  24.938  26.173  1.00  0.00     0.348 HD
ATOM     19  H   UNL A   1      30.402  23.920  26.728  1.00  0.00     0.348 HD
BRANCH  17  20
ATOM     20  C   UNL A   1      29.770  25.655  25.959  1.00  0.00     0.415 C 
BRANCH  20  21
ATOM     21  N   UNL A   1      30.435  26.804  25.361  1.00  0.00    -0.194 N 
ATOM     22  N   UNL A   1      30.181  27.097  24.078  1.00  0.00    -0.061 NA
ATOM     23  C   UNL A   1      31.405  27.618  25.896  1.00  0.00     0.095 A 
ATOM     24  N   UNL A   1      31.010  28.068  23.733  1.00  0.00    -0.130 NA
ATOM     25  C   UNL A   1      31.737  28.437  24.826  1.00  0.00     0.113 A 
ATOM     26  C   UNL A   1      32.042  27.721  27.140  1.00  0.00     0.030 A 
ATOM     27  C   UNL A   1      32.708  29.436  24.988  1.00  0.00     0.032 A 
ATOM     28  C   UNL A   1      33.050  28.690  27.262  1.00  0.00     0.002 A 
ATOM     29  C   UNL A   1      33.374  29.542  26.207  1.00  0.00     0.002 A 
ENDBRANCH  20  21
ENDBRANCH  17  20
ENDBRANCH  14  17
ENDBRANCH   4   7
ENDBRANCH   2   3
ENDBRANCH   1   2
BRANCH   1  30
ATOM     30  C   UNL A   1      38.340  22.152  25.696  1.00  0.00     0.118 C 
BRANCH  30  31
ATOM     31  N   UNL A   1      39.532  21.721  26.402  1.00  0.00    -0.352 N 
ATOM     32  C   UNL A   1      40.278  22.246  27.429  1.00  0.00     0.251 C 
ATOM     33  H   UNL A   1      39.884  20.861  26.073  1.00  0.00     0.163 HD
ATOM     34  O   UNL A   1      40.823  21.409  28.155  1.00  0.00    -0.269 OA
BRANCH  32  35
ATOM     35  C   UNL A   1      40.588  23.692  27.641  1.00  0.00     0.039 A 
ATOM     36  C   UNL A   1      41.821  24.223  28.014  1.00  0.00     0.014 A 
ATOM     37  C   UNL A   1      39.472  24.560  27.607  1.00  0.00     0.014 A 
ATOM     38  C   UNL A   1      41.899  25.550  28.464  1.00  0.00     0.010 A 
ATOM     39  C   UNL A   1      39.542  25.868  28.090  1.00  0.00     0.010 A 
ATOM     40  C   UNL A   1      40.744  26.341  28.596  1.00  0.00    -0.014 A 
BRANCH  40  41
ATOM     41  C   UNL A   1      40.854  27.663  29.234  1.00  0.00     0.031 A 
ATOM     42  C   UNL A   1      41.827  28.581  28.589  1.00  0.00     0.074 A 
ATOM     43  C   UNL A   1      40.083  28.133  30.243  1.00  0.00     0.049 A 
ATOM     44  N   UNL A   1      42.883  29.121  29.106  1.00  0.00    -0.248 NA
ATOM     45  C   UNL A   1      41.639  28.857  27.158  1.00  0.00     0.031 C 
ATOM     46  C   UNL A   1      38.907  27.507  30.840  1.00  0.00     0.029 A 
ATOM     47  N   UNL A   1      40.115  29.353  30.869  1.00  0.00    -0.354 N 
ATOM     48  C   UNL A   1      43.395  29.955  28.117  1.00  0.00     0.074 A 
ATOM     49  C   UNL A   1      42.678  29.650  26.904  1.00  0.00     0.031 C 
ATOM     50  C   UNL A   1      38.206  28.419  31.543  1.00  0.00     0.029 A 
ATOM     51  C   UNL A   1      38.925  29.675  31.523  1.00  0.00     0.049 A 
ATOM     52  H   UNL A   1      40.902  29.945  30.859  1.00  0.00     0.167 HD
ATOM     53  C   UNL A   1      44.237  30.985  28.390  1.00  0.00     0.034 A 
ATOM     54  C   UNL A   1      38.512  30.906  31.920  1.00  0.00     0.034 A 
ATOM     55  C   UNL A   1      44.804  30.919  29.705  1.00  0.00     0.049 A 
ATOM     56  C   UNL A   1      39.723  31.746  32.054  1.00  0.00     0.074 A 
ATOM     57  C   UNL A   1      45.565  29.996  30.395  1.00  0.00     0.029 A 
ATOM     58  N   UNL A   1      44.321  31.791  30.651  1.00  0.00    -0.354 N 
ATOM     59  N   UNL A   1      40.636  31.572  32.970  1.00  0.00    -0.248 NA
ATOM     60  C   UNL A   1      40.122  32.553  30.913  1.00  0.00     0.031 C 
ATOM     61  C   UNL A   1      45.100  30.071  31.740  1.00  0.00     0.029 A 
ATOM     62  C   UNL A   1      44.111  31.053  31.786  1.00  0.00     0.049 A 
ATOM     63  H   UNL A   1      44.157  32.754  30.535  1.00  0.00     0.167 HD
ATOM     64  C   UNL A   1      41.830  31.860  32.323  1.00  0.00     0.074 A 
ATOM     65  C   UNL A   1      41.444  32.556  31.099  1.00  0.00     0.031 C 
ATOM     66  C   UNL A   1      43.000  31.259  32.687  1.00  0.00     0.034 A 
BRANCH  53  67
ATOM     67  C   UNL A   1      44.315  32.233  27.561  1.00  0.00     0.023 A 
ATOM     68  C   UNL A   1      45.288  32.305  26.545  1.00  0.00     0.012 A 
ATOM     69  C   UNL A   1      43.639  33.423  27.909  1.00  0.00     0.148 A 
ATOM     70  C   UNL A   1      45.577  33.514  25.905  1.00  0.00     0.002 A 
ATOM     71  C   UNL A   1      43.875  34.604  27.218  1.00  0.00     0.091 A 
ATOM     72  F   UNL A   1      42.858  33.447  28.997  1.00  0.00    -0.205 F 
ATOM     73  C   UNL A   1      44.858  34.660  26.228  1.00  0.00     0.022 A 
BRANCH  71  74
ATOM     74  S   UNL A   1      42.937  36.093  27.574  1.00  0.00     0.127 S 
ATOM     75  O   UNL A   1      43.269  36.319  28.977  1.00  0.00    -0.237 OA
ATOM     76  O   UNL A   1      43.523  37.050  26.635  1.00  0.00    -0.237 OA
ATOM     77  O   UNL A   1      41.552  35.748  27.284  1.00  0.00    -0.744 OA
ENDBRANCH  71  74
ENDBRANCH  53  67
BRANCH  54  78
ATOM     78  C   UNL A   1      37.137  31.482  31.919  1.00  0.00     0.023 A 
ATOM     79  C   UNL A   1      36.536  31.847  33.143  1.00  0.00     0.012 A 
ATOM     80  C   UNL A   1      36.505  31.922  30.732  1.00  0.00     0.148 A 
ATOM     81  C   UNL A   1      35.385  32.650  33.182  1.00  0.00     0.002 A 
ATOM     82  C   UNL A   1      35.344  32.692  30.774  1.00  0.00     0.091 A 
ATOM     83  F   UNL A   1      37.085  31.683  29.550  1.00  0.00    -0.205 F 
ATOM     84  C   UNL A   1      34.790  33.075  31.998  1.00  0.00     0.022 A 
BRANCH  82  85
ATOM     85  S   UNL A   1      34.532  33.243  29.266  1.00  0.00     0.127 S 
ATOM     86  O   UNL A   1      34.120  31.978  28.653  1.00  0.00    -0.237 OA
ATOM     87  O   UNL A   1      33.437  34.056  29.785  1.00  0.00    -0.237 OA
ATOM     88  O   UNL A   1      35.556  33.956  28.511  1.00  0.00    -0.744 OA
ENDBRANCH  82  85
ENDBRANCH  54  78
BRANCH  66  89
ATOM     89  C   UNL A   1      43.048  30.468  33.967  1.00  0.00     0.023 A 
ATOM     90  C   UNL A   1      43.282  31.092  35.210  1.00  0.00     0.012 A 
ATOM     91  C   UNL A   1      42.605  29.133  33.942  1.00  0.00     0.148 A 
ATOM     92  C   UNL A   1      43.083  30.395  36.405  1.00  0.00     0.002 A 
ATOM     93  C   UNL A   1      42.366  28.458  35.133  1.00  0.00     0.091 A 
ATOM     94  F   UNL A   1      42.371  28.567  32.749  1.00  0.00    -0.205 F 
ATOM     95  C   UNL A   1      42.610  29.085  36.367  1.00  0.00     0.022 A 
BRANCH  93  96
ATOM     96  S   UNL A   1      41.631  26.822  35.171  1.00  0.00     0.127 S 
ATOM     97  O   UNL A   1      40.542  26.952  34.204  1.00  0.00    -0.237 OA
ATOM     98  O   UNL A   1      42.741  25.974  34.728  1.00  0.00    -0.237 OA
ATOM     99  O   UNL A   1      41.213  26.592  36.548  1.00  0.00    -0.744 OA
ENDBRANCH  93  96
ENDBRANCH  66  89
ENDBRANCH  40  41
ENDBRANCH  32  35
ENDBRANCH  30  31
ENDBRANCH   1  30
TORSDOF 16
ENDMDL
MODEL 2
REMARK VINA RESULT:     -12.6      2.147      2.746
REMARK SMILES CC1(C)S[C@@H]2[C@H]([NH2+]Cn3nnc4ccccc43)C(=O)N2[C@@H]1C(=O)NCCCNC(=O)c1ccc(-c2c3nc(c(-c4cccc(S(=O)(=O)[O-])c4F)c4ccc([nH]4)c(-c4cccc(S(=O)(=O)[O-])c4F)c4nc(c(-c5cccc(S(=O)(=O)[O-])c5F)c5ccc2[nH]5)C=C4)C=C3)cc1
REMARK SMILES IDX 26 1 25 2 24 3 22 4 23 5 21 7 1 8 2 9 3 10 4 11 5 12 20 13
REMARK SMILES IDX 6 14 18 15 19 16 7 17 8 20 9 21 10 22 17 23 11 24 12 25
REMARK SMILES IDX 16 26 13 27 15 28 14 29 27 30 28 31 29 32 30 34 31 35 32 36
REMARK SMILES IDX 93 37 33 38 92 39 34 40 35 41 36 42 86 43 37 44 91 45 85 46
REMARK SMILES IDX 87 47 38 48 90 49 84 50 83 51 39 53 71 54 51 55 70 56 52 57
REMARK SMILES IDX 55 58 69 59 88 60 53 61 54 62 68 64 89 65 56 66 40 67 41 68
REMARK SMILES IDX 49 69 42 70 44 71 50 72 43 73 45 74 46 75 47 76 48 77 72 78
REMARK SMILES IDX 73 79 81 80 74 81 76 82 82 83 75 84 77 85 78 86 79 87 80 88
REMARK SMILES IDX 57 89 58 90 66 91 59 92 61 93 67 94 60 95 62 96 63 97 64 98
REMARK SMILES IDX 65 99
REMARK H PARENT 24 6 7 18 7 19 28 33 87 52 55 63
REMARK Flexibility Score: inf
ROOT
ATOM      1  C   UNL A   1      37.781  22.709  25.430  1.00  0.00     0.042 C 
ENDROOT
BRANCH   1   2
ATOM      2  C   UNL A   1      36.730  23.831  25.487  1.00  0.00     0.117 C 
BRANCH   2   3
ATOM      3  N   UNL A   1      35.739  23.807  24.413  1.00  0.00    -0.354 N 
ATOM      4  C   UNL A   1      34.410  24.129  24.392  1.00  0.00     0.244 C 
ATOM      5  O   UNL A   1      33.928  24.376  23.276  1.00  0.00    -0.273 OA
ATOM      6  H   UNL A   1      36.093  23.503  23.546  1.00  0.00     0.163 HD
BRANCH   4   7
ATOM      7  C   UNL A   1      33.517  24.346  25.642  1.00  0.00     0.191 C 
ATOM      8  C   UNL A   1      32.681  21.908  25.127  1.00  0.00     0.026 C 
ATOM      9  C   UNL A   1      32.651  23.114  26.069  1.00  0.00     0.042 C 
ATOM     10  C   UNL A   1      32.972  22.649  27.499  1.00  0.00     0.026 C 
ATOM     11  S   UNL A   1      30.875  23.690  26.178  1.00  0.00    -0.121 SA
ATOM     12  C   UNL A   1      31.338  25.427  26.266  1.00  0.00     0.213 C 
ATOM     13  N   UNL A   1      32.584  25.431  25.527  1.00  0.00    -0.306 N 
ATOM     14  C   UNL A   1      30.889  26.591  25.330  1.00  0.00     0.307 C 
ATOM     15  C   UNL A   1      32.524  26.729  25.190  1.00  0.00     0.285 C 
ATOM     16  O   UNL A   1      33.371  27.492  24.818  1.00  0.00    -0.268 OA
BRANCH  14  17
ATOM     17  N   UNL A   1      30.290  26.257  24.015  1.00  0.00    -0.315 N 
ATOM     18  H   UNL A   1      30.127  25.250  23.988  1.00  0.00     0.348 HD
ATOM     19  H   UNL A   1      30.952  26.577  23.309  1.00  0.00     0.348 HD
BRANCH  17  20
ATOM     20  C   UNL A   1      29.027  26.928  23.727  1.00  0.00     0.415 C 
BRANCH  20  21
ATOM     21  N   UNL A   1      29.317  28.109  22.926  1.00  0.00    -0.194 N 
ATOM     22  N   UNL A   1      30.391  28.094  22.124  1.00  0.00    -0.061 NA
ATOM     23  C   UNL A   1      28.695  29.336  22.935  1.00  0.00     0.095 A 
ATOM     24  N   UNL A   1      30.523  29.314  21.633  1.00  0.00    -0.130 NA
ATOM     25  C   UNL A   1      29.486  30.082  22.073  1.00  0.00     0.113 A 
ATOM     26  C   UNL A   1      27.588  29.884  23.595  1.00  0.00     0.030 A 
ATOM     27  C   UNL A   1      29.155  31.419  21.805  1.00  0.00     0.032 A 
ATOM     28  C   UNL A   1      27.309  31.239  23.356  1.00  0.00     0.002 A 
ATOM     29  C   UNL A   1      28.073  31.994  22.468  1.00  0.00     0.002 A 
ENDBRANCH  20  21
ENDBRANCH  17  20
ENDBRANCH  14  17
ENDBRANCH   4   7
ENDBRANCH   2   3
ENDBRANCH   1   2
BRANCH   1  30
ATOM     30  C   UNL A   1      38.865  22.713  26.508  1.00  0.00     0.118 C 
BRANCH  30  31
ATOM     31  N   UNL A   1      40.215  22.506  26.019  1.00  0.00    -0.352 N 
ATOM     32  C   UNL A   1      41.453  22.945  26.419  1.00  0.00     0.251 C 
ATOM     33  H   UNL A   1      40.252  21.922  25.227  1.00  0.00     0.163 HD
ATOM     34  O   UNL A   1      42.379  22.159  26.192  1.00  0.00    -0.269 OA
BRANCH  32  35
ATOM     35  C   UNL A   1      41.777  24.302  26.952  1.00  0.00     0.039 A 
ATOM     36  C   UNL A   1      42.587  24.583  28.051  1.00  0.00     0.014 A 
ATOM     37  C   UNL A   1      41.057  25.368  26.366  1.00  0.00     0.014 A 
ATOM     38  C   UNL A   1      42.568  25.866  28.619  1.00  0.00     0.010 A 
ATOM     39  C   UNL A   1      41.008  26.634  26.953  1.00  0.00     0.010 A 
ATOM     40  C   UNL A   1      41.704  26.863  28.131  1.00  0.00    -0.014 A 
BRANCH  40  41
ATOM     41  C   UNL A   1      41.594  28.133  28.867  1.00  0.00     0.031 A 
ATOM     42  C   UNL A   1      42.558  29.179  28.439  1.00  0.00     0.074 A 
ATOM     43  C   UNL A   1      40.644  28.452  29.778  1.00  0.00     0.049 A 
ATOM     44  N   UNL A   1      43.471  29.763  29.145  1.00  0.00    -0.248 NA
ATOM     45  C   UNL A   1      42.551  29.553  27.018  1.00  0.00     0.031 C 
ATOM     46  C   UNL A   1      39.460  27.683  30.147  1.00  0.00     0.029 A 
ATOM     47  N   UNL A   1      40.469  29.616  30.483  1.00  0.00    -0.354 N 
ATOM     48  C   UNL A   1      44.038  30.715  28.303  1.00  0.00     0.074 A 
ATOM     49  C   UNL A   1      43.535  30.450  26.978  1.00  0.00     0.031 C 
ATOM     50  C   UNL A   1      38.581  28.472  30.797  1.00  0.00     0.029 A 
ATOM     51  C   UNL A   1      39.172  29.782  30.971  1.00  0.00     0.049 A 
ATOM     52  H   UNL A   1      41.188  30.271  30.631  1.00  0.00     0.167 HD
ATOM     53  C   UNL A   1      44.729  31.788  28.769  1.00  0.00     0.034 A 
ATOM     54  C   UNL A   1      38.590  30.937  31.383  1.00  0.00     0.034 A 
ATOM     55  C   UNL A   1      45.104  31.663  30.147  1.00  0.00     0.049 A 
ATOM     56  C   UNL A   1      39.683  31.864  31.755  1.00  0.00     0.074 A 
ATOM     57  C   UNL A   1      45.843  30.755  30.880  1.00  0.00     0.029 A 
ATOM     58  N   UNL A   1      44.409  32.411  31.066  1.00  0.00    -0.354 N 
ATOM     59  N   UNL A   1      40.467  31.693  32.783  1.00  0.00    -0.248 NA
ATOM     60  C   UNL A   1      40.163  32.791  30.743  1.00  0.00     0.031 C 
ATOM     61  C   UNL A   1      45.185  30.681  32.140  1.00  0.00     0.029 A 
ATOM     62  C   UNL A   1      44.110  31.569  32.104  1.00  0.00     0.049 A 
ATOM     63  H   UNL A   1      44.172  33.363  30.992  1.00  0.00     0.167 HD
ATOM     64  C   UNL A   1      41.709  32.133  32.345  1.00  0.00     0.074 A 
ATOM     65  C   UNL A   1      41.437  32.891  31.126  1.00  0.00     0.031 C 
ATOM     66  C   UNL A   1      42.867  31.606  32.839  1.00  0.00     0.034 A 
BRANCH  53  67
ATOM     67  C   UNL A   1      44.805  33.100  28.048  1.00  0.00     0.023 A 
ATOM     68  C   UNL A   1      43.602  33.735  27.678  1.00  0.00     0.012 A 
ATOM     69  C   UNL A   1      46.007  33.603  27.502  1.00  0.00     0.148 A 
ATOM     70  C   UNL A   1      43.598  34.822  26.799  1.00  0.00     0.002 A 
ATOM     71  C   UNL A   1      46.004  34.730  26.692  1.00  0.00     0.091 A 
ATOM     72  F   UNL A   1      47.144  32.915  27.662  1.00  0.00    -0.205 F 
ATOM     73  C   UNL A   1      44.800  35.332  26.320  1.00  0.00     0.022 A 
BRANCH  71  74
ATOM     74  S   UNL A   1      47.536  35.446  26.089  1.00  0.00     0.127 S 
ATOM     75  O   UNL A   1      48.368  35.408  27.288  1.00  0.00    -0.237 OA
ATOM     76  O   UNL A   1      47.918  34.503  25.038  1.00  0.00    -0.237 OA
ATOM     77  O   UNL A   1      47.170  36.768  25.597  1.00  0.00    -0.744 OA
ENDBRANCH  71  74
ENDBRANCH  53  67
BRANCH  54  78
ATOM     78  C   UNL A   1      37.180  31.392  31.214  1.00  0.00     0.023 A 
ATOM     79  C   UNL A   1      36.444  31.805  32.345  1.00  0.00     0.012 A 
ATOM     80  C   UNL A   1      36.628  31.678  29.943  1.00  0.00     0.148 A 
ATOM     81  C   UNL A   1      35.236  32.508  32.215  1.00  0.00     0.002 A 
ATOM     82  C   UNL A   1      35.413  32.348  29.818  1.00  0.00     0.091 A 
ATOM     83  F   UNL A   1      37.330  31.392  28.840  1.00  0.00    -0.205 F 
ATOM     84  C   UNL A   1      34.721  32.782  30.951  1.00  0.00     0.022 A 
BRANCH  82  85
ATOM     85  S   UNL A   1      34.702  32.702  28.203  1.00  0.00     0.127 S 
ATOM     86  O   UNL A   1      35.790  33.416  27.533  1.00  0.00    -0.237 OA
ATOM     87  O   UNL A   1      34.437  31.365  27.683  1.00  0.00    -0.237 OA
ATOM     88  O   UNL A   1      33.530  33.530  28.467  1.00  0.00    -0.744 OA
ENDBRANCH  82  85
ENDBRANCH  54  78
BRANCH  66  89
ATOM     89  C   UNL A   1      42.805  30.721  34.055  1.00  0.00     0.023 A 
ATOM     90  C   UNL A   1      42.835  31.257  35.359  1.00  0.00     0.012 A 
ATOM     91  C   UNL A   1      42.463  29.368  33.878  1.00  0.00     0.148 A 
ATOM     92  C   UNL A   1      42.534  30.458  36.465  1.00  0.00     0.002 A 
ATOM     93  C   UNL A   1      42.122  28.588  34.976  1.00  0.00     0.091 A 
ATOM     94  F   UNL A   1      42.423  28.884  32.627  1.00  0.00    -0.205 F 
ATOM     95  C   UNL A   1      42.162  29.128  36.272  1.00  0.00     0.022 A 
BRANCH  93  96
ATOM     96  S   UNL A   1      41.504  26.913  34.800  1.00  0.00     0.127 S 
ATOM     97  O   UNL A   1      42.666  26.212  34.257  1.00  0.00    -0.237 OA
ATOM     98  O   UNL A   1      41.170  26.559  36.183  1.00  0.00    -0.237 OA
ATOM     99  O   UNL A   1      40.354  26.991  33.908  1.00  0.00    -0.744 OA
ENDBRANCH  93  96
ENDBRANCH  66  89
ENDBRANCH  40  41
ENDBRANCH  32  35
ENDBRANCH  30  31
ENDBRANCH   1  30
TORSDOF 16
ENDMDL
MODEL 3
REMARK VINA RESULT:     -12.4      3.311      9.057
REMARK SMILES CC1(C)S[C@@H]2[C@H]([NH2+]Cn3nnc4ccccc43)C(=O)N2[C@@H]1C(=O)NCCCNC(=O)c1ccc(-c2c3nc(c(-c4cccc(S(=O)(=O)[O-])c4F)c4ccc([nH]4)c(-c4cccc(S(=O)(=O)[O-])c4F)c4nc(c(-c5cccc(S(=O)(=O)[O-])c5F)c5ccc2[nH]5)C=C4)C=C3)cc1
REMARK SMILES IDX 26 1 25 2 24 3 22 4 23 5 21 7 1 8 2 9 3 10 4 11 5 12 20 13
REMARK SMILES IDX 6 14 18 15 19 16 7 17 8 20 9 21 10 22 17 23 11 24 12 25
REMARK SMILES IDX 16 26 13 27 15 28 14 29 27 30 28 31 29 32 30 34 31 35 32 36
REMARK SMILES IDX 93 37 33 38 92 39 34 40 35 41 36 42 86 43 37 44 91 45 85 46
REMARK SMILES IDX 87 47 38 48 90 49 84 50 83 51 39 53 71 54 51 55 70 56 52 57
REMARK SMILES IDX 55 58 69 59 88 60 53 61 54 62 68 64 89 65 56 66 40 67 41 68
REMARK SMILES IDX 49 69 42 70 44 71 50 72 43 73 45 74 46 75 47 76 48 77 72 78
REMARK SMILES IDX 73 79 81 80 74 81 76 82 82 83 75 84 77 85 78 86 79 87 80 88
REMARK SMILES IDX 57 89 58 90 66 91 59 92 61 93 67 94 60 95 62 96 63 97 64 98
REMARK SMILES IDX 65 99
REMARK H PARENT 24 6 7 18 7 19 28 33 87 52 55 63
REMARK Flexibility Score: inf
ROOT
ATOM      1  C   UNL A   1      32.652  28.857  26.417  1.00  0.00     0.042 C 
ENDROOT
BRANCH   1   2
ATOM      2  C   UNL A   1      31.934  28.152  27.580  1.00  0.00     0.117 C 
BRANCH   2   3
ATOM      3  N   UNL A   1      31.033  27.071  27.188  1.00  0.00    -0.354 N 
ATOM      4  C   UNL A   1      31.102  26.146  26.183  1.00  0.00     0.244 C 
ATOM      5  O   UNL A   1      30.403  25.132  26.329  1.00  0.00    -0.273 OA
ATOM      6  H   UNL A   1      30.228  26.995  27.750  1.00  0.00     0.163 HD
BRANCH   4   7
ATOM      7  C   UNL A   1      32.075  26.199  24.976  1.00  0.00     0.191 C 
ATOM      8  C   UNL A   1      29.936  26.937  23.639  1.00  0.00     0.026 C 
ATOM      9  C   UNL A   1      31.448  26.702  23.632  1.00  0.00     0.042 C 
ATOM     10  C   UNL A   1      32.156  27.959  23.099  1.00  0.00     0.026 C 
ATOM     11  S   UNL A   1      31.804  25.406  22.331  1.00  0.00    -0.121 SA
ATOM     12  C   UNL A   1      33.121  24.652  23.298  1.00  0.00     0.213 C 
ATOM     13  N   UNL A   1      32.690  24.944  24.650  1.00  0.00    -0.306 N 
ATOM     14  C   UNL A   1      33.246  23.168  23.760  1.00  0.00     0.307 C 
ATOM     15  C   UNL A   1      33.361  23.928  25.216  1.00  0.00     0.285 C 
ATOM     16  O   UNL A   1      33.695  23.733  26.351  1.00  0.00    -0.268 OA
BRANCH  14  17
ATOM     17  N   UNL A   1      32.039  22.307  23.727  1.00  0.00    -0.315 N 
ATOM     18  H   UNL A   1      31.293  22.826  23.263  1.00  0.00     0.348 HD
ATOM     19  H   UNL A   1      31.826  22.075  24.697  1.00  0.00     0.348 HD
BRANCH  17  20
ATOM     20  C   UNL A   1      32.209  21.036  23.030  1.00  0.00     0.415 C 
BRANCH  20  21
ATOM     21  N   UNL A   1      32.373  19.992  24.031  1.00  0.00    -0.194 N 
ATOM     22  N   UNL A   1      32.140  20.292  25.317  1.00  0.00    -0.061 NA
ATOM     23  C   UNL A   1      32.848  18.711  23.876  1.00  0.00     0.095 A 
ATOM     24  N   UNL A   1      32.503  19.240  26.030  1.00  0.00    -0.130 NA
ATOM     25  C   UNL A   1      32.898  18.246  25.183  1.00  0.00     0.113 A 
ATOM     26  C   UNL A   1      33.260  17.928  22.790  1.00  0.00     0.030 A 
ATOM     27  C   UNL A   1      33.329  16.937  25.441  1.00  0.00     0.032 A 
ATOM     28  C   UNL A   1      33.741  16.641  23.078  1.00  0.00     0.002 A 
ATOM     29  C   UNL A   1      33.768  16.147  24.381  1.00  0.00     0.002 A 
ENDBRANCH  20  21
ENDBRANCH  17  20
ENDBRANCH  14  17
ENDBRANCH   4   7
ENDBRANCH   2   3
ENDBRANCH   1   2
BRANCH   1  30
ATOM     30  C   UNL A   1      33.944  29.606  26.745  1.00  0.00     0.118 C 
BRANCH  30  31
ATOM     31  N   UNL A   1      33.796  30.697  27.690  1.00  0.00    -0.352 N 
ATOM     32  C   UNL A   1      34.679  31.500  28.369  1.00  0.00     0.251 C 
ATOM     33  H   UNL A   1      32.854  30.910  27.887  1.00  0.00     0.163 HD
ATOM     34  O   UNL A   1      34.270  32.642  28.597  1.00  0.00    -0.269 OA
BRANCH  32  35
ATOM     35  C   UNL A   1      35.984  31.072  28.957  1.00  0.00     0.039 A 
ATOM     36  C   UNL A   1      37.109  31.875  29.135  1.00  0.00     0.014 A 
ATOM     37  C   UNL A   1      36.111  29.685  29.198  1.00  0.00     0.014 A 
ATOM     38  C   UNL A   1      38.349  31.282  29.419  1.00  0.00     0.010 A 
ATOM     39  C   UNL A   1      37.351  29.091  29.443  1.00  0.00     0.010 A 
ATOM     40  C   UNL A   1      38.489  29.884  29.474  1.00  0.00    -0.014 A 
BRANCH  40  41
ATOM     41  C   UNL A   1      39.837  29.307  29.601  1.00  0.00     0.031 A 
ATOM     42  C   UNL A   1      40.397  29.343  30.977  1.00  0.00     0.074 A 
ATOM     43  C   UNL A   1      40.528  28.663  28.631  1.00  0.00     0.049 A 
ATOM     44  N   UNL A   1      41.471  29.933  31.389  1.00  0.00    -0.248 NA
ATOM     45  C   UNL A   1      39.603  28.708  32.038  1.00  0.00     0.031 C 
ATOM     46  C   UNL A   1      40.065  28.285  27.299  1.00  0.00     0.029 A 
ATOM     47  N   UNL A   1      41.772  28.086  28.683  1.00  0.00    -0.354 N 
ATOM     48  C   UNL A   1      41.590  29.591  32.732  1.00  0.00     0.074 A 
ATOM     49  C   UNL A   1      40.351  28.957  33.111  1.00  0.00     0.031 C 
ATOM     50  C   UNL A   1      40.887  27.356  26.771  1.00  0.00     0.029 A 
ATOM     51  C   UNL A   1      41.987  27.133  27.687  1.00  0.00     0.049 A 
ATOM     52  H   UNL A   1      42.449  28.322  29.358  1.00  0.00     0.167 HD
ATOM     53  C   UNL A   1      42.766  29.666  33.407  1.00  0.00     0.034 A 
ATOM     54  C   UNL A   1      42.932  26.159  27.669  1.00  0.00     0.034 A 
ATOM     55  C   UNL A   1      43.763  30.435  32.722  1.00  0.00     0.049 A 
ATOM     56  C   UNL A   1      44.022  26.599  28.570  1.00  0.00     0.074 A 
ATOM     57  C   UNL A   1      43.846  31.731  32.254  1.00  0.00     0.029 A 
ATOM     58  N   UNL A   1      44.790  29.750  32.118  1.00  0.00    -0.354 N 
ATOM     59  N   UNL A   1      44.813  27.606  28.322  1.00  0.00    -0.248 NA
ATOM     60  C   UNL A   1      43.984  26.153  29.953  1.00  0.00     0.031 C 
ATOM     61  C   UNL A   1      44.591  31.636  31.044  1.00  0.00     0.029 A 
ATOM     62  C   UNL A   1      44.939  30.296  30.871  1.00  0.00     0.049 A 
ATOM     63  H   UNL A   1      45.315  29.013  32.505  1.00  0.00     0.167 HD
ATOM     64  C   UNL A   1      45.021  28.193  29.563  1.00  0.00     0.074 A 
ATOM     65  C   UNL A   1      44.575  27.198  30.536  1.00  0.00     0.031 C 
ATOM     66  C   UNL A   1      45.260  29.530  29.688  1.00  0.00     0.034 A 
BRANCH  53  67
ATOM     67  C   UNL A   1      43.114  28.778  34.565  1.00  0.00     0.023 A 
ATOM     68  C   UNL A   1      43.595  29.373  35.748  1.00  0.00     0.012 A 
ATOM     69  C   UNL A   1      43.225  27.375  34.444  1.00  0.00     0.148 A 
ATOM     70  C   UNL A   1      44.164  28.602  36.766  1.00  0.00     0.002 A 
ATOM     71  C   UNL A   1      43.719  26.607  35.488  1.00  0.00     0.091 A 
ATOM     72  F   UNL A   1      42.970  26.791  33.266  1.00  0.00    -0.205 F 
ATOM     73  C   UNL A   1      44.210  27.217  36.645  1.00  0.00     0.022 A 
BRANCH  71  74
ATOM     74  S   UNL A   1      43.754  24.815  35.391  1.00  0.00     0.127 S 
ATOM     75  O   UNL A   1      42.347  24.507  35.150  1.00  0.00    -0.237 OA
ATOM     76  O   UNL A   1      44.643  24.591  34.250  1.00  0.00    -0.237 OA
ATOM     77  O   UNL A   1      44.303  24.375  36.666  1.00  0.00    -0.744 OA
ENDBRANCH  71  74
ENDBRANCH  53  67
BRANCH  54  78
ATOM     78  C   UNL A   1      42.835  24.763  27.157  1.00  0.00     0.023 A 
ATOM     79  C   UNL A   1      41.597  24.087  27.213  1.00  0.00     0.012 A 
ATOM     80  C   UNL A   1      43.859  24.172  26.379  1.00  0.00     0.148 A 
ATOM     81  C   UNL A   1      41.377  22.903  26.493  1.00  0.00     0.002 A 
ATOM     82  C   UNL A   1      43.647  22.980  25.691  1.00  0.00     0.091 A 
ATOM     83  F   UNL A   1      45.019  24.820  26.217  1.00  0.00    -0.205 F 
ATOM     84  C   UNL A   1      42.400  22.350  25.730  1.00  0.00     0.022 A 
BRANCH  82  85
ATOM     85  S   UNL A   1      44.951  22.221  24.711  1.00  0.00     0.127 S 
ATOM     86  O   UNL A   1      45.997  21.988  25.710  1.00  0.00    -0.237 OA
ATOM     87  O   UNL A   1      44.300  21.013  24.215  1.00  0.00    -0.237 OA
ATOM     88  O   UNL A   1      45.309  23.214  23.705  1.00  0.00    -0.744 OA
ENDBRANCH  82  85
ENDBRANCH  54  78
BRANCH  66  89
ATOM     89  C   UNL A   1      45.556  30.338  28.452  1.00  0.00     0.023 A 
ATOM     90  C   UNL A   1      44.525  30.929  27.694  1.00  0.00     0.012 A 
ATOM     91  C   UNL A   1      46.890  30.707  28.203  1.00  0.00     0.148 A 
ATOM     92  C   UNL A   1      44.819  31.869  26.702  1.00  0.00     0.002 A 
ATOM     93  C   UNL A   1      47.175  31.673  27.245  1.00  0.00     0.091 A 
ATOM     94  F   UNL A   1      47.853  30.145  28.949  1.00  0.00    -0.205 F 
ATOM     95  C   UNL A   1      46.142  32.252  26.489  1.00  0.00     0.022 A 
BRANCH  93  96
ATOM     96  S   UNL A   1      48.832  32.318  27.006  1.00  0.00     0.127 S 
ATOM     97  O   UNL A   1      49.580  31.114  26.643  1.00  0.00    -0.237 OA
ATOM     98  O   UNL A   1      48.639  33.269  25.908  1.00  0.00    -0.237 OA
ATOM     99  O   UNL A   1      49.220  32.931  28.269  1.00  0.00    -0.744 OA
ENDBRANCH  93  96
ENDBRANCH  66  89
ENDBRANCH  40  41
ENDBRANCH  32  35
ENDBRANCH  30  31
ENDBRANCH   1  30
TORSDOF 16
ENDMDL
