MODEL 1
REMARK VINA RESULT:     -13.0      0.000      0.000
REMARK SMILES Cc1cc(=O)n2nc(C)c(C(=O)NCCCNC(=O)c3ccc(-c4c5nc(c(-c6cccc(S(=O)(=O)[O-])c6F)c6ccc([nH]6)c(-c6cccc(S(=O)(=O)[O-])c6F)c6nc(c(-c7cccc(S(=O)(=O)[O-])c7F)c7ccc4[nH]7)C=C6)C=C5)cc3)c2[nH]1
REMARK SMILES IDX 17 1 18 2 19 3 16 5 15 6 14 7 13 8 11 9 12 10 10 12 1 13
REMARK SMILES IDX 2 14 3 15 84 16 4 17 83 18 5 20 6 21 7 22 8 23 9 24 20 25
REMARK SMILES IDX 21 26 82 27 22 28 81 29 23 30 24 31 25 32 75 33 26 34 80 35
REMARK SMILES IDX 74 36 76 37 27 38 79 39 73 40 72 41 28 43 60 44 40 45 59 46
REMARK SMILES IDX 41 47 44 48 58 49 77 50 42 51 43 52 57 54 78 55 45 56 29 57
REMARK SMILES IDX 30 58 38 59 31 60 33 61 39 62 32 63 34 64 35 65 36 66 37 67
REMARK SMILES IDX 61 68 62 69 70 70 63 71 65 72 71 73 64 74 66 75 67 76 68 77
REMARK SMILES IDX 69 78 46 79 47 80 55 81 48 82 50 83 56 84 49 85 51 86 52 87
REMARK SMILES IDX 53 88 54 89
REMARK H PARENT 17 4 13 11 84 19 76 42 44 53
REMARK Flexibility Score: inf
ROOT
ATOM      1  N   UNL A   1      40.279  19.220  25.760  1.00  0.00    -0.352 N 
ATOM      2  C   UNL A   1      41.635  19.479  25.841  1.00  0.00     0.251 C 
ATOM      3  O   UNL A   1      42.453  18.702  25.377  1.00  0.00    -0.269 OA
ATOM      4  H   UNL A   1      40.031  18.286  25.567  1.00  0.00     0.163 HD
ENDROOT
BRANCH   1   5
ATOM      5  C   UNL A   1      39.163  20.158  25.923  1.00  0.00     0.118 C 
BRANCH   5   6
ATOM      6  C   UNL A   1      38.011  19.818  25.000  1.00  0.00     0.042 C 
BRANCH   6   7
ATOM      7  C   UNL A   1      37.176  21.046  24.627  1.00  0.00     0.118 C 
BRANCH   7   8
ATOM      8  N   UNL A   1      36.225  21.391  25.654  1.00  0.00    -0.352 N 
ATOM      9  C   UNL A   1      34.884  21.171  25.805  1.00  0.00     0.256 C 
ATOM     10  O   UNL A   1      34.447  21.446  26.928  1.00  0.00    -0.269 OA
ATOM     11  H   UNL A   1      36.625  21.888  26.403  1.00  0.00     0.163 HD
BRANCH   9  12
ATOM     12  C   UNL A   1      33.986  20.620  24.785  1.00  0.00     0.105 A 
ATOM     13  C   UNL A   1      35.417  15.853  25.183  1.00  0.00     0.064 C 
ATOM     14  C   UNL A   1      34.563  16.923  24.567  1.00  0.00     0.019 A 
ATOM     15  C   UNL A   1      33.658  16.625  23.617  1.00  0.00     0.095 A 
ATOM     16  N   UNL A   1      34.747  18.224  25.003  1.00  0.00    -0.343 N 
ATOM     17  C   UNL A   1      32.821  17.704  23.021  1.00  0.00     0.274 A 
ATOM     18  C   UNL A   1      34.022  19.259  24.507  1.00  0.00     0.150 A 
ATOM     19  H   UNL A   1      35.424  18.403  25.694  1.00  0.00     0.168 HD
ATOM     20  O   UNL A   1      31.981  17.506  22.161  1.00  0.00    -0.267 OA
ATOM     21  N   UNL A   1      33.090  18.982  23.543  1.00  0.00    -0.179 N 
ATOM     22  N   UNL A   1      32.437  20.088  23.143  1.00  0.00    -0.168 NA
ATOM     23  C   UNL A   1      32.924  21.068  23.924  1.00  0.00     0.075 A 
ATOM     24  C   UNL A   1      32.233  22.368  23.759  1.00  0.00     0.070 C 
ENDBRANCH   9  12
ENDBRANCH   7   8
ENDBRANCH   6   7
ENDBRANCH   5   6
ENDBRANCH   1   5
BRANCH   2  25
ATOM     25  C   UNL A   1      42.056  20.728  26.492  1.00  0.00     0.039 A 
ATOM     26  C   UNL A   1      42.479  21.829  25.744  1.00  0.00     0.014 A 
ATOM     27  C   UNL A   1      41.911  20.808  27.872  1.00  0.00     0.014 A 
ATOM     28  C   UNL A   1      42.662  23.043  26.397  1.00  0.00     0.010 A 
ATOM     29  C   UNL A   1      41.897  22.039  28.469  1.00  0.00     0.010 A 
ATOM     30  C   UNL A   1      42.336  23.150  27.759  1.00  0.00    -0.014 A 
BRANCH  30  31
ATOM     31  C   UNL A   1      42.375  24.439  28.440  1.00  0.00     0.031 A 
ATOM     32  C   UNL A   1      41.187  25.311  28.227  1.00  0.00     0.074 A 
ATOM     33  C   UNL A   1      43.323  24.757  29.347  1.00  0.00     0.049 A 
ATOM     34  N   UNL A   1      41.145  26.418  27.563  1.00  0.00    -0.248 NA
ATOM     35  C   UNL A   1      39.873  24.844  28.692  1.00  0.00     0.031 C 
ATOM     36  C   UNL A   1      44.385  23.904  29.900  1.00  0.00     0.029 A 
ATOM     37  N   UNL A   1      43.440  25.890  30.087  1.00  0.00    -0.354 N 
ATOM     38  C   UNL A   1      39.851  26.909  27.723  1.00  0.00     0.074 A 
ATOM     39  C   UNL A   1      39.073  25.820  28.255  1.00  0.00     0.031 C 
ATOM     40  C   UNL A   1      44.835  24.437  31.055  1.00  0.00     0.029 A 
ATOM     41  C   UNL A   1      44.251  25.752  31.207  1.00  0.00     0.049 A 
ATOM     42  H   UNL A   1      42.991  26.735  29.851  1.00  0.00     0.167 HD
ATOM     43  C   UNL A   1      39.582  28.241  27.621  1.00  0.00     0.034 A 
ATOM     44  C   UNL A   1      44.401  26.649  32.209  1.00  0.00     0.034 A 
ATOM     45  C   UNL A   1      40.693  28.960  27.049  1.00  0.00     0.049 A 
ATOM     46  C   UNL A   1      44.015  27.968  31.662  1.00  0.00     0.074 A 
ATOM     47  C   UNL A   1      41.388  28.900  25.859  1.00  0.00     0.029 A 
ATOM     48  N   UNL A   1      41.494  29.657  27.920  1.00  0.00    -0.354 N 
ATOM     49  N   UNL A   1      44.675  28.571  30.711  1.00  0.00    -0.248 NA
ATOM     50  C   UNL A   1      42.651  28.423  31.866  1.00  0.00     0.031 C 
ATOM     51  C   UNL A   1      42.748  29.128  26.220  1.00  0.00     0.029 A 
ATOM     52  C   UNL A   1      42.794  29.378  27.595  1.00  0.00     0.049 A 
ATOM     53  H   UNL A   1      41.190  30.249  28.645  1.00  0.00     0.167 HD
ATOM     54  C   UNL A   1      43.688  29.129  29.908  1.00  0.00     0.074 A 
ATOM     55  C   UNL A   1      42.479  29.111  30.733  1.00  0.00     0.031 C 
ATOM     56  C   UNL A   1      43.869  29.279  28.562  1.00  0.00     0.034 A 
BRANCH  43  57
ATOM     57  C   UNL A   1      38.475  28.974  28.344  1.00  0.00     0.023 A 
ATOM     58  C   UNL A   1      37.606  29.769  27.562  1.00  0.00     0.012 A 
ATOM     59  C   UNL A   1      38.405  29.139  29.745  1.00  0.00     0.148 A 
ATOM     60  C   UNL A   1      36.751  30.715  28.141  1.00  0.00     0.002 A 
ATOM     61  C   UNL A   1      37.494  30.018  30.320  1.00  0.00     0.091 A 
ATOM     62  F   UNL A   1      39.309  28.551  30.533  1.00  0.00    -0.205 F 
ATOM     63  C   UNL A   1      36.688  30.833  29.523  1.00  0.00     0.022 A 
BRANCH  61  64
ATOM     64  S   UNL A   1      37.325  30.165  32.104  1.00  0.00     0.127 S 
ATOM     65  O   UNL A   1      36.203  31.093  32.216  1.00  0.00    -0.237 OA
ATOM     66  O   UNL A   1      37.031  28.787  32.492  1.00  0.00    -0.237 OA
ATOM     67  O   UNL A   1      38.615  30.655  32.574  1.00  0.00    -0.744 OA
ENDBRANCH  61  64
ENDBRANCH  43  57
BRANCH  44  68
ATOM     68  C   UNL A   1      44.587  26.403  33.655  1.00  0.00     0.023 A 
ATOM     69  C   UNL A   1      45.843  26.642  34.243  1.00  0.00     0.012 A 
ATOM     70  C   UNL A   1      43.472  26.217  34.505  1.00  0.00     0.148 A 
ATOM     71  C   UNL A   1      45.978  26.739  35.633  1.00  0.00     0.002 A 
ATOM     72  C   UNL A   1      43.612  26.314  35.885  1.00  0.00     0.091 A 
ATOM     73  F   UNL A   1      42.264  26.036  33.955  1.00  0.00    -0.205 F 
ATOM     74  C   UNL A   1      44.863  26.587  36.452  1.00  0.00     0.022 A 
BRANCH  72  75
ATOM     75  S   UNL A   1      42.212  26.172  37.006  1.00  0.00     0.127 S 
ATOM     76  O   UNL A   1      41.730  24.822  36.717  1.00  0.00    -0.237 OA
ATOM     77  O   UNL A   1      42.854  26.328  38.309  1.00  0.00    -0.237 OA
ATOM     78  O   UNL A   1      41.289  27.234  36.628  1.00  0.00    -0.744 OA
ENDBRANCH  72  75
ENDBRANCH  44  68
BRANCH  56  79
ATOM     79  C   UNL A   1      45.250  29.050  27.990  1.00  0.00     0.023 A 
ATOM     80  C   UNL A   1      46.268  30.024  28.069  1.00  0.00     0.012 A 
ATOM     81  C   UNL A   1      45.587  27.757  27.555  1.00  0.00     0.148 A 
ATOM     82  C   UNL A   1      47.586  29.719  27.712  1.00  0.00     0.002 A 
ATOM     83  C   UNL A   1      46.906  27.443  27.249  1.00  0.00     0.091 A 
ATOM     84  F   UNL A   1      44.611  26.838  27.487  1.00  0.00    -0.205 F 
ATOM     85  C   UNL A   1      47.907  28.424  27.317  1.00  0.00     0.022 A 
BRANCH  83  86
ATOM     86  S   UNL A   1      47.411  25.762  26.873  1.00  0.00     0.127 S 
ATOM     87  O   UNL A   1      48.837  25.925  26.600  1.00  0.00    -0.237 OA
ATOM     88  O   UNL A   1      47.103  25.056  28.118  1.00  0.00    -0.237 OA
ATOM     89  O   UNL A   1      46.598  25.343  25.738  1.00  0.00    -0.744 OA
ENDBRANCH  83  86
ENDBRANCH  56  79
ENDBRANCH  30  31
ENDBRANCH   2  25
TORSDOF 13
ENDMDL
MODEL 2
REMARK VINA RESULT:     -12.4      5.373     10.502
REMARK SMILES Cc1cc(=O)n2nc(C)c(C(=O)NCCCNC(=O)c3ccc(-c4c5nc(c(-c6cccc(S(=O)(=O)[O-])c6F)c6ccc([nH]6)c(-c6cccc(S(=O)(=O)[O-])c6F)c6nc(c(-c7cccc(S(=O)(=O)[O-])c7F)c7ccc4[nH]7)C=C6)C=C5)cc3)c2[nH]1
REMARK SMILES IDX 17 1 18 2 19 3 16 5 15 6 14 7 13 8 11 9 12 10 10 12 1 13
REMARK SMILES IDX 2 14 3 15 84 16 4 17 83 18 5 20 6 21 7 22 8 23 9 24 20 25
REMARK SMILES IDX 21 26 82 27 22 28 81 29 23 30 24 31 25 32 75 33 26 34 80 35
REMARK SMILES IDX 74 36 76 37 27 38 79 39 73 40 72 41 28 43 60 44 40 45 59 46
REMARK SMILES IDX 41 47 44 48 58 49 77 50 42 51 43 52 57 54 78 55 45 56 29 57
REMARK SMILES IDX 30 58 38 59 31 60 33 61 39 62 32 63 34 64 35 65 36 66 37 67
REMARK SMILES IDX 61 68 62 69 70 70 63 71 65 72 71 73 64 74 66 75 67 76 68 77
REMARK SMILES IDX 69 78 46 79 47 80 55 81 48 82 50 83 56 84 49 85 51 86 52 87
REMARK SMILES IDX 53 88 54 89
REMARK H PARENT 17 4 13 11 84 19 76 42 44 53
REMARK Flexibility Score: inf
ROOT
ATOM      1  N   UNL A   1      32.495  33.848  27.730  1.00  0.00    -0.352 N 
ATOM      2  C   UNL A   1      33.091  34.524  28.777  1.00  0.00     0.251 C 
ATOM      3  O   UNL A   1      32.526  35.455  29.327  1.00  0.00    -0.269 OA
ATOM      4  H   UNL A   1      31.748  34.313  27.288  1.00  0.00     0.163 HD
ENDROOT
BRANCH   1   5
ATOM      5  C   UNL A   1      32.834  32.525  27.193  1.00  0.00     0.118 C 
BRANCH   5   6
ATOM      6  C   UNL A   1      31.597  31.773  26.746  1.00  0.00     0.042 C 
BRANCH   6   7
ATOM      7  C   UNL A   1      31.803  30.255  26.739  1.00  0.00     0.118 C 
BRANCH   7   8
ATOM      8  N   UNL A   1      32.570  29.815  25.600  1.00  0.00    -0.352 N 
ATOM      9  C   UNL A   1      32.234  29.237  24.408  1.00  0.00     0.256 C 
ATOM     10  O   UNL A   1      33.158  29.185  23.589  1.00  0.00    -0.269 OA
ATOM     11  H   UNL A   1      33.538  29.962  25.702  1.00  0.00     0.163 HD
BRANCH   9  12
ATOM     12  C   UNL A   1      30.904  28.737  24.044  1.00  0.00     0.105 A 
ATOM     13  C   UNL A   1      28.801  33.163  23.081  1.00  0.00     0.064 C 
ATOM     14  C   UNL A   1      28.735  31.665  23.166  1.00  0.00     0.019 A 
ATOM     15  C   UNL A   1      27.605  31.003  22.857  1.00  0.00     0.095 A 
ATOM     16  N   UNL A   1      29.871  30.993  23.582  1.00  0.00    -0.343 N 
ATOM     17  C   UNL A   1      27.563  29.517  22.947  1.00  0.00     0.274 A 
ATOM     18  C   UNL A   1      29.909  29.640  23.689  1.00  0.00     0.150 A 
ATOM     19  H   UNL A   1      30.676  31.512  23.807  1.00  0.00     0.168 HD
ATOM     20  O   UNL A   1      26.577  28.854  22.680  1.00  0.00    -0.267 OA
ATOM     21  N   UNL A   1      28.773  28.942  23.375  1.00  0.00    -0.179 N 
ATOM     22  N   UNL A   1      28.945  27.616  23.514  1.00  0.00    -0.168 NA
ATOM     23  C   UNL A   1      30.237  27.476  23.857  1.00  0.00     0.075 A 
ATOM     24  C   UNL A   1      30.695  26.068  23.919  1.00  0.00     0.070 C 
ENDBRANCH   9  12
ENDBRANCH   7   8
ENDBRANCH   6   7
ENDBRANCH   5   6
ENDBRANCH   1   5
BRANCH   2  25
ATOM     25  C   UNL A   1      34.421  34.076  29.216  1.00  0.00     0.039 A 
ATOM     26  C   UNL A   1      34.571  33.190  30.285  1.00  0.00     0.014 A 
ATOM     27  C   UNL A   1      35.512  34.480  28.456  1.00  0.00     0.014 A 
ATOM     28  C   UNL A   1      35.828  32.639  30.518  1.00  0.00     0.010 A 
ATOM     29  C   UNL A   1      36.688  33.789  28.562  1.00  0.00     0.010 A 
ATOM     30  C   UNL A   1      36.878  32.919  29.629  1.00  0.00    -0.014 A 
BRANCH  30  31
ATOM     31  C   UNL A   1      38.166  32.246  29.755  1.00  0.00     0.031 A 
ATOM     32  C   UNL A   1      38.229  30.871  29.188  1.00  0.00     0.074 A 
ATOM     33  C   UNL A   1      39.280  32.877  30.184  1.00  0.00     0.049 A 
ATOM     34  N   UNL A   1      38.341  29.764  29.845  1.00  0.00    -0.248 NA
ATOM     35  C   UNL A   1      38.014  30.689  27.745  1.00  0.00     0.031 C 
ATOM     36  C   UNL A   1      39.465  34.303  30.491  1.00  0.00     0.029 A 
ATOM     37  N   UNL A   1      40.542  32.386  30.295  1.00  0.00    -0.354 N 
ATOM     38  C   UNL A   1      38.448  28.761  28.885  1.00  0.00     0.074 A 
ATOM     39  C   UNL A   1      38.052  29.358  27.636  1.00  0.00     0.031 C 
ATOM     40  C   UNL A   1      40.781  34.601  30.468  1.00  0.00     0.029 A 
ATOM     41  C   UNL A   1      41.525  33.364  30.359  1.00  0.00     0.049 A 
ATOM     42  H   UNL A   1      40.741  31.421  30.327  1.00  0.00     0.167 HD
ATOM     43  C   UNL A   1      39.078  27.583  29.159  1.00  0.00     0.034 A 
ATOM     44  C   UNL A   1      42.862  33.170  30.289  1.00  0.00     0.034 A 
ATOM     45  C   UNL A   1      39.307  27.426  30.573  1.00  0.00     0.049 A 
ATOM     46  C   UNL A   1      43.110  31.765  30.682  1.00  0.00     0.074 A 
ATOM     47  C   UNL A   1      38.505  27.381  31.695  1.00  0.00     0.029 A 
ATOM     48  N   UNL A   1      40.578  27.681  31.027  1.00  0.00    -0.354 N 
ATOM     49  N   UNL A   1      42.870  31.301  31.878  1.00  0.00    -0.248 NA
ATOM     50  C   UNL A   1      43.215  30.768  29.631  1.00  0.00     0.031 C 
ATOM     51  C   UNL A   1      39.237  28.089  32.693  1.00  0.00     0.029 A 
ATOM     52  C   UNL A   1      40.465  28.465  32.144  1.00  0.00     0.049 A 
ATOM     53  H   UNL A   1      41.416  27.358  30.625  1.00  0.00     0.167 HD
ATOM     54  C   UNL A   1      42.336  30.038  31.656  1.00  0.00     0.074 A 
ATOM     55  C   UNL A   1      42.689  29.720  30.272  1.00  0.00     0.031 C 
ATOM     56  C   UNL A   1      41.414  29.498  32.508  1.00  0.00     0.034 A 
BRANCH  43  57
ATOM     57  C   UNL A   1      39.810  26.721  28.155  1.00  0.00     0.023 A 
ATOM     58  C   UNL A   1      39.574  25.328  28.204  1.00  0.00     0.012 A 
ATOM     59  C   UNL A   1      40.894  27.158  27.363  1.00  0.00     0.148 A 
ATOM     60  C   UNL A   1      40.405  24.416  27.543  1.00  0.00     0.002 A 
ATOM     61  C   UNL A   1      41.666  26.255  26.640  1.00  0.00     0.091 A 
ATOM     62  F   UNL A   1      41.281  28.436  27.405  1.00  0.00    -0.205 F 
ATOM     63  C   UNL A   1      41.446  24.880  26.752  1.00  0.00     0.022 A 
BRANCH  61  64
ATOM     64  S   UNL A   1      42.985  26.804  25.551  1.00  0.00     0.127 S 
ATOM     65  O   UNL A   1      43.941  27.359  26.506  1.00  0.00    -0.237 OA
ATOM     66  O   UNL A   1      43.395  25.551  24.920  1.00  0.00    -0.237 OA
ATOM     67  O   UNL A   1      42.362  27.755  24.638  1.00  0.00    -0.744 OA
ENDBRANCH  61  64
ENDBRANCH  43  57
BRANCH  44  68
ATOM     68  C   UNL A   1      43.893  34.019  29.654  1.00  0.00     0.023 A 
ATOM     69  C   UNL A   1      44.752  34.788  30.460  1.00  0.00     0.012 A 
ATOM     70  C   UNL A   1      44.222  33.853  28.288  1.00  0.00     0.148 A 
ATOM     71  C   UNL A   1      45.928  35.338  29.936  1.00  0.00     0.002 A 
ATOM     72  C   UNL A   1      45.392  34.401  27.772  1.00  0.00     0.091 A 
ATOM     73  F   UNL A   1      43.437  33.084  27.523  1.00  0.00    -0.205 F 
ATOM     74  C   UNL A   1      46.254  35.135  28.598  1.00  0.00     0.022 A 
BRANCH  72  75
ATOM     75  S   UNL A   1      45.902  34.148  26.066  1.00  0.00     0.127 S 
ATOM     76  O   UNL A   1      44.754  34.672  25.327  1.00  0.00    -0.237 OA
ATOM     77  O   UNL A   1      47.108  34.970  25.989  1.00  0.00    -0.237 OA
ATOM     78  O   UNL A   1      46.108  32.713  25.920  1.00  0.00    -0.744 OA
ENDBRANCH  72  75
ENDBRANCH  44  68
BRANCH  56  79
ATOM     79  C   UNL A   1      41.157  30.193  33.826  1.00  0.00     0.023 A 
ATOM     80  C   UNL A   1      42.020  30.050  34.933  1.00  0.00     0.012 A 
ATOM     81  C   UNL A   1      40.146  31.168  33.882  1.00  0.00     0.148 A 
ATOM     82  C   UNL A   1      41.871  30.850  36.071  1.00  0.00     0.002 A 
ATOM     83  C   UNL A   1      40.033  31.997  34.992  1.00  0.00     0.091 A 
ATOM     84  F   UNL A   1      39.333  31.297  32.822  1.00  0.00    -0.205 F 
ATOM     85  C   UNL A   1      40.887  31.834  36.094  1.00  0.00     0.022 A 
BRANCH  83  86
ATOM     86  S   UNL A   1      38.883  33.374  35.026  1.00  0.00     0.127 S 
ATOM     87  O   UNL A   1      39.104  33.925  36.362  1.00  0.00    -0.237 OA
ATOM     88  O   UNL A   1      39.368  34.215  33.930  1.00  0.00    -0.237 OA
ATOM     89  O   UNL A   1      37.563  32.801  34.794  1.00  0.00    -0.744 OA
ENDBRANCH  83  86
ENDBRANCH  56  79
ENDBRANCH  30  31
ENDBRANCH   2  25
TORSDOF 13
ENDMDL
MODEL 3
REMARK VINA RESULT:     -12.2      1.948      2.987
REMARK SMILES Cc1cc(=O)n2nc(C)c(C(=O)NCCCNC(=O)c3ccc(-c4c5nc(c(-c6cccc(S(=O)(=O)[O-])c6F)c6ccc([nH]6)c(-c6cccc(S(=O)(=O)[O-])c6F)c6nc(c(-c7cccc(S(=O)(=O)[O-])c7F)c7ccc4[nH]7)C=C6)C=C5)cc3)c2[nH]1
REMARK SMILES IDX 17 1 18 2 19 3 16 5 15 6 14 7 13 8 11 9 12 10 10 12 1 13
REMARK SMILES IDX 2 14 3 15 84 16 4 17 83 18 5 20 6 21 7 22 8 23 9 24 20 25
REMARK SMILES IDX 21 26 82 27 22 28 81 29 23 30 24 31 25 32 75 33 26 34 80 35
REMARK SMILES IDX 74 36 76 37 27 38 79 39 73 40 72 41 28 43 60 44 40 45 59 46
REMARK SMILES IDX 41 47 44 48 58 49 77 50 42 51 43 52 57 54 78 55 45 56 29 57
REMARK SMILES IDX 30 58 38 59 31 60 33 61 39 62 32 63 34 64 35 65 36 66 37 67
REMARK SMILES IDX 61 68 62 69 70 70 63 71 65 72 71 73 64 74 66 75 67 76 68 77
REMARK SMILES IDX 69 78 46 79 47 80 55 81 48 82 50 83 56 84 49 85 51 86 52 87
REMARK SMILES IDX 53 88 54 89
REMARK H PARENT 17 4 13 11 84 19 76 42 44 53
REMARK Flexibility Score: inf
ROOT
ATOM      1  N   UNL A   1      39.841  19.300  25.698  1.00  0.00    -0.352 N 
ATOM      2  C   UNL A   1      41.197  19.402  25.941  1.00  0.00     0.251 C 
ATOM      3  O   UNL A   1      41.960  18.496  25.646  1.00  0.00    -0.269 OA
ATOM      4  H   UNL A   1      39.500  18.389  25.540  1.00  0.00     0.163 HD
ENDROOT
BRANCH   1   5
ATOM      5  C   UNL A   1      38.844  20.375  25.645  1.00  0.00     0.118 C 
BRANCH   5   6
ATOM      6  C   UNL A   1      37.616  19.957  24.861  1.00  0.00     0.042 C 
BRANCH   6   7
ATOM      7  C   UNL A   1      36.441  20.921  25.051  1.00  0.00     0.118 C 
BRANCH   7   8
ATOM      8  N   UNL A   1      36.878  22.284  25.224  1.00  0.00    -0.352 N 
ATOM      9  C   UNL A   1      36.294  23.396  25.762  1.00  0.00     0.256 C 
ATOM     10  O   UNL A   1      37.063  24.351  25.916  1.00  0.00    -0.269 OA
ATOM     11  H   UNL A   1      37.786  22.448  24.883  1.00  0.00     0.163 HD
BRANCH   9  12
ATOM     12  C   UNL A   1      34.894  23.509  26.185  1.00  0.00     0.105 A 
ATOM     13  C   UNL A   1      33.846  27.765  23.792  1.00  0.00     0.064 C 
ATOM     14  C   UNL A   1      33.444  26.618  24.673  1.00  0.00     0.019 A 
ATOM     15  C   UNL A   1      32.192  26.523  25.159  1.00  0.00     0.095 A 
ATOM     16  N   UNL A   1      34.406  25.670  24.975  1.00  0.00    -0.343 N 
ATOM     17  C   UNL A   1      31.816  25.374  26.029  1.00  0.00     0.274 A 
ATOM     18  C   UNL A   1      34.138  24.596  25.762  1.00  0.00     0.150 A 
ATOM     19  H   UNL A   1      35.313  25.778  24.607  1.00  0.00     0.168 HD
ATOM     20  O   UNL A   1      30.703  25.223  26.500  1.00  0.00    -0.267 OA
ATOM     21  N   UNL A   1      32.870  24.473  26.264  1.00  0.00    -0.179 N 
ATOM     22  N   UNL A   1      32.734  23.367  27.017  1.00  0.00    -0.168 NA
ATOM     23  C   UNL A   1      33.924  22.749  26.928  1.00  0.00     0.075 A 
ATOM     24  C   UNL A   1      33.959  21.414  27.569  1.00  0.00     0.070 C 
ENDBRANCH   9  12
ENDBRANCH   7   8
ENDBRANCH   6   7
ENDBRANCH   5   6
ENDBRANCH   1   5
BRANCH   2  25
ATOM     25  C   UNL A   1      41.693  20.645  26.553  1.00  0.00     0.039 A 
ATOM     26  C   UNL A   1      42.095  21.728  25.770  1.00  0.00     0.014 A 
ATOM     27  C   UNL A   1      41.640  20.737  27.939  1.00  0.00     0.014 A 
ATOM     28  C   UNL A   1      42.352  22.942  26.399  1.00  0.00     0.010 A 
ATOM     29  C   UNL A   1      41.698  21.972  28.525  1.00  0.00     0.010 A 
ATOM     30  C   UNL A   1      42.118  23.066  27.779  1.00  0.00    -0.014 A 
BRANCH  30  31
ATOM     31  C   UNL A   1      42.235  24.358  28.445  1.00  0.00     0.031 A 
ATOM     32  C   UNL A   1      41.077  25.277  28.267  1.00  0.00     0.074 A 
ATOM     33  C   UNL A   1      43.227  24.644  29.314  1.00  0.00     0.049 A 
ATOM     34  N   UNL A   1      41.056  26.379  27.594  1.00  0.00    -0.248 NA
ATOM     35  C   UNL A   1      39.763  24.868  28.784  1.00  0.00     0.031 C 
ATOM     36  C   UNL A   1      44.273  23.753  29.837  1.00  0.00     0.029 A 
ATOM     37  N   UNL A   1      43.419  25.778  30.038  1.00  0.00    -0.354 N 
ATOM     38  C   UNL A   1      39.790  26.924  27.796  1.00  0.00     0.074 A 
ATOM     39  C   UNL A   1      38.988  25.873  28.366  1.00  0.00     0.031 C 
ATOM     40  C   UNL A   1      44.787  24.276  30.969  1.00  0.00     0.029 A 
ATOM     41  C   UNL A   1      44.263  25.616  31.129  1.00  0.00     0.049 A 
ATOM     42  H   UNL A   1      42.996  26.638  29.810  1.00  0.00     0.167 HD
ATOM     43  C   UNL A   1      39.572  28.266  27.691  1.00  0.00     0.034 A 
ATOM     44  C   UNL A   1      44.487  26.514  32.116  1.00  0.00     0.034 A 
ATOM     45  C   UNL A   1      40.690  28.933  27.072  1.00  0.00     0.049 A 
ATOM     46  C   UNL A   1      44.136  27.844  31.570  1.00  0.00     0.074 A 
ATOM     47  C   UNL A   1      41.338  28.835  25.858  1.00  0.00     0.029 A 
ATOM     48  N   UNL A   1      41.550  29.604  27.906  1.00  0.00    -0.354 N 
ATOM     49  N   UNL A   1      44.785  28.411  30.590  1.00  0.00    -0.248 NA
ATOM     50  C   UNL A   1      42.800  28.356  31.819  1.00  0.00     0.031 C 
ATOM     51  C   UNL A   1      42.719  29.009  26.167  1.00  0.00     0.029 A 
ATOM     52  C   UNL A   1      42.825  29.268  27.536  1.00  0.00     0.049 A 
ATOM     53  H   UNL A   1      41.298  30.214  28.635  1.00  0.00     0.167 HD
ATOM     54  C   UNL A   1      43.792  29.002  29.818  1.00  0.00     0.074 A 
ATOM     55  C   UNL A   1      42.615  29.041  30.687  1.00  0.00     0.031 C 
ATOM     56  C   UNL A   1      43.930  29.133  28.465  1.00  0.00     0.034 A 
BRANCH  43  57
ATOM     57  C   UNL A   1      38.524  29.050  28.446  1.00  0.00     0.023 A 
ATOM     58  C   UNL A   1      37.727  29.951  27.702  1.00  0.00     0.012 A 
ATOM     59  C   UNL A   1      38.458  29.151  29.853  1.00  0.00     0.148 A 
ATOM     60  C   UNL A   1      36.948  30.933  28.325  1.00  0.00     0.002 A 
ATOM     61  C   UNL A   1      37.618  30.073  30.469  1.00  0.00     0.091 A 
ATOM     62  F   UNL A   1      39.306  28.454  30.614  1.00  0.00    -0.205 F 
ATOM     63  C   UNL A   1      36.886  30.988  29.711  1.00  0.00     0.022 A 
BRANCH  61  64
ATOM     64  S   UNL A   1      37.450  30.145  32.257  1.00  0.00     0.127 S 
ATOM     65  O   UNL A   1      36.352  31.096  32.409  1.00  0.00    -0.237 OA
ATOM     66  O   UNL A   1      37.119  28.759  32.583  1.00  0.00    -0.237 OA
ATOM     67  O   UNL A   1      38.751  30.579  32.750  1.00  0.00    -0.744 OA
ENDBRANCH  61  64
ENDBRANCH  43  57
BRANCH  44  68
ATOM     68  C   UNL A   1      44.716  26.272  33.557  1.00  0.00     0.023 A 
ATOM     69  C   UNL A   1      46.017  26.383  34.080  1.00  0.00     0.012 A 
ATOM     70  C   UNL A   1      43.630  26.223  34.461  1.00  0.00     0.148 A 
ATOM     71  C   UNL A   1      46.230  26.486  35.460  1.00  0.00     0.002 A 
ATOM     72  C   UNL A   1      43.847  26.327  35.831  1.00  0.00     0.091 A 
ATOM     73  F   UNL A   1      42.384  26.167  33.973  1.00  0.00    -0.205 F 
ATOM     74  C   UNL A   1      45.146  26.471  36.333  1.00  0.00     0.022 A 
BRANCH  72  75
ATOM     75  S   UNL A   1      42.497  26.357  37.020  1.00  0.00     0.127 S 
ATOM     76  O   UNL A   1      43.215  26.364  38.293  1.00  0.00    -0.237 OA
ATOM     77  O   UNL A   1      41.830  27.613  36.685  1.00  0.00    -0.237 OA
ATOM     78  O   UNL A   1      41.722  25.147  36.773  1.00  0.00    -0.744 OA
ENDBRANCH  72  75
ENDBRANCH  44  68
BRANCH  56  79
ATOM     79  C   UNL A   1      45.278  28.843  27.846  1.00  0.00     0.023 A 
ATOM     80  C   UNL A   1      46.331  29.782  27.858  1.00  0.00     0.012 A 
ATOM     81  C   UNL A   1      45.554  27.528  27.432  1.00  0.00     0.148 A 
ATOM     82  C   UNL A   1      47.622  29.424  27.457  1.00  0.00     0.002 A 
ATOM     83  C   UNL A   1      46.849  27.161  27.084  1.00  0.00     0.091 A 
ATOM     84  F   UNL A   1      44.546  26.641  27.427  1.00  0.00    -0.205 F 
ATOM     85  C   UNL A   1      47.884  28.108  27.085  1.00  0.00     0.022 A 
BRANCH  83  86
ATOM     86  S   UNL A   1      47.282  25.455  26.734  1.00  0.00     0.127 S 
ATOM     87  O   UNL A   1      46.944  24.789  27.990  1.00  0.00    -0.237 OA
ATOM     88  O   UNL A   1      46.399  25.130  25.612  1.00  0.00    -0.237 OA
ATOM     89  O   UNL A   1      48.699  25.463  26.389  1.00  0.00    -0.744 OA
ENDBRANCH  83  86
ENDBRANCH  56  79
ENDBRANCH  30  31
ENDBRANCH   2  25
TORSDOF 13
ENDMDL
