MODEL 1
REMARK VINA RESULT:     -11.7      0.000      0.000
REMARK SMILES CC(C)(C)c1csc(C[NH2+][C@H]2CCC[C@@H](C(=O)NCCCNC(=O)c3ccc(-c4c5nc(c(-c6cccc(S(=O)(=O)[O-])c6F)c6ccc([nH]6)c(-c6cccc(S(=O)(=O)[O-])c6F)c6nc(c(-c7cccc(S(=O)(=O)[O-])c7F)c7ccc4[nH]7)C=C6)C=C5)cc3)C2)n1
REMARK SMILES IDX 19 1 18 2 16 3 17 4 15 6 11 7 12 8 88 9 13 10 14 11 10 12
REMARK SMILES IDX 9 15 8 16 5 17 6 18 89 19 7 20 2 21 1 22 3 23 4 24 20 25
REMARK SMILES IDX 21 26 22 27 23 28 24 30 25 31 26 32 87 33 27 34 86 35 28 36
REMARK SMILES IDX 29 37 30 38 80 39 31 40 85 41 79 42 81 43 32 44 84 45 78 46
REMARK SMILES IDX 77 47 33 49 65 50 45 51 64 52 46 53 49 54 63 55 82 56 47 57
REMARK SMILES IDX 48 58 62 60 83 61 50 62 34 63 35 64 43 65 36 66 38 67 44 68
REMARK SMILES IDX 37 69 39 70 40 71 41 72 42 73 66 74 67 75 75 76 68 77 70 78
REMARK SMILES IDX 76 79 69 80 71 81 72 82 73 83 74 84 51 85 52 86 60 87 53 88
REMARK SMILES IDX 55 89 61 90 54 91 56 92 57 93 58 94 59 95
REMARK H PARENT 18 5 10 13 10 14 22 29 81 48 49 59
REMARK Flexibility Score: inf
ROOT
ATOM      1  C   UNL A   1      32.338  27.212  26.781  1.00  0.00     0.117 C 
ENDROOT
BRANCH   1   2
ATOM      2  N   UNL A   1      33.491  26.888  25.969  1.00  0.00    -0.356 N 
ATOM      3  C   UNL A   1      33.807  25.673  25.451  1.00  0.00     0.223 C 
ATOM      4  O   UNL A   1      34.306  25.666  24.324  1.00  0.00    -0.275 OA
ATOM      5  H   UNL A   1      34.113  27.625  25.773  1.00  0.00     0.163 HD
BRANCH   3   6
ATOM      6  C   UNL A   1      33.486  24.387  26.221  1.00  0.00     0.084 C 
ATOM      7  C   UNL A   1      31.203  23.693  25.237  1.00  0.00     0.183 C 
ATOM      8  C   UNL A   1      31.728  22.274  24.985  1.00  0.00     0.065 C 
ATOM      9  C   UNL A   1      31.976  24.265  26.443  1.00  0.00     0.078 C 
ATOM     10  C   UNL A   1      33.238  22.180  24.770  1.00  0.00     0.007 C 
ATOM     11  C   UNL A   1      34.112  23.100  25.641  1.00  0.00     0.014 C 
BRANCH   7  12
ATOM     12  N   UNL A   1      31.093  24.621  24.093  1.00  0.00    -0.338 N 
ATOM     13  H   UNL A   1      31.930  25.205  24.086  1.00  0.00     0.346 HD
ATOM     14  H   UNL A   1      30.985  24.026  23.272  1.00  0.00     0.346 HD
BRANCH  12  15
ATOM     15  C   UNL A   1      29.928  25.513  24.082  1.00  0.00     0.329 C 
BRANCH  15  16
ATOM     16  C   UNL A   1      30.138  26.846  23.410  1.00  0.00     0.147 A 
ATOM     17  C   UNL A   1      29.747  28.981  22.888  1.00  0.00     0.057 A 
ATOM     18  C   UNL A   1      31.081  28.888  22.530  1.00  0.00     0.091 A 
ATOM     19  N   UNL A   1      29.222  27.794  23.379  1.00  0.00    -0.240 NA
ATOM     20  S   UNL A   1      31.674  27.299  22.794  1.00  0.00    -0.121 S 
BRANCH  17  21
ATOM     21  C   UNL A   1      28.832  30.197  22.841  1.00  0.00     0.005 C 
ATOM     22  C   UNL A   1      29.283  31.235  23.887  1.00  0.00     0.017 C 
ATOM     23  C   UNL A   1      27.362  29.832  23.128  1.00  0.00     0.017 C 
ATOM     24  C   UNL A   1      28.898  30.845  21.442  1.00  0.00     0.017 C 
ENDBRANCH  17  21
ENDBRANCH  15  16
ENDBRANCH  12  15
ENDBRANCH   7  12
ENDBRANCH   3   6
ENDBRANCH   1   2
BRANCH   1  25
ATOM     25  C   UNL A   1      31.752  28.582  26.478  1.00  0.00     0.042 C 
BRANCH  25  26
ATOM     26  C   UNL A   1      32.720  29.587  25.865  1.00  0.00     0.118 C 
BRANCH  26  27
ATOM     27  N   UNL A   1      32.484  30.963  26.285  1.00  0.00    -0.352 N 
ATOM     28  C   UNL A   1      33.210  31.754  27.146  1.00  0.00     0.251 C 
ATOM     29  H   UNL A   1      31.687  31.390  25.896  1.00  0.00     0.163 HD
ATOM     30  O   UNL A   1      32.779  32.856  27.476  1.00  0.00    -0.269 OA
BRANCH  28  31
ATOM     31  C   UNL A   1      34.493  31.267  27.698  1.00  0.00     0.039 A 
ATOM     32  C   UNL A   1      35.516  32.184  27.952  1.00  0.00     0.014 A 
ATOM     33  C   UNL A   1      34.680  29.913  27.989  1.00  0.00     0.014 A 
ATOM     34  C   UNL A   1      36.692  31.755  28.572  1.00  0.00     0.010 A 
ATOM     35  C   UNL A   1      35.809  29.508  28.692  1.00  0.00     0.010 A 
ATOM     36  C   UNL A   1      36.832  30.421  28.988  1.00  0.00    -0.014 A 
BRANCH  36  37
ATOM     37  C   UNL A   1      38.031  29.962  29.739  1.00  0.00     0.031 A 
ATOM     38  C   UNL A   1      38.295  30.474  31.130  1.00  0.00     0.074 A 
ATOM     39  C   UNL A   1      38.931  29.159  29.136  1.00  0.00     0.049 A 
ATOM     40  N   UNL A   1      39.315  30.241  31.914  1.00  0.00    -0.248 NA
ATOM     41  C   UNL A   1      37.297  31.391  31.705  1.00  0.00     0.031 C 
ATOM     42  C   UNL A   1      38.835  28.659  27.763  1.00  0.00     0.029 A 
ATOM     43  N   UNL A   1      40.119  28.643  29.593  1.00  0.00    -0.354 N 
ATOM     44  C   UNL A   1      39.103  31.010  33.054  1.00  0.00     0.074 A 
ATOM     45  C   UNL A   1      37.878  31.747  32.841  1.00  0.00     0.031 C 
ATOM     46  C   UNL A   1      39.909  27.902  27.493  1.00  0.00     0.029 A 
ATOM     47  C   UNL A   1      40.790  27.891  28.657  1.00  0.00     0.049 A 
ATOM     48  H   UNL A   1      40.458  28.797  30.503  1.00  0.00     0.167 HD
ATOM     49  C   UNL A   1      39.843  31.075  34.186  1.00  0.00     0.034 A 
ATOM     50  C   UNL A   1      41.984  27.269  28.723  1.00  0.00     0.034 A 
ATOM     51  C   UNL A   1      41.039  30.311  34.410  1.00  0.00     0.049 A 
ATOM     52  C   UNL A   1      42.770  27.328  30.005  1.00  0.00     0.074 A 
ATOM     53  C   UNL A   1      41.811  30.237  35.557  1.00  0.00     0.029 A 
ATOM     54  N   UNL A   1      41.645  29.495  33.468  1.00  0.00    -0.354 N 
ATOM     55  N   UNL A   1      42.474  27.937  31.128  1.00  0.00    -0.248 NA
ATOM     56  C   UNL A   1      44.040  26.588  30.042  1.00  0.00     0.031 C 
ATOM     57  C   UNL A   1      42.902  29.403  35.296  1.00  0.00     0.029 A 
ATOM     58  C   UNL A   1      42.789  28.924  34.000  1.00  0.00     0.049 A 
ATOM     59  H   UNL A   1      41.312  29.344  32.554  1.00  0.00     0.167 HD
ATOM     60  C   UNL A   1      43.495  27.621  32.015  1.00  0.00     0.074 A 
ATOM     61  C   UNL A   1      44.410  26.751  31.304  1.00  0.00     0.031 C 
ATOM     62  C   UNL A   1      43.665  28.022  33.299  1.00  0.00     0.034 A 
BRANCH  49  63
ATOM     63  C   UNL A   1      39.350  31.976  35.290  1.00  0.00     0.023 A 
ATOM     64  C   UNL A   1      38.408  31.491  36.221  1.00  0.00     0.012 A 
ATOM     65  C   UNL A   1      39.852  33.284  35.436  1.00  0.00     0.148 A 
ATOM     66  C   UNL A   1      37.939  32.306  37.251  1.00  0.00     0.002 A 
ATOM     67  C   UNL A   1      39.418  34.074  36.496  1.00  0.00     0.091 A 
ATOM     68  F   UNL A   1      40.732  33.737  34.532  1.00  0.00    -0.205 F 
ATOM     69  C   UNL A   1      38.452  33.593  37.394  1.00  0.00     0.022 A 
BRANCH  67  70
ATOM     70  S   UNL A   1      40.079  35.713  36.816  1.00  0.00     0.127 S 
ATOM     71  O   UNL A   1      41.515  35.446  36.869  1.00  0.00    -0.237 OA
ATOM     72  O   UNL A   1      39.641  36.456  35.634  1.00  0.00    -0.237 OA
ATOM     73  O   UNL A   1      39.478  36.152  38.067  1.00  0.00    -0.744 OA
ENDBRANCH  67  70
ENDBRANCH  49  63
BRANCH  50  74
ATOM     74  C   UNL A   1      42.480  26.480  27.558  1.00  0.00     0.023 A 
ATOM     75  C   UNL A   1      43.306  27.102  26.602  1.00  0.00     0.012 A 
ATOM     76  C   UNL A   1      42.163  25.116  27.408  1.00  0.00     0.148 A 
ATOM     77  C   UNL A   1      43.779  26.390  25.499  1.00  0.00     0.002 A 
ATOM     78  C   UNL A   1      42.683  24.398  26.338  1.00  0.00     0.091 A 
ATOM     79  F   UNL A   1      41.370  24.544  28.325  1.00  0.00    -0.205 F 
ATOM     80  C   UNL A   1      43.477  25.037  25.372  1.00  0.00     0.022 A 
BRANCH  78  81
ATOM     81  S   UNL A   1      42.457  22.625  26.162  1.00  0.00     0.127 S 
ATOM     82  O   UNL A   1      43.125  22.118  27.358  1.00  0.00    -0.237 OA
ATOM     83  O   UNL A   1      40.998  22.507  26.175  1.00  0.00    -0.237 OA
ATOM     84  O   UNL A   1      43.077  22.271  24.893  1.00  0.00    -0.744 OA
ENDBRANCH  78  81
ENDBRANCH  50  74
BRANCH  62  85
ATOM     85  C   UNL A   1      44.863  27.492  34.046  1.00  0.00     0.023 A 
ATOM     86  C   UNL A   1      46.066  28.226  34.064  1.00  0.00     0.012 A 
ATOM     87  C   UNL A   1      44.768  26.301  34.793  1.00  0.00     0.148 A 
ATOM     88  C   UNL A   1      47.166  27.765  34.787  1.00  0.00     0.002 A 
ATOM     89  C   UNL A   1      45.851  25.876  35.553  1.00  0.00     0.091 A 
ATOM     90  F   UNL A   1      43.621  25.608  34.749  1.00  0.00    -0.205 F 
ATOM     91  C   UNL A   1      47.055  26.599  35.540  1.00  0.00     0.022 A 
BRANCH  89  92
ATOM     92  S   UNL A   1      45.767  24.443  36.632  1.00  0.00     0.127 S 
ATOM     93  O   UNL A   1      45.527  23.364  35.675  1.00  0.00    -0.237 OA
ATOM     94  O   UNL A   1      47.098  24.434  37.240  1.00  0.00    -0.237 OA
ATOM     95  O   UNL A   1      44.678  24.703  37.564  1.00  0.00    -0.744 OA
ENDBRANCH  89  92
ENDBRANCH  62  85
ENDBRANCH  36  37
ENDBRANCH  28  31
ENDBRANCH  26  27
ENDBRANCH  25  26
ENDBRANCH   1  25
TORSDOF 17
ENDMDL
MODEL 2
REMARK VINA RESULT:     -11.6      5.106     10.331
REMARK SMILES CC(C)(C)c1csc(C[NH2+][C@H]2CCC[C@@H](C(=O)NCCCNC(=O)c3ccc(-c4c5nc(c(-c6cccc(S(=O)(=O)[O-])c6F)c6ccc([nH]6)c(-c6cccc(S(=O)(=O)[O-])c6F)c6nc(c(-c7cccc(S(=O)(=O)[O-])c7F)c7ccc4[nH]7)C=C6)C=C5)cc3)C2)n1
REMARK SMILES IDX 19 1 18 2 16 3 17 4 15 6 11 7 12 8 88 9 13 10 14 11 10 12
REMARK SMILES IDX 9 15 8 16 5 17 6 18 89 19 7 20 2 21 1 22 3 23 4 24 20 25
REMARK SMILES IDX 21 26 22 27 23 28 24 30 25 31 26 32 87 33 27 34 86 35 28 36
REMARK SMILES IDX 29 37 30 38 80 39 31 40 85 41 79 42 81 43 32 44 84 45 78 46
REMARK SMILES IDX 77 47 33 49 65 50 45 51 64 52 46 53 49 54 63 55 82 56 47 57
REMARK SMILES IDX 48 58 62 60 83 61 50 62 34 63 35 64 43 65 36 66 38 67 44 68
REMARK SMILES IDX 37 69 39 70 40 71 41 72 42 73 66 74 67 75 75 76 68 77 70 78
REMARK SMILES IDX 76 79 69 80 71 81 72 82 73 83 74 84 51 85 52 86 60 87 53 88
REMARK SMILES IDX 55 89 61 90 54 91 56 92 57 93 58 94 59 95
REMARK H PARENT 18 5 10 13 10 14 22 29 81 48 49 59
REMARK Flexibility Score: inf
ROOT
ATOM      1  C   UNL A   1      35.245  23.347  23.619  1.00  0.00     0.117 C 
ENDROOT
BRANCH   1   2
ATOM      2  N   UNL A   1      35.129  24.421  24.581  1.00  0.00    -0.356 N 
ATOM      3  C   UNL A   1      34.065  25.246  24.758  1.00  0.00     0.223 C 
ATOM      4  O   UNL A   1      33.802  25.567  25.918  1.00  0.00    -0.275 OA
ATOM      5  H   UNL A   1      35.904  24.571  25.170  1.00  0.00     0.163 HD
BRANCH   3   6
ATOM      6  C   UNL A   1      33.211  25.686  23.564  1.00  0.00     0.084 C 
ATOM      7  C   UNL A   1      30.825  25.038  24.306  1.00  0.00     0.183 C 
ATOM      8  C   UNL A   1      30.321  26.446  23.961  1.00  0.00     0.065 C 
ATOM      9  C   UNL A   1      32.023  24.737  23.383  1.00  0.00     0.078 C 
ATOM     10  C   UNL A   1      31.380  27.543  24.051  1.00  0.00     0.007 C 
ATOM     11  C   UNL A   1      32.794  27.173  23.567  1.00  0.00     0.014 C 
BRANCH   7  12
ATOM     12  N   UNL A   1      31.053  24.696  25.725  1.00  0.00    -0.338 N 
ATOM     13  H   UNL A   1      32.058  24.730  25.894  1.00  0.00     0.346 HD
ATOM     14  H   UNL A   1      30.510  25.375  26.258  1.00  0.00     0.346 HD
BRANCH  12  15
ATOM     15  C   UNL A   1      30.571  23.382  26.167  1.00  0.00     0.329 C 
BRANCH  15  16
ATOM     16  C   UNL A   1      31.624  22.308  26.274  1.00  0.00     0.147 A 
ATOM     17  C   UNL A   1      32.845  20.544  25.658  1.00  0.00     0.057 A 
ATOM     18  C   UNL A   1      33.677  21.086  26.622  1.00  0.00     0.091 A 
ATOM     19  N   UNL A   1      31.665  21.253  25.483  1.00  0.00    -0.240 NA
ATOM     20  S   UNL A   1      32.968  22.482  27.324  1.00  0.00    -0.121 S 
BRANCH  17  21
ATOM     21  C   UNL A   1      33.079  19.326  24.776  1.00  0.00     0.005 C 
ATOM     22  C   UNL A   1      34.591  19.106  24.573  1.00  0.00     0.017 C 
ATOM     23  C   UNL A   1      32.424  19.476  23.387  1.00  0.00     0.017 C 
ATOM     24  C   UNL A   1      32.484  18.072  25.450  1.00  0.00     0.017 C 
ENDBRANCH  17  21
ENDBRANCH  15  16
ENDBRANCH  12  15
ENDBRANCH   7  12
ENDBRANCH   3   6
ENDBRANCH   1   2
BRANCH   1  25
ATOM     25  C   UNL A   1      36.417  22.417  23.889  1.00  0.00     0.042 C 
BRANCH  25  26
ATOM     26  C   UNL A   1      36.671  22.094  25.357  1.00  0.00     0.118 C 
BRANCH  26  27
ATOM     27  N   UNL A   1      37.675  21.058  25.566  1.00  0.00    -0.352 N 
ATOM     28  C   UNL A   1      38.969  21.170  26.018  1.00  0.00     0.251 C 
ATOM     29  H   UNL A   1      37.384  20.142  25.352  1.00  0.00     0.163 HD
ATOM     30  O   UNL A   1      39.709  20.189  26.008  1.00  0.00    -0.269 OA
BRANCH  28  31
ATOM     31  C   UNL A   1      39.482  22.476  26.488  1.00  0.00     0.039 A 
ATOM     32  C   UNL A   1      40.496  22.503  27.448  1.00  0.00     0.014 A 
ATOM     33  C   UNL A   1      38.982  23.671  25.965  1.00  0.00     0.014 A 
ATOM     34  C   UNL A   1      41.063  23.724  27.822  1.00  0.00     0.010 A 
ATOM     35  C   UNL A   1      39.613  24.873  26.265  1.00  0.00     0.010 A 
ATOM     36  C   UNL A   1      40.657  24.917  27.201  1.00  0.00    -0.014 A 
BRANCH  36  37
ATOM     37  C   UNL A   1      41.313  26.215  27.508  1.00  0.00     0.031 A 
ATOM     38  C   UNL A   1      42.715  26.487  27.031  1.00  0.00     0.074 A 
ATOM     39  C   UNL A   1      40.686  27.114  28.295  1.00  0.00     0.049 A 
ATOM     40  N   UNL A   1      43.475  27.529  27.253  1.00  0.00    -0.248 NA
ATOM     41  C   UNL A   1      43.360  25.439  26.222  1.00  0.00     0.031 C 
ATOM     42  C   UNL A   1      39.359  26.938  28.889  1.00  0.00     0.029 A 
ATOM     43  N   UNL A   1      41.091  28.343  28.752  1.00  0.00    -0.354 N 
ATOM     44  C   UNL A   1      44.695  27.245  26.649  1.00  0.00     0.074 A 
ATOM     45  C   UNL A   1      44.588  25.918  26.086  1.00  0.00     0.031 C 
ATOM     46  C   UNL A   1      39.057  28.021  29.622  1.00  0.00     0.029 A 
ATOM     47  C   UNL A   1      40.179  28.953  29.581  1.00  0.00     0.049 A 
ATOM     48  H   UNL A   1      41.954  28.751  28.508  1.00  0.00     0.167 HD
ATOM     49  C   UNL A   1      45.795  28.029  26.544  1.00  0.00     0.034 A 
ATOM     50  C   UNL A   1      40.241  30.125  30.243  1.00  0.00     0.034 A 
ATOM     51  C   UNL A   1      45.885  29.362  27.071  1.00  0.00     0.049 A 
ATOM     52  C   UNL A   1      41.460  30.992  30.083  1.00  0.00     0.074 A 
ATOM     53  C   UNL A   1      46.920  30.271  26.941  1.00  0.00     0.029 A 
ATOM     54  N   UNL A   1      44.908  29.979  27.837  1.00  0.00    -0.354 N 
ATOM     55  N   UNL A   1      42.543  30.772  29.377  1.00  0.00    -0.248 NA
ATOM     56  C   UNL A   1      41.454  32.286  30.782  1.00  0.00     0.031 C 
ATOM     57  C   UNL A   1      46.583  31.424  27.657  1.00  0.00     0.029 A 
ATOM     58  C   UNL A   1      45.320  31.250  28.200  1.00  0.00     0.049 A 
ATOM     59  H   UNL A   1      44.047  29.572  28.088  1.00  0.00     0.167 HD
ATOM     60  C   UNL A   1      43.327  31.912  29.514  1.00  0.00     0.074 A 
ATOM     61  C   UNL A   1      42.586  32.829  30.356  1.00  0.00     0.031 C 
ATOM     62  C   UNL A   1      44.553  32.171  28.997  1.00  0.00     0.034 A 
BRANCH  49  63
ATOM     63  C   UNL A   1      46.978  27.473  25.792  1.00  0.00     0.023 A 
ATOM     64  C   UNL A   1      47.854  26.574  26.433  1.00  0.00     0.012 A 
ATOM     65  C   UNL A   1      47.196  27.803  24.440  1.00  0.00     0.148 A 
ATOM     66  C   UNL A   1      48.954  26.046  25.757  1.00  0.00     0.002 A 
ATOM     67  C   UNL A   1      48.266  27.234  23.757  1.00  0.00     0.091 A 
ATOM     68  F   UNL A   1      46.366  28.675  23.851  1.00  0.00    -0.205 F 
ATOM     69  C   UNL A   1      49.153  26.368  24.417  1.00  0.00     0.022 A 
BRANCH  67  70
ATOM     70  S   UNL A   1      48.560  27.518  22.008  1.00  0.00     0.127 S 
ATOM     71  O   UNL A   1      49.739  28.382  22.045  1.00  0.00    -0.237 OA
ATOM     72  O   UNL A   1      48.811  26.163  21.515  1.00  0.00    -0.237 OA
ATOM     73  O   UNL A   1      47.348  28.138  21.491  1.00  0.00    -0.744 OA
ENDBRANCH  67  70
ENDBRANCH  49  63
BRANCH  50  74
ATOM     74  C   UNL A   1      39.084  30.579  31.067  1.00  0.00     0.023 A 
ATOM     75  C   UNL A   1      39.030  30.236  32.433  1.00  0.00     0.012 A 
ATOM     76  C   UNL A   1      38.055  31.368  30.517  1.00  0.00     0.148 A 
ATOM     77  C   UNL A   1      37.956  30.641  33.226  1.00  0.00     0.002 A 
ATOM     78  C   UNL A   1      37.018  31.815  31.326  1.00  0.00     0.091 A 
ATOM     79  F   UNL A   1      38.121  31.678  29.214  1.00  0.00    -0.205 F 
ATOM     80  C   UNL A   1      36.956  31.438  32.676  1.00  0.00     0.022 A 
BRANCH  78  81
ATOM     81  S   UNL A   1      35.757  32.952  30.739  1.00  0.00     0.127 S 
ATOM     82  O   UNL A   1      34.922  32.076  29.921  1.00  0.00    -0.237 OA
ATOM     83  O   UNL A   1      35.144  33.394  31.993  1.00  0.00    -0.237 OA
ATOM     84  O   UNL A   1      36.471  33.997  30.018  1.00  0.00    -0.744 OA
ENDBRANCH  78  81
ENDBRANCH  50  74
BRANCH  62  85
ATOM     85  C   UNL A   1      45.163  33.520  29.284  1.00  0.00     0.023 A 
ATOM     86  C   UNL A   1      45.922  33.718  30.455  1.00  0.00     0.012 A 
ATOM     87  C   UNL A   1      45.046  34.570  28.350  1.00  0.00     0.148 A 
ATOM     88  C   UNL A   1      46.525  34.950  30.708  1.00  0.00     0.002 A 
ATOM     89  C   UNL A   1      45.693  35.776  28.584  1.00  0.00     0.091 A 
ATOM     90  F   UNL A   1      44.305  34.367  27.251  1.00  0.00    -0.205 F 
ATOM     91  C   UNL A   1      46.422  35.973  29.769  1.00  0.00     0.022 A 
BRANCH  89  92
ATOM     92  S   UNL A   1      45.700  37.114  27.386  1.00  0.00     0.127 S 
ATOM     93  O   UNL A   1      44.281  37.463  27.323  1.00  0.00    -0.237 OA
ATOM     94  O   UNL A   1      46.544  38.113  28.043  1.00  0.00    -0.237 OA
ATOM     95  O   UNL A   1      46.261  36.558  26.163  1.00  0.00    -0.744 OA
ENDBRANCH  89  92
ENDBRANCH  62  85
ENDBRANCH  36  37
ENDBRANCH  28  31
ENDBRANCH  26  27
ENDBRANCH  25  26
ENDBRANCH   1  25
TORSDOF 17
ENDMDL
MODEL 3
REMARK VINA RESULT:     -11.5      5.029      8.182
REMARK SMILES CC(C)(C)c1csc(C[NH2+][C@H]2CCC[C@@H](C(=O)NCCCNC(=O)c3ccc(-c4c5nc(c(-c6cccc(S(=O)(=O)[O-])c6F)c6ccc([nH]6)c(-c6cccc(S(=O)(=O)[O-])c6F)c6nc(c(-c7cccc(S(=O)(=O)[O-])c7F)c7ccc4[nH]7)C=C6)C=C5)cc3)C2)n1
REMARK SMILES IDX 19 1 18 2 16 3 17 4 15 6 11 7 12 8 88 9 13 10 14 11 10 12
REMARK SMILES IDX 9 15 8 16 5 17 6 18 89 19 7 20 2 21 1 22 3 23 4 24 20 25
REMARK SMILES IDX 21 26 22 27 23 28 24 30 25 31 26 32 87 33 27 34 86 35 28 36
REMARK SMILES IDX 29 37 30 38 80 39 31 40 85 41 79 42 81 43 32 44 84 45 78 46
REMARK SMILES IDX 77 47 33 49 65 50 45 51 64 52 46 53 49 54 63 55 82 56 47 57
REMARK SMILES IDX 48 58 62 60 83 61 50 62 34 63 35 64 43 65 36 66 38 67 44 68
REMARK SMILES IDX 37 69 39 70 40 71 41 72 42 73 66 74 67 75 75 76 68 77 70 78
REMARK SMILES IDX 76 79 69 80 71 81 72 82 73 83 74 84 51 85 52 86 60 87 53 88
REMARK SMILES IDX 55 89 61 90 54 91 56 92 57 93 58 94 59 95
REMARK H PARENT 18 5 10 13 10 14 22 29 81 48 49 59
REMARK Flexibility Score: inf
ROOT
ATOM      1  C   UNL A   1      35.860  23.676  23.885  1.00  0.00     0.117 C 
ENDROOT
BRANCH   1   2
ATOM      2  N   UNL A   1      35.276  24.201  25.100  1.00  0.00    -0.356 N 
ATOM      3  C   UNL A   1      34.190  25.010  25.198  1.00  0.00     0.223 C 
ATOM      4  O   UNL A   1      33.436  24.807  26.152  1.00  0.00    -0.275 OA
ATOM      5  H   UNL A   1      35.714  23.946  25.944  1.00  0.00     0.163 HD
BRANCH   3   6
ATOM      6  C   UNL A   1      33.904  26.069  24.128  1.00  0.00     0.084 C 
ATOM      7  C   UNL A   1      32.212  24.873  22.588  1.00  0.00     0.183 C 
ATOM      8  C   UNL A   1      31.268  26.080  22.667  1.00  0.00     0.065 C 
ATOM      9  C   UNL A   1      33.650  25.399  22.774  1.00  0.00     0.078 C 
ATOM     10  C   UNL A   1      31.394  26.907  23.946  1.00  0.00     0.007 C 
ATOM     11  C   UNL A   1      32.817  27.101  24.498  1.00  0.00     0.014 C 
BRANCH   7  12
ATOM     12  N   UNL A   1      31.897  23.673  23.390  1.00  0.00    -0.338 N 
ATOM     13  H   UNL A   1      32.345  23.783  24.301  1.00  0.00     0.346 HD
ATOM     14  H   UNL A   1      30.879  23.628  23.420  1.00  0.00     0.346 HD
BRANCH  12  15
ATOM     15  C   UNL A   1      32.327  22.384  22.835  1.00  0.00     0.329 C 
BRANCH  15  16
ATOM     16  C   UNL A   1      32.516  21.277  23.841  1.00  0.00     0.147 A 
ATOM     17  C   UNL A   1      33.160  19.291  24.630  1.00  0.00     0.057 A 
ATOM     18  C   UNL A   1      33.031  19.988  25.818  1.00  0.00     0.091 A 
ATOM     19  N   UNL A   1      32.847  20.044  23.508  1.00  0.00    -0.240 NA
ATOM     20  S   UNL A   1      32.498  21.594  25.527  1.00  0.00    -0.121 S 
BRANCH  17  21
ATOM     21  C   UNL A   1      33.621  17.856  24.416  1.00  0.00     0.005 C 
ATOM     22  C   UNL A   1      35.146  17.757  24.620  1.00  0.00     0.017 C 
ATOM     23  C   UNL A   1      33.291  17.342  22.999  1.00  0.00     0.017 C 
ATOM     24  C   UNL A   1      32.926  16.927  25.433  1.00  0.00     0.017 C 
ENDBRANCH  17  21
ENDBRANCH  15  16
ENDBRANCH  12  15
ENDBRANCH   7  12
ENDBRANCH   3   6
ENDBRANCH   1   2
BRANCH   1  25
ATOM     25  C   UNL A   1      36.334  22.237  24.015  1.00  0.00     0.042 C 
BRANCH  25  26
ATOM     26  C   UNL A   1      36.596  21.761  25.439  1.00  0.00     0.118 C 
BRANCH  26  27
ATOM     27  N   UNL A   1      37.603  20.710  25.532  1.00  0.00    -0.352 N 
ATOM     28  C   UNL A   1      38.923  20.792  25.913  1.00  0.00     0.251 C 
ATOM     29  H   UNL A   1      37.293  19.808  25.287  1.00  0.00     0.163 HD
ATOM     30  O   UNL A   1      39.653  19.810  25.806  1.00  0.00    -0.269 OA
BRANCH  28  31
ATOM     31  C   UNL A   1      39.472  22.069  26.421  1.00  0.00     0.039 A 
ATOM     32  C   UNL A   1      40.589  22.042  27.260  1.00  0.00     0.014 A 
ATOM     33  C   UNL A   1      38.902  23.290  26.052  1.00  0.00     0.014 A 
ATOM     34  C   UNL A   1      41.182  23.242  27.660  1.00  0.00     0.010 A 
ATOM     35  C   UNL A   1      39.551  24.478  26.371  1.00  0.00     0.010 A 
ATOM     36  C   UNL A   1      40.695  24.471  27.184  1.00  0.00    -0.014 A 
BRANCH  36  37
ATOM     37  C   UNL A   1      41.368  25.755  27.514  1.00  0.00     0.031 A 
ATOM     38  C   UNL A   1      40.637  26.814  28.296  1.00  0.00     0.074 A 
ATOM     39  C   UNL A   1      42.602  26.008  27.032  1.00  0.00     0.049 A 
ATOM     40  N   UNL A   1      41.032  28.017  28.622  1.00  0.00    -0.248 NA
ATOM     41  C   UNL A   1      39.272  26.491  28.743  1.00  0.00     0.031 C 
ATOM     42  C   UNL A   1      43.386  25.098  26.193  1.00  0.00     0.029 A 
ATOM     43  N   UNL A   1      43.404  27.116  27.155  1.00  0.00    -0.354 N 
ATOM     44  C   UNL A   1      39.955  28.607  29.276  1.00  0.00     0.074 A 
ATOM     45  C   UNL A   1      38.877  27.643  29.264  1.00  0.00     0.031 C 
ATOM     46  C   UNL A   1      44.557  25.679  25.887  1.00  0.00     0.029 A 
ATOM     47  C   UNL A   1      44.595  27.015  26.475  1.00  0.00     0.049 A 
ATOM     48  H   UNL A   1      43.150  27.907  27.682  1.00  0.00     0.167 HD
ATOM     49  C   UNL A   1      39.878  29.826  29.861  1.00  0.00     0.034 A 
ATOM     50  C   UNL A   1      45.601  27.900  26.331  1.00  0.00     0.034 A 
ATOM     51  C   UNL A   1      40.964  30.766  29.906  1.00  0.00     0.049 A 
ATOM     52  C   UNL A   1      45.506  29.234  27.019  1.00  0.00     0.074 A 
ATOM     53  C   UNL A   1      41.018  31.989  30.551  1.00  0.00     0.029 A 
ATOM     54  N   UNL A   1      42.186  30.594  29.274  1.00  0.00    -0.354 N 
ATOM     55  N   UNL A   1      44.539  29.711  27.765  1.00  0.00    -0.248 NA
ATOM     56  C   UNL A   1      46.654  30.141  26.875  1.00  0.00     0.031 C 
ATOM     57  C   UNL A   1      42.259  32.572  30.281  1.00  0.00     0.029 A 
ATOM     58  C   UNL A   1      42.996  31.695  29.501  1.00  0.00     0.049 A 
ATOM     59  H   UNL A   1      42.441  29.806  28.742  1.00  0.00     0.167 HD
ATOM     60  C   UNL A   1      44.977  30.953  28.211  1.00  0.00     0.074 A 
ATOM     61  C   UNL A   1      46.305  31.146  27.667  1.00  0.00     0.031 C 
ATOM     62  C   UNL A   1      44.334  31.854  28.994  1.00  0.00     0.034 A 
BRANCH  49  63
ATOM     63  C   UNL A   1      38.583  30.193  30.539  1.00  0.00     0.023 A 
ATOM     64  C   UNL A   1      38.339  29.765  31.861  1.00  0.00     0.012 A 
ATOM     65  C   UNL A   1      37.629  31.001  29.889  1.00  0.00     0.148 A 
ATOM     66  C   UNL A   1      37.149  30.095  32.508  1.00  0.00     0.002 A 
ATOM     67  C   UNL A   1      36.467  31.368  30.560  1.00  0.00     0.091 A 
ATOM     68  F   UNL A   1      37.866  31.384  28.627  1.00  0.00    -0.205 F 
ATOM     69  C   UNL A   1      36.218  30.904  31.862  1.00  0.00     0.022 A 
BRANCH  67  70
ATOM     70  S   UNL A   1      35.245  32.475  29.846  1.00  0.00     0.127 S 
ATOM     71  O   UNL A   1      34.678  31.643  28.786  1.00  0.00    -0.237 OA
ATOM     72  O   UNL A   1      34.350  32.714  30.978  1.00  0.00    -0.237 OA
ATOM     73  O   UNL A   1      35.980  33.647  29.393  1.00  0.00    -0.744 OA
ENDBRANCH  67  70
ENDBRANCH  49  63
BRANCH  50  74
ATOM     74  C   UNL A   1      46.817  27.526  25.553  1.00  0.00     0.023 A 
ATOM     75  C   UNL A   1      46.864  27.794  24.170  1.00  0.00     0.012 A 
ATOM     76  C   UNL A   1      47.934  26.935  26.176  1.00  0.00     0.148 A 
ATOM     77  C   UNL A   1      47.987  27.450  23.417  1.00  0.00     0.002 A 
ATOM     78  C   UNL A   1      49.070  26.647  25.430  1.00  0.00     0.091 A 
ATOM     79  F   UNL A   1      47.867  26.682  27.490  1.00  0.00    -0.205 F 
ATOM     80  C   UNL A   1      49.093  26.886  24.046  1.00  0.00     0.022 A 
BRANCH  78  81
ATOM     81  S   UNL A   1      50.588  26.041  26.176  1.00  0.00     0.127 S 
ATOM     82  O   UNL A   1      51.451  25.879  25.009  1.00  0.00    -0.237 OA
ATOM     83  O   UNL A   1      50.949  27.149  27.061  1.00  0.00    -0.237 OA
ATOM     84  O   UNL A   1      50.225  24.812  26.869  1.00  0.00    -0.744 OA
ENDBRANCH  78  81
ENDBRANCH  50  74
BRANCH  62  85
ATOM     85  C   UNL A   1      45.069  33.120  29.353  1.00  0.00     0.023 A 
ATOM     86  C   UNL A   1      45.901  33.156  30.490  1.00  0.00     0.012 A 
ATOM     87  C   UNL A   1      44.993  34.252  28.515  1.00  0.00     0.148 A 
ATOM     88  C   UNL A   1      46.619  34.310  30.806  1.00  0.00     0.002 A 
ATOM     89  C   UNL A   1      45.751  35.378  28.808  1.00  0.00     0.091 A 
ATOM     90  F   UNL A   1      44.183  34.204  27.448  1.00  0.00    -0.205 F 
ATOM     91  C   UNL A   1      46.554  35.414  29.960  1.00  0.00     0.022 A 
BRANCH  89  92
ATOM     92  S   UNL A   1      45.810  36.809  27.724  1.00  0.00     0.127 S 
ATOM     93  O   UNL A   1      46.781  37.661  28.409  1.00  0.00    -0.237 OA
ATOM     94  O   UNL A   1      46.288  36.227  26.469  1.00  0.00    -0.237 OA
ATOM     95  O   UNL A   1      44.451  37.330  27.670  1.00  0.00    -0.744 OA
ENDBRANCH  89  92
ENDBRANCH  62  85
ENDBRANCH  36  37
ENDBRANCH  28  31
ENDBRANCH  26  27
ENDBRANCH  25  26
ENDBRANCH   1  25
TORSDOF 17
ENDMDL
