MODEL 1
REMARK VINA RESULT:     -13.2      0.000      0.000
REMARK SMILES O=C(NCCCNC(=O)c1ccccc1NC(=O)c1ccc(N2C(=O)[C@H]3CC=CC[C@H]3C2=O)cc1)c1ccc(-c2c3nc(c(-c4cccc(S(=O)(=O)[O-])c4F)c4ccc([nH]4)c(-c4cccc(S(=O)(=O)[O-])c4F)c4nc(c(-c5cccc(S(=O)(=O)[O-])c5F)c5ccc2[nH]5)C=C4)C=C3)cc1
REMARK SMILES IDX 5 1 4 2 3 3 1 4 2 5 36 7 37 8 98 9 38 10 97 11 39 12 40 13
REMARK SMILES IDX 41 14 91 15 42 16 96 17 90 18 92 19 43 20 95 21 89 22 88 23
REMARK SMILES IDX 44 25 76 26 56 27 75 28 57 29 60 30 74 31 93 32 58 33 59 34
REMARK SMILES IDX 73 36 94 37 61 38 45 39 46 40 54 41 47 42 49 43 55 44 48 45
REMARK SMILES IDX 50 46 51 47 52 48 53 49 77 50 78 51 86 52 79 53 81 54 87 55
REMARK SMILES IDX 80 56 82 57 83 58 84 59 85 60 62 61 63 62 71 63 64 64 66 65
REMARK SMILES IDX 72 66 65 67 67 68 68 69 69 70 70 71 6 72 7 73 8 74 9 76
REMARK SMILES IDX 10 77 11 78 15 79 12 80 14 81 13 82 16 83 17 84 18 86 19 87
REMARK SMILES IDX 20 88 35 89 21 90 34 91 22 92 23 93 24 94 32 95 25 96 26 97
REMARK SMILES IDX 31 98 33 99 27 100 30 101 28 102 29 103
REMARK H PARENT 3 6 92 24 60 35 7 75 16 85
REMARK Flexibility Score: inf
ROOT
ATOM      1  C   UNL A   1      30.918  32.009  26.650  1.00  0.00     0.042 C 
ENDROOT
BRANCH   1   2
ATOM      2  C   UNL A   1      32.321  32.544  26.902  1.00  0.00     0.118 C 
BRANCH   2   3
ATOM      3  N   UNL A   1      32.334  33.908  27.410  1.00  0.00    -0.352 N 
ATOM      4  O   UNL A   1      32.894  35.639  28.733  1.00  0.00    -0.269 OA
ATOM      5  C   UNL A   1      33.154  34.505  28.338  1.00  0.00     0.251 C 
ATOM      6  H   UNL A   1      31.647  34.499  27.027  1.00  0.00     0.163 HD
BRANCH   5   7
ATOM      7  C   UNL A   1      34.318  33.776  28.887  1.00  0.00     0.039 A 
ATOM      8  C   UNL A   1      34.151  32.580  29.585  1.00  0.00     0.014 A 
ATOM      9  C   UNL A   1      35.599  34.299  28.696  1.00  0.00     0.014 A 
ATOM     10  C   UNL A   1      35.229  32.009  30.250  1.00  0.00     0.010 A 
ATOM     11  C   UNL A   1      36.701  33.663  29.275  1.00  0.00     0.010 A 
ATOM     12  C   UNL A   1      36.521  32.537  30.094  1.00  0.00    -0.014 A 
BRANCH  12  13
ATOM     13  C   UNL A   1      37.672  31.864  30.747  1.00  0.00     0.031 A 
ATOM     14  C   UNL A   1      38.488  30.833  30.017  1.00  0.00     0.074 A 
ATOM     15  C   UNL A   1      37.974  32.190  32.020  1.00  0.00     0.049 A 
ATOM     16  N   UNL A   1      39.513  30.142  30.447  1.00  0.00    -0.248 NA
ATOM     17  C   UNL A   1      38.100  30.525  28.631  1.00  0.00     0.031 C 
ATOM     18  C   UNL A   1      37.230  33.148  32.841  1.00  0.00     0.029 A 
ATOM     19  N   UNL A   1      38.974  31.749  32.848  1.00  0.00    -0.354 N 
ATOM     20  C   UNL A   1      39.863  29.288  29.408  1.00  0.00     0.074 A 
ATOM     21  C   UNL A   1      38.937  29.543  28.326  1.00  0.00     0.031 C 
ATOM     22  C   UNL A   1      37.809  33.239  34.047  1.00  0.00     0.029 A 
ATOM     23  C   UNL A   1      38.926  32.304  34.105  1.00  0.00     0.049 A 
ATOM     24  H   UNL A   1      39.658  31.099  32.570  1.00  0.00     0.167 HD
ATOM     25  C   UNL A   1      40.874  28.386  29.357  1.00  0.00     0.034 A 
ATOM     26  C   UNL A   1      39.681  32.074  35.195  1.00  0.00     0.034 A 
ATOM     27  C   UNL A   1      41.815  28.168  30.424  1.00  0.00     0.049 A 
ATOM     28  C   UNL A   1      40.809  31.087  35.101  1.00  0.00     0.074 A 
ATOM     29  C   UNL A   1      42.913  27.326  30.443  1.00  0.00     0.029 A 
ATOM     30  N   UNL A   1      41.768  28.790  31.663  1.00  0.00    -0.354 N 
ATOM     31  N   UNL A   1      41.198  30.380  34.069  1.00  0.00    -0.248 NA
ATOM     32  C   UNL A   1      41.617  30.886  36.311  1.00  0.00     0.031 C 
ATOM     33  C   UNL A   1      43.519  27.424  31.700  1.00  0.00     0.029 A 
ATOM     34  C   UNL A   1      42.811  28.345  32.457  1.00  0.00     0.049 A 
ATOM     35  H   UNL A   1      41.093  29.451  31.937  1.00  0.00     0.167 HD
ATOM     36  C   UNL A   1      42.313  29.669  34.495  1.00  0.00     0.074 A 
ATOM     37  C   UNL A   1      42.548  30.049  35.874  1.00  0.00     0.031 C 
ATOM     38  C   UNL A   1      43.063  28.771  33.811  1.00  0.00     0.034 A 
BRANCH  25  39
ATOM     39  C   UNL A   1      41.039  27.588  28.089  1.00  0.00     0.023 A 
ATOM     40  C   UNL A   1      41.611  28.196  26.953  1.00  0.00     0.012 A 
ATOM     41  C   UNL A   1      40.686  26.225  28.038  1.00  0.00     0.148 A 
ATOM     42  C   UNL A   1      41.800  27.470  25.777  1.00  0.00     0.002 A 
ATOM     43  C   UNL A   1      40.915  25.498  26.874  1.00  0.00     0.091 A 
ATOM     44  F   UNL A   1      40.123  25.668  29.119  1.00  0.00    -0.205 F 
ATOM     45  C   UNL A   1      41.462  26.120  25.741  1.00  0.00     0.022 A 
BRANCH  43  46
ATOM     46  S   UNL A   1      40.582  23.735  26.759  1.00  0.00     0.127 S 
ATOM     47  O   UNL A   1      39.176  23.726  26.359  1.00  0.00    -0.237 OA
ATOM     48  O   UNL A   1      41.515  23.310  25.714  1.00  0.00    -0.237 OA
ATOM     49  O   UNL A   1      40.867  23.189  28.079  1.00  0.00    -0.744 OA
ENDBRANCH  43  46
ENDBRANCH  25  39
BRANCH  26  50
ATOM     50  C   UNL A   1      39.411  32.833  36.446  1.00  0.00     0.023 A 
ATOM     51  C   UNL A   1      39.957  34.120  36.608  1.00  0.00     0.012 A 
ATOM     52  C   UNL A   1      38.559  32.317  37.442  1.00  0.00     0.148 A 
ATOM     53  C   UNL A   1      39.673  34.874  37.746  1.00  0.00     0.002 A 
ATOM     54  C   UNL A   1      38.232  33.095  38.546  1.00  0.00     0.091 A 
ATOM     55  F   UNL A   1      38.059  31.084  37.275  1.00  0.00    -0.205 F 
ATOM     56  C   UNL A   1      38.801  34.368  38.707  1.00  0.00     0.022 A 
BRANCH  54  57
ATOM     57  S   UNL A   1      37.006  32.583  39.755  1.00  0.00     0.127 S 
ATOM     58  O   UNL A   1      37.573  31.326  40.238  1.00  0.00    -0.237 OA
ATOM     59  O   UNL A   1      37.048  33.687  40.714  1.00  0.00    -0.237 OA
ATOM     60  O   UNL A   1      35.754  32.473  39.021  1.00  0.00    -0.744 OA
ENDBRANCH  54  57
ENDBRANCH  26  50
BRANCH  38  61
ATOM     61  C   UNL A   1      44.233  28.154  34.529  1.00  0.00     0.023 A 
ATOM     62  C   UNL A   1      45.481  28.807  34.519  1.00  0.00     0.012 A 
ATOM     63  C   UNL A   1      44.076  26.968  35.273  1.00  0.00     0.148 A 
ATOM     64  C   UNL A   1      46.564  28.272  35.216  1.00  0.00     0.002 A 
ATOM     65  C   UNL A   1      45.146  26.466  36.002  1.00  0.00     0.091 A 
ATOM     66  F   UNL A   1      42.885  26.352  35.250  1.00  0.00    -0.205 F 
ATOM     67  C   UNL A   1      46.395  27.111  35.966  1.00  0.00     0.022 A 
BRANCH  65  68
ATOM     68  S   UNL A   1      44.992  25.030  37.069  1.00  0.00     0.127 S 
ATOM     69  O   UNL A   1      46.337  24.931  37.634  1.00  0.00    -0.237 OA
ATOM     70  O   UNL A   1      43.961  25.454  38.017  1.00  0.00    -0.237 OA
ATOM     71  O   UNL A   1      44.595  23.928  36.201  1.00  0.00    -0.744 OA
ENDBRANCH  65  68
ENDBRANCH  38  61
ENDBRANCH  12  13
ENDBRANCH   5   7
ENDBRANCH   2   3
ENDBRANCH   1   2
BRANCH   1  72
ATOM     72  C   UNL A   1      30.781  31.199  25.372  1.00  0.00     0.118 C 
BRANCH  72  73
ATOM     73  N   UNL A   1      30.022  31.900  24.345  1.00  0.00    -0.352 N 
ATOM     74  C   UNL A   1      29.270  31.409  23.312  1.00  0.00     0.253 C 
ATOM     75  H   UNL A   1      30.057  32.883  24.402  1.00  0.00     0.163 HD
ATOM     76  O   UNL A   1      28.874  32.171  22.434  1.00  0.00    -0.269 OA
BRANCH  74  77
ATOM     77  C   UNL A   1      28.901  29.979  23.244  1.00  0.00     0.063 A 
ATOM     78  C   UNL A   1      27.557  29.681  23.522  1.00  0.00     0.016 A 
ATOM     79  C   UNL A   1      29.838  28.952  23.002  1.00  0.00     0.054 A 
ATOM     80  C   UNL A   1      27.126  28.358  23.557  1.00  0.00     0.001 A 
ATOM     81  C   UNL A   1      29.392  27.630  23.107  1.00  0.00     0.027 A 
ATOM     82  C   UNL A   1      28.048  27.336  23.362  1.00  0.00     0.002 A 
BRANCH  79  83
ATOM     83  N   UNL A   1      31.176  29.298  22.698  1.00  0.00    -0.321 N 
ATOM     84  C   UNL A   1      32.397  28.762  23.033  1.00  0.00     0.255 C 
ATOM     85  H   UNL A   1      31.248  30.093  22.122  1.00  0.00     0.170 HD
ATOM     86  O   UNL A   1      33.429  29.302  22.641  1.00  0.00    -0.269 OA
BRANCH  84  87
ATOM     87  C   UNL A   1      32.517  27.544  23.846  1.00  0.00     0.040 A 
ATOM     88  C   UNL A   1      32.691  26.344  23.164  1.00  0.00     0.016 A 
ATOM     89  C   UNL A   1      32.518  27.571  25.241  1.00  0.00     0.016 A 
ATOM     90  C   UNL A   1      33.020  25.191  23.876  1.00  0.00     0.027 A 
ATOM     91  C   UNL A   1      32.841  26.404  25.949  1.00  0.00     0.027 A 
ATOM     92  C   UNL A   1      33.164  25.213  25.272  1.00  0.00     0.052 A 
BRANCH  92  93
ATOM     93  N   UNL A   1      33.713  24.096  25.966  1.00  0.00    -0.250 N 
ATOM     94  C   UNL A   1      32.956  23.184  26.666  1.00  0.00     0.238 C 
ATOM     95  C   UNL A   1      35.042  23.752  25.956  1.00  0.00     0.238 C 
ATOM     96  O   UNL A   1      31.748  23.196  26.881  1.00  0.00    -0.274 OA
ATOM     97  C   UNL A   1      33.834  22.054  27.142  1.00  0.00     0.096 C 
ATOM     98  C   UNL A   1      35.224  22.412  26.626  1.00  0.00     0.096 C 
ATOM     99  O   UNL A   1      35.990  24.397  25.526  1.00  0.00    -0.274 OA
ATOM    100  C   UNL A   1      33.260  20.717  26.656  1.00  0.00     0.041 C 
ATOM    101  C   UNL A   1      35.855  21.431  25.632  1.00  0.00     0.041 C 
ATOM    102  C   UNL A   1      33.643  20.401  25.242  1.00  0.00    -0.030 C 
ATOM    103  C   UNL A   1      34.848  20.736  24.766  1.00  0.00    -0.030 C 
ENDBRANCH  92  93
ENDBRANCH  84  87
ENDBRANCH  79  83
ENDBRANCH  74  77
ENDBRANCH  72  73
ENDBRANCH   1  72
TORSDOF 16
ENDMDL
MODEL 2
REMARK VINA RESULT:     -13.0      0.398      7.167
REMARK SMILES O=C(NCCCNC(=O)c1ccccc1NC(=O)c1ccc(N2C(=O)[C@H]3CC=CC[C@H]3C2=O)cc1)c1ccc(-c2c3nc(c(-c4cccc(S(=O)(=O)[O-])c4F)c4ccc([nH]4)c(-c4cccc(S(=O)(=O)[O-])c4F)c4nc(c(-c5cccc(S(=O)(=O)[O-])c5F)c5ccc2[nH]5)C=C4)C=C3)cc1
REMARK SMILES IDX 5 1 4 2 3 3 1 4 2 5 36 7 37 8 98 9 38 10 97 11 39 12 40 13
REMARK SMILES IDX 41 14 91 15 42 16 96 17 90 18 92 19 43 20 95 21 89 22 88 23
REMARK SMILES IDX 44 25 76 26 56 27 75 28 57 29 60 30 74 31 93 32 58 33 59 34
REMARK SMILES IDX 73 36 94 37 61 38 45 39 46 40 54 41 47 42 49 43 55 44 48 45
REMARK SMILES IDX 50 46 51 47 52 48 53 49 77 50 78 51 86 52 79 53 81 54 87 55
REMARK SMILES IDX 80 56 82 57 83 58 84 59 85 60 62 61 63 62 71 63 64 64 66 65
REMARK SMILES IDX 72 66 65 67 67 68 68 69 69 70 70 71 6 72 7 73 8 74 9 76
REMARK SMILES IDX 10 77 11 78 15 79 12 80 14 81 13 82 16 83 17 84 18 86 19 87
REMARK SMILES IDX 20 88 35 89 21 90 34 91 22 92 23 93 24 94 32 95 25 96 26 97
REMARK SMILES IDX 31 98 33 99 27 100 30 101 28 102 29 103
REMARK H PARENT 3 6 92 24 60 35 7 75 16 85
REMARK Flexibility Score: inf
ROOT
ATOM      1  C   UNL A   1      31.094  31.941  26.827  1.00  0.00     0.042 C 
ENDROOT
BRANCH   1   2
ATOM      2  C   UNL A   1      32.460  32.610  26.890  1.00  0.00     0.118 C 
BRANCH   2   3
ATOM      3  N   UNL A   1      32.427  33.931  27.501  1.00  0.00    -0.352 N 
ATOM      4  O   UNL A   1      32.904  35.564  28.972  1.00  0.00    -0.269 OA
ATOM      5  C   UNL A   1      33.201  34.469  28.501  1.00  0.00     0.251 C 
ATOM      6  H   UNL A   1      31.741  34.536  27.139  1.00  0.00     0.163 HD
BRANCH   5   7
ATOM      7  C   UNL A   1      34.360  33.721  29.035  1.00  0.00     0.039 A 
ATOM      8  C   UNL A   1      34.179  32.631  29.887  1.00  0.00     0.014 A 
ATOM      9  C   UNL A   1      35.650  34.118  28.674  1.00  0.00     0.014 A 
ATOM     10  C   UNL A   1      35.275  32.061  30.523  1.00  0.00     0.010 A 
ATOM     11  C   UNL A   1      36.756  33.470  29.231  1.00  0.00     0.010 A 
ATOM     12  C   UNL A   1      36.578  32.465  30.195  1.00  0.00    -0.014 A 
BRANCH  12  13
ATOM     13  C   UNL A   1      37.738  31.786  30.826  1.00  0.00     0.031 A 
ATOM     14  C   UNL A   1      38.119  32.063  32.255  1.00  0.00     0.074 A 
ATOM     15  C   UNL A   1      38.456  30.914  30.090  1.00  0.00     0.049 A 
ATOM     16  N   UNL A   1      39.111  31.566  32.951  1.00  0.00    -0.248 NA
ATOM     17  C   UNL A   1      37.293  33.028  32.998  1.00  0.00     0.031 C 
ATOM     18  C   UNL A   1      38.203  30.595  28.683  1.00  0.00     0.029 A 
ATOM     19  N   UNL A   1      39.544  30.146  30.415  1.00  0.00    -0.354 N 
ATOM     20  C   UNL A   1      39.057  32.189  34.192  1.00  0.00     0.074 A 
ATOM     21  C   UNL A   1      37.938  33.105  34.154  1.00  0.00     0.031 C 
ATOM     22  C   UNL A   1      39.096  29.684  28.270  1.00  0.00     0.029 A 
ATOM     23  C   UNL A   1      40.018  29.399  29.362  1.00  0.00     0.049 A 
ATOM     24  H   UNL A   1      39.945  30.130  31.313  1.00  0.00     0.167 HD
ATOM     25  C   UNL A   1      39.859  32.001  35.269  1.00  0.00     0.034 A 
ATOM     26  C   UNL A   1      41.090  28.589  29.274  1.00  0.00     0.034 A 
ATOM     27  C   UNL A   1      40.945  31.058  35.312  1.00  0.00     0.049 A 
ATOM     28  C   UNL A   1      41.945  28.382  30.490  1.00  0.00     0.074 A 
ATOM     29  C   UNL A   1      41.773  30.747  36.376  1.00  0.00     0.029 A 
ATOM     30  N   UNL A   1      41.361  30.278  34.243  1.00  0.00    -0.354 N 
ATOM     31  N   UNL A   1      41.804  28.888  31.690  1.00  0.00    -0.248 NA
ATOM     32  C   UNL A   1      43.091  27.474  30.348  1.00  0.00     0.031 C 
ATOM     33  C   UNL A   1      42.701  29.793  35.945  1.00  0.00     0.029 A 
ATOM     34  C   UNL A   1      42.438  29.493  34.618  1.00  0.00     0.049 A 
ATOM     35  H   UNL A   1      40.951  30.282  33.348  1.00  0.00     0.167 HD
ATOM     36  C   UNL A   1      42.824  28.340  32.456  1.00  0.00     0.074 A 
ATOM     37  C   UNL A   1      43.564  27.446  31.587  1.00  0.00     0.031 C 
ATOM     38  C   UNL A   1      43.131  28.570  33.756  1.00  0.00     0.034 A 
BRANCH  25  39
ATOM     39  C   UNL A   1      39.570  32.809  36.508  1.00  0.00     0.023 A 
ATOM     40  C   UNL A   1      40.184  34.066  36.680  1.00  0.00     0.012 A 
ATOM     41  C   UNL A   1      38.647  32.355  37.472  1.00  0.00     0.148 A 
ATOM     42  C   UNL A   1      39.910  34.844  37.805  1.00  0.00     0.002 A 
ATOM     43  C   UNL A   1      38.349  33.156  38.571  1.00  0.00     0.091 A 
ATOM     44  F   UNL A   1      38.088  31.148  37.306  1.00  0.00    -0.205 F 
ATOM     45  C   UNL A   1      38.986  34.394  38.744  1.00  0.00     0.022 A 
BRANCH  43  46
ATOM     46  S   UNL A   1      37.114  32.693  39.792  1.00  0.00     0.127 S 
ATOM     47  O   UNL A   1      35.901  32.637  38.978  1.00  0.00    -0.237 OA
ATOM     48  O   UNL A   1      37.601  31.390  40.248  1.00  0.00    -0.237 OA
ATOM     49  O   UNL A   1      37.146  33.737  40.806  1.00  0.00    -0.744 OA
ENDBRANCH  43  46
ENDBRANCH  25  39
BRANCH  26  50
ATOM     50  C   UNL A   1      41.372  27.887  27.993  1.00  0.00     0.023 A 
ATOM     51  C   UNL A   1      41.881  28.614  26.900  1.00  0.00     0.012 A 
ATOM     52  C   UNL A   1      41.208  26.492  27.875  1.00  0.00     0.148 A 
ATOM     53  C   UNL A   1      42.207  27.968  25.708  1.00  0.00     0.002 A 
ATOM     54  C   UNL A   1      41.589  25.846  26.704  1.00  0.00     0.091 A 
ATOM     55  F   UNL A   1      40.711  25.820  28.923  1.00  0.00    -0.205 F 
ATOM     56  C   UNL A   1      42.074  26.585  25.614  1.00  0.00     0.022 A 
BRANCH  54  57
ATOM     57  S   UNL A   1      41.591  24.057  26.552  1.00  0.00     0.127 S 
ATOM     58  O   UNL A   1      42.345  23.865  25.315  1.00  0.00    -0.237 OA
ATOM     59  O   UNL A   1      42.291  23.650  27.770  1.00  0.00    -0.237 OA
ATOM     60  O   UNL A   1      40.189  23.665  26.507  1.00  0.00    -0.744 OA
ENDBRANCH  54  57
ENDBRANCH  26  50
BRANCH  38  61
ATOM     61  C   UNL A   1      44.301  27.820  34.335  1.00  0.00     0.023 A 
ATOM     62  C   UNL A   1      45.603  28.339  34.192  1.00  0.00     0.012 A 
ATOM     63  C   UNL A   1      44.102  26.643  35.082  1.00  0.00     0.148 A 
ATOM     64  C   UNL A   1      46.693  27.680  34.760  1.00  0.00     0.002 A 
ATOM     65  C   UNL A   1      45.186  26.018  35.685  1.00  0.00     0.091 A 
ATOM     66  F   UNL A   1      42.857  26.155  35.187  1.00  0.00    -0.205 F 
ATOM     67  C   UNL A   1      46.484  26.529  35.516  1.00  0.00     0.022 A 
BRANCH  65  68
ATOM     68  S   UNL A   1      44.998  24.585  36.751  1.00  0.00     0.127 S 
ATOM     69  O   UNL A   1      44.640  23.543  35.791  1.00  0.00    -0.237 OA
ATOM     70  O   UNL A   1      46.335  24.448  37.330  1.00  0.00    -0.237 OA
ATOM     71  O   UNL A   1      43.959  24.935  37.712  1.00  0.00    -0.744 OA
ENDBRANCH  65  68
ENDBRANCH  38  61
ENDBRANCH  12  13
ENDBRANCH   5   7
ENDBRANCH   2   3
ENDBRANCH   1   2
BRANCH   1  72
ATOM     72  C   UNL A   1      30.840  31.163  25.548  1.00  0.00     0.118 C 
BRANCH  72  73
ATOM     73  N   UNL A   1      30.124  31.947  24.551  1.00  0.00    -0.352 N 
ATOM     74  C   UNL A   1      29.374  31.541  23.479  1.00  0.00     0.253 C 
ATOM     75  H   UNL A   1      30.190  32.923  24.664  1.00  0.00     0.163 HD
ATOM     76  O   UNL A   1      29.020  32.366  22.640  1.00  0.00    -0.269 OA
BRANCH  74  77
ATOM     77  C   UNL A   1      28.959  30.131  23.323  1.00  0.00     0.063 A 
ATOM     78  C   UNL A   1      27.601  29.864  23.558  1.00  0.00     0.016 A 
ATOM     79  C   UNL A   1      29.867  29.088  23.040  1.00  0.00     0.054 A 
ATOM     80  C   UNL A   1      27.125  28.557  23.509  1.00  0.00     0.001 A 
ATOM     81  C   UNL A   1      29.375  27.778  23.062  1.00  0.00     0.027 A 
ATOM     82  C   UNL A   1      28.016  27.516  23.274  1.00  0.00     0.002 A 
BRANCH  79  83
ATOM     83  N   UNL A   1      31.222  29.404  22.782  1.00  0.00    -0.321 N 
ATOM     84  C   UNL A   1      32.417  28.813  23.118  1.00  0.00     0.255 C 
ATOM     85  H   UNL A   1      31.332  30.222  22.246  1.00  0.00     0.170 HD
ATOM     86  O   UNL A   1      33.475  29.338  22.774  1.00  0.00    -0.269 OA
BRANCH  84  87
ATOM     87  C   UNL A   1      32.480  27.556  23.876  1.00  0.00     0.040 A 
ATOM     88  C   UNL A   1      32.705  26.391  23.149  1.00  0.00     0.016 A 
ATOM     89  C   UNL A   1      32.381  27.513  25.267  1.00  0.00     0.016 A 
ATOM     90  C   UNL A   1      32.983  25.203  23.824  1.00  0.00     0.027 A 
ATOM     91  C   UNL A   1      32.653  26.311  25.936  1.00  0.00     0.027 A 
ATOM     92  C   UNL A   1      33.026  25.155  25.226  1.00  0.00     0.052 A 
BRANCH  92  93
ATOM     93  N   UNL A   1      33.525  24.003  25.901  1.00  0.00    -0.250 N 
ATOM     94  C   UNL A   1      32.721  23.028  26.445  1.00  0.00     0.238 C 
ATOM     95  C   UNL A   1      34.857  23.690  26.021  1.00  0.00     0.238 C 
ATOM     96  O   UNL A   1      31.497  22.999  26.518  1.00  0.00    -0.274 OA
ATOM     97  C   UNL A   1      33.571  21.886  26.941  1.00  0.00     0.096 C 
ATOM     98  C   UNL A   1      35.001  22.309  26.614  1.00  0.00     0.096 C 
ATOM     99  O   UNL A   1      35.828  24.385  25.749  1.00  0.00    -0.274 OA
ATOM    100  C   UNL A   1      33.097  20.575  26.302  1.00  0.00     0.041 C 
ATOM    101  C   UNL A   1      35.769  21.416  25.636  1.00  0.00     0.041 C 
ATOM    102  C   UNL A   1      33.647  20.369  24.923  1.00  0.00    -0.030 C 
ATOM    103  C   UNL A   1      34.888  20.763  24.613  1.00  0.00    -0.030 C 
ENDBRANCH  92  93
ENDBRANCH  84  87
ENDBRANCH  79  83
ENDBRANCH  74  77
ENDBRANCH  72  73
ENDBRANCH   1  72
TORSDOF 16
ENDMDL
MODEL 3
REMARK VINA RESULT:     -12.8      1.675      7.442
REMARK SMILES O=C(NCCCNC(=O)c1ccccc1NC(=O)c1ccc(N2C(=O)[C@H]3CC=CC[C@H]3C2=O)cc1)c1ccc(-c2c3nc(c(-c4cccc(S(=O)(=O)[O-])c4F)c4ccc([nH]4)c(-c4cccc(S(=O)(=O)[O-])c4F)c4nc(c(-c5cccc(S(=O)(=O)[O-])c5F)c5ccc2[nH]5)C=C4)C=C3)cc1
REMARK SMILES IDX 5 1 4 2 3 3 1 4 2 5 36 7 37 8 98 9 38 10 97 11 39 12 40 13
REMARK SMILES IDX 41 14 91 15 42 16 96 17 90 18 92 19 43 20 95 21 89 22 88 23
REMARK SMILES IDX 44 25 76 26 56 27 75 28 57 29 60 30 74 31 93 32 58 33 59 34
REMARK SMILES IDX 73 36 94 37 61 38 45 39 46 40 54 41 47 42 49 43 55 44 48 45
REMARK SMILES IDX 50 46 51 47 52 48 53 49 77 50 78 51 86 52 79 53 81 54 87 55
REMARK SMILES IDX 80 56 82 57 83 58 84 59 85 60 62 61 63 62 71 63 64 64 66 65
REMARK SMILES IDX 72 66 65 67 67 68 68 69 69 70 70 71 6 72 7 73 8 74 9 76
REMARK SMILES IDX 10 77 11 78 15 79 12 80 14 81 13 82 16 83 17 84 18 86 19 87
REMARK SMILES IDX 20 88 35 89 21 90 34 91 22 92 23 93 24 94 32 95 25 96 26 97
REMARK SMILES IDX 31 98 33 99 27 100 30 101 28 102 29 103
REMARK H PARENT 3 6 92 24 60 35 7 75 16 85
REMARK Flexibility Score: inf
ROOT
ATOM      1  C   UNL A   1      30.876  31.314  25.833  1.00  0.00     0.042 C 
ENDROOT
BRANCH   1   2
ATOM      2  C   UNL A   1      32.136  31.713  26.590  1.00  0.00     0.118 C 
BRANCH   2   3
ATOM      3  N   UNL A   1      32.159  33.118  26.970  1.00  0.00    -0.352 N 
ATOM      4  O   UNL A   1      32.754  34.963  28.112  1.00  0.00    -0.269 OA
ATOM      5  C   UNL A   1      33.005  33.798  27.814  1.00  0.00     0.251 C 
ATOM      6  H   UNL A   1      31.458  33.670  26.557  1.00  0.00     0.163 HD
BRANCH   5   7
ATOM      7  C   UNL A   1      34.189  33.123  28.390  1.00  0.00     0.039 A 
ATOM      8  C   UNL A   1      34.082  31.860  28.972  1.00  0.00     0.014 A 
ATOM      9  C   UNL A   1      35.428  33.768  28.344  1.00  0.00     0.014 A 
ATOM     10  C   UNL A   1      35.158  31.326  29.669  1.00  0.00     0.010 A 
ATOM     11  C   UNL A   1      36.539  33.177  28.952  1.00  0.00     0.010 A 
ATOM     12  C   UNL A   1      36.404  31.972  29.659  1.00  0.00    -0.014 A 
BRANCH  12  13
ATOM     13  C   UNL A   1      37.563  31.343  30.343  1.00  0.00     0.031 A 
ATOM     14  C   UNL A   1      37.906  31.684  31.767  1.00  0.00     0.074 A 
ATOM     15  C   UNL A   1      38.314  30.458  29.658  1.00  0.00     0.049 A 
ATOM     16  N   UNL A   1      38.891  31.237  32.504  1.00  0.00    -0.248 NA
ATOM     17  C   UNL A   1      37.044  32.661  32.452  1.00  0.00     0.031 C 
ATOM     18  C   UNL A   1      38.100  30.078  28.260  1.00  0.00     0.029 A 
ATOM     19  N   UNL A   1      39.410  29.726  30.037  1.00  0.00    -0.354 N 
ATOM     20  C   UNL A   1      38.797  31.907  33.717  1.00  0.00     0.074 A 
ATOM     21  C   UNL A   1      37.661  32.797  33.618  1.00  0.00     0.031 C 
ATOM     22  C   UNL A   1      39.020  29.170  27.904  1.00  0.00     0.029 A 
ATOM     23  C   UNL A   1      39.922  28.948  29.026  1.00  0.00     0.049 A 
ATOM     24  H   UNL A   1      39.791  29.754  30.944  1.00  0.00     0.167 HD
ATOM     25  C   UNL A   1      39.578  31.779  34.818  1.00  0.00     0.034 A 
ATOM     26  C   UNL A   1      41.012  28.158  28.994  1.00  0.00     0.034 A 
ATOM     27  C   UNL A   1      40.681  30.862  34.923  1.00  0.00     0.049 A 
ATOM     28  C   UNL A   1      41.843  28.017  30.236  1.00  0.00     0.074 A 
ATOM     29  C   UNL A   1      41.491  30.611  36.017  1.00  0.00     0.029 A 
ATOM     30  N   UNL A   1      41.137  30.049  33.895  1.00  0.00    -0.354 N 
ATOM     31  N   UNL A   1      41.665  28.567  31.411  1.00  0.00    -0.248 NA
ATOM     32  C   UNL A   1      43.010  27.128  30.156  1.00  0.00     0.031 C 
ATOM     33  C   UNL A   1      42.447  29.660  35.645  1.00  0.00     0.029 A 
ATOM     34  C   UNL A   1      42.221  29.302  34.326  1.00  0.00     0.049 A 
ATOM     35  H   UNL A   1      40.747  30.008  32.993  1.00  0.00     0.167 HD
ATOM     36  C   UNL A   1      42.678  28.072  32.221  1.00  0.00     0.074 A 
ATOM     37  C   UNL A   1      43.455  27.159  31.405  1.00  0.00     0.031 C 
ATOM     38  C   UNL A   1      42.951  28.359  33.517  1.00  0.00     0.034 A 
BRANCH  25  39
ATOM     39  C   UNL A   1      39.244  32.630  36.018  1.00  0.00     0.023 A 
ATOM     40  C   UNL A   1      38.475  32.085  37.065  1.00  0.00     0.012 A 
ATOM     41  C   UNL A   1      39.741  33.943  36.138  1.00  0.00     0.148 A 
ATOM     42  C   UNL A   1      38.177  32.843  38.198  1.00  0.00     0.002 A 
ATOM     43  C   UNL A   1      39.474  34.678  37.288  1.00  0.00     0.091 A 
ATOM     44  F   UNL A   1      40.453  34.454  35.123  1.00  0.00    -0.205 F 
ATOM     45  C   UNL A   1      38.685  34.134  38.313  1.00  0.00     0.022 A 
BRANCH  43  46
ATOM     46  S   UNL A   1      40.150  36.321  37.560  1.00  0.00     0.127 S 
ATOM     47  O   UNL A   1      41.517  36.012  37.976  1.00  0.00    -0.237 OA
ATOM     48  O   UNL A   1      40.042  36.925  36.231  1.00  0.00    -0.237 OA
ATOM     49  O   UNL A   1      39.306  36.937  38.573  1.00  0.00    -0.744 OA
ENDBRANCH  43  46
ENDBRANCH  25  39
BRANCH  26  50
ATOM     50  C   UNL A   1      41.337  27.411  27.748  1.00  0.00     0.023 A 
ATOM     51  C   UNL A   1      41.836  28.108  26.632  1.00  0.00     0.012 A 
ATOM     52  C   UNL A   1      41.224  26.007  27.690  1.00  0.00     0.148 A 
ATOM     53  C   UNL A   1      42.202  27.423  25.473  1.00  0.00     0.002 A 
ATOM     54  C   UNL A   1      41.644  25.325  26.554  1.00  0.00     0.091 A 
ATOM     55  F   UNL A   1      40.735  25.364  28.760  1.00  0.00    -0.205 F 
ATOM     56  C   UNL A   1      42.119  26.033  25.439  1.00  0.00     0.022 A 
BRANCH  54  57
ATOM     57  S   UNL A   1      41.711  23.532  26.480  1.00  0.00     0.127 S 
ATOM     58  O   UNL A   1      40.292  23.182  26.469  1.00  0.00    -0.237 OA
ATOM     59  O   UNL A   1      42.411  23.308  25.215  1.00  0.00    -0.237 OA
ATOM     60  O   UNL A   1      42.457  23.117  27.659  1.00  0.00    -0.744 OA
ENDBRANCH  54  57
ENDBRANCH  26  50
BRANCH  38  61
ATOM     61  C   UNL A   1      44.123  27.658  34.151  1.00  0.00     0.023 A 
ATOM     62  C   UNL A   1      45.387  28.278  34.158  1.00  0.00     0.012 A 
ATOM     63  C   UNL A   1      43.953  26.421  34.803  1.00  0.00     0.148 A 
ATOM     64  C   UNL A   1      46.473  27.662  34.780  1.00  0.00     0.002 A 
ATOM     65  C   UNL A   1      45.027  25.836  35.461  1.00  0.00     0.091 A 
ATOM     66  F   UNL A   1      42.745  25.839  34.765  1.00  0.00    -0.205 F 
ATOM     67  C   UNL A   1      46.292  26.450  35.441  1.00  0.00     0.022 A 
BRANCH  65  68
ATOM     68  S   UNL A   1      44.861  24.324  36.415  1.00  0.00     0.127 S 
ATOM     69  O   UNL A   1      43.900  23.569  35.613  1.00  0.00    -0.237 OA
ATOM     70  O   UNL A   1      46.224  23.790  36.396  1.00  0.00    -0.237 OA
ATOM     71  O   UNL A   1      44.393  24.733  37.733  1.00  0.00    -0.744 OA
ENDBRANCH  65  68
ENDBRANCH  38  61
ENDBRANCH  12  13
ENDBRANCH   5   7
ENDBRANCH   2   3
ENDBRANCH   1   2
BRANCH   1  72
ATOM     72  C   UNL A   1      31.074  30.175  24.849  1.00  0.00     0.118 C 
BRANCH  72  73
ATOM     73  N   UNL A   1      30.341  30.378  23.606  1.00  0.00    -0.352 N 
ATOM     74  C   UNL A   1      29.847  29.465  22.713  1.00  0.00     0.253 C 
ATOM     75  H   UNL A   1      30.176  31.319  23.370  1.00  0.00     0.163 HD
ATOM     76  O   UNL A   1      29.435  29.847  21.621  1.00  0.00    -0.269 OA
BRANCH  74  77
ATOM     77  C   UNL A   1      29.777  28.026  23.046  1.00  0.00     0.063 A 
ATOM     78  C   UNL A   1      28.578  27.593  23.636  1.00  0.00     0.016 A 
ATOM     79  C   UNL A   1      30.862  27.141  22.872  1.00  0.00     0.054 A 
ATOM     80  C   UNL A   1      28.440  26.273  24.054  1.00  0.00     0.001 A 
ATOM     81  C   UNL A   1      30.720  25.838  23.361  1.00  0.00     0.027 A 
ATOM     82  C   UNL A   1      29.516  25.402  23.927  1.00  0.00     0.002 A 
BRANCH  79  83
ATOM     83  N   UNL A   1      32.042  27.611  22.249  1.00  0.00    -0.321 N 
ATOM     84  C   UNL A   1      33.316  27.109  22.121  1.00  0.00     0.255 C 
ATOM     85  H   UNL A   1      31.926  28.486  21.812  1.00  0.00     0.170 HD
ATOM     86  O   UNL A   1      34.175  27.766  21.535  1.00  0.00    -0.269 OA
BRANCH  84  87
ATOM     87  C   UNL A   1      33.693  25.795  22.658  1.00  0.00     0.040 A 
ATOM     88  C   UNL A   1      34.219  25.765  23.946  1.00  0.00     0.016 A 
ATOM     89  C   UNL A   1      33.488  24.609  21.951  1.00  0.00     0.016 A 
ATOM     90  C   UNL A   1      34.398  24.540  24.587  1.00  0.00     0.027 A 
ATOM     91  C   UNL A   1      33.679  23.382  22.602  1.00  0.00     0.027 A 
ATOM     92  C   UNL A   1      34.072  23.331  23.952  1.00  0.00     0.052 A 
BRANCH  92  93
ATOM     93  N   UNL A   1      34.045  22.108  24.683  1.00  0.00    -0.250 N 
ATOM     94  C   UNL A   1      32.927  21.627  25.325  1.00  0.00     0.238 C 
ATOM     95  C   UNL A   1      35.098  21.232  24.772  1.00  0.00     0.238 C 
ATOM     96  O   UNL A   1      31.827  22.158  25.450  1.00  0.00    -0.274 OA
ATOM     97  C   UNL A   1      33.205  20.247  25.863  1.00  0.00     0.096 C 
ATOM     98  C   UNL A   1      34.646  19.963  25.452  1.00  0.00     0.096 C 
ATOM     99  O   UNL A   1      36.257  21.400  24.414  1.00  0.00    -0.274 OA
ATOM    100  C   UNL A   1      32.150  19.266  25.336  1.00  0.00     0.041 C 
ATOM    101  C   UNL A   1      34.864  18.777  24.507  1.00  0.00     0.041 C 
ATOM    102  C   UNL A   1      32.456  18.773  23.953  1.00  0.00    -0.030 C 
ATOM    103  C   UNL A   1      33.718  18.550  23.568  1.00  0.00    -0.030 C 
ENDBRANCH  92  93
ENDBRANCH  84  87
ENDBRANCH  79  83
ENDBRANCH  74  77
ENDBRANCH  72  73
ENDBRANCH   1  72
TORSDOF 16
ENDMDL
