MODEL 1
REMARK VINA RESULT:     -11.7      0.000      0.000
REMARK SMILES O=C(NCCCNC(=O)c1ccc(-c2c3nc(c(-c4cccc(S(=O)(=O)[O-])c4F)c4ccc([nH]4)c(-c4cccc(S(=O)(=O)[O-])c4F)c4nc(c(-c5cccc(S(=O)(=O)[O-])c5F)c5ccc2[nH]5)C=C4)C=C3)cc1)c1ccc(N/C=C\C(=O)c2ccco2)cc1
REMARK SMILES IDX 4 1 3 2 1 3 2 4 73 6 74 7 88 8 75 9 87 10 76 11 77 12 78 14
REMARK SMILES IDX 79 15 80 16 81 17 82 18 83 19 86 20 84 21 85 22 5 23 6 24
REMARK SMILES IDX 7 25 8 26 9 28 10 29 11 30 72 31 12 32 71 33 13 34 14 35
REMARK SMILES IDX 15 36 65 37 16 38 70 39 64 40 66 41 17 42 69 43 63 44 62 45
REMARK SMILES IDX 18 47 50 48 30 49 49 50 31 51 34 52 48 53 67 54 32 55 33 56
REMARK SMILES IDX 47 58 68 59 35 60 19 61 20 62 28 63 21 64 23 65 29 66 22 67
REMARK SMILES IDX 24 68 25 69 26 70 27 71 51 72 52 73 60 74 53 75 55 76 61 77
REMARK SMILES IDX 54 78 56 79 57 80 58 81 59 82 36 83 37 84 45 85 38 86 40 87
REMARK SMILES IDX 46 88 39 89 41 90 42 91 43 92 44 93
REMARK H PARENT 3 5 77 13 7 27 66 46 34 57
REMARK Flexibility Score: inf
ROOT
ATOM      1  C   UNL A   1      35.232  20.916  24.648  1.00  0.00     0.118 C 
ENDROOT
BRANCH   1   2
ATOM      2  N   UNL A   1      34.269  19.854  24.897  1.00  0.00    -0.352 N 
ATOM      3  O   UNL A   1      32.260  18.953  25.390  1.00  0.00    -0.269 OA
ATOM      4  C   UNL A   1      32.905  19.925  25.001  1.00  0.00     0.251 C 
ATOM      5  H   UNL A   1      34.653  18.954  25.007  1.00  0.00     0.163 HD
BRANCH   4   6
ATOM      6  C   UNL A   1      32.203  21.176  24.660  1.00  0.00     0.039 A 
ATOM      7  C   UNL A   1      32.168  21.653  23.346  1.00  0.00     0.016 A 
ATOM      8  C   UNL A   1      31.546  21.869  25.673  1.00  0.00     0.016 A 
ATOM      9  C   UNL A   1      31.545  22.870  23.059  1.00  0.00     0.027 A 
ATOM     10  C   UNL A   1      30.893  23.062  25.372  1.00  0.00     0.027 A 
ATOM     11  C   UNL A   1      30.884  23.581  24.064  1.00  0.00     0.038 A 
BRANCH  11  12
ATOM     12  N   UNL A   1      30.274  24.826  23.860  1.00  0.00    -0.362 N 
ATOM     13  H   UNL A   1      30.067  25.042  22.921  1.00  0.00     0.166 HD
BRANCH  12  14
ATOM     14  C   UNL A   1      29.923  25.788  24.768  1.00  0.00     0.087 C 
ATOM     15  C   UNL A   1      30.635  26.836  25.212  1.00  0.00     0.074 C 
BRANCH  15  16
ATOM     16  C   UNL A   1      32.017  27.233  24.801  1.00  0.00     0.222 C 
ATOM     17  O   UNL A   1      32.188  28.404  24.458  1.00  0.00    -0.286 OA
BRANCH  16  18
ATOM     18  C   UNL A   1      33.074  26.245  24.832  1.00  0.00     0.173 A 
ATOM     19  C   UNL A   1      33.892  25.718  23.847  1.00  0.00     0.054 A 
ATOM     20  O   UNL A   1      33.314  25.594  26.013  1.00  0.00    -0.461 OA
ATOM     21  C   UNL A   1      34.629  24.668  24.447  1.00  0.00     0.043 A 
ATOM     22  C   UNL A   1      34.243  24.636  25.765  1.00  0.00     0.196 A 
ENDBRANCH  16  18
ENDBRANCH  15  16
ENDBRANCH  12  14
ENDBRANCH  11  12
ENDBRANCH   4   6
ENDBRANCH   1   2
BRANCH   1  23
ATOM     23  C   UNL A   1      35.852  21.457  25.927  1.00  0.00     0.042 C 
BRANCH  23  24
ATOM     24  C   UNL A   1      37.229  22.074  25.745  1.00  0.00     0.118 C 
BRANCH  24  25
ATOM     25  N   UNL A   1      38.311  21.142  26.028  1.00  0.00    -0.352 N 
ATOM     26  C   UNL A   1      39.603  21.376  26.436  1.00  0.00     0.251 C 
ATOM     27  H   UNL A   1      38.082  20.192  25.908  1.00  0.00     0.163 HD
ATOM     28  O   UNL A   1      40.407  20.447  26.446  1.00  0.00    -0.269 OA
BRANCH  26  29
ATOM     29  C   UNL A   1      40.029  22.733  26.841  1.00  0.00     0.039 A 
ATOM     30  C   UNL A   1      40.924  22.869  27.907  1.00  0.00     0.014 A 
ATOM     31  C   UNL A   1      39.543  23.869  26.191  1.00  0.00     0.014 A 
ATOM     32  C   UNL A   1      41.373  24.138  28.276  1.00  0.00     0.010 A 
ATOM     33  C   UNL A   1      40.068  25.121  26.495  1.00  0.00     0.010 A 
ATOM     34  C   UNL A   1      40.978  25.273  27.551  1.00  0.00    -0.014 A 
BRANCH  34  35
ATOM     35  C   UNL A   1      41.499  26.624  27.883  1.00  0.00     0.031 A 
ATOM     36  C   UNL A   1      42.924  26.990  27.560  1.00  0.00     0.074 A 
ATOM     37  C   UNL A   1      40.718  27.494  28.552  1.00  0.00     0.049 A 
ATOM     38  N   UNL A   1      43.568  28.101  27.812  1.00  0.00    -0.248 NA
ATOM     39  C   UNL A   1      43.745  25.964  26.894  1.00  0.00     0.031 C 
ATOM     40  C   UNL A   1      39.350  27.227  29.005  1.00  0.00     0.029 A 
ATOM     41  N   UNL A   1      40.968  28.769  28.994  1.00  0.00    -0.354 N 
ATOM     42  C   UNL A   1      44.871  27.894  27.377  1.00  0.00     0.074 A 
ATOM     43  C   UNL A   1      44.940  26.539  26.879  1.00  0.00     0.031 C 
ATOM     44  C   UNL A   1      38.882  28.306  29.652  1.00  0.00     0.029 A 
ATOM     45  C   UNL A   1      39.922  29.328  29.689  1.00  0.00     0.049 A 
ATOM     46  H   UNL A   1      41.817  29.239  28.828  1.00  0.00     0.167 HD
ATOM     47  C   UNL A   1      45.912  28.761  27.365  1.00  0.00     0.034 A 
ATOM     48  C   UNL A   1      39.813  30.526  30.297  1.00  0.00     0.034 A 
ATOM     49  C   UNL A   1      45.827  30.122  27.818  1.00  0.00     0.049 A 
ATOM     50  C   UNL A   1      40.964  31.492  30.220  1.00  0.00     0.074 A 
ATOM     51  C   UNL A   1      46.792  31.112  27.751  1.00  0.00     0.029 A 
ATOM     52  N   UNL A   1      44.718  30.686  28.431  1.00  0.00    -0.354 N 
ATOM     53  N   UNL A   1      42.134  31.336  29.649  1.00  0.00    -0.248 NA
ATOM     54  C   UNL A   1      40.767  32.812  30.835  1.00  0.00     0.031 C 
ATOM     55  C   UNL A   1      46.278  32.264  28.354  1.00  0.00     0.029 A 
ATOM     56  C   UNL A   1      44.980  32.004  28.763  1.00  0.00     0.049 A 
ATOM     57  H   UNL A   1      43.871  30.216  28.606  1.00  0.00     0.167 HD
ATOM     58  C   UNL A   1      42.799  32.547  29.805  1.00  0.00     0.074 A 
ATOM     59  C   UNL A   1      41.891  33.433  30.504  1.00  0.00     0.031 C 
ATOM     60  C   UNL A   1      44.051  32.891  29.415  1.00  0.00     0.034 A 
BRANCH  47  61
ATOM     61  C   UNL A   1      47.222  28.276  26.799  1.00  0.00     0.023 A 
ATOM     62  C   UNL A   1      48.283  27.955  27.670  1.00  0.00     0.012 A 
ATOM     63  C   UNL A   1      47.384  28.084  25.413  1.00  0.00     0.148 A 
ATOM     64  C   UNL A   1      49.498  27.488  27.169  1.00  0.00     0.002 A 
ATOM     65  C   UNL A   1      48.580  27.572  24.925  1.00  0.00     0.091 A 
ATOM     66  F   UNL A   1      46.372  28.413  24.599  1.00  0.00    -0.205 F 
ATOM     67  C   UNL A   1      49.643  27.287  25.800  1.00  0.00     0.022 A 
BRANCH  65  68
ATOM     68  S   UNL A   1      48.837  27.197  23.187  1.00  0.00     0.127 S 
ATOM     69  O   UNL A   1      50.296  27.119  23.115  1.00  0.00    -0.237 OA
ATOM     70  O   UNL A   1      48.150  25.912  23.045  1.00  0.00    -0.237 OA
ATOM     71  O   UNL A   1      48.232  28.294  22.446  1.00  0.00    -0.744 OA
ENDBRANCH  65  68
ENDBRANCH  47  61
BRANCH  48  72
ATOM     72  C   UNL A   1      38.541  30.901  30.977  1.00  0.00     0.023 A 
ATOM     73  C   UNL A   1      38.392  30.649  32.355  1.00  0.00     0.012 A 
ATOM     74  C   UNL A   1      37.496  31.532  30.276  1.00  0.00     0.148 A 
ATOM     75  C   UNL A   1      37.211  30.990  33.016  1.00  0.00     0.002 A 
ATOM     76  C   UNL A   1      36.346  31.921  30.953  1.00  0.00     0.091 A 
ATOM     77  F   UNL A   1      37.656  31.755  28.965  1.00  0.00    -0.205 F 
ATOM     78  C   UNL A   1      36.193  31.635  32.318  1.00  0.00     0.022 A 
BRANCH  76  79
ATOM     79  S   UNL A   1      35.044  32.878  30.166  1.00  0.00     0.127 S 
ATOM     80  O   UNL A   1      34.150  33.146  31.289  1.00  0.00    -0.237 OA
ATOM     81  O   UNL A   1      35.782  34.042  29.673  1.00  0.00    -0.237 OA
ATOM     82  O   UNL A   1      34.505  32.023  29.117  1.00  0.00    -0.744 OA
ENDBRANCH  76  79
ENDBRANCH  48  72
BRANCH  60  83
ATOM     83  C   UNL A   1      44.510  34.298  29.698  1.00  0.00     0.023 A 
ATOM     84  C   UNL A   1      45.160  34.596  30.912  1.00  0.00     0.012 A 
ATOM     85  C   UNL A   1      44.360  35.308  28.729  1.00  0.00     0.148 A 
ATOM     86  C   UNL A   1      45.620  35.887  31.171  1.00  0.00     0.002 A 
ATOM     87  C   UNL A   1      44.868  36.579  28.971  1.00  0.00     0.091 A 
ATOM     88  F   UNL A   1      43.723  35.010  27.587  1.00  0.00    -0.205 F 
ATOM     89  C   UNL A   1      45.485  36.874  30.197  1.00  0.00     0.022 A 
BRANCH  87  90
ATOM     90  S   UNL A   1      44.828  37.883  27.737  1.00  0.00     0.127 S 
ATOM     91  O   UNL A   1      45.212  39.053  28.526  1.00  0.00    -0.237 OA
ATOM     92  O   UNL A   1      45.839  37.434  26.779  1.00  0.00    -0.237 OA
ATOM     93  O   UNL A   1      43.467  37.900  27.215  1.00  0.00    -0.744 OA
ENDBRANCH  87  90
ENDBRANCH  60  83
ENDBRANCH  34  35
ENDBRANCH  26  29
ENDBRANCH  24  25
ENDBRANCH  23  24
ENDBRANCH   1  23
TORSDOF 17
ENDMDL
MODEL 2
REMARK VINA RESULT:     -11.5      5.782      8.871
REMARK SMILES O=C(NCCCNC(=O)c1ccc(-c2c3nc(c(-c4cccc(S(=O)(=O)[O-])c4F)c4ccc([nH]4)c(-c4cccc(S(=O)(=O)[O-])c4F)c4nc(c(-c5cccc(S(=O)(=O)[O-])c5F)c5ccc2[nH]5)C=C4)C=C3)cc1)c1ccc(N/C=C\C(=O)c2ccco2)cc1
REMARK SMILES IDX 4 1 3 2 1 3 2 4 73 6 74 7 88 8 75 9 87 10 76 11 77 12 78 14
REMARK SMILES IDX 79 15 80 16 81 17 82 18 83 19 86 20 84 21 85 22 5 23 6 24
REMARK SMILES IDX 7 25 8 26 9 28 10 29 11 30 72 31 12 32 71 33 13 34 14 35
REMARK SMILES IDX 15 36 65 37 16 38 70 39 64 40 66 41 17 42 69 43 63 44 62 45
REMARK SMILES IDX 18 47 50 48 30 49 49 50 31 51 34 52 48 53 67 54 32 55 33 56
REMARK SMILES IDX 47 58 68 59 35 60 19 61 20 62 28 63 21 64 23 65 29 66 22 67
REMARK SMILES IDX 24 68 25 69 26 70 27 71 51 72 52 73 60 74 53 75 55 76 61 77
REMARK SMILES IDX 54 78 56 79 57 80 58 81 59 82 36 83 37 84 45 85 38 86 40 87
REMARK SMILES IDX 46 88 39 89 41 90 42 91 43 92 44 93
REMARK H PARENT 3 5 77 13 7 27 66 46 34 57
REMARK Flexibility Score: inf
ROOT
ATOM      1  C   UNL A   1      31.546  30.750  26.272  1.00  0.00     0.118 C 
ENDROOT
BRANCH   1   2
ATOM      2  N   UNL A   1      30.964  30.453  24.973  1.00  0.00    -0.352 N 
ATOM      3  O   UNL A   1      30.683  29.331  23.035  1.00  0.00    -0.269 OA
ATOM      4  C   UNL A   1      31.110  29.340  24.188  1.00  0.00     0.251 C 
ATOM      5  H   UNL A   1      30.379  31.154  24.604  1.00  0.00     0.163 HD
BRANCH   4   6
ATOM      6  C   UNL A   1      31.796  28.148  24.719  1.00  0.00     0.039 A 
ATOM      7  C   UNL A   1      33.192  28.060  24.735  1.00  0.00     0.016 A 
ATOM      8  C   UNL A   1      31.024  27.110  25.235  1.00  0.00     0.016 A 
ATOM      9  C   UNL A   1      33.815  26.896  25.191  1.00  0.00     0.027 A 
ATOM     10  C   UNL A   1      31.655  25.968  25.724  1.00  0.00     0.027 A 
ATOM     11  C   UNL A   1      33.056  25.843  25.708  1.00  0.00     0.038 A 
BRANCH  11  12
ATOM     12  N   UNL A   1      33.609  24.631  26.144  1.00  0.00    -0.362 N 
ATOM     13  H   UNL A   1      34.254  24.708  26.884  1.00  0.00     0.166 HD
BRANCH  12  14
ATOM     14  C   UNL A   1      33.387  23.357  25.697  1.00  0.00     0.087 C 
ATOM     15  C   UNL A   1      33.584  22.841  24.473  1.00  0.00     0.074 C 
BRANCH  15  16
ATOM     16  C   UNL A   1      34.126  23.543  23.269  1.00  0.00     0.222 C 
ATOM     17  O   UNL A   1      35.243  23.206  22.876  1.00  0.00    -0.286 OA
BRANCH  16  18
ATOM     18  C   UNL A   1      33.325  24.562  22.626  1.00  0.00     0.173 A 
ATOM     19  C   UNL A   1      31.962  24.687  22.415  1.00  0.00     0.054 A 
ATOM     20  O   UNL A   1      33.973  25.596  22.003  1.00  0.00    -0.461 OA
ATOM     21  C   UNL A   1      31.779  25.822  21.587  1.00  0.00     0.043 A 
ATOM     22  C   UNL A   1      33.033  26.340  21.368  1.00  0.00     0.196 A 
ENDBRANCH  16  18
ENDBRANCH  15  16
ENDBRANCH  12  14
ENDBRANCH  11  12
ENDBRANCH   4   6
ENDBRANCH   1   2
BRANCH   1  23
ATOM     23  C   UNL A   1      31.426  32.219  26.646  1.00  0.00     0.042 C 
BRANCH  23  24
ATOM     24  C   UNL A   1      32.747  32.889  26.992  1.00  0.00     0.118 C 
BRANCH  24  25
ATOM     25  N   UNL A   1      32.575  34.183  27.638  1.00  0.00    -0.352 N 
ATOM     26  C   UNL A   1      33.185  34.708  28.752  1.00  0.00     0.251 C 
ATOM     27  H   UNL A   1      31.917  34.776  27.209  1.00  0.00     0.163 HD
ATOM     28  O   UNL A   1      32.760  35.758  29.230  1.00  0.00    -0.269 OA
BRANCH  26  29
ATOM     29  C   UNL A   1      34.327  34.012  29.383  1.00  0.00     0.039 A 
ATOM     30  C   UNL A   1      35.626  34.404  29.044  1.00  0.00     0.014 A 
ATOM     31  C   UNL A   1      34.128  32.969  30.290  1.00  0.00     0.014 A 
ATOM     32  C   UNL A   1      36.717  33.790  29.662  1.00  0.00     0.010 A 
ATOM     33  C   UNL A   1      35.211  32.430  30.976  1.00  0.00     0.010 A 
ATOM     34  C   UNL A   1      36.520  32.822  30.660  1.00  0.00    -0.014 A 
BRANCH  34  35
ATOM     35  C   UNL A   1      37.666  32.208  31.379  1.00  0.00     0.031 A 
ATOM     36  C   UNL A   1      38.437  31.075  30.754  1.00  0.00     0.074 A 
ATOM     37  C   UNL A   1      37.959  32.610  32.631  1.00  0.00     0.049 A 
ATOM     38  N   UNL A   1      39.434  30.386  31.247  1.00  0.00    -0.248 NA
ATOM     39  C   UNL A   1      38.013  30.635  29.413  1.00  0.00     0.031 C 
ATOM     40  C   UNL A   1      37.230  33.634  33.383  1.00  0.00     0.029 A 
ATOM     41  N   UNL A   1      38.931  32.189  33.504  1.00  0.00    -0.354 N 
ATOM     42  C   UNL A   1      39.729  29.412  30.300  1.00  0.00     0.074 A 
ATOM     43  C   UNL A   1      38.781  29.572  29.220  1.00  0.00     0.031 C 
ATOM     44  C   UNL A   1      37.785  33.766  34.599  1.00  0.00     0.029 A 
ATOM     45  C   UNL A   1      38.886  32.818  34.726  1.00  0.00     0.049 A 
ATOM     46  H   UNL A   1      39.599  31.503  33.275  1.00  0.00     0.167 HD
ATOM     47  C   UNL A   1      40.717  28.486  30.312  1.00  0.00     0.034 A 
ATOM     48  C   UNL A   1      39.640  32.646  35.830  1.00  0.00     0.034 A 
ATOM     49  C   UNL A   1      41.686  28.360  31.366  1.00  0.00     0.049 A 
ATOM     50  C   UNL A   1      40.766  31.649  35.797  1.00  0.00     0.074 A 
ATOM     51  C   UNL A   1      42.789  27.526  31.425  1.00  0.00     0.029 A 
ATOM     52  N   UNL A   1      41.667  29.081  32.550  1.00  0.00    -0.354 N 
ATOM     53  N   UNL A   1      41.136  30.855  34.821  1.00  0.00    -0.248 NA
ATOM     54  C   UNL A   1      41.605  31.552  37.000  1.00  0.00     0.031 C 
ATOM     55  C   UNL A   1      43.417  27.718  32.659  1.00  0.00     0.029 A 
ATOM     56  C   UNL A   1      42.728  28.700  33.354  1.00  0.00     0.049 A 
ATOM     57  H   UNL A   1      40.996  29.762  32.785  1.00  0.00     0.167 HD
ATOM     58  C   UNL A   1      42.269  30.190  35.279  1.00  0.00     0.074 A 
ATOM     59  C   UNL A   1      42.536  30.693  36.611  1.00  0.00     0.031 C 
ATOM     60  C   UNL A   1      43.012  29.241  34.658  1.00  0.00     0.034 A 
BRANCH  47  61
ATOM     61  C   UNL A   1      40.828  27.563  29.126  1.00  0.00     0.023 A 
ATOM     62  C   UNL A   1      40.020  26.410  29.058  1.00  0.00     0.012 A 
ATOM     63  C   UNL A   1      41.689  27.867  28.052  1.00  0.00     0.148 A 
ATOM     64  C   UNL A   1      40.094  25.552  27.961  1.00  0.00     0.002 A 
ATOM     65  C   UNL A   1      41.721  27.033  26.940  1.00  0.00     0.091 A 
ATOM     66  F   UNL A   1      42.465  28.955  28.142  1.00  0.00    -0.205 F 
ATOM     67  C   UNL A   1      40.935  25.869  26.899  1.00  0.00     0.022 A 
BRANCH  65  68
ATOM     68  S   UNL A   1      42.709  27.398  25.485  1.00  0.00     0.127 S 
ATOM     69  O   UNL A   1      42.056  28.607  24.981  1.00  0.00    -0.237 OA
ATOM     70  O   UNL A   1      44.036  27.618  26.061  1.00  0.00    -0.237 OA
ATOM     71  O   UNL A   1      42.605  26.228  24.626  1.00  0.00    -0.744 OA
ENDBRANCH  65  68
ENDBRANCH  47  61
BRANCH  48  72
ATOM     72  C   UNL A   1      39.391  33.482  37.037  1.00  0.00     0.023 A 
ATOM     73  C   UNL A   1      39.873  34.805  37.076  1.00  0.00     0.012 A 
ATOM     74  C   UNL A   1      38.653  32.987  38.129  1.00  0.00     0.148 A 
ATOM     75  C   UNL A   1      39.653  35.609  38.195  1.00  0.00     0.002 A 
ATOM     76  C   UNL A   1      38.389  33.812  39.216  1.00  0.00     0.091 A 
ATOM     77  F   UNL A   1      38.211  31.723  38.076  1.00  0.00    -0.205 F 
ATOM     78  C   UNL A   1      38.903  35.118  39.260  1.00  0.00     0.022 A 
BRANCH  76  79
ATOM     79  S   UNL A   1      37.318  33.309  40.569  1.00  0.00     0.127 S 
ATOM     80  O   UNL A   1      36.097  32.935  39.860  1.00  0.00    -0.237 OA
ATOM     81  O   UNL A   1      38.065  32.189  41.143  1.00  0.00    -0.237 OA
ATOM     82  O   UNL A   1      37.213  34.470  41.442  1.00  0.00    -0.744 OA
ENDBRANCH  76  79
ENDBRANCH  48  72
BRANCH  60  83
ATOM     83  C   UNL A   1      44.214  28.704  35.390  1.00  0.00     0.023 A 
ATOM     84  C   UNL A   1      45.487  29.265  35.164  1.00  0.00     0.012 A 
ATOM     85  C   UNL A   1      44.069  27.689  36.356  1.00  0.00     0.148 A 
ATOM     86  C   UNL A   1      46.600  28.800  35.862  1.00  0.00     0.002 A 
ATOM     87  C   UNL A   1      45.173  27.267  37.085  1.00  0.00     0.091 A 
ATOM     88  F   UNL A   1      42.853  27.155  36.544  1.00  0.00    -0.205 F 
ATOM     89  C   UNL A   1      46.442  27.810  36.830  1.00  0.00     0.022 A 
BRANCH  87  90
ATOM     90  S   UNL A   1      45.046  26.069  38.419  1.00  0.00     0.127 S 
ATOM     91  O   UNL A   1      44.422  24.934  37.741  1.00  0.00    -0.237 OA
ATOM     92  O   UNL A   1      46.448  25.865  38.786  1.00  0.00    -0.237 OA
ATOM     93  O   UNL A   1      44.238  26.703  39.452  1.00  0.00    -0.744 OA
ENDBRANCH  87  90
ENDBRANCH  60  83
ENDBRANCH  34  35
ENDBRANCH  26  29
ENDBRANCH  24  25
ENDBRANCH  23  24
ENDBRANCH   1  23
TORSDOF 17
ENDMDL
MODEL 3
REMARK VINA RESULT:     -11.5      5.336      7.685
REMARK SMILES O=C(NCCCNC(=O)c1ccc(-c2c3nc(c(-c4cccc(S(=O)(=O)[O-])c4F)c4ccc([nH]4)c(-c4cccc(S(=O)(=O)[O-])c4F)c4nc(c(-c5cccc(S(=O)(=O)[O-])c5F)c5ccc2[nH]5)C=C4)C=C3)cc1)c1ccc(N/C=C\C(=O)c2ccco2)cc1
REMARK SMILES IDX 4 1 3 2 1 3 2 4 73 6 74 7 88 8 75 9 87 10 76 11 77 12 78 14
REMARK SMILES IDX 79 15 80 16 81 17 82 18 83 19 86 20 84 21 85 22 5 23 6 24
REMARK SMILES IDX 7 25 8 26 9 28 10 29 11 30 72 31 12 32 71 33 13 34 14 35
REMARK SMILES IDX 15 36 65 37 16 38 70 39 64 40 66 41 17 42 69 43 63 44 62 45
REMARK SMILES IDX 18 47 50 48 30 49 49 50 31 51 34 52 48 53 67 54 32 55 33 56
REMARK SMILES IDX 47 58 68 59 35 60 19 61 20 62 28 63 21 64 23 65 29 66 22 67
REMARK SMILES IDX 24 68 25 69 26 70 27 71 51 72 52 73 60 74 53 75 55 76 61 77
REMARK SMILES IDX 54 78 56 79 57 80 58 81 59 82 36 83 37 84 45 85 38 86 40 87
REMARK SMILES IDX 46 88 39 89 41 90 42 91 43 92 44 93
REMARK H PARENT 3 5 77 13 7 27 66 46 34 57
REMARK Flexibility Score: inf
ROOT
ATOM      1  C   UNL A   1      32.403  27.774  23.549  1.00  0.00     0.118 C 
ENDROOT
BRANCH   1   2
ATOM      2  N   UNL A   1      30.953  27.888  23.515  1.00  0.00    -0.352 N 
ATOM      3  O   UNL A   1      28.817  27.160  23.511  1.00  0.00    -0.269 OA
ATOM      4  C   UNL A   1      30.000  26.934  23.756  1.00  0.00     0.251 C 
ATOM      5  H   UNL A   1      30.605  28.780  23.284  1.00  0.00     0.163 HD
BRANCH   4   6
ATOM      6  C   UNL A   1      30.393  25.621  24.302  1.00  0.00     0.039 A 
ATOM      7  C   UNL A   1      30.491  25.408  25.680  1.00  0.00     0.016 A 
ATOM      8  C   UNL A   1      30.642  24.579  23.413  1.00  0.00     0.016 A 
ATOM      9  C   UNL A   1      30.920  24.171  26.168  1.00  0.00     0.027 A 
ATOM     10  C   UNL A   1      31.032  23.336  23.910  1.00  0.00     0.027 A 
ATOM     11  C   UNL A   1      31.179  23.115  25.292  1.00  0.00     0.038 A 
BRANCH  11  12
ATOM     12  N   UNL A   1      31.652  21.862  25.706  1.00  0.00    -0.362 N 
ATOM     13  H   UNL A   1      31.603  21.696  26.675  1.00  0.00     0.166 HD
BRANCH  12  14
ATOM     14  C   UNL A   1      32.171  20.835  24.966  1.00  0.00     0.087 C 
ATOM     15  C   UNL A   1      33.452  20.573  24.659  1.00  0.00     0.074 C 
BRANCH  15  16
ATOM     16  C   UNL A   1      34.661  21.349  25.075  1.00  0.00     0.222 C 
ATOM     17  O   UNL A   1      35.627  20.706  25.488  1.00  0.00    -0.286 OA
BRANCH  16  18
ATOM     18  C   UNL A   1      34.645  22.791  24.968  1.00  0.00     0.173 A 
ATOM     19  C   UNL A   1      34.672  23.801  25.916  1.00  0.00     0.054 A 
ATOM     20  O   UNL A   1      34.486  23.345  23.725  1.00  0.00    -0.461 OA
ATOM     21  C   UNL A   1      34.473  25.019  25.221  1.00  0.00     0.043 A 
ATOM     22  C   UNL A   1      34.369  24.687  23.891  1.00  0.00     0.196 A 
ENDBRANCH  16  18
ENDBRANCH  15  16
ENDBRANCH  12  14
ENDBRANCH  11  12
ENDBRANCH   4   6
ENDBRANCH   1   2
BRANCH   1  23
ATOM     23  C   UNL A   1      33.062  28.922  24.297  1.00  0.00     0.042 C 
BRANCH  23  24
ATOM     24  C   UNL A   1      32.562  29.114  25.720  1.00  0.00     0.118 C 
BRANCH  24  25
ATOM     25  N   UNL A   1      32.218  30.497  26.020  1.00  0.00    -0.352 N 
ATOM     26  C   UNL A   1      32.799  31.390  26.887  1.00  0.00     0.251 C 
ATOM     27  H   UNL A   1      31.444  30.849  25.522  1.00  0.00     0.163 HD
ATOM     28  O   UNL A   1      32.236  32.458  27.116  1.00  0.00    -0.269 OA
BRANCH  26  29
ATOM     29  C   UNL A   1      34.078  31.066  27.555  1.00  0.00     0.039 A 
ATOM     30  C   UNL A   1      35.004  32.090  27.774  1.00  0.00     0.014 A 
ATOM     31  C   UNL A   1      34.378  29.761  27.951  1.00  0.00     0.014 A 
ATOM     32  C   UNL A   1      36.198  31.814  28.442  1.00  0.00     0.010 A 
ATOM     33  C   UNL A   1      35.520  29.508  28.704  1.00  0.00     0.010 A 
ATOM     34  C   UNL A   1      36.452  30.528  28.945  1.00  0.00    -0.014 A 
BRANCH  34  35
ATOM     35  C   UNL A   1      37.684  30.230  29.720  1.00  0.00     0.031 A 
ATOM     36  C   UNL A   1      38.729  29.301  29.160  1.00  0.00     0.074 A 
ATOM     37  C   UNL A   1      37.824  30.726  30.965  1.00  0.00     0.049 A 
ATOM     38  N   UNL A   1      39.844  28.889  29.707  1.00  0.00    -0.248 NA
ATOM     39  C   UNL A   1      38.476  28.735  27.824  1.00  0.00     0.031 C 
ATOM     40  C   UNL A   1      36.841  31.562  31.658  1.00  0.00     0.029 A 
ATOM     41  N   UNL A   1      38.835  30.578  31.881  1.00  0.00    -0.354 N 
ATOM     42  C   UNL A   1      40.401  27.990  28.805  1.00  0.00     0.074 A 
ATOM     43  C   UNL A   1      39.484  27.885  27.692  1.00  0.00     0.031 C 
ATOM     44  C   UNL A   1      37.301  31.859  32.884  1.00  0.00     0.029 A 
ATOM     45  C   UNL A   1      38.592  31.210  33.078  1.00  0.00     0.049 A 
ATOM     46  H   UNL A   1      39.657  30.068  31.698  1.00  0.00     0.167 HD
ATOM     47  C   UNL A   1      41.582  27.331  28.881  1.00  0.00     0.034 A 
ATOM     48  C   UNL A   1      39.324  31.256  34.210  1.00  0.00     0.034 A 
ATOM     49  C   UNL A   1      42.512  27.474  29.967  1.00  0.00     0.049 A 
ATOM     50  C   UNL A   1      40.658  30.562  34.247  1.00  0.00     0.074 A 
ATOM     51  C   UNL A   1      43.781  26.933  30.089  1.00  0.00     0.029 A 
ATOM     52  N   UNL A   1      42.275  28.200  31.124  1.00  0.00    -0.354 N 
ATOM     53  N   UNL A   1      41.245  29.855  33.312  1.00  0.00    -0.248 NA
ATOM     54  C   UNL A   1      41.448  30.705  35.478  1.00  0.00     0.031 C 
ATOM     55  C   UNL A   1      44.296  27.307  31.334  1.00  0.00     0.029 A 
ATOM     56  C   UNL A   1      43.365  28.110  31.972  1.00  0.00     0.049 A 
ATOM     57  H   UNL A   1      41.451  28.705  31.314  1.00  0.00     0.167 HD
ATOM     58  C   UNL A   1      42.486  29.497  33.827  1.00  0.00     0.074 A 
ATOM     59  C   UNL A   1      42.574  30.087  35.148  1.00  0.00     0.031 C 
ATOM     60  C   UNL A   1      43.460  28.741  33.264  1.00  0.00     0.034 A 
BRANCH  47  61
ATOM     61  C   UNL A   1      41.958  26.431  27.732  1.00  0.00     0.023 A 
ATOM     62  C   UNL A   1      42.748  26.934  26.678  1.00  0.00     0.012 A 
ATOM     63  C   UNL A   1      41.577  25.074  27.722  1.00  0.00     0.148 A 
ATOM     64  C   UNL A   1      43.122  26.113  25.614  1.00  0.00     0.002 A 
ATOM     65  C   UNL A   1      41.994  24.251  26.683  1.00  0.00     0.091 A 
ATOM     66  F   UNL A   1      40.809  24.618  28.721  1.00  0.00    -0.205 F 
ATOM     67  C   UNL A   1      42.754  24.772  25.622  1.00  0.00     0.022 A 
BRANCH  65  68
ATOM     68  S   UNL A   1      41.645  22.489  26.644  1.00  0.00     0.127 S 
ATOM     69  O   UNL A   1      42.260  22.095  25.376  1.00  0.00    -0.237 OA
ATOM     70  O   UNL A   1      42.345  22.010  27.836  1.00  0.00    -0.237 OA
ATOM     71  O   UNL A   1      40.196  22.366  26.699  1.00  0.00    -0.744 OA
ENDBRANCH  65  68
ENDBRANCH  47  61
BRANCH  48  72
ATOM     72  C   UNL A   1      38.834  32.040  35.378  1.00  0.00     0.023 A 
ATOM     73  C   UNL A   1      38.901  33.447  35.347  1.00  0.00     0.012 A 
ATOM     74  C   UNL A   1      38.274  31.404  36.502  1.00  0.00     0.148 A 
ATOM     75  C   UNL A   1      38.449  34.205  36.429  1.00  0.00     0.002 A 
ATOM     76  C   UNL A   1      37.774  32.166  37.551  1.00  0.00     0.091 A 
ATOM     77  F   UNL A   1      38.228  30.065  36.516  1.00  0.00    -0.205 F 
ATOM     78  C   UNL A   1      37.877  33.566  37.525  1.00  0.00     0.022 A 
BRANCH  76  79
ATOM     79  S   UNL A   1      36.898  31.436  38.940  1.00  0.00     0.127 S 
ATOM     80  O   UNL A   1      37.905  31.499  39.995  1.00  0.00    -0.237 OA
ATOM     81  O   UNL A   1      35.773  32.359  39.105  1.00  0.00    -0.237 OA
ATOM     82  O   UNL A   1      36.516  30.099  38.507  1.00  0.00    -0.744 OA
ENDBRANCH  76  79
ENDBRANCH  48  72
BRANCH  60  83
ATOM     83  C   UNL A   1      44.727  28.532  34.051  1.00  0.00     0.023 A 
ATOM     84  C   UNL A   1      45.747  29.503  34.018  1.00  0.00     0.012 A 
ATOM     85  C   UNL A   1      44.876  27.402  34.880  1.00  0.00     0.148 A 
ATOM     86  C   UNL A   1      46.909  29.337  34.769  1.00  0.00     0.002 A 
ATOM     87  C   UNL A   1      46.014  27.269  35.667  1.00  0.00     0.091 A 
ATOM     88  F   UNL A   1      43.903  26.479  34.884  1.00  0.00    -0.205 F 
ATOM     89  C   UNL A   1      47.037  28.227  35.602  1.00  0.00     0.022 A 
BRANCH  87  90
ATOM     90  S   UNL A   1      46.220  25.925  36.841  1.00  0.00     0.127 S 
ATOM     91  O   UNL A   1      47.495  26.270  37.468  1.00  0.00    -0.237 OA
ATOM     92  O   UNL A   1      45.050  26.087  37.705  1.00  0.00    -0.237 OA
ATOM     93  O   UNL A   1      46.222  24.700  36.052  1.00  0.00    -0.744 OA
ENDBRANCH  87  90
ENDBRANCH  60  83
ENDBRANCH  34  35
ENDBRANCH  26  29
ENDBRANCH  24  25
ENDBRANCH  23  24
ENDBRANCH   1  23
TORSDOF 17
ENDMDL
