MODEL 1
REMARK VINA RESULT:     -11.7      0.000      0.000
REMARK SMILES Cc1cnc(S[C@H]2CC[C@@]([NH2+]C(C)C)(C(=O)NCCCNC(=O)c3ccc(-c4c5nc(c(-c6cccc(S(=O)(=O)[O-])c6F)c6ccc([nH]6)c(-c6cccc(S(=O)(=O)[O-])c6F)c6nc(c(-c7cccc(S(=O)(=O)[O-])c7F)c7ccc4[nH]7)C=C6)C=C5)cc3)C2)nc1
REMARK SMILES IDX 19 1 18 2 17 3 15 4 16 5 10 7 7 8 8 9 87 10 9 11 6 12 5 13
REMARK SMILES IDX 1 14 2 15 3 16 89 17 4 18 88 19 11 20 12 23 13 24 14 25
REMARK SMILES IDX 20 26 21 27 22 28 23 30 24 31 25 32 86 33 26 34 85 35 27 36
REMARK SMILES IDX 28 37 29 38 79 39 30 40 84 41 78 42 80 43 31 44 83 45 77 46
REMARK SMILES IDX 76 47 32 49 64 50 44 51 63 52 45 53 48 54 62 55 81 56 46 57
REMARK SMILES IDX 47 58 61 60 82 61 49 62 33 63 34 64 42 65 35 66 37 67 43 68
REMARK SMILES IDX 36 69 38 70 39 71 40 72 41 73 65 74 66 75 74 76 67 77 69 78
REMARK SMILES IDX 75 79 68 80 70 81 71 82 72 83 73 84 50 85 51 86 59 87 52 88
REMARK SMILES IDX 54 89 60 90 53 91 55 92 56 93 57 94 58 95
REMARK H PARENT 17 6 11 21 11 22 21 29 80 48 48 59
REMARK Flexibility Score: inf
ROOT
ATOM      1  C   UNL A   1      31.703  29.259  27.203  1.00  0.00     0.042 C 
ENDROOT
BRANCH   1   2
ATOM      2  C   UNL A   1      32.174  27.829  27.439  1.00  0.00     0.118 C 
BRANCH   2   3
ATOM      3  N   UNL A   1      33.182  27.402  26.483  1.00  0.00    -0.351 N 
ATOM      4  C   UNL A   1      33.102  26.467  25.485  1.00  0.00     0.281 C 
ATOM      5  O   UNL A   1      33.990  26.500  24.627  1.00  0.00    -0.268 OA
ATOM      6  H   UNL A   1      34.053  27.853  26.564  1.00  0.00     0.163 HD
BRANCH   4   7
ATOM      7  C   UNL A   1      31.865  25.508  25.375  1.00  0.00     0.176 C 
ATOM      8  C   UNL A   1      30.463  26.254  23.472  1.00  0.00     0.062 C 
ATOM      9  C   UNL A   1      30.969  24.859  23.138  1.00  0.00     0.022 C 
ATOM     10  C   UNL A   1      30.549  26.246  25.008  1.00  0.00     0.094 C 
ATOM     11  C   UNL A   1      32.046  24.535  24.175  1.00  0.00     0.080 C 
BRANCH   8  12
ATOM     12  S   UNL A   1      31.482  27.633  22.843  1.00  0.00    -0.083 SA
BRANCH  12  13
ATOM     13  C   UNL A   1      30.381  29.007  22.767  1.00  0.00     0.187 A 
ATOM     14  C   UNL A   1      28.137  32.552  22.741  1.00  0.00     0.048 C 
ATOM     15  C   UNL A   1      28.908  31.279  22.758  1.00  0.00    -0.014 A 
ATOM     16  C   UNL A   1      29.042  30.470  21.647  1.00  0.00     0.119 A 
ATOM     17  C   UNL A   1      29.562  30.831  23.881  1.00  0.00     0.119 A 
ATOM     18  N   UNL A   1      29.759  29.327  21.623  1.00  0.00    -0.231 NA
ATOM     19  N   UNL A   1      30.292  29.707  23.911  1.00  0.00    -0.231 NA
ENDBRANCH  12  13
ENDBRANCH   8  12
BRANCH   7  20
ATOM     20  N   UNL A   1      31.735  24.762  26.660  1.00  0.00    -0.332 N 
ATOM     21  H   UNL A   1      30.881  25.081  27.118  1.00  0.00     0.347 HD
ATOM     22  H   UNL A   1      32.592  24.961  27.176  1.00  0.00     0.347 HD
BRANCH  20  23
ATOM     23  C   UNL A   1      31.668  23.293  26.565  1.00  0.00     0.176 C 
ATOM     24  C   UNL A   1      32.667  22.572  27.469  1.00  0.00     0.075 C 
ATOM     25  C   UNL A   1      30.244  22.869  26.936  1.00  0.00     0.075 C 
ENDBRANCH  20  23
ENDBRANCH   7  20
ENDBRANCH   4   7
ENDBRANCH   2   3
ENDBRANCH   1   2
BRANCH   1  26
ATOM     26  C   UNL A   1      32.637  30.093  26.336  1.00  0.00     0.118 C 
BRANCH  26  27
ATOM     27  N   UNL A   1      32.513  31.523  26.586  1.00  0.00    -0.352 N 
ATOM     28  C   UNL A   1      33.284  32.350  27.366  1.00  0.00     0.251 C 
ATOM     29  H   UNL A   1      31.762  31.964  26.127  1.00  0.00     0.163 HD
ATOM     30  O   UNL A   1      32.907  33.500  27.586  1.00  0.00    -0.269 OA
BRANCH  28  31
ATOM     31  C   UNL A   1      34.547  31.860  27.959  1.00  0.00     0.039 A 
ATOM     32  C   UNL A   1      35.630  32.738  28.063  1.00  0.00     0.014 A 
ATOM     33  C   UNL A   1      34.674  30.541  28.403  1.00  0.00     0.014 A 
ATOM     34  C   UNL A   1      36.813  32.313  28.672  1.00  0.00     0.010 A 
ATOM     35  C   UNL A   1      35.820  30.147  29.088  1.00  0.00     0.010 A 
ATOM     36  C   UNL A   1      36.905  31.025  29.226  1.00  0.00    -0.014 A 
BRANCH  36  37
ATOM     37  C   UNL A   1      38.120  30.585  29.961  1.00  0.00     0.031 A 
ATOM     38  C   UNL A   1      39.063  29.585  29.347  1.00  0.00     0.074 A 
ATOM     39  C   UNL A   1      38.330  31.021  31.220  1.00  0.00     0.049 A 
ATOM     40  N   UNL A   1      40.136  29.041  29.860  1.00  0.00    -0.248 NA
ATOM     41  C   UNL A   1      38.744  29.113  27.989  1.00  0.00     0.031 C 
ATOM     42  C   UNL A   1      37.450  31.931  31.958  1.00  0.00     0.029 A 
ATOM     43  N   UNL A   1      39.333  30.736  32.114  1.00  0.00    -0.354 N 
ATOM     44  C   UNL A   1      40.599  28.140  28.908  1.00  0.00     0.074 A 
ATOM     45  C   UNL A   1      39.671  28.185  27.800  1.00  0.00     0.031 C 
ATOM     46  C   UNL A   1      37.955  32.134  33.186  1.00  0.00     0.029 A 
ATOM     47  C   UNL A   1      39.170  31.341  33.337  1.00  0.00     0.049 A 
ATOM     48  H   UNL A   1      40.096  30.153  31.897  1.00  0.00     0.167 HD
ATOM     49  C   UNL A   1      41.710  27.366  28.940  1.00  0.00     0.034 A 
ATOM     50  C   UNL A   1      39.909  31.258  34.463  1.00  0.00     0.034 A 
ATOM     51  C   UNL A   1      42.650  27.351  30.028  1.00  0.00     0.049 A 
ATOM     52  C   UNL A   1      41.152  30.411  34.462  1.00  0.00     0.074 A 
ATOM     53  C   UNL A   1      43.850  26.667  30.117  1.00  0.00     0.029 A 
ATOM     54  N   UNL A   1      42.492  28.037  31.222  1.00  0.00    -0.354 N 
ATOM     55  N   UNL A   1      41.656  29.687  33.492  1.00  0.00    -0.248 NA
ATOM     56  C   UNL A   1      41.948  30.397  35.698  1.00  0.00     0.031 C 
ATOM     57  C   UNL A   1      44.400  26.912  31.378  1.00  0.00     0.029 A 
ATOM     58  C   UNL A   1      43.564  27.781  32.060  1.00  0.00     0.049 A 
ATOM     59  H   UNL A   1      41.730  28.621  31.441  1.00  0.00     0.167 HD
ATOM     60  C   UNL A   1      42.846  29.164  33.987  1.00  0.00     0.074 A 
ATOM     61  C   UNL A   1      42.996  29.670  35.335  1.00  0.00     0.031 C 
ATOM     62  C   UNL A   1      43.728  28.330  33.382  1.00  0.00     0.034 A 
BRANCH  49  63
ATOM     63  C   UNL A   1      41.995  26.498  27.741  1.00  0.00     0.023 A 
ATOM     64  C   UNL A   1      42.608  27.059  26.601  1.00  0.00     0.012 A 
ATOM     65  C   UNL A   1      41.712  25.118  27.763  1.00  0.00     0.148 A 
ATOM     66  C   UNL A   1      42.901  26.269  25.489  1.00  0.00     0.002 A 
ATOM     67  C   UNL A   1      42.052  24.328  26.670  1.00  0.00     0.091 A 
ATOM     68  F   UNL A   1      41.113  24.605  28.847  1.00  0.00    -0.205 F 
ATOM     69  C   UNL A   1      42.633  24.904  25.529  1.00  0.00     0.022 A 
BRANCH  67  70
ATOM     70  S   UNL A   1      41.827  22.546  26.654  1.00  0.00     0.127 S 
ATOM     71  O   UNL A   1      40.425  22.422  27.053  1.00  0.00    -0.237 OA
ATOM     72  O   UNL A   1      42.093  22.217  25.253  1.00  0.00    -0.237 OA
ATOM     73  O   UNL A   1      42.794  22.009  27.600  1.00  0.00    -0.744 OA
ENDBRANCH  67  70
ENDBRANCH  49  63
BRANCH  50  74
ATOM     74  C   UNL A   1      39.518  32.041  35.670  1.00  0.00     0.023 A 
ATOM     75  C   UNL A   1      40.014  33.349  35.839  1.00  0.00     0.012 A 
ATOM     76  C   UNL A   1      38.647  31.507  36.638  1.00  0.00     0.148 A 
ATOM     77  C   UNL A   1      39.680  34.096  36.969  1.00  0.00     0.002 A 
ATOM     78  C   UNL A   1      38.272  32.278  37.733  1.00  0.00     0.091 A 
ATOM     79  F   UNL A   1      38.193  30.258  36.464  1.00  0.00    -0.205 F 
ATOM     80  C   UNL A   1      38.802  33.565  37.909  1.00  0.00     0.022 A 
BRANCH  78  81
ATOM     81  S   UNL A   1      37.048  31.728  38.926  1.00  0.00     0.127 S 
ATOM     82  O   UNL A   1      36.819  30.348  38.506  1.00  0.00    -0.237 OA
ATOM     83  O   UNL A   1      37.771  31.876  40.190  1.00  0.00    -0.237 OA
ATOM     84  O   UNL A   1      35.914  32.630  38.775  1.00  0.00    -0.744 OA
ENDBRANCH  78  81
ENDBRANCH  50  74
BRANCH  62  85
ATOM     85  C   UNL A   1      44.965  27.942  34.150  1.00  0.00     0.023 A 
ATOM     86  C   UNL A   1      46.117  28.752  34.091  1.00  0.00     0.012 A 
ATOM     87  C   UNL A   1      44.958  26.810  34.990  1.00  0.00     0.148 A 
ATOM     88  C   UNL A   1      47.253  28.421  34.828  1.00  0.00     0.002 A 
ATOM     89  C   UNL A   1      46.075  26.517  35.762  1.00  0.00     0.091 A 
ATOM     90  F   UNL A   1      43.859  26.043  35.019  1.00  0.00    -0.205 F 
ATOM     91  C   UNL A   1      47.228  27.313  35.672  1.00  0.00     0.022 A 
BRANCH  89  92
ATOM     92  S   UNL A   1      46.100  25.169  36.950  1.00  0.00     0.127 S 
ATOM     93  O   UNL A   1      45.981  24.002  36.078  1.00  0.00    -0.237 OA
ATOM     94  O   UNL A   1      47.413  25.334  37.575  1.00  0.00    -0.237 OA
ATOM     95  O   UNL A   1      44.972  25.398  37.843  1.00  0.00    -0.744 OA
ENDBRANCH  89  92
ENDBRANCH  62  85
ENDBRANCH  36  37
ENDBRANCH  28  31
ENDBRANCH  26  27
ENDBRANCH   1  26
TORSDOF 17
ENDMDL
MODEL 2
REMARK VINA RESULT:     -11.7      0.826      7.553
REMARK SMILES Cc1cnc(S[C@H]2CC[C@@]([NH2+]C(C)C)(C(=O)NCCCNC(=O)c3ccc(-c4c5nc(c(-c6cccc(S(=O)(=O)[O-])c6F)c6ccc([nH]6)c(-c6cccc(S(=O)(=O)[O-])c6F)c6nc(c(-c7cccc(S(=O)(=O)[O-])c7F)c7ccc4[nH]7)C=C6)C=C5)cc3)C2)nc1
REMARK SMILES IDX 19 1 18 2 17 3 15 4 16 5 10 7 7 8 8 9 87 10 9 11 6 12 5 13
REMARK SMILES IDX 1 14 2 15 3 16 89 17 4 18 88 19 11 20 12 23 13 24 14 25
REMARK SMILES IDX 20 26 21 27 22 28 23 30 24 31 25 32 86 33 26 34 85 35 27 36
REMARK SMILES IDX 28 37 29 38 79 39 30 40 84 41 78 42 80 43 31 44 83 45 77 46
REMARK SMILES IDX 76 47 32 49 64 50 44 51 63 52 45 53 48 54 62 55 81 56 46 57
REMARK SMILES IDX 47 58 61 60 82 61 49 62 33 63 34 64 42 65 35 66 37 67 43 68
REMARK SMILES IDX 36 69 38 70 39 71 40 72 41 73 65 74 66 75 74 76 67 77 69 78
REMARK SMILES IDX 75 79 68 80 70 81 71 82 72 83 73 84 50 85 51 86 59 87 52 88
REMARK SMILES IDX 54 89 60 90 53 91 55 92 56 93 57 94 58 95
REMARK H PARENT 17 6 11 21 11 22 21 29 80 48 48 59
REMARK Flexibility Score: inf
ROOT
ATOM      1  C   UNL A   1      31.787  29.158  27.250  1.00  0.00     0.042 C 
ENDROOT
BRANCH   1   2
ATOM      2  C   UNL A   1      31.763  27.661  26.966  1.00  0.00     0.118 C 
BRANCH   2   3
ATOM      3  N   UNL A   1      32.996  27.182  26.362  1.00  0.00    -0.351 N 
ATOM      4  C   UNL A   1      33.192  26.181  25.449  1.00  0.00     0.281 C 
ATOM      5  O   UNL A   1      34.285  26.166  24.874  1.00  0.00    -0.268 OA
ATOM      6  H   UNL A   1      33.812  27.649  26.652  1.00  0.00     0.163 HD
BRANCH   4   7
ATOM      7  C   UNL A   1      32.029  25.200  25.064  1.00  0.00     0.176 C 
ATOM      8  C   UNL A   1      30.733  26.213  23.210  1.00  0.00     0.062 C 
ATOM      9  C   UNL A   1      31.349  24.927  22.678  1.00  0.00     0.022 C 
ATOM     10  C   UNL A   1      30.702  25.930  24.721  1.00  0.00     0.094 C 
ATOM     11  C   UNL A   1      32.361  24.471  23.731  1.00  0.00     0.080 C 
BRANCH   8  12
ATOM     12  S   UNL A   1      31.709  27.729  22.925  1.00  0.00    -0.083 SA
BRANCH  12  13
ATOM     13  C   UNL A   1      30.512  29.016  22.797  1.00  0.00     0.187 A 
ATOM     14  C   UNL A   1      28.011  32.383  22.662  1.00  0.00     0.048 C 
ATOM     15  C   UNL A   1      28.874  31.172  22.717  1.00  0.00    -0.014 A 
ATOM     16  C   UNL A   1      29.118  30.376  21.614  1.00  0.00     0.119 A 
ATOM     17  C   UNL A   1      29.510  30.773  23.869  1.00  0.00     0.119 A 
ATOM     18  N   UNL A   1      29.920  29.289  21.626  1.00  0.00    -0.231 NA
ATOM     19  N   UNL A   1      30.321  29.707  23.934  1.00  0.00    -0.231 NA
ENDBRANCH  12  13
ENDBRANCH   8  12
BRANCH   7  20
ATOM     20  N   UNL A   1      31.847  24.227  26.180  1.00  0.00    -0.332 N 
ATOM     21  H   UNL A   1      31.415  24.726  26.958  1.00  0.00     0.347 HD
ATOM     22  H   UNL A   1      32.781  23.864  26.376  1.00  0.00     0.347 HD
BRANCH  20  23
ATOM     23  C   UNL A   1      31.019  23.043  25.893  1.00  0.00     0.176 C 
ATOM     24  C   UNL A   1      31.811  21.737  25.841  1.00  0.00     0.075 C 
ATOM     25  C   UNL A   1      29.951  22.949  26.987  1.00  0.00     0.075 C 
ENDBRANCH  20  23
ENDBRANCH   7  20
ENDBRANCH   4   7
ENDBRANCH   2   3
ENDBRANCH   1   2
BRANCH   1  26
ATOM     26  C   UNL A   1      32.856  29.927  26.485  1.00  0.00     0.118 C 
BRANCH  26  27
ATOM     27  N   UNL A   1      32.846  31.353  26.781  1.00  0.00    -0.352 N 
ATOM     28  C   UNL A   1      33.700  32.096  27.559  1.00  0.00     0.251 C 
ATOM     29  H   UNL A   1      32.117  31.863  26.359  1.00  0.00     0.163 HD
ATOM     30  O   UNL A   1      33.416  33.263  27.825  1.00  0.00    -0.269 OA
BRANCH  28  31
ATOM     31  C   UNL A   1      34.939  31.496  28.096  1.00  0.00     0.039 A 
ATOM     32  C   UNL A   1      36.108  32.263  28.116  1.00  0.00     0.014 A 
ATOM     33  C   UNL A   1      34.961  30.181  28.570  1.00  0.00     0.014 A 
ATOM     34  C   UNL A   1      37.276  31.736  28.673  1.00  0.00     0.010 A 
ATOM     35  C   UNL A   1      36.099  29.690  29.203  1.00  0.00     0.010 A 
ATOM     36  C   UNL A   1      37.272  30.458  29.257  1.00  0.00    -0.014 A 
BRANCH  36  37
ATOM     37  C   UNL A   1      38.477  29.916  29.938  1.00  0.00     0.031 A 
ATOM     38  C   UNL A   1      38.873  30.416  31.301  1.00  0.00     0.074 A 
ATOM     39  C   UNL A   1      39.265  29.032  29.292  1.00  0.00     0.049 A 
ATOM     40  N   UNL A   1      39.919  30.104  32.022  1.00  0.00    -0.248 NA
ATOM     41  C   UNL A   1      37.994  31.418  31.926  1.00  0.00     0.031 C 
ATOM     42  C   UNL A   1      39.035  28.526  27.936  1.00  0.00     0.029 A 
ATOM     43  N   UNL A   1      40.434  28.423  29.675  1.00  0.00    -0.354 N 
ATOM     44  C   UNL A   1      39.844  30.894  33.164  1.00  0.00     0.074 A 
ATOM     45  C   UNL A   1      38.669  31.725  33.024  1.00  0.00     0.031 C 
ATOM     46  C   UNL A   1      40.025  27.682  27.606  1.00  0.00     0.029 A 
ATOM     47  C   UNL A   1      40.979  27.614  28.707  1.00  0.00     0.049 A 
ATOM     48  H   UNL A   1      40.843  28.555  30.562  1.00  0.00     0.167 HD
ATOM     49  C   UNL A   1      40.664  30.908  34.243  1.00  0.00     0.034 A 
ATOM     50  C   UNL A   1      42.127  26.906  28.698  1.00  0.00     0.034 A 
ATOM     51  C   UNL A   1      41.811  30.054  34.394  1.00  0.00     0.049 A 
ATOM     52  C   UNL A   1      43.005  26.919  29.919  1.00  0.00     0.074 A 
ATOM     53  C   UNL A   1      42.652  29.931  35.485  1.00  0.00     0.029 A 
ATOM     54  N   UNL A   1      42.290  29.190  33.421  1.00  0.00    -0.354 N 
ATOM     55  N   UNL A   1      42.832  27.555  31.053  1.00  0.00    -0.248 NA
ATOM     56  C   UNL A   1      44.217  26.089  29.876  1.00  0.00     0.031 C 
ATOM     57  C   UNL A   1      43.660  29.019  35.160  1.00  0.00     0.029 A 
ATOM     58  C   UNL A   1      43.423  28.541  33.881  1.00  0.00     0.049 A 
ATOM     59  H   UNL A   1      41.882  29.056  32.535  1.00  0.00     0.167 HD
ATOM     60  C   UNL A   1      43.891  27.173  31.870  1.00  0.00     0.074 A 
ATOM     61  C   UNL A   1      44.688  26.235  31.107  1.00  0.00     0.031 C 
ATOM     62  C   UNL A   1      44.181  27.572  33.133  1.00  0.00     0.034 A 
BRANCH  49  63
ATOM     63  C   UNL A   1      40.323  31.850  35.369  1.00  0.00     0.023 A 
ATOM     64  C   UNL A   1      41.049  33.050  35.520  1.00  0.00     0.012 A 
ATOM     65  C   UNL A   1      39.250  31.580  36.239  1.00  0.00     0.148 A 
ATOM     66  C   UNL A   1      40.737  33.947  36.541  1.00  0.00     0.002 A 
ATOM     67  C   UNL A   1      38.913  32.501  37.224  1.00  0.00     0.091 A 
ATOM     68  F   UNL A   1      38.583  30.426  36.093  1.00  0.00    -0.205 F 
ATOM     69  C   UNL A   1      39.663  33.678  37.385  1.00  0.00     0.022 A 
BRANCH  67  70
ATOM     70  S   UNL A   1      37.496  32.289  38.307  1.00  0.00     0.127 S 
ATOM     71  O   UNL A   1      37.970  32.917  39.540  1.00  0.00    -0.237 OA
ATOM     72  O   UNL A   1      36.456  33.040  37.602  1.00  0.00    -0.237 OA
ATOM     73  O   UNL A   1      37.261  30.855  38.388  1.00  0.00    -0.744 OA
ENDBRANCH  67  70
ENDBRANCH  49  63
BRANCH  50  74
ATOM     74  C   UNL A   1      42.486  26.083  27.508  1.00  0.00     0.023 A 
ATOM     75  C   UNL A   1      43.228  26.664  26.460  1.00  0.00     0.012 A 
ATOM     76  C   UNL A   1      42.115  24.728  27.416  1.00  0.00     0.148 A 
ATOM     77  C   UNL A   1      43.561  25.923  25.327  1.00  0.00     0.002 A 
ATOM     78  C   UNL A   1      42.500  23.978  26.310  1.00  0.00     0.091 A 
ATOM     79  F   UNL A   1      41.403  24.195  28.418  1.00  0.00    -0.205 F 
ATOM     80  C   UNL A   1      43.207  24.578  25.256  1.00  0.00     0.022 A 
BRANCH  78  81
ATOM     81  S   UNL A   1      42.200  22.212  26.191  1.00  0.00     0.127 S 
ATOM     82  O   UNL A   1      42.730  21.731  27.464  1.00  0.00    -0.237 OA
ATOM     83  O   UNL A   1      40.743  22.161  26.070  1.00  0.00    -0.237 OA
ATOM     84  O   UNL A   1      42.916  21.768  25.002  1.00  0.00    -0.744 OA
ENDBRANCH  78  81
ENDBRANCH  50  74
BRANCH  62  85
ATOM     85  C   UNL A   1      45.389  26.966  33.798  1.00  0.00     0.023 A 
ATOM     86  C   UNL A   1      46.629  27.636  33.760  1.00  0.00     0.012 A 
ATOM     87  C   UNL A   1      45.276  25.764  34.526  1.00  0.00     0.148 A 
ATOM     88  C   UNL A   1      47.743  27.101  34.405  1.00  0.00     0.002 A 
ATOM     89  C   UNL A   1      46.377  25.266  35.210  1.00  0.00     0.091 A 
ATOM     90  F   UNL A   1      44.093  25.133  34.536  1.00  0.00    -0.205 F 
ATOM     91  C   UNL A   1      47.615  25.925  35.140  1.00  0.00     0.022 A 
BRANCH  89  92
ATOM     92  S   UNL A   1      46.283  23.812  36.262  1.00  0.00     0.127 S 
ATOM     93  O   UNL A   1      44.862  23.784  36.604  1.00  0.00    -0.237 OA
ATOM     94  O   UNL A   1      46.714  22.747  35.355  1.00  0.00    -0.237 OA
ATOM     95  O   UNL A   1      47.188  24.061  37.376  1.00  0.00    -0.744 OA
ENDBRANCH  89  92
ENDBRANCH  62  85
ENDBRANCH  36  37
ENDBRANCH  28  31
ENDBRANCH  26  27
ENDBRANCH   1  26
TORSDOF 17
ENDMDL
MODEL 3
REMARK VINA RESULT:     -11.5      2.385      7.886
REMARK SMILES Cc1cnc(S[C@H]2CC[C@@]([NH2+]C(C)C)(C(=O)NCCCNC(=O)c3ccc(-c4c5nc(c(-c6cccc(S(=O)(=O)[O-])c6F)c6ccc([nH]6)c(-c6cccc(S(=O)(=O)[O-])c6F)c6nc(c(-c7cccc(S(=O)(=O)[O-])c7F)c7ccc4[nH]7)C=C6)C=C5)cc3)C2)nc1
REMARK SMILES IDX 19 1 18 2 17 3 15 4 16 5 10 7 7 8 8 9 87 10 9 11 6 12 5 13
REMARK SMILES IDX 1 14 2 15 3 16 89 17 4 18 88 19 11 20 12 23 13 24 14 25
REMARK SMILES IDX 20 26 21 27 22 28 23 30 24 31 25 32 86 33 26 34 85 35 27 36
REMARK SMILES IDX 28 37 29 38 79 39 30 40 84 41 78 42 80 43 31 44 83 45 77 46
REMARK SMILES IDX 76 47 32 49 64 50 44 51 63 52 45 53 48 54 62 55 81 56 46 57
REMARK SMILES IDX 47 58 61 60 82 61 49 62 33 63 34 64 42 65 35 66 37 67 43 68
REMARK SMILES IDX 36 69 38 70 39 71 40 72 41 73 65 74 66 75 74 76 67 77 69 78
REMARK SMILES IDX 75 79 68 80 70 81 71 82 72 83 73 84 50 85 51 86 59 87 52 88
REMARK SMILES IDX 54 89 60 90 53 91 55 92 56 93 57 94 58 95
REMARK H PARENT 17 6 11 21 11 22 21 29 80 48 48 59
REMARK Flexibility Score: inf
ROOT
ATOM      1  C   UNL A   1      33.036  28.130  26.296  1.00  0.00     0.042 C 
ENDROOT
BRANCH   1   2
ATOM      2  C   UNL A   1      33.574  26.710  26.156  1.00  0.00     0.118 C 
BRANCH   2   3
ATOM      3  N   UNL A   1      32.526  25.704  26.200  1.00  0.00    -0.351 N 
ATOM      4  C   UNL A   1      32.208  24.730  25.291  1.00  0.00     0.281 C 
ATOM      5  O   UNL A   1      31.475  23.820  25.692  1.00  0.00    -0.268 OA
ATOM      6  H   UNL A   1      31.960  25.725  27.005  1.00  0.00     0.163 HD
BRANCH   4   7
ATOM      7  C   UNL A   1      32.864  24.712  23.865  1.00  0.00     0.176 C 
ATOM      8  C   UNL A   1      31.503  26.133  22.359  1.00  0.00     0.062 C 
ATOM      9  C   UNL A   1      32.880  26.773  22.459  1.00  0.00     0.022 C 
ATOM     10  C   UNL A   1      31.823  24.672  22.714  1.00  0.00     0.094 C 
ATOM     11  C   UNL A   1      33.604  26.053  23.598  1.00  0.00     0.080 C 
BRANCH   8  12
ATOM     12  S   UNL A   1      30.259  26.757  23.541  1.00  0.00    -0.083 SA
BRANCH  12  13
ATOM     13  C   UNL A   1      29.585  28.191  22.769  1.00  0.00     0.187 A 
ATOM     14  C   UNL A   1      27.853  31.752  21.383  1.00  0.00     0.048 C 
ATOM     15  C   UNL A   1      28.459  30.475  21.849  1.00  0.00    -0.014 A 
ATOM     16  C   UNL A   1      29.767  30.123  21.577  1.00  0.00     0.119 A 
ATOM     17  C   UNL A   1      27.761  29.564  22.606  1.00  0.00     0.119 A 
ATOM     18  N   UNL A   1      30.352  28.987  22.011  1.00  0.00    -0.231 NA
ATOM     19  N   UNL A   1      28.296  28.424  23.068  1.00  0.00    -0.231 NA
ENDBRANCH  12  13
ENDBRANCH   8  12
BRANCH   7  20
ATOM     20  N   UNL A   1      33.803  23.554  23.796  1.00  0.00    -0.332 N 
ATOM     21  H   UNL A   1      33.844  23.247  22.824  1.00  0.00     0.347 HD
ATOM     22  H   UNL A   1      33.425  22.862  24.444  1.00  0.00     0.347 HD
BRANCH  20  23
ATOM     23  C   UNL A   1      35.184  23.798  24.247  1.00  0.00     0.176 C 
ATOM     24  C   UNL A   1      35.442  23.380  25.695  1.00  0.00     0.075 C 
ATOM     25  C   UNL A   1      36.119  23.021  23.317  1.00  0.00     0.075 C 
ENDBRANCH  20  23
ENDBRANCH   7  20
ENDBRANCH   4   7
ENDBRANCH   2   3
ENDBRANCH   1   2
BRANCH   1  26
ATOM     26  C   UNL A   1      33.275  28.760  27.662  1.00  0.00     0.118 C 
BRANCH  26  27
ATOM     27  N   UNL A   1      33.474  30.201  27.592  1.00  0.00    -0.352 N 
ATOM     28  C   UNL A   1      34.552  30.960  27.976  1.00  0.00     0.251 C 
ATOM     29  H   UNL A   1      32.720  30.709  27.212  1.00  0.00     0.163 HD
ATOM     30  O   UNL A   1      34.453  32.186  27.996  1.00  0.00    -0.269 OA
BRANCH  28  31
ATOM     31  C   UNL A   1      35.817  30.314  28.385  1.00  0.00     0.039 A 
ATOM     32  C   UNL A   1      36.904  30.339  27.506  1.00  0.00     0.014 A 
ATOM     33  C   UNL A   1      35.936  29.675  29.622  1.00  0.00     0.014 A 
ATOM     34  C   UNL A   1      38.126  29.786  27.896  1.00  0.00     0.010 A 
ATOM     35  C   UNL A   1      37.176  29.203  30.043  1.00  0.00     0.010 A 
ATOM     36  C   UNL A   1      38.284  29.247  29.184  1.00  0.00    -0.014 A 
BRANCH  36  37
ATOM     37  C   UNL A   1      39.600  28.739  29.653  1.00  0.00     0.031 A 
ATOM     38  C   UNL A   1      40.347  29.452  30.748  1.00  0.00     0.074 A 
ATOM     39  C   UNL A   1      40.164  27.682  29.033  1.00  0.00     0.049 A 
ATOM     40  N   UNL A   1      41.529  29.191  31.246  1.00  0.00    -0.248 NA
ATOM     41  C   UNL A   1      39.694  30.629  31.345  1.00  0.00     0.031 C 
ATOM     42  C   UNL A   1      39.579  26.950  27.907  1.00  0.00     0.029 A 
ATOM     43  N   UNL A   1      41.368  27.056  29.242  1.00  0.00    -0.354 N 
ATOM     44  C   UNL A   1      41.776  30.187  32.183  1.00  0.00     0.074 A 
ATOM     45  C   UNL A   1      40.637  31.078  32.161  1.00  0.00     0.031 C 
ATOM     46  C   UNL A   1      40.420  25.973  27.531  1.00  0.00     0.029 A 
ATOM     47  C   UNL A   1      41.619  26.032  28.360  1.00  0.00     0.049 A 
ATOM     48  H   UNL A   1      41.993  27.317  29.958  1.00  0.00     0.167 HD
ATOM     49  C   UNL A   1      42.841  30.333  33.007  1.00  0.00     0.034 A 
ATOM     50  C   UNL A   1      42.698  25.235  28.222  1.00  0.00     0.034 A 
ATOM     51  C   UNL A   1      43.956  29.425  33.051  1.00  0.00     0.049 A 
ATOM     52  C   UNL A   1      43.857  25.402  29.168  1.00  0.00     0.074 A 
ATOM     53  C   UNL A   1      45.040  29.438  33.911  1.00  0.00     0.029 A 
ATOM     54  N   UNL A   1      44.139  28.352  32.193  1.00  0.00    -0.354 N 
ATOM     55  N   UNL A   1      44.001  26.255  30.153  1.00  0.00    -0.248 NA
ATOM     56  C   UNL A   1      44.985  24.474  29.008  1.00  0.00     0.031 C 
ATOM     57  C   UNL A   1      45.896  28.394  33.549  1.00  0.00     0.029 A 
ATOM     58  C   UNL A   1      45.326  27.705  32.491  1.00  0.00     0.049 A 
ATOM     59  H   UNL A   1      43.516  28.089  31.477  1.00  0.00     0.167 HD
ATOM     60  C   UNL A   1      45.216  25.943  30.753  1.00  0.00     0.074 A 
ATOM     61  C   UNL A   1      45.758  24.809  30.032  1.00  0.00     0.031 C 
ATOM     62  C   UNL A   1      45.832  26.547  31.799  1.00  0.00     0.034 A 
BRANCH  49  63
ATOM     63  C   UNL A   1      42.834  31.499  33.963  1.00  0.00     0.023 A 
ATOM     64  C   UNL A   1      43.339  32.748  33.546  1.00  0.00     0.012 A 
ATOM     65  C   UNL A   1      42.273  31.377  35.249  1.00  0.00     0.148 A 
ATOM     66  C   UNL A   1      43.322  33.846  34.406  1.00  0.00     0.002 A 
ATOM     67  C   UNL A   1      42.214  32.488  36.083  1.00  0.00     0.091 A 
ATOM     68  F   UNL A   1      41.813  30.178  35.635  1.00  0.00    -0.205 F 
ATOM     69  C   UNL A   1      42.749  33.718  35.668  1.00  0.00     0.022 A 
BRANCH  67  70
ATOM     70  S   UNL A   1      41.421  32.450  37.694  1.00  0.00     0.127 S 
ATOM     71  O   UNL A   1      41.444  33.864  38.067  1.00  0.00    -0.237 OA
ATOM     72  O   UNL A   1      40.094  31.927  37.370  1.00  0.00    -0.237 OA
ATOM     73  O   UNL A   1      42.235  31.574  38.523  1.00  0.00    -0.744 OA
ENDBRANCH  67  70
ENDBRANCH  49  63
BRANCH  50  74
ATOM     74  C   UNL A   1      42.713  24.172  27.177  1.00  0.00     0.023 A 
ATOM     75  C   UNL A   1      43.368  24.412  25.953  1.00  0.00     0.012 A 
ATOM     76  C   UNL A   1      42.100  22.924  27.395  1.00  0.00     0.148 A 
ATOM     77  C   UNL A   1      43.381  23.441  24.951  1.00  0.00     0.002 A 
ATOM     78  C   UNL A   1      42.165  21.940  26.414  1.00  0.00     0.091 A 
ATOM     79  F   UNL A   1      41.474  22.718  28.562  1.00  0.00    -0.205 F 
ATOM     80  C   UNL A   1      42.789  22.204  25.185  1.00  0.00     0.022 A 
BRANCH  78  81
ATOM     81  S   UNL A   1      41.544  20.275  26.675  1.00  0.00     0.127 S 
ATOM     82  O   UNL A   1      41.892  19.625  25.414  1.00  0.00    -0.237 OA
ATOM     83  O   UNL A   1      42.328  19.840  27.831  1.00  0.00    -0.237 OA
ATOM     84  O   UNL A   1      40.119  20.421  26.938  1.00  0.00    -0.744 OA
ENDBRANCH  78  81
ENDBRANCH  50  74
BRANCH  62  85
ATOM     85  C   UNL A   1      47.144  25.973  32.266  1.00  0.00     0.023 A 
ATOM     86  C   UNL A   1      48.355  26.443  31.719  1.00  0.00     0.012 A 
ATOM     87  C   UNL A   1      47.178  25.019  33.302  1.00  0.00     0.148 A 
ATOM     88  C   UNL A   1      49.577  25.945  32.171  1.00  0.00     0.002 A 
ATOM     89  C   UNL A   1      48.400  24.568  33.785  1.00  0.00     0.091 A 
ATOM     90  F   UNL A   1      46.015  24.573  33.798  1.00  0.00    -0.205 F 
ATOM     91  C   UNL A   1      49.600  25.019  33.211  1.00  0.00     0.022 A 
BRANCH  89  92
ATOM     92  S   UNL A   1      48.531  23.451  35.186  1.00  0.00     0.127 S 
ATOM     93  O   UNL A   1      49.968  23.184  35.221  1.00  0.00    -0.237 OA
ATOM     94  O   UNL A   1      48.037  24.279  36.287  1.00  0.00    -0.237 OA
ATOM     95  O   UNL A   1      47.692  22.304  34.867  1.00  0.00    -0.744 OA
ENDBRANCH  89  92
ENDBRANCH  62  85
ENDBRANCH  36  37
ENDBRANCH  28  31
ENDBRANCH  26  27
ENDBRANCH   1  26
TORSDOF 17
ENDMDL
