MODEL 1
REMARK VINA RESULT:     -11.0      0.000      0.000
REMARK SMILES CCC(CC)NC(=O)NC[C@H]1CC[C@H](C(=O)NCCCNC(=O)c2ccc(-c3c4nc(c(-c5cccc(S(=O)(=O)[O-])c5F)c5ccc([nH]5)c(-c5cccc(S(=O)(=O)[O-])c5F)c5nc(c(-c6cccc(S(=O)(=O)[O-])c6F)c6ccc3[nH]6)C=C5)C=C4)cc2)O1
REMARK SMILES IDX 18 1 17 2 15 3 16 4 14 6 11 7 12 8 87 9 13 10 10 11 9 12
REMARK SMILES IDX 6 13 7 14 8 16 3 18 2 19 1 20 4 21 5 22 19 23 20 24 21 25
REMARK SMILES IDX 22 26 23 28 24 29 25 30 86 31 26 32 85 33 27 34 28 35 29 36
REMARK SMILES IDX 79 37 30 38 84 39 78 40 80 41 31 42 83 43 77 44 76 45 32 47
REMARK SMILES IDX 64 48 44 49 63 50 45 51 48 52 62 53 81 54 46 55 47 56 61 58
REMARK SMILES IDX 82 59 49 60 33 61 34 62 42 63 35 64 37 65 43 66 36 67 38 68
REMARK SMILES IDX 39 69 40 70 41 71 65 72 66 73 74 74 67 75 69 76 75 77 68 78
REMARK SMILES IDX 70 79 71 80 72 81 73 82 50 83 51 84 59 85 52 86 54 87 60 88
REMARK SMILES IDX 53 89 55 90 56 91 57 92 58 93
REMARK H PARENT 17 5 6 15 9 17 21 27 80 46 48 57
REMARK Flexibility Score: inf
ROOT
ATOM      1  C   UNL A   1      36.438  21.115  24.892  1.00  0.00     0.117 C 
ENDROOT
BRANCH   1   2
ATOM      2  N   UNL A   1      35.773  21.221  26.174  1.00  0.00    -0.354 N 
ATOM      3  C   UNL A   1      34.487  21.560  26.470  1.00  0.00     0.249 C 
ATOM      4  O   UNL A   1      34.161  21.564  27.662  1.00  0.00    -0.272 OA
ATOM      5  H   UNL A   1      36.338  21.015  26.954  1.00  0.00     0.163 HD
BRANCH   3   6
ATOM      6  C   UNL A   1      33.477  21.975  25.380  1.00  0.00     0.207 C 
ATOM      7  C   UNL A   1      31.783  23.581  25.182  1.00  0.00     0.138 C 
ATOM      8  C   UNL A   1      31.147  22.335  25.772  1.00  0.00     0.037 C 
ATOM      9  O   UNL A   1      33.209  23.377  25.284  1.00  0.00    -0.363 OA
ATOM     10  C   UNL A   1      32.147  21.245  25.492  1.00  0.00     0.045 C 
BRANCH   7  11
ATOM     11  C   UNL A   1      31.443  23.918  23.717  1.00  0.00     0.149 C 
BRANCH  11  12
ATOM     12  N   UNL A   1      32.532  24.426  22.911  1.00  0.00    -0.336 N 
ATOM     13  N   UNL A   1      32.563  26.774  23.180  1.00  0.00    -0.335 N 
ATOM     14  C   UNL A   1      33.003  25.643  22.622  1.00  0.00     0.315 C 
ATOM     15  H   UNL A   1      32.839  27.578  22.683  1.00  0.00     0.165 HD
ATOM     16  O   UNL A   1      33.890  25.719  21.770  1.00  0.00    -0.249 OA
ATOM     17  H   UNL A   1      33.046  23.708  22.474  1.00  0.00     0.165 HD
BRANCH  13  18
ATOM     18  C   UNL A   1      31.765  27.087  24.361  1.00  0.00     0.083 C 
BRANCH  18  19
ATOM     19  C   UNL A   1      32.651  27.769  25.415  1.00  0.00     0.021 C 
ATOM     20  C   UNL A   1      33.797  26.890  25.891  1.00  0.00     0.006 C 
ENDBRANCH  18  19
BRANCH  18  21
ATOM     21  C   UNL A   1      30.497  27.871  23.968  1.00  0.00     0.021 C 
ATOM     22  C   UNL A   1      29.305  27.023  23.540  1.00  0.00     0.006 C 
ENDBRANCH  18  21
ENDBRANCH  13  18
ENDBRANCH  11  12
ENDBRANCH   7  11
ENDBRANCH   3   6
ENDBRANCH   1   2
BRANCH   1  23
ATOM     23  C   UNL A   1      37.599  20.127  24.931  1.00  0.00     0.042 C 
BRANCH  23  24
ATOM     24  C   UNL A   1      38.752  20.588  25.811  1.00  0.00     0.118 C 
BRANCH  24  25
ATOM     25  N   UNL A   1      39.776  19.558  25.949  1.00  0.00    -0.352 N 
ATOM     26  C   UNL A   1      41.134  19.682  26.108  1.00  0.00     0.251 C 
ATOM     27  H   UNL A   1      39.442  18.633  25.924  1.00  0.00     0.163 HD
ATOM     28  O   UNL A   1      41.853  18.696  25.967  1.00  0.00    -0.269 OA
BRANCH  26  29
ATOM     29  C   UNL A   1      41.727  20.994  26.440  1.00  0.00     0.039 A 
ATOM     30  C   UNL A   1      41.994  21.899  25.409  1.00  0.00     0.014 A 
ATOM     31  C   UNL A   1      42.033  21.326  27.762  1.00  0.00     0.014 A 
ATOM     32  C   UNL A   1      42.500  23.165  25.713  1.00  0.00     0.010 A 
ATOM     33  C   UNL A   1      42.455  22.614  28.071  1.00  0.00     0.010 A 
ATOM     34  C   UNL A   1      42.696  23.546  27.050  1.00  0.00    -0.014 A 
BRANCH  34  35
ATOM     35  C   UNL A   1      43.128  24.917  27.415  1.00  0.00     0.031 A 
ATOM     36  C   UNL A   1      42.156  25.873  28.051  1.00  0.00     0.074 A 
ATOM     37  C   UNL A   1      44.363  25.334  27.070  1.00  0.00     0.049 A 
ATOM     38  N   UNL A   1      42.314  27.137  28.340  1.00  0.00    -0.248 NA
ATOM     39  C   UNL A   1      40.820  25.346  28.378  1.00  0.00     0.031 C 
ATOM     40  C   UNL A   1      45.370  24.520  26.385  1.00  0.00     0.029 A 
ATOM     41  N   UNL A   1      44.969  26.557  27.215  1.00  0.00    -0.354 N 
ATOM     42  C   UNL A   1      41.092  27.566  28.845  1.00  0.00     0.074 A 
ATOM     43  C   UNL A   1      40.193  26.435  28.795  1.00  0.00     0.031 C 
ATOM     44  C   UNL A   1      46.465  25.265  26.168  1.00  0.00     0.029 A 
ATOM     45  C   UNL A   1      46.225  26.618  26.658  1.00  0.00     0.049 A 
ATOM     46  H   UNL A   1      44.545  27.318  27.675  1.00  0.00     0.167 HD
ATOM     47  C   UNL A   1      40.757  28.786  29.330  1.00  0.00     0.034 A 
ATOM     48  C   UNL A   1      47.079  27.653  26.532  1.00  0.00     0.034 A 
ATOM     49  C   UNL A   1      41.667  29.896  29.407  1.00  0.00     0.049 A 
ATOM     50  C   UNL A   1      46.685  28.994  27.090  1.00  0.00     0.074 A 
ATOM     51  C   UNL A   1      41.455  31.144  29.964  1.00  0.00     0.029 A 
ATOM     52  N   UNL A   1      42.958  29.899  28.901  1.00  0.00    -0.354 N 
ATOM     53  N   UNL A   1      45.581  29.339  27.707  1.00  0.00    -0.248 NA
ATOM     54  C   UNL A   1      47.665  30.081  26.959  1.00  0.00     0.031 C 
ATOM     55  C   UNL A   1      42.604  31.913  29.762  1.00  0.00     0.029 A 
ATOM     56  C   UNL A   1      43.547  31.133  29.112  1.00  0.00     0.049 A 
ATOM     57  H   UNL A   1      43.392  29.135  28.455  1.00  0.00     0.167 HD
ATOM     58  C   UNL A   1      45.747  30.670  28.068  1.00  0.00     0.074 A 
ATOM     59  C   UNL A   1      47.066  31.064  27.618  1.00  0.00     0.031 C 
ATOM     60  C   UNL A   1      44.878  31.497  28.701  1.00  0.00     0.034 A 
BRANCH  47  61
ATOM     61  C   UNL A   1      39.356  28.974  29.850  1.00  0.00     0.023 A 
ATOM     62  C   UNL A   1      39.040  28.568  31.164  1.00  0.00     0.012 A 
ATOM     63  C   UNL A   1      38.371  29.608  29.068  1.00  0.00     0.148 A 
ATOM     64  C   UNL A   1      37.757  28.756  31.676  1.00  0.00     0.002 A 
ATOM     65  C   UNL A   1      37.108  29.835  29.603  1.00  0.00     0.091 A 
ATOM     66  F   UNL A   1      38.685  29.970  27.816  1.00  0.00    -0.205 F 
ATOM     67  C   UNL A   1      36.795  29.398  30.901  1.00  0.00     0.022 A 
BRANCH  65  68
ATOM     68  S   UNL A   1      35.825  30.726  28.716  1.00  0.00     0.127 S 
ATOM     69  O   UNL A   1      35.185  31.474  29.798  1.00  0.00    -0.237 OA
ATOM     70  O   UNL A   1      36.605  31.543  27.787  1.00  0.00    -0.237 OA
ATOM     71  O   UNL A   1      34.993  29.711  28.083  1.00  0.00    -0.744 OA
ENDBRANCH  65  68
ENDBRANCH  47  61
BRANCH  48  72
ATOM     72  C   UNL A   1      48.407  27.450  25.888  1.00  0.00     0.023 A 
ATOM     73  C   UNL A   1      49.511  27.079  26.679  1.00  0.00     0.012 A 
ATOM     74  C   UNL A   1      48.577  27.596  24.498  1.00  0.00     0.148 A 
ATOM     75  C   UNL A   1      50.768  26.888  26.103  1.00  0.00     0.002 A 
ATOM     76  C   UNL A   1      49.817  27.348  23.923  1.00  0.00     0.091 A 
ATOM     77  F   UNL A   1      47.516  27.959  23.764  1.00  0.00    -0.205 F 
ATOM     78  C   UNL A   1      50.918  27.014  24.725  1.00  0.00     0.022 A 
BRANCH  76  79
ATOM     79  S   UNL A   1      50.073  27.352  22.145  1.00  0.00     0.127 S 
ATOM     80  O   UNL A   1      51.455  26.894  22.041  1.00  0.00    -0.237 OA
ATOM     81  O   UNL A   1      49.067  26.389  21.697  1.00  0.00    -0.237 OA
ATOM     82  O   UNL A   1      49.826  28.722  21.715  1.00  0.00    -0.744 OA
ENDBRANCH  76  79
ENDBRANCH  48  72
BRANCH  60  83
ATOM     83  C   UNL A   1      45.332  32.905  28.986  1.00  0.00     0.023 A 
ATOM     84  C   UNL A   1      46.041  33.188  30.170  1.00  0.00     0.012 A 
ATOM     85  C   UNL A   1      45.132  33.926  28.037  1.00  0.00     0.148 A 
ATOM     86  C   UNL A   1      46.521  34.473  30.417  1.00  0.00     0.002 A 
ATOM     87  C   UNL A   1      45.659  35.191  28.265  1.00  0.00     0.091 A 
ATOM     88  F   UNL A   1      44.441  33.638  26.924  1.00  0.00    -0.205 F 
ATOM     89  C   UNL A   1      46.343  35.469  29.459  1.00  0.00     0.022 A 
BRANCH  87  90
ATOM     90  S   UNL A   1      45.566  36.511  27.050  1.00  0.00     0.127 S 
ATOM     91  O   UNL A   1      46.322  37.576  27.709  1.00  0.00    -0.237 OA
ATOM     92  O   UNL A   1      46.234  35.912  25.895  1.00  0.00    -0.237 OA
ATOM     93  O   UNL A   1      44.148  36.784  26.859  1.00  0.00    -0.744 OA
ENDBRANCH  87  90
ENDBRANCH  60  83
ENDBRANCH  34  35
ENDBRANCH  26  29
ENDBRANCH  24  25
ENDBRANCH  23  24
ENDBRANCH   1  23
TORSDOF 18
ENDMDL
MODEL 2
REMARK VINA RESULT:     -11.0      5.510     10.640
REMARK SMILES CCC(CC)NC(=O)NC[C@H]1CC[C@H](C(=O)NCCCNC(=O)c2ccc(-c3c4nc(c(-c5cccc(S(=O)(=O)[O-])c5F)c5ccc([nH]5)c(-c5cccc(S(=O)(=O)[O-])c5F)c5nc(c(-c6cccc(S(=O)(=O)[O-])c6F)c6ccc3[nH]6)C=C5)C=C4)cc2)O1
REMARK SMILES IDX 18 1 17 2 15 3 16 4 14 6 11 7 12 8 87 9 13 10 10 11 9 12
REMARK SMILES IDX 6 13 7 14 8 16 3 18 2 19 1 20 4 21 5 22 19 23 20 24 21 25
REMARK SMILES IDX 22 26 23 28 24 29 25 30 86 31 26 32 85 33 27 34 28 35 29 36
REMARK SMILES IDX 79 37 30 38 84 39 78 40 80 41 31 42 83 43 77 44 76 45 32 47
REMARK SMILES IDX 64 48 44 49 63 50 45 51 48 52 62 53 81 54 46 55 47 56 61 58
REMARK SMILES IDX 82 59 49 60 33 61 34 62 42 63 35 64 37 65 43 66 36 67 38 68
REMARK SMILES IDX 39 69 40 70 41 71 65 72 66 73 74 74 67 75 69 76 75 77 68 78
REMARK SMILES IDX 70 79 71 80 72 81 73 82 50 83 51 84 59 85 52 86 54 87 60 88
REMARK SMILES IDX 53 89 55 90 56 91 57 92 58 93
REMARK H PARENT 17 5 6 15 9 17 21 27 80 46 48 57
REMARK Flexibility Score: inf
ROOT
ATOM      1  C   UNL A   1      32.202  29.311  24.355  1.00  0.00     0.117 C 
ENDROOT
BRANCH   1   2
ATOM      2  N   UNL A   1      31.302  29.586  23.254  1.00  0.00    -0.354 N 
ATOM      3  C   UNL A   1      30.514  28.741  22.532  1.00  0.00     0.249 C 
ATOM      4  O   UNL A   1      29.819  29.237  21.639  1.00  0.00    -0.272 OA
ATOM      5  H   UNL A   1      31.251  30.532  22.986  1.00  0.00     0.163 HD
BRANCH   3   6
ATOM      6  C   UNL A   1      30.514  27.216  22.771  1.00  0.00     0.207 C 
ATOM      7  C   UNL A   1      31.492  25.757  24.321  1.00  0.00     0.138 C 
ATOM      8  C   UNL A   1      32.479  25.919  23.179  1.00  0.00     0.037 C 
ATOM      9  O   UNL A   1      30.512  26.803  24.140  1.00  0.00    -0.363 OA
ATOM     10  C   UNL A   1      31.656  26.503  22.063  1.00  0.00     0.045 C 
BRANCH   7  11
ATOM     11  C   UNL A   1      30.752  24.409  24.426  1.00  0.00     0.149 C 
BRANCH  11  12
ATOM     12  N   UNL A   1      30.266  24.050  25.741  1.00  0.00    -0.336 N 
ATOM     13  N   UNL A   1      31.229  21.963  26.294  1.00  0.00    -0.335 N 
ATOM     14  C   UNL A   1      30.412  22.990  26.543  1.00  0.00     0.315 C 
ATOM     15  H   UNL A   1      31.030  21.174  26.849  1.00  0.00     0.165 HD
ATOM     16  O   UNL A   1      29.730  22.958  27.568  1.00  0.00    -0.249 OA
ATOM     17  H   UNL A   1      29.696  24.748  26.138  1.00  0.00     0.165 HD
BRANCH  13  18
ATOM     18  C   UNL A   1      32.349  21.746  25.384  1.00  0.00     0.083 C 
BRANCH  18  19
ATOM     19  C   UNL A   1      33.623  22.369  25.978  1.00  0.00     0.021 C 
ATOM     20  C   UNL A   1      33.746  22.157  27.479  1.00  0.00     0.006 C 
ENDBRANCH  18  19
BRANCH  18  21
ATOM     21  C   UNL A   1      32.465  20.255  25.010  1.00  0.00     0.021 C 
ATOM     22  C   UNL A   1      33.883  19.706  24.929  1.00  0.00     0.006 C 
ENDBRANCH  18  21
ENDBRANCH  13  18
ENDBRANCH  11  12
ENDBRANCH   7  11
ENDBRANCH   3   6
ENDBRANCH   1   2
BRANCH   1  23
ATOM     23  C   UNL A   1      31.485  29.339  25.699  1.00  0.00     0.042 C 
BRANCH  23  24
ATOM     24  C   UNL A   1      32.316  29.962  26.812  1.00  0.00     0.118 C 
BRANCH  24  25
ATOM     25  N   UNL A   1      32.265  31.419  26.779  1.00  0.00    -0.352 N 
ATOM     26  C   UNL A   1      33.103  32.344  27.351  1.00  0.00     0.251 C 
ATOM     27  H   UNL A   1      31.513  31.798  26.268  1.00  0.00     0.163 HD
ATOM     28  O   UNL A   1      32.758  33.521  27.409  1.00  0.00    -0.269 OA
BRANCH  26  29
ATOM     29  C   UNL A   1      34.409  31.923  27.899  1.00  0.00     0.039 A 
ATOM     30  C   UNL A   1      35.446  32.857  27.978  1.00  0.00     0.014 A 
ATOM     31  C   UNL A   1      34.617  30.608  28.320  1.00  0.00     0.014 A 
ATOM     32  C   UNL A   1      36.667  32.489  28.547  1.00  0.00     0.010 A 
ATOM     33  C   UNL A   1      35.802  30.266  28.962  1.00  0.00     0.010 A 
ATOM     34  C   UNL A   1      36.840  31.202  29.080  1.00  0.00    -0.014 A 
BRANCH  34  35
ATOM     35  C   UNL A   1      38.084  30.812  29.788  1.00  0.00     0.031 A 
ATOM     36  C   UNL A   1      39.025  29.814  29.169  1.00  0.00     0.074 A 
ATOM     37  C   UNL A   1      38.307  31.272  31.034  1.00  0.00     0.049 A 
ATOM     38  N   UNL A   1      40.098  29.270  29.677  1.00  0.00    -0.248 NA
ATOM     39  C   UNL A   1      38.700  29.344  27.811  1.00  0.00     0.031 C 
ATOM     40  C   UNL A   1      37.429  32.188  31.767  1.00  0.00     0.029 A 
ATOM     41  N   UNL A   1      39.320  31.005  31.921  1.00  0.00    -0.354 N 
ATOM     42  C   UNL A   1      40.555  28.368  28.722  1.00  0.00     0.074 A 
ATOM     43  C   UNL A   1      39.624  28.416  27.617  1.00  0.00     0.031 C 
ATOM     44  C   UNL A   1      37.940  32.404  32.989  1.00  0.00     0.029 A 
ATOM     45  C   UNL A   1      39.155  31.611  33.144  1.00  0.00     0.049 A 
ATOM     46  H   UNL A   1      40.091  30.433  31.702  1.00  0.00     0.167 HD
ATOM     47  C   UNL A   1      41.662  27.589  28.754  1.00  0.00     0.034 A 
ATOM     48  C   UNL A   1      39.885  31.521  34.273  1.00  0.00     0.034 A 
ATOM     49  C   UNL A   1      42.600  27.572  29.844  1.00  0.00     0.049 A 
ATOM     50  C   UNL A   1      41.117  30.657  34.277  1.00  0.00     0.074 A 
ATOM     51  C   UNL A   1      43.799  26.889  29.935  1.00  0.00     0.029 A 
ATOM     52  N   UNL A   1      42.440  28.258  31.038  1.00  0.00    -0.354 N 
ATOM     53  N   UNL A   1      41.619  29.932  33.306  1.00  0.00    -0.248 NA
ATOM     54  C   UNL A   1      41.899  30.619  35.521  1.00  0.00     0.031 C 
ATOM     55  C   UNL A   1      44.346  27.133  31.197  1.00  0.00     0.029 A 
ATOM     56  C   UNL A   1      43.506  27.999  31.880  1.00  0.00     0.049 A 
ATOM     57  H   UNL A   1      41.678  28.844  31.255  1.00  0.00     0.167 HD
ATOM     58  C   UNL A   1      42.790  29.380  33.810  1.00  0.00     0.074 A 
ATOM     59  C   UNL A   1      42.934  29.871  35.165  1.00  0.00     0.031 C 
ATOM     60  C   UNL A   1      43.661  28.532  33.209  1.00  0.00     0.034 A 
BRANCH  47  61
ATOM     61  C   UNL A   1      41.942  26.717  27.559  1.00  0.00     0.023 A 
ATOM     62  C   UNL A   1      42.590  27.264  26.432  1.00  0.00     0.012 A 
ATOM     63  C   UNL A   1      41.622  25.345  27.572  1.00  0.00     0.148 A 
ATOM     64  C   UNL A   1      42.883  26.470  25.324  1.00  0.00     0.002 A 
ATOM     65  C   UNL A   1      41.960  24.549  26.483  1.00  0.00     0.091 A 
ATOM     66  F   UNL A   1      40.990  24.846  28.644  1.00  0.00    -0.205 F 
ATOM     67  C   UNL A   1      42.578  25.111  25.354  1.00  0.00     0.022 A 
BRANCH  65  68
ATOM     68  S   UNL A   1      41.685  22.774  26.456  1.00  0.00     0.127 S 
ATOM     69  O   UNL A   1      42.393  22.385  25.238  1.00  0.00    -0.237 OA
ATOM     70  O   UNL A   1      42.327  22.346  27.699  1.00  0.00    -0.237 OA
ATOM     71  O   UNL A   1      40.240  22.591  26.423  1.00  0.00    -0.744 OA
ENDBRANCH  65  68
ENDBRANCH  47  61
BRANCH  48  72
ATOM     72  C   UNL A   1      39.494  32.303  35.480  1.00  0.00     0.023 A 
ATOM     73  C   UNL A   1      38.724  31.688  36.485  1.00  0.00     0.012 A 
ATOM     74  C   UNL A   1      39.902  33.641  35.650  1.00  0.00     0.148 A 
ATOM     75  C   UNL A   1      38.339  32.399  37.622  1.00  0.00     0.002 A 
ATOM     76  C   UNL A   1      39.564  34.325  36.811  1.00  0.00     0.091 A 
ATOM     77  F   UNL A   1      40.627  34.212  34.677  1.00  0.00    -0.205 F 
ATOM     78  C   UNL A   1      38.766  33.713  37.789  1.00  0.00     0.022 A 
BRANCH  76  79
ATOM     79  S   UNL A   1      40.182  35.971  37.174  1.00  0.00     0.127 S 
ATOM     80  O   UNL A   1      39.476  36.289  38.411  1.00  0.00    -0.237 OA
ATOM     81  O   UNL A   1      41.617  35.725  37.325  1.00  0.00    -0.237 OA
ATOM     82  O   UNL A   1      39.832  36.786  36.019  1.00  0.00    -0.744 OA
ENDBRANCH  76  79
ENDBRANCH  48  72
BRANCH  60  83
ATOM     83  C   UNL A   1      44.874  28.102  33.992  1.00  0.00     0.023 A 
ATOM     84  C   UNL A   1      45.990  28.957  34.082  1.00  0.00     0.012 A 
ATOM     85  C   UNL A   1      44.868  26.891  34.711  1.00  0.00     0.148 A 
ATOM     86  C   UNL A   1      47.094  28.599  34.855  1.00  0.00     0.002 A 
ATOM     87  C   UNL A   1      45.950  26.565  35.520  1.00  0.00     0.091 A 
ATOM     88  F   UNL A   1      43.802  26.085  34.598  1.00  0.00    -0.205 F 
ATOM     89  C   UNL A   1      47.068  27.412  35.583  1.00  0.00     0.022 A 
BRANCH  87  90
ATOM     90  S   UNL A   1      45.968  25.108  36.570  1.00  0.00     0.127 S 
ATOM     91  O   UNL A   1      47.248  25.255  37.263  1.00  0.00    -0.237 OA
ATOM     92  O   UNL A   1      44.790  25.322  37.412  1.00  0.00    -0.237 OA
ATOM     93  O   UNL A   1      45.875  23.963  35.675  1.00  0.00    -0.744 OA
ENDBRANCH  87  90
ENDBRANCH  60  83
ENDBRANCH  34  35
ENDBRANCH  26  29
ENDBRANCH  24  25
ENDBRANCH  23  24
ENDBRANCH   1  23
TORSDOF 18
ENDMDL
MODEL 3
REMARK VINA RESULT:     -10.9      1.434      1.815
REMARK SMILES CCC(CC)NC(=O)NC[C@H]1CC[C@H](C(=O)NCCCNC(=O)c2ccc(-c3c4nc(c(-c5cccc(S(=O)(=O)[O-])c5F)c5ccc([nH]5)c(-c5cccc(S(=O)(=O)[O-])c5F)c5nc(c(-c6cccc(S(=O)(=O)[O-])c6F)c6ccc3[nH]6)C=C5)C=C4)cc2)O1
REMARK SMILES IDX 18 1 17 2 15 3 16 4 14 6 11 7 12 8 87 9 13 10 10 11 9 12
REMARK SMILES IDX 6 13 7 14 8 16 3 18 2 19 1 20 4 21 5 22 19 23 20 24 21 25
REMARK SMILES IDX 22 26 23 28 24 29 25 30 86 31 26 32 85 33 27 34 28 35 29 36
REMARK SMILES IDX 79 37 30 38 84 39 78 40 80 41 31 42 83 43 77 44 76 45 32 47
REMARK SMILES IDX 64 48 44 49 63 50 45 51 48 52 62 53 81 54 46 55 47 56 61 58
REMARK SMILES IDX 82 59 49 60 33 61 34 62 42 63 35 64 37 65 43 66 36 67 38 68
REMARK SMILES IDX 39 69 40 70 41 71 65 72 66 73 74 74 67 75 69 76 75 77 68 78
REMARK SMILES IDX 70 79 71 80 72 81 73 82 50 83 51 84 59 85 52 86 54 87 60 88
REMARK SMILES IDX 53 89 55 90 56 91 57 92 58 93
REMARK H PARENT 17 5 6 15 9 17 21 27 80 46 48 57
REMARK Flexibility Score: inf
ROOT
ATOM      1  C   UNL A   1      35.051  21.155  25.956  1.00  0.00     0.117 C 
ENDROOT
BRANCH   1   2
ATOM      2  N   UNL A   1      34.060  20.120  25.746  1.00  0.00    -0.354 N 
ATOM      3  C   UNL A   1      32.812  20.197  25.205  1.00  0.00     0.249 C 
ATOM      4  O   UNL A   1      32.162  19.149  25.127  1.00  0.00    -0.272 OA
ATOM      5  H   UNL A   1      34.331  19.220  26.038  1.00  0.00     0.163 HD
BRANCH   3   6
ATOM      6  C   UNL A   1      32.196  21.538  24.752  1.00  0.00     0.207 C 
ATOM      7  C   UNL A   1      32.971  23.729  24.457  1.00  0.00     0.138 C 
ATOM      8  C   UNL A   1      32.501  23.613  25.896  1.00  0.00     0.037 C 
ATOM      9  O   UNL A   1      33.046  22.374  23.961  1.00  0.00    -0.363 OA
ATOM     10  C   UNL A   1      31.658  22.367  25.908  1.00  0.00     0.045 C 
BRANCH   7  11
ATOM     11  C   UNL A   1      32.093  24.552  23.494  1.00  0.00     0.149 C 
BRANCH  11  12
ATOM     12  N   UNL A   1      32.643  24.791  22.177  1.00  0.00    -0.336 N 
ATOM     13  N   UNL A   1      31.968  26.959  21.523  1.00  0.00    -0.335 N 
ATOM     14  C   UNL A   1      32.565  25.787  21.290  1.00  0.00     0.315 C 
ATOM     15  H   UNL A   1      31.791  27.467  20.698  1.00  0.00     0.165 HD
ATOM     16  O   UNL A   1      33.065  25.596  20.180  1.00  0.00    -0.249 OA
ATOM     17  H   UNL A   1      33.205  24.046  21.861  1.00  0.00     0.165 HD
BRANCH  13  18
ATOM     18  C   UNL A   1      31.519  27.656  22.723  1.00  0.00     0.083 C 
BRANCH  18  19
ATOM     19  C   UNL A   1      32.639  28.577  23.233  1.00  0.00     0.021 C 
ATOM     20  C   UNL A   1      33.905  28.496  22.395  1.00  0.00     0.006 C 
ENDBRANCH  18  19
BRANCH  18  21
ATOM     21  C   UNL A   1      30.165  28.351  22.474  1.00  0.00     0.021 C 
ATOM     22  C   UNL A   1      29.975  29.690  23.174  1.00  0.00     0.006 C 
ENDBRANCH  18  21
ENDBRANCH  13  18
ENDBRANCH  11  12
ENDBRANCH   7  11
ENDBRANCH   3   6
ENDBRANCH   1   2
BRANCH   1  23
ATOM     23  C   UNL A   1      36.019  21.265  24.783  1.00  0.00     0.042 C 
BRANCH  23  24
ATOM     24  C   UNL A   1      37.388  21.796  25.181  1.00  0.00     0.118 C 
BRANCH  24  25
ATOM     25  N   UNL A   1      38.269  20.732  25.650  1.00  0.00    -0.352 N 
ATOM     26  C   UNL A   1      39.507  20.808  26.239  1.00  0.00     0.251 C 
ATOM     27  H   UNL A   1      37.923  19.819  25.524  1.00  0.00     0.163 HD
ATOM     28  O   UNL A   1      40.192  19.794  26.344  1.00  0.00    -0.269 OA
BRANCH  26  29
ATOM     29  C   UNL A   1      40.014  22.103  26.737  1.00  0.00     0.039 A 
ATOM     30  C   UNL A   1      40.947  22.113  27.779  1.00  0.00     0.014 A 
ATOM     31  C   UNL A   1      39.561  23.306  26.189  1.00  0.00     0.014 A 
ATOM     32  C   UNL A   1      41.477  23.327  28.220  1.00  0.00     0.010 A 
ATOM     33  C   UNL A   1      40.153  24.505  26.571  1.00  0.00     0.010 A 
ATOM     34  C   UNL A   1      41.114  24.528  27.592  1.00  0.00    -0.014 A 
BRANCH  34  35
ATOM     35  C   UNL A   1      41.739  25.822  27.962  1.00  0.00     0.031 A 
ATOM     36  C   UNL A   1      40.934  26.875  28.674  1.00  0.00     0.074 A 
ATOM     37  C   UNL A   1      42.997  26.088  27.557  1.00  0.00     0.049 A 
ATOM     38  N   UNL A   1      41.269  28.099  28.983  1.00  0.00    -0.248 NA
ATOM     39  C   UNL A   1      39.561  26.513  29.065  1.00  0.00     0.031 C 
ATOM     40  C   UNL A   1      43.852  25.173  26.797  1.00  0.00     0.029 A 
ATOM     41  N   UNL A   1      43.763  27.218  27.695  1.00  0.00    -0.354 N 
ATOM     42  C   UNL A   1      40.142  28.666  29.566  1.00  0.00     0.074 A 
ATOM     43  C   UNL A   1      39.103  27.660  29.542  1.00  0.00     0.031 C 
ATOM     44  C   UNL A   1      45.021  25.778  26.535  1.00  0.00     0.029 A 
ATOM     45  C   UNL A   1      44.984  27.135  27.068  1.00  0.00     0.049 A 
ATOM     46  H   UNL A   1      43.467  28.013  28.196  1.00  0.00     0.167 HD
ATOM     47  C   UNL A   1      39.994  29.903  30.096  1.00  0.00     0.034 A 
ATOM     48  C   UNL A   1      45.957  28.056  26.918  1.00  0.00     0.034 A 
ATOM     49  C   UNL A   1      41.043  30.885  30.147  1.00  0.00     0.049 A 
ATOM     50  C   UNL A   1      45.771  29.419  27.527  1.00  0.00     0.074 A 
ATOM     51  C   UNL A   1      41.024  32.133  30.743  1.00  0.00     0.029 A 
ATOM     52  N   UNL A   1      42.294  30.738  29.568  1.00  0.00    -0.354 N 
ATOM     53  N   UNL A   1      44.755  29.883  28.214  1.00  0.00    -0.248 NA
ATOM     54  C   UNL A   1      46.874  30.376  27.365  1.00  0.00     0.031 C 
ATOM     55  C   UNL A   1      42.250  32.755  30.493  1.00  0.00     0.029 A 
ATOM     56  C   UNL A   1      43.048  31.880  29.773  1.00  0.00     0.049 A 
ATOM     57  H   UNL A   1      42.601  29.939  29.081  1.00  0.00     0.167 HD
ATOM     58  C   UNL A   1      45.110  31.171  28.594  1.00  0.00     0.074 A 
ATOM     59  C   UNL A   1      46.443  31.407  28.079  1.00  0.00     0.031 C 
ATOM     60  C   UNL A   1      44.391  32.083  29.295  1.00  0.00     0.034 A 
BRANCH  47  61
ATOM     61  C   UNL A   1      38.660  30.253  30.701  1.00  0.00     0.023 A 
ATOM     62  C   UNL A   1      38.391  29.915  32.044  1.00  0.00     0.012 A 
ATOM     63  C   UNL A   1      37.696  30.970  29.964  1.00  0.00     0.148 A 
ATOM     64  C   UNL A   1      37.173  30.252  32.632  1.00  0.00     0.002 A 
ATOM     65  C   UNL A   1      36.503  31.344  30.572  1.00  0.00     0.091 A 
ATOM     66  F   UNL A   1      37.961  31.267  28.684  1.00  0.00    -0.205 F 
ATOM     67  C   UNL A   1      36.234  30.975  31.900  1.00  0.00     0.022 A 
BRANCH  65  68
ATOM     68  S   UNL A   1      35.264  32.346  29.743  1.00  0.00     0.127 S 
ATOM     69  O   UNL A   1      36.051  33.511  29.339  1.00  0.00    -0.237 OA
ATOM     70  O   UNL A   1      34.852  31.476  28.642  1.00  0.00    -0.237 OA
ATOM     71  O   UNL A   1      34.228  32.607  30.734  1.00  0.00    -0.744 OA
ENDBRANCH  65  68
ENDBRANCH  47  61
BRANCH  48  72
ATOM     72  C   UNL A   1      47.211  27.704  26.194  1.00  0.00     0.023 A 
ATOM     73  C   UNL A   1      48.294  27.159  26.910  1.00  0.00     0.012 A 
ATOM     74  C   UNL A   1      47.328  27.881  24.802  1.00  0.00     0.148 A 
ATOM     75  C   UNL A   1      49.482  26.827  26.258  1.00  0.00     0.002 A 
ATOM     76  C   UNL A   1      48.493  27.494  24.151  1.00  0.00     0.091 A 
ATOM     77  F   UNL A   1      46.289  28.411  24.140  1.00  0.00    -0.205 F 
ATOM     78  C   UNL A   1      49.579  26.985  24.879  1.00  0.00     0.022 A 
BRANCH  76  79
ATOM     79  S   UNL A   1      48.656  27.535  22.363  1.00  0.00     0.127 S 
ATOM     80  O   UNL A   1      48.600  26.116  22.025  1.00  0.00    -0.237 OA
ATOM     81  O   UNL A   1      47.479  28.311  21.973  1.00  0.00    -0.237 OA
ATOM     82  O   UNL A   1      49.926  28.198  22.099  1.00  0.00    -0.744 OA
ENDBRANCH  76  79
ENDBRANCH  48  72
BRANCH  60  83
ATOM     83  C   UNL A   1      45.037  33.412  29.585  1.00  0.00     0.023 A 
ATOM     84  C   UNL A   1      45.795  33.583  30.761  1.00  0.00     0.012 A 
ATOM     85  C   UNL A   1      44.967  34.461  28.648  1.00  0.00     0.148 A 
ATOM     86  C   UNL A   1      46.450  34.787  31.012  1.00  0.00     0.002 A 
ATOM     87  C   UNL A   1      45.666  35.640  28.879  1.00  0.00     0.091 A 
ATOM     88  F   UNL A   1      44.228  34.282  27.543  1.00  0.00    -0.205 F 
ATOM     89  C   UNL A   1      46.397  35.809  30.066  1.00  0.00     0.022 A 
BRANCH  87  90
ATOM     90  S   UNL A   1      45.738  36.973  27.678  1.00  0.00     0.127 S 
ATOM     91  O   UNL A   1      46.580  37.950  28.366  1.00  0.00    -0.237 OA
ATOM     92  O   UNL A   1      46.372  36.320  26.532  1.00  0.00    -0.237 OA
ATOM     93  O   UNL A   1      44.360  37.390  27.453  1.00  0.00    -0.744 OA
ENDBRANCH  87  90
ENDBRANCH  60  83
ENDBRANCH  34  35
ENDBRANCH  26  29
ENDBRANCH  24  25
ENDBRANCH  23  24
ENDBRANCH   1  23
TORSDOF 18
ENDMDL
