MODEL 1
REMARK VINA RESULT:     -12.3      0.000      0.000
REMARK SMILES O=C(NCCCNC(=O)[C@H]1CCCCN1S(=O)(=O)c1cc[nH]c1)c1ccc(-c2c3nc(c(-c4cccc(S(=O)(=O)[O-])c4F)c4ccc([nH]4)c(-c4cccc(S(=O)(=O)[O-])c4F)c4nc(c(-c5cccc(S(=O)(=O)[O-])c5F)c5ccc2[nH]5)C=C4)C=C3)cc1
REMARK SMILES IDX 4 1 3 2 1 3 2 4 24 6 25 7 86 8 26 9 85 10 27 11 28 12 29 13
REMARK SMILES IDX 79 14 30 15 84 16 78 17 80 18 31 19 83 20 77 21 76 22 32 24
REMARK SMILES IDX 64 25 44 26 63 27 45 28 48 29 62 30 81 31 46 32 47 33 61 35
REMARK SMILES IDX 82 36 49 37 33 38 34 39 42 40 35 41 37 42 43 43 36 44 38 45
REMARK SMILES IDX 39 46 40 47 41 48 65 49 66 50 74 51 67 52 69 53 75 54 68 55
REMARK SMILES IDX 70 56 71 57 72 58 73 59 50 60 51 61 59 62 52 63 54 64 60 65
REMARK SMILES IDX 53 66 55 67 56 68 57 69 58 70 5 71 6 72 7 73 8 74 9 76 10 77
REMARK SMILES IDX 11 78 15 79 12 80 14 81 13 82 16 83 17 84 18 85 19 86 20 87
REMARK SMILES IDX 23 88 21 89 22 90
REMARK H PARENT 3 5 80 23 48 34 7 75 22 91
REMARK Flexibility Score: inf
ROOT
ATOM      1  C   UNL A   1      37.261  24.132  25.841  1.00  0.00     0.118 C 
ENDROOT
BRANCH   1   2
ATOM      2  N   UNL A   1      38.649  23.714  25.946  1.00  0.00    -0.352 N 
ATOM      3  O   UNL A   1      40.763  23.480  26.561  1.00  0.00    -0.269 OA
ATOM      4  C   UNL A   1      39.739  24.159  26.655  1.00  0.00     0.251 C 
ATOM      5  H   UNL A   1      38.856  22.935  25.381  1.00  0.00     0.163 HD
BRANCH   4   6
ATOM      6  C   UNL A   1      39.767  25.427  27.435  1.00  0.00     0.039 A 
ATOM      7  C   UNL A   1      39.312  25.546  28.747  1.00  0.00     0.014 A 
ATOM      8  C   UNL A   1      40.292  26.568  26.797  1.00  0.00     0.014 A 
ATOM      9  C   UNL A   1      39.253  26.789  29.363  1.00  0.00     0.010 A 
ATOM     10  C   UNL A   1      40.284  27.815  27.428  1.00  0.00     0.010 A 
ATOM     11  C   UNL A   1      39.741  27.926  28.708  1.00  0.00    -0.014 A 
BRANCH  11  12
ATOM     12  C   UNL A   1      39.882  29.148  29.538  1.00  0.00     0.031 A 
ATOM     13  C   UNL A   1      38.664  30.082  29.289  1.00  0.00     0.074 A 
ATOM     14  C   UNL A   1      41.061  29.304  30.223  1.00  0.00     0.049 A 
ATOM     15  N   UNL A   1      38.608  31.369  29.106  1.00  0.00    -0.248 NA
ATOM     16  C   UNL A   1      37.325  29.465  29.052  1.00  0.00     0.031 C 
ATOM     17  C   UNL A   1      42.087  28.250  30.415  1.00  0.00     0.029 A 
ATOM     18  N   UNL A   1      41.655  30.359  30.893  1.00  0.00    -0.354 N 
ATOM     19  C   UNL A   1      37.234  31.722  28.999  1.00  0.00     0.074 A 
ATOM     20  C   UNL A   1      36.523  30.501  28.795  1.00  0.00     0.031 C 
ATOM     21  C   UNL A   1      43.182  28.735  31.051  1.00  0.00     0.029 A 
ATOM     22  C   UNL A   1      42.988  30.144  31.348  1.00  0.00     0.049 A 
ATOM     23  H   UNL A   1      41.183  31.209  31.047  1.00  0.00     0.167 HD
ATOM     24  C   UNL A   1      36.756  32.978  29.256  1.00  0.00     0.034 A 
ATOM     25  C   UNL A   1      43.879  31.049  31.881  1.00  0.00     0.034 A 
ATOM     26  C   UNL A   1      37.842  33.810  29.655  1.00  0.00     0.049 A 
ATOM     27  C   UNL A   1      43.099  32.278  32.043  1.00  0.00     0.074 A 
ATOM     28  C   UNL A   1      38.875  34.384  28.964  1.00  0.00     0.029 A 
ATOM     29  N   UNL A   1      38.132  33.782  30.998  1.00  0.00    -0.354 N 
ATOM     30  N   UNL A   1      42.194  32.455  32.956  1.00  0.00    -0.248 NA
ATOM     31  C   UNL A   1      43.258  33.352  31.055  1.00  0.00     0.031 C 
ATOM     32  C   UNL A   1      39.958  34.238  29.851  1.00  0.00     0.029 A 
ATOM     33  C   UNL A   1      39.495  33.832  31.111  1.00  0.00     0.049 A 
ATOM     34  H   UNL A   1      37.484  33.735  31.737  1.00  0.00     0.167 HD
ATOM     35  C   UNL A   1      41.443  33.462  32.411  1.00  0.00     0.074 A 
ATOM     36  C   UNL A   1      42.309  34.173  31.495  1.00  0.00     0.031 C 
ATOM     37  C   UNL A   1      40.096  33.311  32.314  1.00  0.00     0.034 A 
BRANCH  24  38
ATOM     38  C   UNL A   1      35.378  33.575  29.463  1.00  0.00     0.023 A 
ATOM     39  C   UNL A   1      34.649  33.860  28.269  1.00  0.00     0.012 A 
ATOM     40  C   UNL A   1      34.891  34.136  30.655  1.00  0.00     0.148 A 
ATOM     41  C   UNL A   1      33.580  34.753  28.232  1.00  0.00     0.002 A 
ATOM     42  C   UNL A   1      33.786  34.995  30.620  1.00  0.00     0.091 A 
ATOM     43  F   UNL A   1      35.539  33.907  31.801  1.00  0.00    -0.205 F 
ATOM     44  C   UNL A   1      33.158  35.334  29.410  1.00  0.00     0.022 A 
BRANCH  42  45
ATOM     45  S   UNL A   1      33.088  35.759  32.091  1.00  0.00     0.127 S 
ATOM     46  O   UNL A   1      32.084  36.654  31.521  1.00  0.00    -0.237 OA
ATOM     47  O   UNL A   1      32.535  34.599  32.795  1.00  0.00    -0.237 OA
ATOM     48  O   UNL A   1      34.206  36.392  32.777  1.00  0.00    -0.744 OA
ENDBRANCH  42  45
ENDBRANCH  24  38
BRANCH  25  49
ATOM     49  C   UNL A   1      45.356  31.163  32.240  1.00  0.00     0.023 A 
ATOM     50  C   UNL A   1      45.846  31.627  33.468  1.00  0.00     0.012 A 
ATOM     51  C   UNL A   1      46.357  30.699  31.318  1.00  0.00     0.148 A 
ATOM     52  C   UNL A   1      47.222  31.544  33.786  1.00  0.00     0.002 A 
ATOM     53  C   UNL A   1      47.686  30.499  31.679  1.00  0.00     0.091 A 
ATOM     54  F   UNL A   1      46.034  30.475  30.040  1.00  0.00    -0.205 F 
ATOM     55  C   UNL A   1      48.132  30.937  32.918  1.00  0.00     0.022 A 
BRANCH  53  56
ATOM     56  S   UNL A   1      48.827  29.551  30.643  1.00  0.00     0.127 S 
ATOM     57  O   UNL A   1      50.023  29.474  31.480  1.00  0.00    -0.237 OA
ATOM     58  O   UNL A   1      48.102  28.290  30.492  1.00  0.00    -0.237 OA
ATOM     59  O   UNL A   1      48.991  30.307  29.407  1.00  0.00    -0.744 OA
ENDBRANCH  53  56
ENDBRANCH  25  49
BRANCH  37  60
ATOM     60  C   UNL A   1      39.483  32.330  33.320  1.00  0.00     0.023 A 
ATOM     61  C   UNL A   1      39.040  31.089  32.819  1.00  0.00     0.012 A 
ATOM     62  C   UNL A   1      39.204  32.601  34.683  1.00  0.00     0.148 A 
ATOM     63  C   UNL A   1      38.340  30.176  33.614  1.00  0.00     0.002 A 
ATOM     64  C   UNL A   1      38.484  31.699  35.476  1.00  0.00     0.091 A 
ATOM     65  F   UNL A   1      39.646  33.738  35.209  1.00  0.00    -0.205 F 
ATOM     66  C   UNL A   1      38.057  30.480  34.940  1.00  0.00     0.022 A 
BRANCH  64  67
ATOM     67  S   UNL A   1      37.975  32.040  37.179  1.00  0.00     0.127 S 
ATOM     68  O   UNL A   1      39.245  32.388  37.824  1.00  0.00    -0.237 OA
ATOM     69  O   UNL A   1      37.066  33.169  37.008  1.00  0.00    -0.237 OA
ATOM     70  O   UNL A   1      37.373  30.813  37.688  1.00  0.00    -0.744 OA
ENDBRANCH  64  67
ENDBRANCH  37  60
ENDBRANCH  11  12
ENDBRANCH   4   6
ENDBRANCH   1   2
BRANCH   1  71
ATOM     71  C   UNL A   1      36.226  23.080  26.235  1.00  0.00     0.042 C 
BRANCH  71  72
ATOM     72  C   UNL A   1      34.785  23.567  26.160  1.00  0.00     0.117 C 
BRANCH  72  73
ATOM     73  N   UNL A   1      34.613  24.627  25.177  1.00  0.00    -0.355 N 
ATOM     74  C   UNL A   1      33.979  25.822  25.117  1.00  0.00     0.238 C 
ATOM     75  H   UNL A   1      35.079  24.420  24.335  1.00  0.00     0.163 HD
ATOM     76  O   UNL A   1      33.988  26.313  23.980  1.00  0.00    -0.273 OA
BRANCH  74  77
ATOM     77  C   UNL A   1      33.283  26.586  26.275  1.00  0.00     0.162 C 
ATOM     78  C   UNL A   1      33.730  28.008  26.626  1.00  0.00     0.030 C 
ATOM     79  N   UNL A   1      31.775  26.653  26.125  1.00  0.00    -0.185 NA
ATOM     80  C   UNL A   1      33.310  29.028  25.563  1.00  0.00     0.004 C 
ATOM     81  C   UNL A   1      31.363  27.538  25.012  1.00  0.00     0.103 C 
ATOM     82  C   UNL A   1      31.811  28.964  25.317  1.00  0.00     0.017 C 
BRANCH  79  83
ATOM     83  S   UNL A   1      30.929  25.181  26.267  1.00  0.00     0.245 S 
ATOM     84  O   UNL A   1      31.578  24.323  27.224  1.00  0.00    -0.207 OA
ATOM     85  O   UNL A   1      29.503  25.467  26.294  1.00  0.00    -0.207 OA
BRANCH  83  86
ATOM     86  C   UNL A   1      31.138  24.291  24.780  1.00  0.00     0.100 A 
ATOM     87  C   UNL A   1      31.619  22.955  24.697  1.00  0.00     0.041 A 
ATOM     88  C   UNL A   1      30.835  24.692  23.493  1.00  0.00     0.104 A 
ATOM     89  C   UNL A   1      31.638  22.601  23.367  1.00  0.00     0.083 A 
ATOM     90  N   UNL A   1      31.142  23.657  22.645  1.00  0.00    -0.366 N 
ATOM     91  H   UNL A   1      31.024  23.670  21.668  1.00  0.00     0.165 HD
ENDBRANCH  83  86
ENDBRANCH  79  83
ENDBRANCH  74  77
ENDBRANCH  72  73
ENDBRANCH  71  72
ENDBRANCH   1  71
TORSDOF 15
ENDMDL
MODEL 2
REMARK VINA RESULT:     -12.2      4.530      9.850
REMARK SMILES O=C(NCCCNC(=O)[C@H]1CCCCN1S(=O)(=O)c1cc[nH]c1)c1ccc(-c2c3nc(c(-c4cccc(S(=O)(=O)[O-])c4F)c4ccc([nH]4)c(-c4cccc(S(=O)(=O)[O-])c4F)c4nc(c(-c5cccc(S(=O)(=O)[O-])c5F)c5ccc2[nH]5)C=C4)C=C3)cc1
REMARK SMILES IDX 4 1 3 2 1 3 2 4 24 6 25 7 86 8 26 9 85 10 27 11 28 12 29 13
REMARK SMILES IDX 79 14 30 15 84 16 78 17 80 18 31 19 83 20 77 21 76 22 32 24
REMARK SMILES IDX 64 25 44 26 63 27 45 28 48 29 62 30 81 31 46 32 47 33 61 35
REMARK SMILES IDX 82 36 49 37 33 38 34 39 42 40 35 41 37 42 43 43 36 44 38 45
REMARK SMILES IDX 39 46 40 47 41 48 65 49 66 50 74 51 67 52 69 53 75 54 68 55
REMARK SMILES IDX 70 56 71 57 72 58 73 59 50 60 51 61 59 62 52 63 54 64 60 65
REMARK SMILES IDX 53 66 55 67 56 68 57 69 58 70 5 71 6 72 7 73 8 74 9 76 10 77
REMARK SMILES IDX 11 78 15 79 12 80 14 81 13 82 16 83 17 84 18 85 19 86 20 87
REMARK SMILES IDX 23 88 21 89 22 90
REMARK H PARENT 3 5 80 23 48 34 7 75 22 91
REMARK Flexibility Score: inf
ROOT
ATOM      1  C   UNL A   1      34.583  28.469  26.938  1.00  0.00     0.118 C 
ENDROOT
BRANCH   1   2
ATOM      2  N   UNL A   1      34.761  29.593  27.843  1.00  0.00    -0.352 N 
ATOM      3  O   UNL A   1      35.619  31.187  29.116  1.00  0.00    -0.269 OA
ATOM      4  C   UNL A   1      35.840  30.155  28.480  1.00  0.00     0.251 C 
ATOM      5  H   UNL A   1      33.916  30.055  28.045  1.00  0.00     0.163 HD
BRANCH   4   6
ATOM      6  C   UNL A   1      37.200  29.551  28.511  1.00  0.00     0.039 A 
ATOM      7  C   UNL A   1      38.141  29.695  27.493  1.00  0.00     0.014 A 
ATOM      8  C   UNL A   1      37.546  28.792  29.647  1.00  0.00     0.014 A 
ATOM      9  C   UNL A   1      39.341  28.996  27.537  1.00  0.00     0.010 A 
ATOM     10  C   UNL A   1      38.772  28.125  29.723  1.00  0.00     0.010 A 
ATOM     11  C   UNL A   1      39.661  28.212  28.652  1.00  0.00    -0.014 A 
BRANCH  11  12
ATOM     12  C   UNL A   1      41.061  27.725  28.727  1.00  0.00     0.031 A 
ATOM     13  C   UNL A   1      41.107  26.227  28.313  1.00  0.00     0.074 A 
ATOM     14  C   UNL A   1      41.991  28.581  29.261  1.00  0.00     0.049 A 
ATOM     15  N   UNL A   1      41.737  25.220  28.846  1.00  0.00    -0.248 NA
ATOM     16  C   UNL A   1      40.185  25.753  27.238  1.00  0.00     0.031 C 
ATOM     17  C   UNL A   1      41.777  30.025  29.523  1.00  0.00     0.029 A 
ATOM     18  N   UNL A   1      43.295  28.436  29.700  1.00  0.00    -0.354 N 
ATOM     19  C   UNL A   1      41.493  24.086  28.023  1.00  0.00     0.074 A 
ATOM     20  C   UNL A   1      40.402  24.436  27.172  1.00  0.00     0.031 C 
ATOM     21  C   UNL A   1      42.847  30.581  30.142  1.00  0.00     0.029 A 
ATOM     22  C   UNL A   1      43.871  29.570  30.344  1.00  0.00     0.049 A 
ATOM     23  H   UNL A   1      43.796  27.598  29.574  1.00  0.00     0.167 HD
ATOM     24  C   UNL A   1      42.316  22.993  27.982  1.00  0.00     0.034 A 
ATOM     25  C   UNL A   1      45.064  29.667  31.025  1.00  0.00     0.034 A 
ATOM     26  C   UNL A   1      43.418  23.216  28.857  1.00  0.00     0.049 A 
ATOM     27  C   UNL A   1      45.717  28.373  30.806  1.00  0.00     0.074 A 
ATOM     28  C   UNL A   1      43.538  23.209  30.221  1.00  0.00     0.029 A 
ATOM     29  N   UNL A   1      44.481  23.880  28.294  1.00  0.00    -0.354 N 
ATOM     30  N   UNL A   1      46.254  28.007  29.683  1.00  0.00    -0.248 NA
ATOM     31  C   UNL A   1      45.678  27.371  31.878  1.00  0.00     0.031 C 
ATOM     32  C   UNL A   1      44.409  24.289  30.458  1.00  0.00     0.029 A 
ATOM     33  C   UNL A   1      44.972  24.727  29.251  1.00  0.00     0.049 A 
ATOM     34  H   UNL A   1      44.824  23.769  27.378  1.00  0.00     0.167 HD
ATOM     35  C   UNL A   1      46.253  26.642  29.809  1.00  0.00     0.074 A 
ATOM     36  C   UNL A   1      46.243  26.359  31.227  1.00  0.00     0.031 C 
ATOM     37  C   UNL A   1      45.717  25.883  28.817  1.00  0.00     0.034 A 
BRANCH  24  38
ATOM     38  C   UNL A   1      42.452  21.792  27.067  1.00  0.00     0.023 A 
ATOM     39  C   UNL A   1      41.727  20.630  27.471  1.00  0.00     0.012 A 
ATOM     40  C   UNL A   1      43.425  21.620  26.069  1.00  0.00     0.148 A 
ATOM     41  C   UNL A   1      42.034  19.351  27.011  1.00  0.00     0.002 A 
ATOM     42  C   UNL A   1      43.697  20.339  25.574  1.00  0.00     0.091 A 
ATOM     43  F   UNL A   1      44.137  22.674  25.658  1.00  0.00    -0.205 F 
ATOM     44  C   UNL A   1      43.034  19.204  26.071  1.00  0.00     0.022 A 
BRANCH  42  45
ATOM     45  S   UNL A   1      44.920  20.018  24.295  1.00  0.00     0.127 S 
ATOM     46  O   UNL A   1      46.174  20.226  25.017  1.00  0.00    -0.237 OA
ATOM     47  O   UNL A   1      44.640  18.620  23.959  1.00  0.00    -0.237 OA
ATOM     48  O   UNL A   1      44.628  20.958  23.223  1.00  0.00    -0.744 OA
ENDBRANCH  42  45
ENDBRANCH  24  38
BRANCH  25  49
ATOM     49  C   UNL A   1      45.809  30.623  31.949  1.00  0.00     0.023 A 
ATOM     50  C   UNL A   1      45.398  30.964  33.244  1.00  0.00     0.012 A 
ATOM     51  C   UNL A   1      47.071  31.179  31.541  1.00  0.00     0.148 A 
ATOM     52  C   UNL A   1      46.230  31.724  34.100  1.00  0.00     0.002 A 
ATOM     53  C   UNL A   1      47.940  31.813  32.423  1.00  0.00     0.091 A 
ATOM     54  F   UNL A   1      47.437  31.131  30.256  1.00  0.00    -0.205 F 
ATOM     55  C   UNL A   1      47.516  32.105  33.712  1.00  0.00     0.022 A 
BRANCH  53  56
ATOM     56  S   UNL A   1      49.666  32.145  31.993  1.00  0.00     0.127 S 
ATOM     57  O   UNL A   1      50.207  32.673  33.245  1.00  0.00    -0.237 OA
ATOM     58  O   UNL A   1      50.139  30.807  31.638  1.00  0.00    -0.237 OA
ATOM     59  O   UNL A   1      49.644  33.093  30.886  1.00  0.00    -0.744 OA
ENDBRANCH  53  56
ENDBRANCH  25  49
BRANCH  37  60
ATOM     60  C   UNL A   1      45.700  26.545  27.435  1.00  0.00     0.023 A 
ATOM     61  C   UNL A   1      44.447  26.949  26.931  1.00  0.00     0.012 A 
ATOM     62  C   UNL A   1      46.808  26.675  26.561  1.00  0.00     0.148 A 
ATOM     63  C   UNL A   1      44.293  27.435  25.628  1.00  0.00     0.002 A 
ATOM     64  C   UNL A   1      46.654  27.138  25.248  1.00  0.00     0.091 A 
ATOM     65  F   UNL A   1      48.015  26.350  27.010  1.00  0.00    -0.205 F 
ATOM     66  C   UNL A   1      45.393  27.526  24.784  1.00  0.00     0.022 A 
BRANCH  64  67
ATOM     67  S   UNL A   1      47.998  27.199  24.038  1.00  0.00     0.127 S 
ATOM     68  O   UNL A   1      47.402  27.968  22.942  1.00  0.00    -0.237 OA
ATOM     69  O   UNL A   1      49.038  27.917  24.770  1.00  0.00    -0.237 OA
ATOM     70  O   UNL A   1      48.308  25.818  23.687  1.00  0.00    -0.744 OA
ENDBRANCH  64  67
ENDBRANCH  37  60
ENDBRANCH  11  12
ENDBRANCH   4   6
ENDBRANCH   1   2
BRANCH   1  71
ATOM     71  C   UNL A   1      33.441  28.609  25.933  1.00  0.00     0.042 C 
BRANCH  71  72
ATOM     72  C   UNL A   1      33.646  27.821  24.646  1.00  0.00     0.117 C 
BRANCH  72  73
ATOM     73  N   UNL A   1      32.480  27.024  24.297  1.00  0.00    -0.355 N 
ATOM     74  C   UNL A   1      31.990  25.803  24.615  1.00  0.00     0.238 C 
ATOM     75  H   UNL A   1      31.894  27.497  23.663  1.00  0.00     0.163 HD
ATOM     76  O   UNL A   1      31.010  25.485  23.926  1.00  0.00    -0.273 OA
BRANCH  74  77
ATOM     77  C   UNL A   1      32.513  24.823  25.698  1.00  0.00     0.162 C 
ATOM     78  C   UNL A   1      31.579  24.356  26.818  1.00  0.00     0.030 C 
ATOM     79  N   UNL A   1      33.124  23.562  25.119  1.00  0.00    -0.185 NA
ATOM     80  C   UNL A   1      30.506  23.386  26.313  1.00  0.00     0.004 C 
ATOM     81  C   UNL A   1      32.105  22.676  24.511  1.00  0.00     0.103 C 
ATOM     82  C   UNL A   1      31.141  22.206  25.595  1.00  0.00     0.017 C 
BRANCH  79  83
ATOM     83  S   UNL A   1      34.575  23.750  24.245  1.00  0.00     0.245 S 
ATOM     84  O   UNL A   1      34.321  23.656  22.831  1.00  0.00    -0.207 OA
ATOM     85  O   UNL A   1      35.340  24.831  24.846  1.00  0.00    -0.207 OA
BRANCH  83  86
ATOM     86  C   UNL A   1      35.566  22.342  24.532  1.00  0.00     0.100 A 
ATOM     87  C   UNL A   1      36.947  22.245  24.204  1.00  0.00     0.041 A 
ATOM     88  C   UNL A   1      35.212  21.157  25.147  1.00  0.00     0.104 A 
ATOM     89  C   UNL A   1      37.377  20.994  24.584  1.00  0.00     0.083 A 
ATOM     90  N   UNL A   1      36.320  20.347  25.172  1.00  0.00    -0.366 N 
ATOM     91  H   UNL A   1      36.352  19.441  25.556  1.00  0.00     0.165 HD
ENDBRANCH  83  86
ENDBRANCH  79  83
ENDBRANCH  74  77
ENDBRANCH  72  73
ENDBRANCH  71  72
ENDBRANCH   1  71
TORSDOF 15
ENDMDL
MODEL 3
REMARK VINA RESULT:     -12.2      1.023      2.102
REMARK SMILES O=C(NCCCNC(=O)[C@H]1CCCCN1S(=O)(=O)c1cc[nH]c1)c1ccc(-c2c3nc(c(-c4cccc(S(=O)(=O)[O-])c4F)c4ccc([nH]4)c(-c4cccc(S(=O)(=O)[O-])c4F)c4nc(c(-c5cccc(S(=O)(=O)[O-])c5F)c5ccc2[nH]5)C=C4)C=C3)cc1
REMARK SMILES IDX 4 1 3 2 1 3 2 4 24 6 25 7 86 8 26 9 85 10 27 11 28 12 29 13
REMARK SMILES IDX 79 14 30 15 84 16 78 17 80 18 31 19 83 20 77 21 76 22 32 24
REMARK SMILES IDX 64 25 44 26 63 27 45 28 48 29 62 30 81 31 46 32 47 33 61 35
REMARK SMILES IDX 82 36 49 37 33 38 34 39 42 40 35 41 37 42 43 43 36 44 38 45
REMARK SMILES IDX 39 46 40 47 41 48 65 49 66 50 74 51 67 52 69 53 75 54 68 55
REMARK SMILES IDX 70 56 71 57 72 58 73 59 50 60 51 61 59 62 52 63 54 64 60 65
REMARK SMILES IDX 53 66 55 67 56 68 57 69 58 70 5 71 6 72 7 73 8 74 9 76 10 77
REMARK SMILES IDX 11 78 15 79 12 80 14 81 13 82 16 83 17 84 18 85 19 86 20 87
REMARK SMILES IDX 23 88 21 89 22 90
REMARK H PARENT 3 5 80 23 48 34 7 75 22 91
REMARK Flexibility Score: inf
ROOT
ATOM      1  C   UNL A   1      37.113  24.154  26.094  1.00  0.00     0.118 C 
ENDROOT
BRANCH   1   2
ATOM      2  N   UNL A   1      38.521  23.793  26.057  1.00  0.00    -0.352 N 
ATOM      3  O   UNL A   1      40.692  23.640  26.460  1.00  0.00    -0.269 OA
ATOM      4  C   UNL A   1      39.656  24.274  26.664  1.00  0.00     0.251 C 
ATOM      5  H   UNL A   1      38.703  23.031  25.462  1.00  0.00     0.163 HD
BRANCH   4   6
ATOM      6  C   UNL A   1      39.708  25.532  27.458  1.00  0.00     0.039 A 
ATOM      7  C   UNL A   1      39.290  25.636  28.784  1.00  0.00     0.014 A 
ATOM      8  C   UNL A   1      40.218  26.680  26.820  1.00  0.00     0.014 A 
ATOM      9  C   UNL A   1      39.252  26.872  29.417  1.00  0.00     0.010 A 
ATOM     10  C   UNL A   1      40.230  27.919  27.467  1.00  0.00     0.010 A 
ATOM     11  C   UNL A   1      39.724  28.016  28.763  1.00  0.00    -0.014 A 
BRANCH  11  12
ATOM     12  C   UNL A   1      39.891  29.227  29.603  1.00  0.00     0.031 A 
ATOM     13  C   UNL A   1      38.698  30.194  29.354  1.00  0.00     0.074 A 
ATOM     14  C   UNL A   1      41.068  29.347  30.297  1.00  0.00     0.049 A 
ATOM     15  N   UNL A   1      38.678  31.484  29.180  1.00  0.00    -0.248 NA
ATOM     16  C   UNL A   1      37.346  29.613  29.102  1.00  0.00     0.031 C 
ATOM     17  C   UNL A   1      42.065  28.265  30.488  1.00  0.00     0.029 A 
ATOM     18  N   UNL A   1      41.684  30.380  30.980  1.00  0.00    -0.354 N 
ATOM     19  C   UNL A   1      37.314  31.873  29.067  1.00  0.00     0.074 A 
ATOM     20  C   UNL A   1      36.573  30.673  28.848  1.00  0.00     0.031 C 
ATOM     21  C   UNL A   1      43.167  28.716  31.136  1.00  0.00     0.029 A 
ATOM     22  C   UNL A   1      43.009  30.127  31.442  1.00  0.00     0.049 A 
ATOM     23  H   UNL A   1      41.233  31.241  31.138  1.00  0.00     0.167 HD
ATOM     24  C   UNL A   1      36.867  33.139  29.332  1.00  0.00     0.034 A 
ATOM     25  C   UNL A   1      43.919  31.004  31.989  1.00  0.00     0.034 A 
ATOM     26  C   UNL A   1      37.971  33.939  29.744  1.00  0.00     0.049 A 
ATOM     27  C   UNL A   1      43.170  32.253  32.155  1.00  0.00     0.074 A 
ATOM     28  C   UNL A   1      39.023  34.491  29.065  1.00  0.00     0.029 A 
ATOM     29  N   UNL A   1      38.251  33.893  31.089  1.00  0.00    -0.354 N 
ATOM     30  N   UNL A   1      42.263  32.445  33.064  1.00  0.00    -0.248 NA
ATOM     31  C   UNL A   1      43.363  33.330  31.178  1.00  0.00     0.031 C 
ATOM     32  C   UNL A   1      40.095  34.311  29.959  1.00  0.00     0.029 A 
ATOM     33  C   UNL A   1      39.614  33.907  31.212  1.00  0.00     0.049 A 
ATOM     34  H   UNL A   1      37.597  33.857  31.824  1.00  0.00     0.167 HD
ATOM     35  C   UNL A   1      41.543  33.476  32.522  1.00  0.00     0.074 A 
ATOM     36  C   UNL A   1      42.433  34.171  31.618  1.00  0.00     0.031 C 
ATOM     37  C   UNL A   1      40.193  33.361  32.414  1.00  0.00     0.034 A 
BRANCH  24  38
ATOM     38  C   UNL A   1      35.503  33.769  29.534  1.00  0.00     0.023 A 
ATOM     39  C   UNL A   1      34.877  34.265  28.351  1.00  0.00     0.012 A 
ATOM     40  C   UNL A   1      34.954  34.174  30.762  1.00  0.00     0.148 A 
ATOM     41  C   UNL A   1      33.851  35.208  28.378  1.00  0.00     0.002 A 
ATOM     42  C   UNL A   1      33.891  35.084  30.784  1.00  0.00     0.091 A 
ATOM     43  F   UNL A   1      35.505  33.744  31.901  1.00  0.00    -0.205 F 
ATOM     44  C   UNL A   1      33.368  35.631  29.600  1.00  0.00     0.022 A 
BRANCH  42  45
ATOM     45  S   UNL A   1      33.119  35.659  32.304  1.00  0.00     0.127 S 
ATOM     46  O   UNL A   1      32.110  36.587  31.800  1.00  0.00    -0.237 OA
ATOM     47  O   UNL A   1      32.575  34.412  32.850  1.00  0.00    -0.237 OA
ATOM     48  O   UNL A   1      34.192  36.237  33.099  1.00  0.00    -0.744 OA
ENDBRANCH  42  45
ENDBRANCH  24  38
BRANCH  25  49
ATOM     49  C   UNL A   1      45.396  31.078  32.359  1.00  0.00     0.023 A 
ATOM     50  C   UNL A   1      45.894  31.039  33.667  1.00  0.00     0.012 A 
ATOM     51  C   UNL A   1      46.394  31.107  31.324  1.00  0.00     0.148 A 
ATOM     52  C   UNL A   1      47.283  30.941  33.919  1.00  0.00     0.002 A 
ATOM     53  C   UNL A   1      47.745  30.882  31.568  1.00  0.00     0.091 A 
ATOM     54  F   UNL A   1      46.044  31.398  30.067  1.00  0.00    -0.205 F 
ATOM     55  C   UNL A   1      48.203  30.812  32.877  1.00  0.00     0.022 A 
BRANCH  53  56
ATOM     56  S   UNL A   1      48.913  30.529  30.232  1.00  0.00     0.127 S 
ATOM     57  O   UNL A   1      50.145  30.232  30.961  1.00  0.00    -0.237 OA
ATOM     58  O   UNL A   1      48.285  29.372  29.596  1.00  0.00    -0.237 OA
ATOM     59  O   UNL A   1      48.965  31.724  29.399  1.00  0.00    -0.744 OA
ENDBRANCH  53  56
ENDBRANCH  25  49
BRANCH  37  60
ATOM     60  C   UNL A   1      39.547  32.388  33.408  1.00  0.00     0.023 A 
ATOM     61  C   UNL A   1      39.076  31.163  32.894  1.00  0.00     0.012 A 
ATOM     62  C   UNL A   1      39.266  32.655  34.771  1.00  0.00     0.148 A 
ATOM     63  C   UNL A   1      38.347  30.261  33.677  1.00  0.00     0.002 A 
ATOM     64  C   UNL A   1      38.517  31.766  35.552  1.00  0.00     0.091 A 
ATOM     65  F   UNL A   1      39.733  33.776  35.310  1.00  0.00    -0.205 F 
ATOM     66  C   UNL A   1      38.063  30.562  35.004  1.00  0.00     0.022 A 
BRANCH  64  67
ATOM     67  S   UNL A   1      38.005  32.106  37.254  1.00  0.00     0.127 S 
ATOM     68  O   UNL A   1      37.391  30.838  37.659  1.00  0.00    -0.237 OA
ATOM     69  O   UNL A   1      39.280  32.385  37.909  1.00  0.00    -0.237 OA
ATOM     70  O   UNL A   1      37.067  33.221  37.193  1.00  0.00    -0.744 OA
ENDBRANCH  64  67
ENDBRANCH  37  60
ENDBRANCH  11  12
ENDBRANCH   4   6
ENDBRANCH   1   2
BRANCH   1  71
ATOM     71  C   UNL A   1      36.136  23.017  25.803  1.00  0.00     0.042 C 
BRANCH  71  72
ATOM     72  C   UNL A   1      34.781  23.174  26.481  1.00  0.00     0.117 C 
BRANCH  72  73
ATOM     73  N   UNL A   1      33.676  22.977  25.555  1.00  0.00    -0.355 N 
ATOM     74  C   UNL A   1      33.035  23.711  24.615  1.00  0.00     0.238 C 
ATOM     75  H   UNL A   1      33.294  22.073  25.632  1.00  0.00     0.163 HD
ATOM     76  O   UNL A   1      32.020  23.151  24.178  1.00  0.00    -0.273 OA
BRANCH  74  77
ATOM     77  C   UNL A   1      33.432  25.108  24.069  1.00  0.00     0.162 C 
ATOM     78  C   UNL A   1      33.869  25.259  22.608  1.00  0.00     0.030 C 
ATOM     79  N   UNL A   1      32.365  26.162  24.290  1.00  0.00    -0.185 NA
ATOM     80  C   UNL A   1      32.700  25.096  21.632  1.00  0.00     0.004 C 
ATOM     81  C   UNL A   1      31.173  25.937  23.442  1.00  0.00     0.103 C 
ATOM     82  C   UNL A   1      31.574  26.059  21.975  1.00  0.00     0.017 C 
BRANCH  79  83
ATOM     83  S   UNL A   1      32.064  26.614  25.905  1.00  0.00     0.245 S 
ATOM     84  O   UNL A   1      30.760  26.161  26.315  1.00  0.00    -0.207 OA
ATOM     85  O   UNL A   1      33.269  26.376  26.685  1.00  0.00    -0.207 OA
BRANCH  83  86
ATOM     86  C   UNL A   1      31.881  28.349  25.958  1.00  0.00     0.100 A 
ATOM     87  C   UNL A   1      32.211  29.164  27.076  1.00  0.00     0.041 A 
ATOM     88  C   UNL A   1      31.456  29.195  24.953  1.00  0.00     0.104 A 
ATOM     89  C   UNL A   1      31.935  30.468  26.736  1.00  0.00     0.083 A 
ATOM     90  N   UNL A   1      31.494  30.479  25.437  1.00  0.00    -0.366 N 
ATOM     91  H   UNL A   1      31.244  31.285  24.930  1.00  0.00     0.165 HD
ENDBRANCH  83  86
ENDBRANCH  79  83
ENDBRANCH  74  77
ENDBRANCH  72  73
ENDBRANCH  71  72
ENDBRANCH   1  71
TORSDOF 15
ENDMDL
