MODEL 1
REMARK VINA RESULT:     -11.2      0.000      0.000
REMARK SMILES C=C(C)C[N@H+](C)[C@H](C(=O)NCCCNC(=O)c1ccc(-c2c3nc(c(-c4cccc(S(=O)(=O)[O-])c4F)c4ccc([nH]4)c(-c4cccc(S(=O)(=O)[O-])c4F)c4nc(c(-c5cccc(S(=O)(=O)[O-])c5F)c5ccc2[nH]5)C=C4)C=C3)cc1)c1cc(C)c(OC)c(C)c1
REMARK SMILES IDX 12 1 11 2 10 3 8 4 9 5 7 7 5 8 6 9 4 11 2 12 1 13 3 14 80 15
REMARK SMILES IDX 81 16 89 17 82 18 87 19 83 20 84 21 88 22 85 23 86 24 13 25
REMARK SMILES IDX 14 26 15 27 16 29 17 30 18 31 79 32 19 33 78 34 20 35 21 36
REMARK SMILES IDX 22 37 72 38 23 39 77 40 71 41 73 42 24 43 76 44 70 45 69 46
REMARK SMILES IDX 25 48 57 49 37 50 56 51 38 52 41 53 55 54 74 55 39 56 40 57
REMARK SMILES IDX 54 59 75 60 42 61 26 62 27 63 35 64 28 65 30 66 36 67 29 68
REMARK SMILES IDX 31 69 32 70 33 71 34 72 58 73 59 74 67 75 60 76 62 77 68 78
REMARK SMILES IDX 61 79 63 80 64 81 65 82 66 83 43 84 44 85 52 86 45 87 47 88
REMARK SMILES IDX 53 89 46 90 48 91 49 92 50 93 51 94
REMARK H PARENT 10 6 5 10 14 28 73 47 41 58
REMARK Flexibility Score: inf
ROOT
ATOM      1  C   UNL A   1      31.837  31.585  26.593  1.00  0.00     0.042 C 
ENDROOT
BRANCH   1   2
ATOM      2  C   UNL A   1      32.038  30.089  26.519  1.00  0.00     0.118 C 
BRANCH   2   3
ATOM      3  N   UNL A   1      32.953  29.671  25.479  1.00  0.00    -0.351 N 
ATOM      4  C   UNL A   1      32.867  28.580  24.658  1.00  0.00     0.283 C 
ATOM      5  O   UNL A   1      33.690  28.534  23.731  1.00  0.00    -0.268 OA
ATOM      6  H   UNL A   1      33.740  30.246  25.346  1.00  0.00     0.163 HD
BRANCH   4   7
ATOM      7  C   UNL A   1      31.839  27.419  24.861  1.00  0.00     0.305 C 
BRANCH   7   8
ATOM      8  N   UNL A   1      30.929  27.210  23.674  1.00  0.00    -0.320 N 
ATOM      9  C   UNL A   1      30.540  28.552  23.172  1.00  0.00     0.333 C 
ATOM     10  H   UNL A   1      30.186  26.627  24.058  1.00  0.00     0.349 HD
BRANCH   8  11
ATOM     11  C   UNL A   1      31.404  26.438  22.507  1.00  0.00     0.294 C 
BRANCH  11  12
ATOM     12  C   UNL A   1      31.830  24.967  22.555  1.00  0.00    -0.026 C 
ATOM     13  C   UNL A   1      32.966  24.392  22.131  1.00  0.00     0.013 C 
ATOM     14  C   UNL A   1      30.753  24.027  23.059  1.00  0.00     0.045 C 
ENDBRANCH  11  12
ENDBRANCH   8  11
ENDBRANCH   7   8
BRANCH   7  15
ATOM     15  C   UNL A   1      32.330  26.152  25.564  1.00  0.00     0.020 A 
ATOM     16  C   UNL A   1      31.416  25.288  26.177  1.00  0.00     0.017 A 
ATOM     17  C   UNL A   1      33.679  25.783  25.593  1.00  0.00     0.017 A 
ATOM     18  C   UNL A   1      31.802  24.002  26.603  1.00  0.00    -0.008 A 
ATOM     19  C   UNL A   1      34.089  24.477  25.921  1.00  0.00    -0.008 A 
ATOM     20  C   UNL A   1      30.708  23.091  27.094  1.00  0.00     0.048 C 
ATOM     21  C   UNL A   1      33.133  23.570  26.414  1.00  0.00     0.124 A 
ATOM     22  C   UNL A   1      35.519  24.133  25.603  1.00  0.00     0.048 C 
BRANCH  21  23
ATOM     23  O   UNL A   1      33.393  22.283  26.804  1.00  0.00    -0.496 OA
ATOM     24  C   UNL A   1      33.475  21.292  25.787  1.00  0.00     0.278 C 
ENDBRANCH  21  23
ENDBRANCH   7  15
ENDBRANCH   4   7
ENDBRANCH   2   3
ENDBRANCH   1   2
BRANCH   1  25
ATOM     25  C   UNL A   1      32.942  32.272  27.363  1.00  0.00     0.118 C 
BRANCH  25  26
ATOM     26  N   UNL A   1      32.659  33.685  27.600  1.00  0.00    -0.352 N 
ATOM     27  C   UNL A   1      33.156  34.542  28.554  1.00  0.00     0.251 C 
ATOM     28  H   UNL A   1      32.009  34.088  26.980  1.00  0.00     0.163 HD
ATOM     29  O   UNL A   1      32.630  35.642  28.714  1.00  0.00    -0.269 OA
BRANCH  27  30
ATOM     30  C   UNL A   1      34.297  34.129  29.396  1.00  0.00     0.039 A 
ATOM     31  C   UNL A   1      34.073  33.328  30.518  1.00  0.00     0.014 A 
ATOM     32  C   UNL A   1      35.596  34.510  29.061  1.00  0.00     0.014 A 
ATOM     33  C   UNL A   1      35.162  32.840  31.246  1.00  0.00     0.010 A 
ATOM     34  C   UNL A   1      36.674  33.912  29.694  1.00  0.00     0.010 A 
ATOM     35  C   UNL A   1      36.474  33.086  30.808  1.00  0.00    -0.014 A 
BRANCH  35  36
ATOM     36  C   UNL A   1      37.661  32.516  31.496  1.00  0.00     0.031 A 
ATOM     37  C   UNL A   1      38.415  31.376  30.862  1.00  0.00     0.074 A 
ATOM     38  C   UNL A   1      37.990  32.944  32.732  1.00  0.00     0.049 A 
ATOM     39  N   UNL A   1      39.394  30.662  31.352  1.00  0.00    -0.248 NA
ATOM     40  C   UNL A   1      37.986  30.954  29.516  1.00  0.00     0.031 C 
ATOM     41  C   UNL A   1      37.286  33.983  33.488  1.00  0.00     0.029 A 
ATOM     42  N   UNL A   1      38.985  32.535  33.583  1.00  0.00    -0.354 N 
ATOM     43  C   UNL A   1      39.662  29.683  30.401  1.00  0.00     0.074 A 
ATOM     44  C   UNL A   1      38.711  29.862  29.327  1.00  0.00     0.031 C 
ATOM     45  C   UNL A   1      37.880  34.140  34.682  1.00  0.00     0.029 A 
ATOM     46  C   UNL A   1      38.977  33.186  34.797  1.00  0.00     0.049 A 
ATOM     47  H   UNL A   1      39.645  31.842  33.349  1.00  0.00     0.167 HD
ATOM     48  C   UNL A   1      40.636  28.743  30.399  1.00  0.00     0.034 A 
ATOM     49  C   UNL A   1      39.756  33.021  35.883  1.00  0.00     0.034 A 
ATOM     50  C   UNL A   1      41.616  28.609  31.438  1.00  0.00     0.049 A 
ATOM     51  C   UNL A   1      40.854  31.991  35.842  1.00  0.00     0.074 A 
ATOM     52  C   UNL A   1      42.703  27.755  31.489  1.00  0.00     0.029 A 
ATOM     53  N   UNL A   1      41.628  29.345  32.612  1.00  0.00    -0.354 N 
ATOM     54  N   UNL A   1      41.187  31.180  34.868  1.00  0.00    -0.248 NA
ATOM     55  C   UNL A   1      41.702  31.876  37.037  1.00  0.00     0.031 C 
ATOM     56  C   UNL A   1      43.357  27.956  32.709  1.00  0.00     0.029 A 
ATOM     57  C   UNL A   1      42.695  28.958  33.402  1.00  0.00     0.049 A 
ATOM     58  H   UNL A   1      40.972  30.041  32.850  1.00  0.00     0.167 HD
ATOM     59  C   UNL A   1      42.303  30.483  35.317  1.00  0.00     0.074 A 
ATOM     60  C   UNL A   1      42.602  30.984  36.643  1.00  0.00     0.031 C 
ATOM     61  C   UNL A   1      43.009  29.507  34.695  1.00  0.00     0.034 A 
BRANCH  48  62
ATOM     62  C   UNL A   1      40.724  27.827  29.206  1.00  0.00     0.023 A 
ATOM     63  C   UNL A   1      39.893  26.689  29.136  1.00  0.00     0.012 A 
ATOM     64  C   UNL A   1      41.589  28.116  28.132  1.00  0.00     0.148 A 
ATOM     65  C   UNL A   1      39.949  25.833  28.039  1.00  0.00     0.002 A 
ATOM     66  C   UNL A   1      41.603  27.284  27.018  1.00  0.00     0.091 A 
ATOM     67  F   UNL A   1      42.387  29.189  28.224  1.00  0.00    -0.205 F 
ATOM     68  C   UNL A   1      40.795  26.136  26.977  1.00  0.00     0.022 A 
BRANCH  66  69
ATOM     69  S   UNL A   1      42.595  27.629  25.561  1.00  0.00     0.127 S 
ATOM     70  O   UNL A   1      41.996  28.876  25.086  1.00  0.00    -0.237 OA
ATOM     71  O   UNL A   1      43.934  27.775  26.132  1.00  0.00    -0.237 OA
ATOM     72  O   UNL A   1      42.429  26.483  24.680  1.00  0.00    -0.744 OA
ENDBRANCH  66  69
ENDBRANCH  48  62
BRANCH  49  73
ATOM     73  C   UNL A   1      39.566  33.888  37.081  1.00  0.00     0.023 A 
ATOM     74  C   UNL A   1      40.016  35.223  37.045  1.00  0.00     0.012 A 
ATOM     75  C   UNL A   1      38.932  33.410  38.244  1.00  0.00     0.148 A 
ATOM     76  C   UNL A   1      39.871  36.053  38.157  1.00  0.00     0.002 A 
ATOM     77  C   UNL A   1      38.740  34.258  39.327  1.00  0.00     0.091 A 
ATOM     78  F   UNL A   1      38.520  32.134  38.263  1.00  0.00    -0.205 F 
ATOM     79  C   UNL A   1      39.224  35.575  39.293  1.00  0.00     0.022 A 
BRANCH  77  80
ATOM     80  S   UNL A   1      37.805  33.769  40.780  1.00  0.00     0.127 S 
ATOM     81  O   UNL A   1      38.721  32.830  41.423  1.00  0.00    -0.237 OA
ATOM     82  O   UNL A   1      37.640  35.045  41.477  1.00  0.00    -0.237 OA
ATOM     83  O   UNL A   1      36.564  33.198  40.275  1.00  0.00    -0.744 OA
ENDBRANCH  77  80
ENDBRANCH  49  73
BRANCH  61  84
ATOM     84  C   UNL A   1      44.201  28.935  35.417  1.00  0.00     0.023 A 
ATOM     85  C   UNL A   1      45.473  29.513  35.239  1.00  0.00     0.012 A 
ATOM     86  C   UNL A   1      44.038  27.886  36.343  1.00  0.00     0.148 A 
ATOM     87  C   UNL A   1      46.572  29.036  35.952  1.00  0.00     0.002 A 
ATOM     88  C   UNL A   1      45.127  27.451  37.087  1.00  0.00     0.091 A 
ATOM     89  F   UNL A   1      42.821  27.342  36.485  1.00  0.00    -0.205 F 
ATOM     90  C   UNL A   1      46.397  28.017  36.884  1.00  0.00     0.022 A 
BRANCH  88  91
ATOM     91  S   UNL A   1      44.981  26.214  38.381  1.00  0.00     0.127 S 
ATOM     92  O   UNL A   1      44.525  25.047  37.629  1.00  0.00    -0.237 OA
ATOM     93  O   UNL A   1      46.355  26.123  38.877  1.00  0.00    -0.237 OA
ATOM     94  O   UNL A   1      44.024  26.747  39.342  1.00  0.00    -0.744 OA
ENDBRANCH  88  91
ENDBRANCH  61  84
ENDBRANCH  35  36
ENDBRANCH  27  30
ENDBRANCH  25  26
ENDBRANCH   1  25
TORSDOF 18
ENDMDL
MODEL 2
REMARK VINA RESULT:     -11.2      5.960     11.859
REMARK SMILES C=C(C)C[N@H+](C)[C@H](C(=O)NCCCNC(=O)c1ccc(-c2c3nc(c(-c4cccc(S(=O)(=O)[O-])c4F)c4ccc([nH]4)c(-c4cccc(S(=O)(=O)[O-])c4F)c4nc(c(-c5cccc(S(=O)(=O)[O-])c5F)c5ccc2[nH]5)C=C4)C=C3)cc1)c1cc(C)c(OC)c(C)c1
REMARK SMILES IDX 12 1 11 2 10 3 8 4 9 5 7 7 5 8 6 9 4 11 2 12 1 13 3 14 80 15
REMARK SMILES IDX 81 16 89 17 82 18 87 19 83 20 84 21 88 22 85 23 86 24 13 25
REMARK SMILES IDX 14 26 15 27 16 29 17 30 18 31 79 32 19 33 78 34 20 35 21 36
REMARK SMILES IDX 22 37 72 38 23 39 77 40 71 41 73 42 24 43 76 44 70 45 69 46
REMARK SMILES IDX 25 48 57 49 37 50 56 51 38 52 41 53 55 54 74 55 39 56 40 57
REMARK SMILES IDX 54 59 75 60 42 61 26 62 27 63 35 64 28 65 30 66 36 67 29 68
REMARK SMILES IDX 31 69 32 70 33 71 34 72 58 73 59 74 67 75 60 76 62 77 68 78
REMARK SMILES IDX 61 79 63 80 64 81 65 82 66 83 43 84 44 85 52 86 45 87 47 88
REMARK SMILES IDX 53 89 46 90 48 91 49 92 50 93 51 94
REMARK H PARENT 10 6 5 10 14 28 73 47 41 58
REMARK Flexibility Score: inf
ROOT
ATOM      1  C   UNL A   1      38.191  20.284  25.073  1.00  0.00     0.042 C 
ENDROOT
BRANCH   1   2
ATOM      2  C   UNL A   1      37.377  21.534  24.831  1.00  0.00     0.118 C 
BRANCH   2   3
ATOM      3  N   UNL A   1      36.573  21.939  25.964  1.00  0.00    -0.351 N 
ATOM      4  C   UNL A   1      35.258  22.316  25.984  1.00  0.00     0.283 C 
ATOM      5  O   UNL A   1      34.750  22.453  27.106  1.00  0.00    -0.268 OA
ATOM      6  H   UNL A   1      37.032  21.944  26.834  1.00  0.00     0.163 HD
BRANCH   4   7
ATOM      7  C   UNL A   1      34.419  22.608  24.696  1.00  0.00     0.305 C 
BRANCH   7   8
ATOM      8  N   UNL A   1      33.230  21.691  24.535  1.00  0.00    -0.320 N 
ATOM      9  C   UNL A   1      33.727  20.296  24.647  1.00  0.00     0.333 C 
ATOM     10  H   UNL A   1      32.845  21.973  23.634  1.00  0.00     0.349 HD
BRANCH   8  11
ATOM     11  C   UNL A   1      32.078  21.809  25.453  1.00  0.00     0.294 C 
BRANCH  11  12
ATOM     12  C   UNL A   1      31.131  23.012  25.506  1.00  0.00    -0.026 C 
ATOM     13  C   UNL A   1      30.555  23.600  26.564  1.00  0.00     0.013 C 
ATOM     14  C   UNL A   1      30.709  23.527  24.144  1.00  0.00     0.045 C 
ENDBRANCH  11  12
ENDBRANCH   8  11
ENDBRANCH   7   8
BRANCH   7  15
ATOM     15  C   UNL A   1      34.197  24.071  24.311  1.00  0.00     0.020 A 
ATOM     16  C   UNL A   1      33.859  24.409  22.995  1.00  0.00     0.017 A 
ATOM     17  C   UNL A   1      34.279  25.114  25.239  1.00  0.00     0.017 A 
ATOM     18  C   UNL A   1      33.403  25.701  22.669  1.00  0.00    -0.008 A 
ATOM     19  C   UNL A   1      33.743  26.390  24.979  1.00  0.00    -0.008 A 
ATOM     20  C   UNL A   1      32.906  25.913  21.264  1.00  0.00     0.048 C 
ATOM     21  C   UNL A   1      33.282  26.679  23.682  1.00  0.00     0.124 A 
ATOM     22  C   UNL A   1      33.612  27.307  26.164  1.00  0.00     0.048 C 
BRANCH  21  23
ATOM     23  O   UNL A   1      32.770  27.884  23.275  1.00  0.00    -0.496 OA
ATOM     24  C   UNL A   1      33.694  28.884  22.863  1.00  0.00     0.278 C 
ENDBRANCH  21  23
ENDBRANCH   7  15
ENDBRANCH   4   7
ENDBRANCH   2   3
ENDBRANCH   1   2
BRANCH   1  25
ATOM     25  C   UNL A   1      39.323  20.519  26.047  1.00  0.00     0.118 C 
BRANCH  25  26
ATOM     26  N   UNL A   1      40.280  19.416  26.065  1.00  0.00    -0.352 N 
ATOM     27  C   UNL A   1      41.654  19.434  26.109  1.00  0.00     0.251 C 
ATOM     28  H   UNL A   1      39.878  18.517  26.041  1.00  0.00     0.163 HD
ATOM     29  O   UNL A   1      42.281  18.396  25.904  1.00  0.00    -0.269 OA
BRANCH  27  30
ATOM     30  C   UNL A   1      42.368  20.700  26.374  1.00  0.00     0.039 A 
ATOM     31  C   UNL A   1      42.715  21.534  25.309  1.00  0.00     0.014 A 
ATOM     32  C   UNL A   1      42.673  21.077  27.682  1.00  0.00     0.014 A 
ATOM     33  C   UNL A   1      43.284  22.783  25.568  1.00  0.00     0.010 A 
ATOM     34  C   UNL A   1      43.102  22.370  27.943  1.00  0.00     0.010 A 
ATOM     35  C   UNL A   1      43.434  23.233  26.891  1.00  0.00    -0.014 A 
BRANCH  35  36
ATOM     36  C   UNL A   1      43.952  24.587  27.215  1.00  0.00     0.031 A 
ATOM     37  C   UNL A   1      43.014  25.634  27.760  1.00  0.00     0.074 A 
ATOM     38  C   UNL A   1      45.227  24.908  26.918  1.00  0.00     0.049 A 
ATOM     39  N   UNL A   1      43.236  26.901  27.990  1.00  0.00    -0.248 NA
ATOM     40  C   UNL A   1      41.630  25.211  28.046  1.00  0.00     0.031 C 
ATOM     41  C   UNL A   1      46.210  24.008  26.309  1.00  0.00     0.029 A 
ATOM     42  N   UNL A   1      45.907  26.091  27.060  1.00  0.00    -0.354 N 
ATOM     43  C   UNL A   1      42.017  27.432  28.397  1.00  0.00     0.074 A 
ATOM     44  C   UNL A   1      41.046  26.363  28.336  1.00  0.00     0.031 C 
ATOM     45  C   UNL A   1      47.369  24.666  26.144  1.00  0.00     0.029 A 
ATOM     46  C   UNL A   1      47.202  26.044  26.593  1.00  0.00     0.049 A 
ATOM     47  H   UNL A   1      45.508  26.898  27.459  1.00  0.00     0.167 HD
ATOM     48  C   UNL A   1      41.736  28.685  28.823  1.00  0.00     0.034 A 
ATOM     49  C   UNL A   1      48.141  27.007  26.521  1.00  0.00     0.034 A 
ATOM     50  C   UNL A   1      42.716  29.727  28.940  1.00  0.00     0.049 A 
ATOM     51  C   UNL A   1      47.812  28.384  27.032  1.00  0.00     0.074 A 
ATOM     52  C   UNL A   1      42.558  31.003  29.450  1.00  0.00     0.029 A 
ATOM     53  N   UNL A   1      44.038  29.615  28.539  1.00  0.00    -0.354 N 
ATOM     54  N   UNL A   1      46.695  28.823  27.558  1.00  0.00    -0.248 NA
ATOM     55  C   UNL A   1      48.883  29.389  26.969  1.00  0.00     0.031 C 
ATOM     56  C   UNL A   1      43.780  31.673  29.332  1.00  0.00     0.029 A 
ATOM     57  C   UNL A   1      44.706  30.803  28.777  1.00  0.00     0.049 A 
ATOM     58  H   UNL A   1      44.443  28.810  28.142  1.00  0.00     0.167 HD
ATOM     59  C   UNL A   1      46.937  30.143  27.920  1.00  0.00     0.074 A 
ATOM     60  C   UNL A   1      48.315  30.425  27.574  1.00  0.00     0.031 C 
ATOM     61  C   UNL A   1      46.093  31.047  28.476  1.00  0.00     0.034 A 
BRANCH  48  62
ATOM     62  C   UNL A   1      40.321  28.980  29.250  1.00  0.00     0.023 A 
ATOM     63  C   UNL A   1      39.363  29.352  28.283  1.00  0.00     0.012 A 
ATOM     64  C   UNL A   1      39.926  28.841  30.594  1.00  0.00     0.148 A 
ATOM     65  C   UNL A   1      38.047  29.619  28.652  1.00  0.00     0.002 A 
ATOM     66  C   UNL A   1      38.599  29.061  30.947  1.00  0.00     0.091 A 
ATOM     67  F   UNL A   1      40.853  28.509  31.503  1.00  0.00    -0.205 F 
ATOM     68  C   UNL A   1      37.663  29.463  29.980  1.00  0.00     0.022 A 
BRANCH  66  69
ATOM     69  S   UNL A   1      37.983  28.808  32.615  1.00  0.00     0.127 S 
ATOM     70  O   UNL A   1      36.634  29.365  32.518  1.00  0.00    -0.237 OA
ATOM     71  O   UNL A   1      38.033  27.352  32.741  1.00  0.00    -0.237 OA
ATOM     72  O   UNL A   1      38.893  29.528  33.494  1.00  0.00    -0.744 OA
ENDBRANCH  66  69
ENDBRANCH  48  62
BRANCH  49  73
ATOM     73  C   UNL A   1      49.502  26.690  25.998  1.00  0.00     0.023 A 
ATOM     74  C   UNL A   1      50.389  25.938  26.792  1.00  0.00     0.012 A 
ATOM     75  C   UNL A   1      49.915  27.111  24.719  1.00  0.00     0.148 A 
ATOM     76  C   UNL A   1      51.675  25.642  26.339  1.00  0.00     0.002 A 
ATOM     77  C   UNL A   1      51.176  26.765  24.251  1.00  0.00     0.091 A 
ATOM     78  F   UNL A   1      49.060  27.834  23.982  1.00  0.00    -0.205 F 
ATOM     79  C   UNL A   1      52.066  26.047  25.066  1.00  0.00     0.022 A 
BRANCH  77  80
ATOM     80  S   UNL A   1      51.716  27.131  22.577  1.00  0.00     0.127 S 
ATOM     81  O   UNL A   1      51.974  28.567  22.653  1.00  0.00    -0.237 OA
ATOM     82  O   UNL A   1      52.911  26.295  22.456  1.00  0.00    -0.237 OA
ATOM     83  O   UNL A   1      50.615  26.730  21.713  1.00  0.00    -0.744 OA
ENDBRANCH  77  80
ENDBRANCH  49  73
BRANCH  61  84
ATOM     84  C   UNL A   1      46.635  32.417  28.786  1.00  0.00     0.023 A 
ATOM     85  C   UNL A   1      47.242  32.667  30.032  1.00  0.00     0.012 A 
ATOM     86  C   UNL A   1      46.626  33.426  27.803  1.00  0.00     0.148 A 
ATOM     87  C   UNL A   1      47.808  33.911  30.306  1.00  0.00     0.002 A 
ATOM     88  C   UNL A   1      47.237  34.646  28.064  1.00  0.00     0.091 A 
ATOM     89  F   UNL A   1      46.030  33.170  26.629  1.00  0.00    -0.205 F 
ATOM     90  C   UNL A   1      47.818  34.894  29.318  1.00  0.00     0.022 A 
BRANCH  88  91
ATOM     91  S   UNL A   1      47.390  35.935  26.823  1.00  0.00     0.127 S 
ATOM     92  O   UNL A   1      47.249  37.145  27.632  1.00  0.00    -0.237 OA
ATOM     93  O   UNL A   1      48.737  35.703  26.300  1.00  0.00    -0.237 OA
ATOM     94  O   UNL A   1      46.319  35.701  25.864  1.00  0.00    -0.744 OA
ENDBRANCH  88  91
ENDBRANCH  61  84
ENDBRANCH  35  36
ENDBRANCH  27  30
ENDBRANCH  25  26
ENDBRANCH   1  25
TORSDOF 18
ENDMDL
MODEL 3
REMARK VINA RESULT:     -11.1      2.434      8.250
REMARK SMILES C=C(C)C[N@H+](C)[C@H](C(=O)NCCCNC(=O)c1ccc(-c2c3nc(c(-c4cccc(S(=O)(=O)[O-])c4F)c4ccc([nH]4)c(-c4cccc(S(=O)(=O)[O-])c4F)c4nc(c(-c5cccc(S(=O)(=O)[O-])c5F)c5ccc2[nH]5)C=C4)C=C3)cc1)c1cc(C)c(OC)c(C)c1
REMARK SMILES IDX 12 1 11 2 10 3 8 4 9 5 7 7 5 8 6 9 4 11 2 12 1 13 3 14 80 15
REMARK SMILES IDX 81 16 89 17 82 18 87 19 83 20 84 21 88 22 85 23 86 24 13 25
REMARK SMILES IDX 14 26 15 27 16 29 17 30 18 31 79 32 19 33 78 34 20 35 21 36
REMARK SMILES IDX 22 37 72 38 23 39 77 40 71 41 73 42 24 43 76 44 70 45 69 46
REMARK SMILES IDX 25 48 57 49 37 50 56 51 38 52 41 53 55 54 74 55 39 56 40 57
REMARK SMILES IDX 54 59 75 60 42 61 26 62 27 63 35 64 28 65 30 66 36 67 29 68
REMARK SMILES IDX 31 69 32 70 33 71 34 72 58 73 59 74 67 75 60 76 62 77 68 78
REMARK SMILES IDX 61 79 63 80 64 81 65 82 66 83 43 84 44 85 52 86 45 87 47 88
REMARK SMILES IDX 53 89 46 90 48 91 49 92 50 93 51 94
REMARK H PARENT 10 6 5 10 14 28 73 47 41 58
REMARK Flexibility Score: inf
ROOT
ATOM      1  C   UNL A   1      31.799  28.642  26.513  1.00  0.00     0.042 C 
ENDROOT
BRANCH   1   2
ATOM      2  C   UNL A   1      32.194  27.184  26.548  1.00  0.00     0.118 C 
BRANCH   2   3
ATOM      3  N   UNL A   1      31.081  26.277  26.724  1.00  0.00    -0.351 N 
ATOM      4  C   UNL A   1      30.887  25.046  26.160  1.00  0.00     0.283 C 
ATOM      5  O   UNL A   1      29.932  24.391  26.602  1.00  0.00    -0.268 OA
ATOM      6  H   UNL A   1      30.369  26.587  27.328  1.00  0.00     0.163 HD
BRANCH   4   7
ATOM      7  C   UNL A   1      31.765  24.476  24.997  1.00  0.00     0.305 C 
BRANCH   7   8
ATOM      8  N   UNL A   1      31.985  25.460  23.874  1.00  0.00    -0.320 N 
ATOM      9  C   UNL A   1      32.651  24.728  22.767  1.00  0.00     0.333 C 
ATOM     10  H   UNL A   1      32.520  26.203  24.324  1.00  0.00     0.349 HD
BRANCH   8  11
ATOM     11  C   UNL A   1      30.834  26.175  23.283  1.00  0.00     0.294 C 
BRANCH  11  12
ATOM     12  C   UNL A   1      30.803  27.679  22.994  1.00  0.00    -0.026 C 
ATOM     13  C   UNL A   1      31.813  28.517  22.715  1.00  0.00     0.013 C 
ATOM     14  C   UNL A   1      29.437  28.313  23.163  1.00  0.00     0.045 C 
ENDBRANCH  11  12
ENDBRANCH   8  11
ENDBRANCH   7   8
BRANCH   7  15
ATOM     15  C   UNL A   1      32.966  23.608  25.376  1.00  0.00     0.020 A 
ATOM     16  C   UNL A   1      32.888  22.214  25.273  1.00  0.00     0.017 A 
ATOM     17  C   UNL A   1      34.185  24.152  25.795  1.00  0.00     0.017 A 
ATOM     18  C   UNL A   1      34.041  21.411  25.366  1.00  0.00    -0.008 A 
ATOM     19  C   UNL A   1      35.375  23.399  25.805  1.00  0.00    -0.008 A 
ATOM     20  C   UNL A   1      33.874  19.944  25.074  1.00  0.00     0.048 C 
ATOM     21  C   UNL A   1      35.303  22.014  25.569  1.00  0.00     0.124 A 
ATOM     22  C   UNL A   1      36.650  24.181  25.963  1.00  0.00     0.048 C 
BRANCH  21  23
ATOM     23  O   UNL A   1      36.369  21.154  25.582  1.00  0.00    -0.496 OA
ATOM     24  C   UNL A   1      37.331  21.284  24.543  1.00  0.00     0.278 C 
ENDBRANCH  21  23
ENDBRANCH   7  15
ENDBRANCH   4   7
ENDBRANCH   2   3
ENDBRANCH   1   2
BRANCH   1  25
ATOM     25  C   UNL A   1      32.917  29.524  26.006  1.00  0.00     0.118 C 
BRANCH  25  26
ATOM     26  N   UNL A   1      32.756  30.917  26.416  1.00  0.00    -0.352 N 
ATOM     27  C   UNL A   1      33.499  31.678  27.287  1.00  0.00     0.251 C 
ATOM     28  H   UNL A   1      31.993  31.385  26.004  1.00  0.00     0.163 HD
ATOM     29  O   UNL A   1      33.071  32.770  27.655  1.00  0.00    -0.269 OA
BRANCH  27  30
ATOM     30  C   UNL A   1      34.791  31.170  27.794  1.00  0.00     0.039 A 
ATOM     31  C   UNL A   1      35.857  32.054  27.975  1.00  0.00     0.014 A 
ATOM     32  C   UNL A   1      34.942  29.823  28.118  1.00  0.00     0.014 A 
ATOM     33  C   UNL A   1      37.039  31.598  28.564  1.00  0.00     0.010 A 
ATOM     34  C   UNL A   1      36.055  29.406  28.831  1.00  0.00     0.010 A 
ATOM     35  C   UNL A   1      37.128  30.281  29.045  1.00  0.00    -0.014 A 
BRANCH  35  36
ATOM     36  C   UNL A   1      38.330  29.775  29.757  1.00  0.00     0.031 A 
ATOM     37  C   UNL A   1      38.667  30.311  31.125  1.00  0.00     0.074 A 
ATOM     38  C   UNL A   1      39.172  28.927  29.134  1.00  0.00     0.049 A 
ATOM     39  N   UNL A   1      39.729  30.094  31.857  1.00  0.00    -0.248 NA
ATOM     40  C   UNL A   1      37.705  31.247  31.735  1.00  0.00     0.031 C 
ATOM     41  C   UNL A   1      39.001  28.402  27.777  1.00  0.00     0.029 A 
ATOM     42  N   UNL A   1      40.359  28.379  29.552  1.00  0.00    -0.354 N 
ATOM     43  C   UNL A   1      39.584  30.899  32.982  1.00  0.00     0.074 A 
ATOM     44  C   UNL A   1      38.358  31.647  32.815  1.00  0.00     0.031 C 
ATOM     45  C   UNL A   1      40.035  27.598  27.480  1.00  0.00     0.029 A 
ATOM     46  C   UNL A   1      40.964  27.584  28.604  1.00  0.00     0.049 A 
ATOM     47  H   UNL A   1      40.743  28.539  30.444  1.00  0.00     0.167 HD
ATOM     48  C   UNL A   1      40.377  30.982  34.075  1.00  0.00     0.034 A 
ATOM     49  C   UNL A   1      42.142  26.930  28.634  1.00  0.00     0.034 A 
ATOM     50  C   UNL A   1      41.560  30.192  34.264  1.00  0.00     0.049 A 
ATOM     51  C   UNL A   1      42.989  27.012  29.876  1.00  0.00     0.074 A 
ATOM     52  C   UNL A   1      42.383  30.127  35.374  1.00  0.00     0.029 A 
ATOM     53  N   UNL A   1      42.094  29.331  33.318  1.00  0.00    -0.354 N 
ATOM     54  N   UNL A   1      42.755  27.659  30.991  1.00  0.00    -0.248 NA
ATOM     55  C   UNL A   1      44.245  26.248  29.875  1.00  0.00     0.031 C 
ATOM     56  C   UNL A   1      43.430  29.247  35.088  1.00  0.00     0.029 A 
ATOM     57  C   UNL A   1      43.242  28.740  33.812  1.00  0.00     0.049 A 
ATOM     58  H   UNL A   1      41.713  29.166  32.425  1.00  0.00     0.167 HD
ATOM     59  C   UNL A   1      43.816  27.354  31.837  1.00  0.00     0.074 A 
ATOM     60  C   UNL A   1      44.681  26.446  31.112  1.00  0.00     0.031 C 
ATOM     61  C   UNL A   1      44.061  27.796  33.096  1.00  0.00     0.034 A 
BRANCH  48  62
ATOM     62  C   UNL A   1      39.955  31.917  35.179  1.00  0.00     0.023 A 
ATOM     63  C   UNL A   1      40.403  33.255  35.170  1.00  0.00     0.012 A 
ATOM     64  C   UNL A   1      39.077  31.491  36.194  1.00  0.00     0.148 A 
ATOM     65  C   UNL A   1      40.018  34.141  36.173  1.00  0.00     0.002 A 
ATOM     66  C   UNL A   1      38.657  32.395  37.164  1.00  0.00     0.091 A 
ATOM     67  F   UNL A   1      38.678  30.211  36.200  1.00  0.00    -0.205 F 
ATOM     68  C   UNL A   1      39.138  33.715  37.162  1.00  0.00     0.022 A 
BRANCH  66  69
ATOM     69  S   UNL A   1      37.462  31.970  38.435  1.00  0.00     0.127 S 
ATOM     70  O   UNL A   1      37.168  30.575  38.107  1.00  0.00    -0.237 OA
ATOM     71  O   UNL A   1      38.239  32.157  39.660  1.00  0.00    -0.237 OA
ATOM     72  O   UNL A   1      36.351  32.896  38.269  1.00  0.00    -0.744 OA
ENDBRANCH  66  69
ENDBRANCH  48  62
BRANCH  49  73
ATOM     73  C   UNL A   1      42.564  26.092  27.474  1.00  0.00     0.023 A 
ATOM     74  C   UNL A   1      43.402  26.648  26.489  1.00  0.00     0.012 A 
ATOM     75  C   UNL A   1      42.157  24.749  27.350  1.00  0.00     0.148 A 
ATOM     76  C   UNL A   1      43.798  25.896  25.383  1.00  0.00     0.002 A 
ATOM     77  C   UNL A   1      42.600  23.988  26.275  1.00  0.00     0.091 A 
ATOM     78  F   UNL A   1      41.351  24.240  28.293  1.00  0.00    -0.205 F 
ATOM     79  C   UNL A   1      43.406  24.564  25.280  1.00  0.00     0.022 A 
BRANCH  77  80
ATOM     80  S   UNL A   1      42.253  22.232  26.130  1.00  0.00     0.127 S 
ATOM     81  O   UNL A   1      43.017  21.873  24.938  1.00  0.00    -0.237 OA
ATOM     82  O   UNL A   1      42.792  21.713  27.388  1.00  0.00    -0.237 OA
ATOM     83  O   UNL A   1      40.805  22.126  26.010  1.00  0.00    -0.744 OA
ENDBRANCH  77  80
ENDBRANCH  49  73
BRANCH  61  84
ATOM     84  C   UNL A   1      45.291  27.280  33.794  1.00  0.00     0.023 A 
ATOM     85  C   UNL A   1      46.493  28.011  33.730  1.00  0.00     0.012 A 
ATOM     86  C   UNL A   1      45.225  26.119  34.589  1.00  0.00     0.148 A 
ATOM     87  C   UNL A   1      47.621  27.580  34.426  1.00  0.00     0.002 A 
ATOM     88  C   UNL A   1      46.337  25.724  35.322  1.00  0.00     0.091 A 
ATOM     89  F   UNL A   1      44.075  25.431  34.623  1.00  0.00    -0.205 F 
ATOM     90  C   UNL A   1      47.539  26.446  35.232  1.00  0.00     0.022 A 
BRANCH  88  91
ATOM     91  S   UNL A   1      46.300  24.338  36.463  1.00  0.00     0.127 S 
ATOM     92  O   UNL A   1      46.199  23.201  35.549  1.00  0.00    -0.237 OA
ATOM     93  O   UNL A   1      47.591  24.463  37.142  1.00  0.00    -0.237 OA
ATOM     94  O   UNL A   1      45.141  24.551  37.320  1.00  0.00    -0.744 OA
ENDBRANCH  88  91
ENDBRANCH  61  84
ENDBRANCH  35  36
ENDBRANCH  27  30
ENDBRANCH  25  26
ENDBRANCH   1  25
TORSDOF 18
ENDMDL
