MODEL 1
REMARK VINA RESULT:     -12.1      0.000      0.000
REMARK SMILES CCC1C[NH+]([C@@H](Cc2c[nH]c3ccccc23)C(=O)NCCCNC(=O)c2ccc(-c3c4nc(c(-c5cccc(S(=O)(=O)[O-])c5F)c5ccc([nH]5)c(-c5cccc(S(=O)(=O)[O-])c5F)c5nc(c(-c6cccc(S(=O)(=O)[O-])c6F)c6ccc3[nH]6)C=C5)C=C4)cc2)C1
REMARK SMILES IDX 21 1 20 2 19 3 17 4 18 5 6 7 5 8 3 9 4 10 89 11 2 13 1 14
REMARK SMILES IDX 7 15 8 16 9 17 16 18 10 19 11 20 15 21 12 23 14 24 13 25
REMARK SMILES IDX 22 26 23 27 24 28 25 30 26 31 27 32 88 33 28 34 87 35 29 36
REMARK SMILES IDX 30 37 31 38 81 39 32 40 86 41 80 42 82 43 33 44 85 45 79 46
REMARK SMILES IDX 78 47 34 49 66 50 46 51 65 52 47 53 50 54 64 55 83 56 48 57
REMARK SMILES IDX 49 58 63 60 84 61 51 62 35 63 36 64 44 65 37 66 39 67 45 68
REMARK SMILES IDX 38 69 40 70 41 71 42 72 43 73 67 74 68 75 76 76 69 77 71 78
REMARK SMILES IDX 77 79 70 80 72 81 73 82 74 83 75 84 52 85 53 86 61 87 54 88
REMARK SMILES IDX 56 89 62 90 55 91 57 92 58 93 59 94 60 95
REMARK H PARENT 19 6 5 12 10 22 23 29 82 48 50 59
REMARK Flexibility Score: inf
ROOT
ATOM      1  C   UNL A   1      36.115  21.337  25.500  1.00  0.00     0.042 C 
ENDROOT
BRANCH   1   2
ATOM      2  C   UNL A   1      35.853  22.575  26.374  1.00  0.00     0.118 C 
BRANCH   2   3
ATOM      3  N   UNL A   1      34.641  22.527  27.208  1.00  0.00    -0.351 N 
ATOM      4  C   UNL A   1      33.334  22.936  27.152  1.00  0.00     0.278 C 
ATOM      5  O   UNL A   1      32.669  22.520  28.117  1.00  0.00    -0.268 OA
ATOM      6  H   UNL A   1      34.824  22.063  28.056  1.00  0.00     0.163 HD
BRANCH   4   7
ATOM      7  C   UNL A   1      32.605  23.751  26.011  1.00  0.00     0.278 C 
BRANCH   7   8
ATOM      8  N   UNL A   1      32.556  22.986  24.680  1.00  0.00    -0.324 N 
ATOM      9  C   UNL A   1      32.653  24.459  23.146  1.00  0.00     0.099 C 
ATOM     10  C   UNL A   1      31.586  23.447  23.643  1.00  0.00     0.272 C 
ATOM     11  C   UNL A   1      33.623  23.364  23.681  1.00  0.00     0.272 C 
ATOM     12  H   UNL A   1      32.478  22.062  25.107  1.00  0.00     0.348 HD
BRANCH   9  13
ATOM     13  C   UNL A   1      32.649  25.131  21.779  1.00  0.00     0.012 C 
ATOM     14  C   UNL A   1      33.054  26.593  21.853  1.00  0.00     0.004 C 
ENDBRANCH   9  13
ENDBRANCH   7   8
BRANCH   7  15
ATOM     15  C   UNL A   1      31.549  24.786  26.430  1.00  0.00     0.113 C 
BRANCH  15  16
ATOM     16  C   UNL A   1      31.635  26.238  26.031  1.00  0.00    -0.016 A 
ATOM     17  C   UNL A   1      32.558  27.105  26.595  1.00  0.00     0.087 A 
ATOM     18  C   UNL A   1      30.934  27.002  25.029  1.00  0.00     0.003 A 
ATOM     19  N   UNL A   1      32.438  28.327  25.996  1.00  0.00    -0.361 N 
ATOM     20  C   UNL A   1      31.447  28.298  25.049  1.00  0.00     0.046 A 
ATOM     21  C   UNL A   1      29.868  26.758  24.130  1.00  0.00     0.010 A 
ATOM     22  H   UNL A   1      32.985  29.116  26.215  1.00  0.00     0.166 HD
ATOM     23  C   UNL A   1      30.957  29.324  24.228  1.00  0.00     0.026 A 
ATOM     24  C   UNL A   1      29.369  27.757  23.293  1.00  0.00     0.001 A 
ATOM     25  C   UNL A   1      29.913  29.027  23.346  1.00  0.00     0.002 A 
ENDBRANCH  15  16
ENDBRANCH   7  15
ENDBRANCH   4   7
ENDBRANCH   2   3
ENDBRANCH   1   2
BRANCH   1  26
ATOM     26  C   UNL A   1      37.414  21.186  24.708  1.00  0.00     0.118 C 
BRANCH  26  27
ATOM     27  N   UNL A   1      38.382  20.428  25.511  1.00  0.00    -0.352 N 
ATOM     28  C   UNL A   1      39.566  20.717  26.147  1.00  0.00     0.251 C 
ATOM     29  H   UNL A   1      38.121  19.485  25.618  1.00  0.00     0.163 HD
ATOM     30  O   UNL A   1      40.337  19.759  26.278  1.00  0.00    -0.269 OA
BRANCH  28  31
ATOM     31  C   UNL A   1      39.965  22.025  26.758  1.00  0.00     0.039 A 
ATOM     32  C   UNL A   1      39.388  23.189  26.207  1.00  0.00     0.014 A 
ATOM     33  C   UNL A   1      40.978  22.195  27.700  1.00  0.00     0.014 A 
ATOM     34  C   UNL A   1      39.839  24.476  26.550  1.00  0.00     0.010 A 
ATOM     35  C   UNL A   1      41.391  23.490  28.088  1.00  0.00     0.010 A 
ATOM     36  C   UNL A   1      40.860  24.648  27.491  1.00  0.00    -0.014 A 
BRANCH  36  37
ATOM     37  C   UNL A   1      41.409  26.011  27.798  1.00  0.00     0.031 A 
ATOM     38  C   UNL A   1      42.827  26.379  27.415  1.00  0.00     0.074 A 
ATOM     39  C   UNL A   1      40.658  26.933  28.439  1.00  0.00     0.049 A 
ATOM     40  N   UNL A   1      43.485  27.493  27.631  1.00  0.00    -0.248 NA
ATOM     41  C   UNL A   1      43.612  25.357  26.705  1.00  0.00     0.031 C 
ATOM     42  C   UNL A   1      39.285  26.732  28.901  1.00  0.00     0.029 A 
ATOM     43  N   UNL A   1      40.953  28.220  28.834  1.00  0.00    -0.354 N 
ATOM     44  C   UNL A   1      44.768  27.290  27.128  1.00  0.00     0.074 A 
ATOM     45  C   UNL A   1      44.800  25.937  26.613  1.00  0.00     0.031 C 
ATOM     46  C   UNL A   1      38.860  27.847  29.521  1.00  0.00     0.029 A 
ATOM     47  C   UNL A   1      39.937  28.834  29.533  1.00  0.00     0.049 A 
ATOM     48  H   UNL A   1      41.811  28.660  28.636  1.00  0.00     0.167 HD
ATOM     49  C   UNL A   1      45.819  28.146  27.075  1.00  0.00     0.034 A 
ATOM     50  C   UNL A   1      39.876  30.044  30.130  1.00  0.00     0.034 A 
ATOM     51  C   UNL A   1      45.790  29.508  27.541  1.00  0.00     0.049 A 
ATOM     52  C   UNL A   1      41.054  30.981  30.051  1.00  0.00     0.074 A 
ATOM     53  C   UNL A   1      46.785  30.468  27.456  1.00  0.00     0.029 A 
ATOM     54  N   UNL A   1      44.722  30.105  28.189  1.00  0.00    -0.354 N 
ATOM     55  N   UNL A   1      42.207  30.810  29.452  1.00  0.00    -0.248 NA
ATOM     56  C   UNL A   1      40.907  32.293  30.701  1.00  0.00     0.031 C 
ATOM     57  C   UNL A   1      46.331  31.634  28.082  1.00  0.00     0.029 A 
ATOM     58  C   UNL A   1      45.037  31.413  28.522  1.00  0.00     0.049 A 
ATOM     59  H   UNL A   1      43.863  29.665  28.385  1.00  0.00     0.167 HD
ATOM     60  C   UNL A   1      42.904  32.004  29.619  1.00  0.00     0.074 A 
ATOM     61  C   UNL A   1      42.037  32.896  30.358  1.00  0.00     0.031 C 
ATOM     62  C   UNL A   1      44.156  32.323  29.208  1.00  0.00     0.034 A 
BRANCH  49  63
ATOM     63  C   UNL A   1      47.102  27.650  26.449  1.00  0.00     0.023 A 
ATOM     64  C   UNL A   1      48.057  26.983  27.245  1.00  0.00     0.012 A 
ATOM     65  C   UNL A   1      47.330  27.779  25.063  1.00  0.00     0.148 A 
ATOM     66  C   UNL A   1      49.233  26.491  26.681  1.00  0.00     0.002 A 
ATOM     67  C   UNL A   1      48.483  27.242  24.502  1.00  0.00     0.091 A 
ATOM     68  F   UNL A   1      46.417  28.423  24.322  1.00  0.00    -0.205 F 
ATOM     69  C   UNL A   1      49.442  26.611  25.311  1.00  0.00     0.022 A 
BRANCH  67  70
ATOM     70  S   UNL A   1      48.806  27.269  22.733  1.00  0.00     0.127 S 
ATOM     71  O   UNL A   1      47.969  28.387  22.298  1.00  0.00    -0.237 OA
ATOM     72  O   UNL A   1      50.245  27.534  22.688  1.00  0.00    -0.237 OA
ATOM     73  O   UNL A   1      48.412  25.962  22.232  1.00  0.00    -0.744 OA
ENDBRANCH  67  70
ENDBRANCH  49  63
BRANCH  50  74
ATOM     74  C   UNL A   1      38.628  30.466  30.833  1.00  0.00     0.023 A 
ATOM     75  C   UNL A   1      38.461  30.164  32.199  1.00  0.00     0.012 A 
ATOM     76  C   UNL A   1      37.609  31.164  30.156  1.00  0.00     0.148 A 
ATOM     77  C   UNL A   1      37.289  30.520  32.869  1.00  0.00     0.002 A 
ATOM     78  C   UNL A   1      36.471  31.568  30.845  1.00  0.00     0.091 A 
ATOM     79  F   UNL A   1      37.777  31.426  28.853  1.00  0.00    -0.205 F 
ATOM     80  C   UNL A   1      36.300  31.230  32.196  1.00  0.00     0.022 A 
BRANCH  78  81
ATOM     81  S   UNL A   1      35.204  32.597  30.094  1.00  0.00     0.127 S 
ATOM     82  O   UNL A   1      35.980  33.756  29.657  1.00  0.00    -0.237 OA
ATOM     83  O   UNL A   1      34.723  31.736  29.012  1.00  0.00    -0.237 OA
ATOM     84  O   UNL A   1      34.228  32.849  31.142  1.00  0.00    -0.744 OA
ENDBRANCH  78  81
ENDBRANCH  50  74
BRANCH  62  85
ATOM     85  C   UNL A   1      44.663  33.715  29.495  1.00  0.00     0.023 A 
ATOM     86  C   UNL A   1      45.291  34.000  30.724  1.00  0.00     0.012 A 
ATOM     87  C   UNL A   1      44.580  34.726  28.515  1.00  0.00     0.148 A 
ATOM     88  C   UNL A   1      45.793  35.275  30.987  1.00  0.00     0.002 A 
ATOM     89  C   UNL A   1      45.127  35.979  28.764  1.00  0.00     0.091 A 
ATOM     90  F   UNL A   1      43.963  34.444  27.358  1.00  0.00    -0.205 F 
ATOM     91  C   UNL A   1      45.722  36.260  30.005  1.00  0.00     0.022 A 
BRANCH  89  92
ATOM     92  S   UNL A   1      45.168  37.280  27.525  1.00  0.00     0.127 S 
ATOM     93  O   UNL A   1      45.890  38.338  28.227  1.00  0.00    -0.237 OA
ATOM     94  O   UNL A   1      45.916  36.649  26.437  1.00  0.00    -0.237 OA
ATOM     95  O   UNL A   1      43.777  37.578  27.209  1.00  0.00    -0.744 OA
ENDBRANCH  89  92
ENDBRANCH  62  85
ENDBRANCH  36  37
ENDBRANCH  28  31
ENDBRANCH  26  27
ENDBRANCH   1  26
TORSDOF 17
ENDMDL
MODEL 2
REMARK VINA RESULT:     -12.0      1.259      2.962
REMARK SMILES CCC1C[NH+]([C@@H](Cc2c[nH]c3ccccc23)C(=O)NCCCNC(=O)c2ccc(-c3c4nc(c(-c5cccc(S(=O)(=O)[O-])c5F)c5ccc([nH]5)c(-c5cccc(S(=O)(=O)[O-])c5F)c5nc(c(-c6cccc(S(=O)(=O)[O-])c6F)c6ccc3[nH]6)C=C5)C=C4)cc2)C1
REMARK SMILES IDX 21 1 20 2 19 3 17 4 18 5 6 7 5 8 3 9 4 10 89 11 2 13 1 14
REMARK SMILES IDX 7 15 8 16 9 17 16 18 10 19 11 20 15 21 12 23 14 24 13 25
REMARK SMILES IDX 22 26 23 27 24 28 25 30 26 31 27 32 88 33 28 34 87 35 29 36
REMARK SMILES IDX 30 37 31 38 81 39 32 40 86 41 80 42 82 43 33 44 85 45 79 46
REMARK SMILES IDX 78 47 34 49 66 50 46 51 65 52 47 53 50 54 64 55 83 56 48 57
REMARK SMILES IDX 49 58 63 60 84 61 51 62 35 63 36 64 44 65 37 66 39 67 45 68
REMARK SMILES IDX 38 69 40 70 41 71 42 72 43 73 67 74 68 75 76 76 69 77 71 78
REMARK SMILES IDX 77 79 70 80 72 81 73 82 74 83 75 84 52 85 53 86 61 87 54 88
REMARK SMILES IDX 56 89 62 90 55 91 57 92 58 93 59 94 60 95
REMARK H PARENT 19 6 5 12 10 22 23 29 82 48 50 59
REMARK Flexibility Score: inf
ROOT
ATOM      1  C   UNL A   1      36.095  21.218  25.405  1.00  0.00     0.042 C 
ENDROOT
BRANCH   1   2
ATOM      2  C   UNL A   1      35.748  22.513  26.159  1.00  0.00     0.118 C 
BRANCH   2   3
ATOM      3  N   UNL A   1      34.689  22.401  27.174  1.00  0.00    -0.351 N 
ATOM      4  C   UNL A   1      33.350  22.669  27.302  1.00  0.00     0.278 C 
ATOM      5  O   UNL A   1      32.889  22.256  28.381  1.00  0.00    -0.268 OA
ATOM      6  H   UNL A   1      35.048  22.019  28.006  1.00  0.00     0.163 HD
BRANCH   4   7
ATOM      7  C   UNL A   1      32.371  23.322  26.247  1.00  0.00     0.278 C 
BRANCH   7   8
ATOM      8  N   UNL A   1      31.519  24.448  26.852  1.00  0.00    -0.324 N 
ATOM      9  C   UNL A   1      30.628  25.465  25.207  1.00  0.00     0.099 C 
ATOM     10  C   UNL A   1      31.678  25.823  26.294  1.00  0.00     0.272 C 
ATOM     11  C   UNL A   1      30.102  24.529  26.337  1.00  0.00     0.272 C 
ATOM     12  H   UNL A   1      31.761  24.237  27.820  1.00  0.00     0.348 HD
BRANCH   9  13
ATOM     13  C   UNL A   1      29.848  26.478  24.380  1.00  0.00     0.012 C 
ATOM     14  C   UNL A   1      30.558  26.837  23.087  1.00  0.00     0.004 C 
ENDBRANCH   9  13
ENDBRANCH   7   8
BRANCH   7  15
ATOM     15  C   UNL A   1      32.776  23.272  24.765  1.00  0.00     0.113 C 
BRANCH  15  16
ATOM     16  C   UNL A   1      32.466  22.090  23.881  1.00  0.00    -0.016 A 
ATOM     17  C   UNL A   1      32.008  22.241  22.581  1.00  0.00     0.087 A 
ATOM     18  C   UNL A   1      32.620  20.671  24.085  1.00  0.00     0.003 A 
ATOM     19  N   UNL A   1      31.874  21.005  22.014  1.00  0.00    -0.361 N 
ATOM     20  C   UNL A   1      32.225  20.030  22.911  1.00  0.00     0.046 A 
ATOM     21  C   UNL A   1      32.999  19.837  25.163  1.00  0.00     0.010 A 
ATOM     22  H   UNL A   1      31.568  20.839  21.093  1.00  0.00     0.166 HD
ATOM     23  C   UNL A   1      32.204  18.634  22.777  1.00  0.00     0.026 A 
ATOM     24  C   UNL A   1      32.999  18.447  25.054  1.00  0.00     0.001 A 
ATOM     25  C   UNL A   1      32.603  17.855  23.868  1.00  0.00     0.002 A 
ENDBRANCH  15  16
ENDBRANCH   7  15
ENDBRANCH   4   7
ENDBRANCH   2   3
ENDBRANCH   1   2
BRANCH   1  26
ATOM     26  C   UNL A   1      37.408  21.076  24.636  1.00  0.00     0.118 C 
BRANCH  26  27
ATOM     27  N   UNL A   1      38.368  20.326  25.455  1.00  0.00    -0.352 N 
ATOM     28  C   UNL A   1      39.545  20.619  26.102  1.00  0.00     0.251 C 
ATOM     29  H   UNL A   1      38.106  19.383  25.566  1.00  0.00     0.163 HD
ATOM     30  O   UNL A   1      40.315  19.663  26.249  1.00  0.00    -0.269 OA
BRANCH  28  31
ATOM     31  C   UNL A   1      39.936  21.933  26.706  1.00  0.00     0.039 A 
ATOM     32  C   UNL A   1      39.354  23.091  26.149  1.00  0.00     0.014 A 
ATOM     33  C   UNL A   1      40.948  22.112  27.648  1.00  0.00     0.014 A 
ATOM     34  C   UNL A   1      39.798  24.382  26.487  1.00  0.00     0.010 A 
ATOM     35  C   UNL A   1      41.355  23.411  28.030  1.00  0.00     0.010 A 
ATOM     36  C   UNL A   1      40.817  24.564  27.428  1.00  0.00    -0.014 A 
BRANCH  36  37
ATOM     37  C   UNL A   1      41.359  25.931  27.729  1.00  0.00     0.031 A 
ATOM     38  C   UNL A   1      42.756  26.323  27.295  1.00  0.00     0.074 A 
ATOM     39  C   UNL A   1      40.621  26.836  28.408  1.00  0.00     0.049 A 
ATOM     40  N   UNL A   1      43.407  27.444  27.499  1.00  0.00    -0.248 NA
ATOM     41  C   UNL A   1      43.527  25.320  26.544  1.00  0.00     0.031 C 
ATOM     42  C   UNL A   1      39.270  26.611  28.920  1.00  0.00     0.029 A 
ATOM     43  N   UNL A   1      40.913  28.122  28.805  1.00  0.00    -0.354 N 
ATOM     44  C   UNL A   1      44.672  27.264  26.944  1.00  0.00     0.074 A 
ATOM     45  C   UNL A   1      44.702  25.918  26.413  1.00  0.00     0.031 C 
ATOM     46  C   UNL A   1      38.854  27.712  29.568  1.00  0.00     0.029 A 
ATOM     47  C   UNL A   1      39.917  28.715  29.549  1.00  0.00     0.049 A 
ATOM     48  H   UNL A   1      41.757  28.576  28.579  1.00  0.00     0.167 HD
ATOM     49  C   UNL A   1      45.709  28.136  26.860  1.00  0.00     0.034 A 
ATOM     50  C   UNL A   1      39.862  29.917  30.162  1.00  0.00     0.034 A 
ATOM     51  C   UNL A   1      45.678  29.493  27.343  1.00  0.00     0.049 A 
ATOM     52  C   UNL A   1      41.023  30.871  30.048  1.00  0.00     0.074 A 
ATOM     53  C   UNL A   1      46.657  30.467  27.229  1.00  0.00     0.029 A 
ATOM     54  N   UNL A   1      44.628  30.067  28.038  1.00  0.00    -0.354 N 
ATOM     55  N   UNL A   1      42.155  30.724  29.404  1.00  0.00    -0.248 NA
ATOM     56  C   UNL A   1      40.883  32.175  30.718  1.00  0.00     0.031 C 
ATOM     57  C   UNL A   1      46.211  31.619  27.886  1.00  0.00     0.029 A 
ATOM     58  C   UNL A   1      44.937  31.376  28.372  1.00  0.00     0.049 A 
ATOM     59  H   UNL A   1      43.783  29.613  28.261  1.00  0.00     0.167 HD
ATOM     60  C   UNL A   1      42.841  31.925  29.557  1.00  0.00     0.074 A 
ATOM     61  C   UNL A   1      41.991  32.797  30.338  1.00  0.00     0.031 C 
ATOM     62  C   UNL A   1      44.071  32.266  29.102  1.00  0.00     0.034 A 
BRANCH  49  63
ATOM     63  C   UNL A   1      46.973  27.665  26.180  1.00  0.00     0.023 A 
ATOM     64  C   UNL A   1      47.921  26.916  26.907  1.00  0.00     0.012 A 
ATOM     65  C   UNL A   1      47.188  27.900  24.806  1.00  0.00     0.148 A 
ATOM     66  C   UNL A   1      49.080  26.445  26.291  1.00  0.00     0.002 A 
ATOM     67  C   UNL A   1      48.323  27.386  24.189  1.00  0.00     0.091 A 
ATOM     68  F   UNL A   1      46.282  28.621  24.131  1.00  0.00    -0.205 F 
ATOM     69  C   UNL A   1      49.276  26.671  24.932  1.00  0.00     0.022 A 
BRANCH  67  70
ATOM     70  S   UNL A   1      48.627  27.548  22.424  1.00  0.00     0.127 S 
ATOM     71  O   UNL A   1      49.926  28.221  22.411  1.00  0.00    -0.237 OA
ATOM     72  O   UNL A   1      48.661  26.152  21.989  1.00  0.00    -0.237 OA
ATOM     73  O   UNL A   1      47.517  28.324  21.894  1.00  0.00    -0.744 OA
ENDBRANCH  67  70
ENDBRANCH  49  63
BRANCH  50  74
ATOM     74  C   UNL A   1      38.636  30.314  30.916  1.00  0.00     0.023 A 
ATOM     75  C   UNL A   1      38.473  29.895  32.252  1.00  0.00     0.012 A 
ATOM     76  C   UNL A   1      37.634  31.104  30.320  1.00  0.00     0.148 A 
ATOM     77  C   UNL A   1      37.321  30.226  32.968  1.00  0.00     0.002 A 
ATOM     78  C   UNL A   1      36.517  31.480  31.057  1.00  0.00     0.091 A 
ATOM     79  F   UNL A   1      37.797  31.477  29.043  1.00  0.00    -0.205 F 
ATOM     80  C   UNL A   1      36.349  31.027  32.374  1.00  0.00     0.022 A 
BRANCH  78  81
ATOM     81  S   UNL A   1      35.278  32.613  30.420  1.00  0.00     0.127 S 
ATOM     82  O   UNL A   1      34.699  31.837  29.324  1.00  0.00    -0.237 OA
ATOM     83  O   UNL A   1      34.404  32.784  31.582  1.00  0.00    -0.237 OA
ATOM     84  O   UNL A   1      36.003  33.812  30.030  1.00  0.00    -0.744 OA
ENDBRANCH  78  81
ENDBRANCH  50  74
BRANCH  62  85
ATOM     85  C   UNL A   1      44.570  33.662  29.385  1.00  0.00     0.023 A 
ATOM     86  C   UNL A   1      45.227  33.946  30.598  1.00  0.00     0.012 A 
ATOM     87  C   UNL A   1      44.450  34.678  28.414  1.00  0.00     0.148 A 
ATOM     88  C   UNL A   1      45.721  35.226  30.856  1.00  0.00     0.002 A 
ATOM     89  C   UNL A   1      44.989  35.936  28.656  1.00  0.00     0.091 A 
ATOM     90  F   UNL A   1      43.806  34.396  27.271  1.00  0.00    -0.205 F 
ATOM     91  C   UNL A   1      45.613  36.216  29.883  1.00  0.00     0.022 A 
BRANCH  89  92
ATOM     92  S   UNL A   1      44.984  37.244  27.426  1.00  0.00     0.127 S 
ATOM     93  O   UNL A   1      45.566  38.358  28.171  1.00  0.00    -0.237 OA
ATOM     94  O   UNL A   1      45.846  36.691  26.381  1.00  0.00    -0.237 OA
ATOM     95  O   UNL A   1      43.592  37.418  27.030  1.00  0.00    -0.744 OA
ENDBRANCH  89  92
ENDBRANCH  62  85
ENDBRANCH  36  37
ENDBRANCH  28  31
ENDBRANCH  26  27
ENDBRANCH   1  26
TORSDOF 17
ENDMDL
MODEL 3
REMARK VINA RESULT:     -12.0      5.039      9.914
REMARK SMILES CCC1C[NH+]([C@@H](Cc2c[nH]c3ccccc23)C(=O)NCCCNC(=O)c2ccc(-c3c4nc(c(-c5cccc(S(=O)(=O)[O-])c5F)c5ccc([nH]5)c(-c5cccc(S(=O)(=O)[O-])c5F)c5nc(c(-c6cccc(S(=O)(=O)[O-])c6F)c6ccc3[nH]6)C=C5)C=C4)cc2)C1
REMARK SMILES IDX 21 1 20 2 19 3 17 4 18 5 6 7 5 8 3 9 4 10 89 11 2 13 1 14
REMARK SMILES IDX 7 15 8 16 9 17 16 18 10 19 11 20 15 21 12 23 14 24 13 25
REMARK SMILES IDX 22 26 23 27 24 28 25 30 26 31 27 32 88 33 28 34 87 35 29 36
REMARK SMILES IDX 30 37 31 38 81 39 32 40 86 41 80 42 82 43 33 44 85 45 79 46
REMARK SMILES IDX 78 47 34 49 66 50 46 51 65 52 47 53 50 54 64 55 83 56 48 57
REMARK SMILES IDX 49 58 63 60 84 61 51 62 35 63 36 64 44 65 37 66 39 67 45 68
REMARK SMILES IDX 38 69 40 70 41 71 42 72 43 73 67 74 68 75 76 76 69 77 71 78
REMARK SMILES IDX 77 79 70 80 72 81 73 82 74 83 75 84 52 85 53 86 61 87 54 88
REMARK SMILES IDX 56 89 62 90 55 91 57 92 58 93 59 94 60 95
REMARK H PARENT 19 6 5 12 10 22 23 29 82 48 50 59
REMARK Flexibility Score: inf
ROOT
ATOM      1  C   UNL A   1      32.803  29.329  24.742  1.00  0.00     0.042 C 
ENDROOT
BRANCH   1   2
ATOM      2  C   UNL A   1      33.621  28.028  24.661  1.00  0.00     0.118 C 
BRANCH   2   3
ATOM      3  N   UNL A   1      33.797  27.463  23.314  1.00  0.00    -0.351 N 
ATOM      4  C   UNL A   1      33.179  26.562  22.485  1.00  0.00     0.278 C 
ATOM      5  O   UNL A   1      33.693  26.537  21.352  1.00  0.00    -0.268 OA
ATOM      6  H   UNL A   1      34.592  27.846  22.880  1.00  0.00     0.163 HD
BRANCH   4   7
ATOM      7  C   UNL A   1      31.902  25.676  22.771  1.00  0.00     0.278 C 
BRANCH   7   8
ATOM      8  N   UNL A   1      32.105  24.205  22.375  1.00  0.00    -0.324 N 
ATOM      9  C   UNL A   1      32.817  23.216  24.121  1.00  0.00     0.099 C 
ATOM     10  C   UNL A   1      33.404  23.560  22.726  1.00  0.00     0.272 C 
ATOM     11  C   UNL A   1      31.485  23.197  23.312  1.00  0.00     0.272 C 
ATOM     12  H   UNL A   1      31.819  24.331  21.404  1.00  0.00     0.348 HD
BRANCH   9  13
ATOM     13  C   UNL A   1      33.367  22.152  25.062  1.00  0.00     0.012 C 
ATOM     14  C   UNL A   1      33.109  22.483  26.521  1.00  0.00     0.004 C 
ENDBRANCH   9  13
ENDBRANCH   7   8
BRANCH   7  15
ATOM     15  C   UNL A   1      30.952  26.127  23.891  1.00  0.00     0.113 C 
BRANCH  15  16
ATOM     16  C   UNL A   1      29.670  26.872  23.615  1.00  0.00    -0.016 A 
ATOM     17  C   UNL A   1      28.436  26.402  24.038  1.00  0.00     0.087 A 
ATOM     18  C   UNL A   1      29.416  28.149  22.994  1.00  0.00     0.003 A 
ATOM     19  N   UNL A   1      27.477  27.313  23.698  1.00  0.00    -0.361 N 
ATOM     20  C   UNL A   1      28.042  28.380  23.048  1.00  0.00     0.046 A 
ATOM     21  C   UNL A   1      30.196  29.126  22.331  1.00  0.00     0.010 A 
ATOM     22  H   UNL A   1      26.516  27.216  23.891  1.00  0.00     0.166 HD
ATOM     23  C   UNL A   1      27.439  29.516  22.489  1.00  0.00     0.026 A 
ATOM     24  C   UNL A   1      29.623  30.272  21.777  1.00  0.00     0.001 A 
ATOM     25  C   UNL A   1      28.256  30.459  21.859  1.00  0.00     0.002 A 
ENDBRANCH  15  16
ENDBRANCH   7  15
ENDBRANCH   4   7
ENDBRANCH   2   3
ENDBRANCH   1   2
BRANCH   1  26
ATOM     26  C   UNL A   1      31.993  29.680  25.989  1.00  0.00     0.118 C 
BRANCH  26  27
ATOM     27  N   UNL A   1      32.205  31.095  26.318  1.00  0.00    -0.352 N 
ATOM     28  C   UNL A   1      33.022  31.789  27.180  1.00  0.00     0.251 C 
ATOM     29  H   UNL A   1      31.620  31.691  25.797  1.00  0.00     0.163 HD
ATOM     30  O   UNL A   1      32.582  32.884  27.551  1.00  0.00    -0.269 OA
BRANCH  28  31
ATOM     31  C   UNL A   1      34.395  31.396  27.632  1.00  0.00     0.039 A 
ATOM     32  C   UNL A   1      34.603  30.034  27.934  1.00  0.00     0.014 A 
ATOM     33  C   UNL A   1      35.423  32.286  27.939  1.00  0.00     0.014 A 
ATOM     34  C   UNL A   1      35.776  29.583  28.563  1.00  0.00     0.010 A 
ATOM     35  C   UNL A   1      36.626  31.824  28.519  1.00  0.00     0.010 A 
ATOM     36  C   UNL A   1      36.807  30.475  28.877  1.00  0.00    -0.014 A 
BRANCH  36  37
ATOM     37  C   UNL A   1      38.024  30.019  29.628  1.00  0.00     0.031 A 
ATOM     38  C   UNL A   1      38.287  30.498  31.041  1.00  0.00     0.074 A 
ATOM     39  C   UNL A   1      38.921  29.187  29.056  1.00  0.00     0.049 A 
ATOM     40  N   UNL A   1      39.303  30.242  31.831  1.00  0.00    -0.248 NA
ATOM     41  C   UNL A   1      37.283  31.391  31.639  1.00  0.00     0.031 C 
ATOM     42  C   UNL A   1      38.833  28.655  27.697  1.00  0.00     0.029 A 
ATOM     43  N   UNL A   1      40.099  28.660  29.540  1.00  0.00    -0.354 N 
ATOM     44  C   UNL A   1      39.083  30.974  32.995  1.00  0.00     0.074 A 
ATOM     45  C   UNL A   1      37.846  31.700  32.799  1.00  0.00     0.031 C 
ATOM     46  C   UNL A   1      39.909  27.887  27.452  1.00  0.00     0.029 A 
ATOM     47  C   UNL A   1      40.784  27.894  28.622  1.00  0.00     0.049 A 
ATOM     48  H   UNL A   1      40.422  28.817  30.456  1.00  0.00     0.167 HD
ATOM     49  C   UNL A   1      39.821  31.028  34.133  1.00  0.00     0.034 A 
ATOM     50  C   UNL A   1      41.983  27.279  28.698  1.00  0.00     0.034 A 
ATOM     51  C   UNL A   1      41.029  30.277  34.361  1.00  0.00     0.049 A 
ATOM     52  C   UNL A   1      42.782  27.346  29.975  1.00  0.00     0.074 A 
ATOM     53  C   UNL A   1      41.796  30.214  35.512  1.00  0.00     0.029 A 
ATOM     54  N   UNL A   1      41.654  29.470  33.425  1.00  0.00    -0.354 N 
ATOM     55  N   UNL A   1      42.484  27.938  31.106  1.00  0.00    -0.248 NA
ATOM     56  C   UNL A   1      44.068  26.630  29.997  1.00  0.00     0.031 C 
ATOM     57  C   UNL A   1      42.904  29.396  35.261  1.00  0.00     0.029 A 
ATOM     58  C   UNL A   1      42.803  28.916  33.965  1.00  0.00     0.049 A 
ATOM     59  H   UNL A   1      41.328  29.313  32.509  1.00  0.00     0.167 HD
ATOM     60  C   UNL A   1      43.523  27.633  31.982  1.00  0.00     0.074 A 
ATOM     61  C   UNL A   1      44.447  26.787  31.258  1.00  0.00     0.031 C 
ATOM     62  C   UNL A   1      43.697  28.030  33.266  1.00  0.00     0.034 A 
BRANCH  49  63
ATOM     63  C   UNL A   1      39.324  31.909  35.255  1.00  0.00     0.023 A 
ATOM     64  C   UNL A   1      38.423  31.388  36.206  1.00  0.00     0.012 A 
ATOM     65  C   UNL A   1      39.805  33.226  35.411  1.00  0.00     0.148 A 
ATOM     66  C   UNL A   1      37.976  32.175  37.268  1.00  0.00     0.002 A 
ATOM     67  C   UNL A   1      39.392  33.986  36.498  1.00  0.00     0.091 A 
ATOM     68  F   UNL A   1      40.655  33.708  34.493  1.00  0.00    -0.205 F 
ATOM     69  C   UNL A   1      38.467  33.468  37.419  1.00  0.00     0.022 A 
BRANCH  67  70
ATOM     70  S   UNL A   1      40.031  35.633  36.831  1.00  0.00     0.127 S 
ATOM     71  O   UNL A   1      39.349  35.966  38.082  1.00  0.00    -0.237 OA
ATOM     72  O   UNL A   1      41.467  35.384  36.969  1.00  0.00    -0.237 OA
ATOM     73  O   UNL A   1      39.663  36.448  35.684  1.00  0.00    -0.744 OA
ENDBRANCH  67  70
ENDBRANCH  49  63
BRANCH  50  74
ATOM     74  C   UNL A   1      42.498  26.500  27.533  1.00  0.00     0.023 A 
ATOM     75  C   UNL A   1      43.328  27.130  26.585  1.00  0.00     0.012 A 
ATOM     76  C   UNL A   1      42.170  25.141  27.360  1.00  0.00     0.148 A 
ATOM     77  C   UNL A   1      43.795  26.432  25.471  1.00  0.00     0.002 A 
ATOM     78  C   UNL A   1      42.687  24.435  26.280  1.00  0.00     0.091 A 
ATOM     79  F   UNL A   1      41.363  24.563  28.261  1.00  0.00    -0.205 F 
ATOM     80  C   UNL A   1      43.483  25.083  25.323  1.00  0.00     0.022 A 
BRANCH  78  81
ATOM     81  S   UNL A   1      42.444  22.667  26.078  1.00  0.00     0.127 S 
ATOM     82  O   UNL A   1      40.986  22.565  26.059  1.00  0.00    -0.237 OA
ATOM     83  O   UNL A   1      43.095  22.422  24.789  1.00  0.00    -0.237 OA
ATOM     84  O   UNL A   1      43.106  22.046  27.214  1.00  0.00    -0.744 OA
ENDBRANCH  78  81
ENDBRANCH  50  74
BRANCH  62  85
ATOM     85  C   UNL A   1      44.909  27.521  34.007  1.00  0.00     0.023 A 
ATOM     86  C   UNL A   1      46.082  28.299  34.065  1.00  0.00     0.012 A 
ATOM     87  C   UNL A   1      44.861  26.298  34.707  1.00  0.00     0.148 A 
ATOM     88  C   UNL A   1      47.198  27.853  34.775  1.00  0.00     0.002 A 
ATOM     89  C   UNL A   1      45.958  25.883  35.454  1.00  0.00     0.091 A 
ATOM     90  F   UNL A   1      43.743  25.560  34.628  1.00  0.00    -0.205 F 
ATOM     91  C   UNL A   1      47.132  26.652  35.478  1.00  0.00     0.022 A 
BRANCH  89  92
ATOM     92  S   UNL A   1      45.932  24.401  36.469  1.00  0.00     0.127 S 
ATOM     93  O   UNL A   1      46.827  23.515  35.728  1.00  0.00    -0.237 OA
ATOM     94  O   UNL A   1      46.468  24.886  37.741  1.00  0.00    -0.237 OA
ATOM     95  O   UNL A   1      44.539  23.976  36.524  1.00  0.00    -0.744 OA
ENDBRANCH  89  92
ENDBRANCH  62  85
ENDBRANCH  36  37
ENDBRANCH  28  31
ENDBRANCH  26  27
ENDBRANCH   1  26
TORSDOF 17
ENDMDL
