MODEL 1
REMARK VINA RESULT:     -13.0      0.000      0.000
REMARK SMILES O=C(CCC(=O)N1N=C(c2ccccc2)C[C@@H]1c1ccc2c(c1)OCO2)NCCCNC(=O)c1ccc(-c2c3nc(c(-c4cccc(S(=O)(=O)[O-])c4F)c4ccc([nH]4)c(-c4cccc(S(=O)(=O)[O-])c4F)c4nc(c(-c5cccc(S(=O)(=O)[O-])c5F)c5ccc2[nH]5)C=C4)C=C3)cc1
REMARK SMILES IDX 28 1 27 2 1 3 2 4 3 6 4 7 5 8 6 9 7 10 8 11 17 12 9 13 16 14
REMARK SMILES IDX 18 15 19 16 23 17 20 18 22 19 21 20 24 21 26 22 25 23 10 24
REMARK SMILES IDX 11 25 15 26 12 27 14 28 13 29 29 30 30 31 31 32 32 33 33 35
REMARK SMILES IDX 34 36 35 37 96 38 36 39 95 40 37 41 38 42 39 43 89 44 40 45
REMARK SMILES IDX 94 46 88 47 90 48 41 49 93 50 87 51 86 52 42 54 74 55 54 56
REMARK SMILES IDX 73 57 55 58 58 59 72 60 91 61 56 62 57 63 71 65 92 66 59 67
REMARK SMILES IDX 43 68 44 69 52 70 45 71 47 72 53 73 46 74 48 75 49 76 50 77
REMARK SMILES IDX 51 78 75 79 76 80 84 81 77 82 79 83 85 84 78 85 80 86 81 87
REMARK SMILES IDX 82 88 83 89 60 90 61 91 69 92 62 93 64 94 70 95 63 96 65 97
REMARK SMILES IDX 66 98 67 99 68 100
REMARK H PARENT 27 5 31 34 90 53 58 64
REMARK Flexibility Score: inf
ROOT
ATOM      1  C   UNL A   1      35.266  21.678  26.054  1.00  0.00     0.117 C 
ENDROOT
BRANCH   1   2
ATOM      2  N   UNL A   1      35.221  23.007  25.453  1.00  0.00    -0.356 N 
ATOM      3  O   UNL A   1      33.554  23.753  26.840  1.00  0.00    -0.275 OA
ATOM      4  C   UNL A   1      34.406  23.993  26.000  1.00  0.00     0.220 C 
ATOM      5  H   UNL A   1      35.770  23.207  24.660  1.00  0.00     0.163 HD
BRANCH   4   6
ATOM      6  C   UNL A   1      34.735  25.413  25.543  1.00  0.00     0.110 C 
BRANCH   6   7
ATOM      7  C   UNL A   1      33.646  26.412  25.936  1.00  0.00     0.112 C 
BRANCH   7   8
ATOM      8  C   UNL A   1      33.385  27.765  25.250  1.00  0.00     0.243 C 
ATOM      9  O   UNL A   1      34.208  28.667  25.476  1.00  0.00    -0.273 OA
BRANCH   8  10
ATOM     10  N   UNL A   1      32.395  27.925  24.301  1.00  0.00    -0.225 N 
ATOM     11  N   UNL A   1      31.323  28.775  24.571  1.00  0.00    -0.174 NA
ATOM     12  C   UNL A   1      32.285  27.331  22.972  1.00  0.00     0.147 C 
ATOM     13  C   UNL A   1      30.619  28.845  23.482  1.00  0.00     0.071 C 
ATOM     14  C   UNL A   1      31.111  28.025  22.335  1.00  0.00     0.091 C 
BRANCH  12  15
ATOM     15  C   UNL A   1      32.217  25.816  22.963  1.00  0.00    -0.019 A 
ATOM     16  C   UNL A   1      33.122  25.081  22.154  1.00  0.00     0.010 A 
ATOM     17  C   UNL A   1      31.355  25.115  23.817  1.00  0.00     0.056 A 
ATOM     18  C   UNL A   1      33.246  23.696  22.249  1.00  0.00     0.051 A 
ATOM     19  C   UNL A   1      31.524  23.750  23.920  1.00  0.00     0.166 A 
ATOM     20  C   UNL A   1      32.454  23.065  23.173  1.00  0.00     0.165 A 
ATOM     21  O   UNL A   1      30.874  22.935  24.795  1.00  0.00    -0.454 OA
ATOM     22  O   UNL A   1      32.517  21.747  23.495  1.00  0.00    -0.454 OA
ATOM     23  C   UNL A   1      31.635  21.720  24.634  1.00  0.00     0.468 C 
ENDBRANCH  12  15
BRANCH  13  24
ATOM     24  C   UNL A   1      29.519  29.782  23.217  1.00  0.00    -0.002 A 
ATOM     25  C   UNL A   1      29.459  30.974  23.943  1.00  0.00     0.010 A 
ATOM     26  C   UNL A   1      28.714  29.598  22.088  1.00  0.00     0.010 A 
ATOM     27  C   UNL A   1      28.614  31.999  23.511  1.00  0.00     0.001 A 
ATOM     28  C   UNL A   1      27.868  30.622  21.665  1.00  0.00     0.001 A 
ATOM     29  C   UNL A   1      27.829  31.826  22.369  1.00  0.00     0.000 A 
ENDBRANCH  13  24
ENDBRANCH   8  10
ENDBRANCH   7   8
ENDBRANCH   6   7
ENDBRANCH   4   6
ENDBRANCH   1   2
BRANCH   1  30
ATOM     30  C   UNL A   1      36.105  20.629  25.304  1.00  0.00     0.042 C 
BRANCH  30  31
ATOM     31  C   UNL A   1      37.461  21.052  24.710  1.00  0.00     0.118 C 
BRANCH  31  32
ATOM     32  N   UNL A   1      38.605  20.251  25.108  1.00  0.00    -0.352 N 
ATOM     33  C   UNL A   1      39.613  20.524  26.012  1.00  0.00     0.251 C 
ATOM     34  H   UNL A   1      38.673  19.376  24.662  1.00  0.00     0.163 HD
ATOM     35  O   UNL A   1      40.446  19.646  26.235  1.00  0.00    -0.269 OA
BRANCH  33  36
ATOM     36  C   UNL A   1      39.776  21.853  26.669  1.00  0.00     0.039 A 
ATOM     37  C   UNL A   1      40.733  21.938  27.693  1.00  0.00     0.014 A 
ATOM     38  C   UNL A   1      39.065  23.002  26.313  1.00  0.00     0.014 A 
ATOM     39  C   UNL A   1      41.088  23.178  28.235  1.00  0.00     0.010 A 
ATOM     40  C   UNL A   1      39.440  24.252  26.834  1.00  0.00     0.010 A 
ATOM     41  C   UNL A   1      40.504  24.355  27.745  1.00  0.00    -0.014 A 
BRANCH  41  42
ATOM     42  C   UNL A   1      41.203  25.657  27.939  1.00  0.00     0.031 A 
ATOM     43  C   UNL A   1      42.616  25.910  27.508  1.00  0.00     0.074 A 
ATOM     44  C   UNL A   1      40.523  26.621  28.595  1.00  0.00     0.049 A 
ATOM     45  N   UNL A   1      43.309  27.018  27.593  1.00  0.00    -0.248 NA
ATOM     46  C   UNL A   1      43.352  24.784  26.918  1.00  0.00     0.031 C 
ATOM     47  C   UNL A   1      39.164  26.470  29.126  1.00  0.00     0.029 A 
ATOM     48  N   UNL A   1      40.873  27.900  28.947  1.00  0.00    -0.354 N 
ATOM     49  C   UNL A   1      44.566  26.729  27.078  1.00  0.00     0.074 A 
ATOM     50  C   UNL A   1      44.543  25.330  26.695  1.00  0.00     0.031 C 
ATOM     51  C   UNL A   1      38.799  27.606  29.735  1.00  0.00     0.029 A 
ATOM     52  C   UNL A   1      39.898  28.560  29.659  1.00  0.00     0.049 A 
ATOM     53  H   UNL A   1      41.739  28.306  28.713  1.00  0.00     0.167 HD
ATOM     54  C   UNL A   1      45.629  27.557  26.925  1.00  0.00     0.034 A 
ATOM     55  C   UNL A   1      39.882  29.795  30.197  1.00  0.00     0.034 A 
ATOM     56  C   UNL A   1      45.644  28.949  27.305  1.00  0.00     0.049 A 
ATOM     57  C   UNL A   1      41.066  30.694  29.993  1.00  0.00     0.074 A 
ATOM     58  C   UNL A   1      46.651  29.883  27.120  1.00  0.00     0.029 A 
ATOM     59  N   UNL A   1      44.617  29.604  27.969  1.00  0.00    -0.354 N 
ATOM     60  N   UNL A   1      42.175  30.456  29.338  1.00  0.00    -0.248 NA
ATOM     61  C   UNL A   1      40.985  32.044  30.571  1.00  0.00     0.031 C 
ATOM     62  C   UNL A   1      46.242  31.094  27.690  1.00  0.00     0.029 A 
ATOM     63  C   UNL A   1      44.972  30.922  28.218  1.00  0.00     0.049 A 
ATOM     64  H   UNL A   1      43.761  29.193  28.226  1.00  0.00     0.167 HD
ATOM     65  C   UNL A   1      42.916  31.630  29.403  1.00  0.00     0.074 A 
ATOM     66  C   UNL A   1      42.114  32.588  30.138  1.00  0.00     0.031 C 
ATOM     67  C   UNL A   1      44.155  31.882  28.917  1.00  0.00     0.034 A 
BRANCH  54  68
ATOM     68  C   UNL A   1      46.866  26.998  26.265  1.00  0.00     0.023 A 
ATOM     69  C   UNL A   1      47.018  27.124  24.870  1.00  0.00     0.012 A 
ATOM     70  C   UNL A   1      47.907  26.425  27.023  1.00  0.00     0.148 A 
ATOM     71  C   UNL A   1      48.170  26.663  24.234  1.00  0.00     0.002 A 
ATOM     72  C   UNL A   1      49.068  25.997  26.386  1.00  0.00     0.091 A 
ATOM     73  F   UNL A   1      47.742  26.302  28.348  1.00  0.00    -0.205 F 
ATOM     74  C   UNL A   1      49.197  26.107  24.992  1.00  0.00     0.022 A 
BRANCH  72  75
ATOM     75  S   UNL A   1      50.473  25.325  27.282  1.00  0.00     0.127 S 
ATOM     76  O   UNL A   1      51.385  24.988  26.190  1.00  0.00    -0.237 OA
ATOM     77  O   UNL A   1      50.896  26.463  28.098  1.00  0.00    -0.237 OA
ATOM     78  O   UNL A   1      49.959  24.193  28.041  1.00  0.00    -0.744 OA
ENDBRANCH  72  75
ENDBRANCH  54  68
BRANCH  55  79
ATOM     79  C   UNL A   1      38.666  30.266  30.917  1.00  0.00     0.023 A 
ATOM     80  C   UNL A   1      38.586  30.110  32.313  1.00  0.00     0.012 A 
ATOM     81  C   UNL A   1      37.620  30.919  30.236  1.00  0.00     0.148 A 
ATOM     82  C   UNL A   1      37.475  30.578  33.017  1.00  0.00     0.002 A 
ATOM     83  C   UNL A   1      36.544  31.434  30.950  1.00  0.00     0.091 A 
ATOM     84  F   UNL A   1      37.707  31.045  28.904  1.00  0.00    -0.205 F 
ATOM     85  C   UNL A   1      36.462  31.250  32.339  1.00  0.00     0.022 A 
BRANCH  83  86
ATOM     86  S   UNL A   1      35.281  32.444  30.168  1.00  0.00     0.127 S 
ATOM     87  O   UNL A   1      34.329  32.634  31.258  1.00  0.00    -0.237 OA
ATOM     88  O   UNL A   1      36.034  33.641  29.789  1.00  0.00    -0.237 OA
ATOM     89  O   UNL A   1      34.808  31.661  29.033  1.00  0.00    -0.744 OA
ENDBRANCH  83  86
ENDBRANCH  55  79
BRANCH  67  90
ATOM     90  C   UNL A   1      44.728  33.253  29.163  1.00  0.00     0.023 A 
ATOM     91  C   UNL A   1      45.509  33.479  30.314  1.00  0.00     0.012 A 
ATOM     92  C   UNL A   1      44.544  34.297  28.236  1.00  0.00     0.148 A 
ATOM     93  C   UNL A   1      46.077  34.731  30.552  1.00  0.00     0.002 A 
ATOM     94  C   UNL A   1      45.149  35.530  28.458  1.00  0.00     0.091 A 
ATOM     95  F   UNL A   1      43.777  34.070  27.160  1.00  0.00    -0.205 F 
ATOM     96  C   UNL A   1      45.906  35.751  29.620  1.00  0.00     0.022 A 
BRANCH  94  97
ATOM     97  S   UNL A   1      45.053  36.875  27.271  1.00  0.00     0.127 S 
ATOM     98  O   UNL A   1      45.854  36.354  26.165  1.00  0.00    -0.237 OA
ATOM     99  O   UNL A   1      43.617  36.951  27.001  1.00  0.00    -0.237 OA
ATOM    100  O   UNL A   1      45.601  38.043  27.948  1.00  0.00    -0.744 OA
ENDBRANCH  94  97
ENDBRANCH  67  90
ENDBRANCH  41  42
ENDBRANCH  33  36
ENDBRANCH  31  32
ENDBRANCH  30  31
ENDBRANCH   1  30
TORSDOF 18
ENDMDL
MODEL 2
REMARK VINA RESULT:     -13.0      4.907     10.324
REMARK SMILES O=C(CCC(=O)N1N=C(c2ccccc2)C[C@@H]1c1ccc2c(c1)OCO2)NCCCNC(=O)c1ccc(-c2c3nc(c(-c4cccc(S(=O)(=O)[O-])c4F)c4ccc([nH]4)c(-c4cccc(S(=O)(=O)[O-])c4F)c4nc(c(-c5cccc(S(=O)(=O)[O-])c5F)c5ccc2[nH]5)C=C4)C=C3)cc1
REMARK SMILES IDX 28 1 27 2 1 3 2 4 3 6 4 7 5 8 6 9 7 10 8 11 17 12 9 13 16 14
REMARK SMILES IDX 18 15 19 16 23 17 20 18 22 19 21 20 24 21 26 22 25 23 10 24
REMARK SMILES IDX 11 25 15 26 12 27 14 28 13 29 29 30 30 31 31 32 32 33 33 35
REMARK SMILES IDX 34 36 35 37 96 38 36 39 95 40 37 41 38 42 39 43 89 44 40 45
REMARK SMILES IDX 94 46 88 47 90 48 41 49 93 50 87 51 86 52 42 54 74 55 54 56
REMARK SMILES IDX 73 57 55 58 58 59 72 60 91 61 56 62 57 63 71 65 92 66 59 67
REMARK SMILES IDX 43 68 44 69 52 70 45 71 47 72 53 73 46 74 48 75 49 76 50 77
REMARK SMILES IDX 51 78 75 79 76 80 84 81 77 82 79 83 85 84 78 85 80 86 81 87
REMARK SMILES IDX 82 88 83 89 60 90 61 91 69 92 62 93 64 94 70 95 63 96 65 97
REMARK SMILES IDX 66 98 67 99 68 100
REMARK H PARENT 27 5 31 34 90 53 58 64
REMARK Flexibility Score: inf
ROOT
ATOM      1  C   UNL A   1      31.485  27.752  26.197  1.00  0.00     0.117 C 
ENDROOT
BRANCH   1   2
ATOM      2  N   UNL A   1      32.421  26.641  26.061  1.00  0.00    -0.356 N 
ATOM      3  O   UNL A   1      33.333  27.440  24.114  1.00  0.00    -0.275 OA
ATOM      4  C   UNL A   1      33.370  26.649  25.042  1.00  0.00     0.220 C 
ATOM      5  H   UNL A   1      32.383  25.885  26.690  1.00  0.00     0.163 HD
BRANCH   4   6
ATOM      6  C   UNL A   1      34.517  25.660  25.236  1.00  0.00     0.110 C 
BRANCH   6   7
ATOM      7  C   UNL A   1      34.117  24.479  26.121  1.00  0.00     0.112 C 
BRANCH   7   8
ATOM      8  C   UNL A   1      34.654  23.042  25.990  1.00  0.00     0.243 C 
ATOM      9  O   UNL A   1      35.762  22.817  26.503  1.00  0.00    -0.273 OA
BRANCH   8  10
ATOM     10  N   UNL A   1      33.879  22.016  25.486  1.00  0.00    -0.225 N 
ATOM     11  N   UNL A   1      34.464  20.771  25.254  1.00  0.00    -0.174 NA
ATOM     12  C   UNL A   1      32.458  22.009  25.154  1.00  0.00     0.147 C 
ATOM     13  C   UNL A   1      33.505  19.966  24.913  1.00  0.00     0.071 C 
ATOM     14  C   UNL A   1      32.140  20.571  24.844  1.00  0.00     0.091 C 
BRANCH  12  15
ATOM     15  C   UNL A   1      32.058  23.000  24.078  1.00  0.00    -0.019 A 
ATOM     16  C   UNL A   1      30.938  23.846  24.287  1.00  0.00     0.010 A 
ATOM     17  C   UNL A   1      32.832  23.182  22.923  1.00  0.00     0.056 A 
ATOM     18  C   UNL A   1      30.638  24.907  23.435  1.00  0.00     0.051 A 
ATOM     19  C   UNL A   1      32.538  24.261  22.116  1.00  0.00     0.166 A 
ATOM     20  C   UNL A   1      31.484  25.108  22.376  1.00  0.00     0.165 A 
ATOM     21  O   UNL A   1      33.263  24.667  21.039  1.00  0.00    -0.454 OA
ATOM     22  O   UNL A   1      31.429  26.154  21.511  1.00  0.00    -0.454 OA
ATOM     23  C   UNL A   1      32.655  25.950  20.783  1.00  0.00     0.468 C 
ENDBRANCH  12  15
BRANCH  13  24
ATOM     24  C   UNL A   1      33.601  18.506  24.779  1.00  0.00    -0.002 A 
ATOM     25  C   UNL A   1      34.847  17.936  24.502  1.00  0.00     0.010 A 
ATOM     26  C   UNL A   1      32.528  17.705  25.181  1.00  0.00     0.010 A 
ATOM     27  C   UNL A   1      35.022  16.560  24.664  1.00  0.00     0.001 A 
ATOM     28  C   UNL A   1      32.708  16.331  25.335  1.00  0.00     0.001 A 
ATOM     29  C   UNL A   1      33.957  15.762  25.090  1.00  0.00     0.000 A 
ENDBRANCH  13  24
ENDBRANCH   8  10
ENDBRANCH   7   8
ENDBRANCH   6   7
ENDBRANCH   4   6
ENDBRANCH   1   2
BRANCH   1  30
ATOM     30  C   UNL A   1      31.953  28.921  27.081  1.00  0.00     0.042 C 
BRANCH  30  31
ATOM     31  C   UNL A   1      32.697  30.097  26.421  1.00  0.00     0.118 C 
BRANCH  31  32
ATOM     32  N   UNL A   1      32.766  31.321  27.199  1.00  0.00    -0.352 N 
ATOM     33  C   UNL A   1      33.835  31.905  27.849  1.00  0.00     0.251 C 
ATOM     34  H   UNL A   1      31.916  31.812  27.275  1.00  0.00     0.163 HD
ATOM     35  O   UNL A   1      33.660  32.996  28.390  1.00  0.00    -0.269 OA
BRANCH  33  36
ATOM     36  C   UNL A   1      35.163  31.240  27.986  1.00  0.00     0.039 A 
ATOM     37  C   UNL A   1      36.280  32.080  28.119  1.00  0.00     0.014 A 
ATOM     38  C   UNL A   1      35.353  29.855  28.017  1.00  0.00     0.014 A 
ATOM     39  C   UNL A   1      37.535  31.552  28.441  1.00  0.00     0.010 A 
ATOM     40  C   UNL A   1      36.605  29.324  28.368  1.00  0.00     0.010 A 
ATOM     41  C   UNL A   1      37.686  30.174  28.654  1.00  0.00    -0.014 A 
BRANCH  41  42
ATOM     42  C   UNL A   1      38.840  29.678  29.457  1.00  0.00     0.031 A 
ATOM     43  C   UNL A   1      39.197  30.215  30.810  1.00  0.00     0.074 A 
ATOM     44  C   UNL A   1      39.622  28.740  28.884  1.00  0.00     0.049 A 
ATOM     45  N   UNL A   1      40.157  29.829  31.613  1.00  0.00    -0.248 NA
ATOM     46  C   UNL A   1      38.391  31.327  31.329  1.00  0.00     0.031 C 
ATOM     47  C   UNL A   1      39.416  28.188  27.540  1.00  0.00     0.029 A 
ATOM     48  N   UNL A   1      40.747  28.097  29.333  1.00  0.00    -0.354 N 
ATOM     49  C   UNL A   1      40.083  30.651  32.730  1.00  0.00     0.074 A 
ATOM     50  C   UNL A   1      38.987  31.571  32.491  1.00  0.00     0.031 C 
ATOM     51  C   UNL A   1      40.380  27.296  27.276  1.00  0.00     0.029 A 
ATOM     52  C   UNL A   1      41.285  27.223  28.416  1.00  0.00     0.049 A 
ATOM     53  H   UNL A   1      41.134  28.247  30.226  1.00  0.00     0.167 HD
ATOM     54  C   UNL A   1      40.846  30.628  33.851  1.00  0.00     0.034 A 
ATOM     55  C   UNL A   1      42.384  26.446  28.476  1.00  0.00     0.034 A 
ATOM     56  C   UNL A   1      41.933  29.708  34.083  1.00  0.00     0.049 A 
ATOM     57  C   UNL A   1      43.195  26.428  29.738  1.00  0.00     0.074 A 
ATOM     58  C   UNL A   1      42.712  29.562  35.219  1.00  0.00     0.029 A 
ATOM     59  N   UNL A   1      42.412  28.793  33.157  1.00  0.00    -0.354 N 
ATOM     60  N   UNL A   1      42.993  27.084  30.854  1.00  0.00    -0.248 NA
ATOM     61  C   UNL A   1      44.365  25.538  29.764  1.00  0.00     0.031 C 
ATOM     62  C   UNL A   1      43.675  28.577  34.972  1.00  0.00     0.029 A 
ATOM     63  C   UNL A   1      43.488  28.095  33.687  1.00  0.00     0.049 A 
ATOM     64  H   UNL A   1      42.044  28.659  32.255  1.00  0.00     0.167 HD
ATOM     65  C   UNL A   1      43.995  26.672  31.724  1.00  0.00     0.074 A 
ATOM     66  C   UNL A   1      44.785  25.686  31.014  1.00  0.00     0.031 C 
ATOM     67  C   UNL A   1      44.247  27.088  32.989  1.00  0.00     0.034 A 
BRANCH  54  68
ATOM     68  C   UNL A   1      40.502  31.598  34.954  1.00  0.00     0.023 A 
ATOM     69  C   UNL A   1      41.195  32.822  35.035  1.00  0.00     0.012 A 
ATOM     70  C   UNL A   1      39.450  31.341  35.856  1.00  0.00     0.148 A 
ATOM     71  C   UNL A   1      40.869  33.763  36.011  1.00  0.00     0.002 A 
ATOM     72  C   UNL A   1      39.109  32.299  36.807  1.00  0.00     0.091 A 
ATOM     73  F   UNL A   1      38.808  30.167  35.774  1.00  0.00    -0.205 F 
ATOM     74  C   UNL A   1      39.823  33.505  36.891  1.00  0.00     0.022 A 
BRANCH  72  75
ATOM     75  S   UNL A   1      37.734  32.086  37.946  1.00  0.00     0.127 S 
ATOM     76  O   UNL A   1      36.753  33.023  37.401  1.00  0.00    -0.237 OA
ATOM     77  O   UNL A   1      37.394  30.675  37.764  1.00  0.00    -0.237 OA
ATOM     78  O   UNL A   1      38.253  32.418  39.265  1.00  0.00    -0.744 OA
ENDBRANCH  72  75
ENDBRANCH  54  68
BRANCH  55  79
ATOM     79  C   UNL A   1      42.727  25.572  27.320  1.00  0.00     0.023 A 
ATOM     80  C   UNL A   1      43.608  26.047  26.331  1.00  0.00     0.012 A 
ATOM     81  C   UNL A   1      42.237  24.255  27.228  1.00  0.00     0.148 A 
ATOM     82  C   UNL A   1      43.977  25.234  25.259  1.00  0.00     0.002 A 
ATOM     83  C   UNL A   1      42.655  23.430  26.190  1.00  0.00     0.091 A 
ATOM     84  F   UNL A   1      41.387  23.824  28.172  1.00  0.00    -0.205 F 
ATOM     85  C   UNL A   1      43.512  23.924  25.195  1.00  0.00     0.022 A 
BRANCH  83  86
ATOM     86  S   UNL A   1      42.220  21.689  26.126  1.00  0.00     0.127 S 
ATOM     87  O   UNL A   1      43.032  21.216  25.009  1.00  0.00    -0.237 OA
ATOM     88  O   UNL A   1      42.649  21.216  27.444  1.00  0.00    -0.237 OA
ATOM     89  O   UNL A   1      40.777  21.657  25.928  1.00  0.00    -0.744 OA
ENDBRANCH  83  86
ENDBRANCH  55  79
BRANCH  67  90
ATOM     90  C   UNL A   1      45.432  26.480  33.693  1.00  0.00     0.023 A 
ATOM     91  C   UNL A   1      46.667  27.159  33.680  1.00  0.00     0.012 A 
ATOM     92  C   UNL A   1      45.313  25.275  34.411  1.00  0.00     0.148 A 
ATOM     93  C   UNL A   1      47.773  26.633  34.348  1.00  0.00     0.002 A 
ATOM     94  C   UNL A   1      46.408  24.779  35.110  1.00  0.00     0.091 A 
ATOM     95  F   UNL A   1      44.137  24.630  34.391  1.00  0.00    -0.205 F 
ATOM     96  C   UNL A   1      47.640  25.451  35.072  1.00  0.00     0.022 A 
BRANCH  94  97
ATOM     97  S   UNL A   1      46.306  23.309  36.138  1.00  0.00     0.127 S 
ATOM     98  O   UNL A   1      47.555  23.385  36.892  1.00  0.00    -0.237 OA
ATOM     99  O   UNL A   1      45.100  23.563  36.927  1.00  0.00    -0.237 OA
ATOM    100  O   UNL A   1      46.196  22.186  35.216  1.00  0.00    -0.744 OA
ENDBRANCH  94  97
ENDBRANCH  67  90
ENDBRANCH  41  42
ENDBRANCH  33  36
ENDBRANCH  31  32
ENDBRANCH  30  31
ENDBRANCH   1  30
TORSDOF 18
ENDMDL
MODEL 3
REMARK VINA RESULT:     -12.9      1.841      7.518
REMARK SMILES O=C(CCC(=O)N1N=C(c2ccccc2)C[C@@H]1c1ccc2c(c1)OCO2)NCCCNC(=O)c1ccc(-c2c3nc(c(-c4cccc(S(=O)(=O)[O-])c4F)c4ccc([nH]4)c(-c4cccc(S(=O)(=O)[O-])c4F)c4nc(c(-c5cccc(S(=O)(=O)[O-])c5F)c5ccc2[nH]5)C=C4)C=C3)cc1
REMARK SMILES IDX 28 1 27 2 1 3 2 4 3 6 4 7 5 8 6 9 7 10 8 11 17 12 9 13 16 14
REMARK SMILES IDX 18 15 19 16 23 17 20 18 22 19 21 20 24 21 26 22 25 23 10 24
REMARK SMILES IDX 11 25 15 26 12 27 14 28 13 29 29 30 30 31 31 32 32 33 33 35
REMARK SMILES IDX 34 36 35 37 96 38 36 39 95 40 37 41 38 42 39 43 89 44 40 45
REMARK SMILES IDX 94 46 88 47 90 48 41 49 93 50 87 51 86 52 42 54 74 55 54 56
REMARK SMILES IDX 73 57 55 58 58 59 72 60 91 61 56 62 57 63 71 65 92 66 59 67
REMARK SMILES IDX 43 68 44 69 52 70 45 71 47 72 53 73 46 74 48 75 49 76 50 77
REMARK SMILES IDX 51 78 75 79 76 80 84 81 77 82 79 83 85 84 78 85 80 86 81 87
REMARK SMILES IDX 82 88 83 89 60 90 61 91 69 92 62 93 64 94 70 95 63 96 65 97
REMARK SMILES IDX 66 98 67 99 68 100
REMARK H PARENT 27 5 31 34 90 53 58 64
REMARK Flexibility Score: inf
ROOT
ATOM      1  C   UNL A   1      36.992  21.423  25.317  1.00  0.00     0.117 C 
ENDROOT
BRANCH   1   2
ATOM      2  N   UNL A   1      35.908  21.744  24.394  1.00  0.00    -0.356 N 
ATOM      3  O   UNL A   1      35.944  23.985  24.878  1.00  0.00    -0.275 OA
ATOM      4  C   UNL A   1      35.545  23.070  24.177  1.00  0.00     0.220 C 
ATOM      5  H   UNL A   1      35.433  21.021  23.923  1.00  0.00     0.163 HD
BRANCH   4   6
ATOM      6  C   UNL A   1      34.696  23.298  22.929  1.00  0.00     0.110 C 
BRANCH   6   7
ATOM      7  C   UNL A   1      34.330  24.771  22.743  1.00  0.00     0.112 C 
BRANCH   7   8
ATOM      8  C   UNL A   1      33.102  25.296  21.977  1.00  0.00     0.243 C 
ATOM      9  O   UNL A   1      33.171  25.274  20.738  1.00  0.00    -0.273 OA
BRANCH   8  10
ATOM     10  N   UNL A   1      31.921  25.614  22.619  1.00  0.00    -0.225 N 
ATOM     11  N   UNL A   1      31.581  26.955  22.794  1.00  0.00    -0.174 NA
ATOM     12  C   UNL A   1      30.897  24.727  23.160  1.00  0.00     0.147 C 
ATOM     13  C   UNL A   1      30.384  26.973  23.297  1.00  0.00     0.071 C 
ATOM     14  C   UNL A   1      29.764  25.638  23.553  1.00  0.00     0.091 C 
BRANCH  12  15
ATOM     15  C   UNL A   1      31.383  23.799  24.257  1.00  0.00    -0.019 A 
ATOM     16  C   UNL A   1      31.361  22.395  24.046  1.00  0.00     0.010 A 
ATOM     17  C   UNL A   1      31.957  24.293  25.435  1.00  0.00     0.056 A 
ATOM     18  C   UNL A   1      31.973  21.502  24.923  1.00  0.00     0.051 A 
ATOM     19  C   UNL A   1      32.589  23.393  26.268  1.00  0.00     0.166 A 
ATOM     20  C   UNL A   1      32.612  22.042  26.010  1.00  0.00     0.165 A 
ATOM     21  O   UNL A   1      33.313  23.711  27.376  1.00  0.00    -0.454 OA
ATOM     22  O   UNL A   1      33.363  21.350  26.905  1.00  0.00    -0.454 OA
ATOM     23  C   UNL A   1      33.932  22.439  27.657  1.00  0.00     0.468 C 
ENDBRANCH  12  15
BRANCH  13  24
ATOM     24  C   UNL A   1      29.524  28.154  23.454  1.00  0.00    -0.002 A 
ATOM     25  C   UNL A   1      30.122  29.396  23.691  1.00  0.00     0.010 A 
ATOM     26  C   UNL A   1      28.171  28.072  23.113  1.00  0.00     0.010 A 
ATOM     27  C   UNL A   1      29.364  30.560  23.548  1.00  0.00     0.001 A 
ATOM     28  C   UNL A   1      27.418  29.238  22.978  1.00  0.00     0.001 A 
ATOM     29  C   UNL A   1      28.018  30.480  23.182  1.00  0.00     0.000 A 
ENDBRANCH  13  24
ENDBRANCH   8  10
ENDBRANCH   7   8
ENDBRANCH   6   7
ENDBRANCH   4   6
ENDBRANCH   1   2
BRANCH   1  30
ATOM     30  C   UNL A   1      37.933  20.287  24.881  1.00  0.00     0.042 C 
BRANCH  30  31
ATOM     31  C   UNL A   1      38.640  19.453  25.965  1.00  0.00     0.118 C 
BRANCH  31  32
ATOM     32  N   UNL A   1      40.060  19.224  25.764  1.00  0.00    -0.352 N 
ATOM     33  C   UNL A   1      41.147  19.995  26.125  1.00  0.00     0.251 C 
ATOM     34  H   UNL A   1      40.282  18.386  25.297  1.00  0.00     0.163 HD
ATOM     35  O   UNL A   1      42.273  19.549  25.906  1.00  0.00    -0.269 OA
BRANCH  33  36
ATOM     36  C   UNL A   1      41.016  21.367  26.696  1.00  0.00     0.039 A 
ATOM     37  C   UNL A   1      41.709  21.623  27.890  1.00  0.00     0.014 A 
ATOM     38  C   UNL A   1      40.279  22.399  26.109  1.00  0.00     0.014 A 
ATOM     39  C   UNL A   1      41.799  22.924  28.396  1.00  0.00     0.010 A 
ATOM     40  C   UNL A   1      40.391  23.711  26.598  1.00  0.00     0.010 A 
ATOM     41  C   UNL A   1      41.211  23.993  27.703  1.00  0.00    -0.014 A 
BRANCH  41  42
ATOM     42  C   UNL A   1      41.704  25.380  27.938  1.00  0.00     0.031 A 
ATOM     43  C   UNL A   1      40.885  26.449  28.595  1.00  0.00     0.074 A 
ATOM     44  C   UNL A   1      42.935  25.676  27.468  1.00  0.00     0.049 A 
ATOM     45  N   UNL A   1      41.230  27.678  28.884  1.00  0.00    -0.248 NA
ATOM     46  C   UNL A   1      39.506  26.108  28.966  1.00  0.00     0.031 C 
ATOM     47  C   UNL A   1      43.802  24.737  26.748  1.00  0.00     0.029 A 
ATOM     48  N   UNL A   1      43.665  26.837  27.502  1.00  0.00    -0.354 N 
ATOM     49  C   UNL A   1      40.114  28.268  29.464  1.00  0.00     0.074 A 
ATOM     50  C   UNL A   1      39.072  27.259  29.470  1.00  0.00     0.031 C 
ATOM     51  C   UNL A   1      44.939  25.358  26.409  1.00  0.00     0.029 A 
ATOM     52  C   UNL A   1      44.880  26.741  26.864  1.00  0.00     0.049 A 
ATOM     53  H   UNL A   1      43.348  27.660  27.940  1.00  0.00     0.167 HD
ATOM     54  C   UNL A   1      39.979  29.525  29.957  1.00  0.00     0.034 A 
ATOM     55  C   UNL A   1      45.846  27.658  26.662  1.00  0.00     0.034 A 
ATOM     56  C   UNL A   1      41.022  30.523  29.949  1.00  0.00     0.049 A 
ATOM     57  C   UNL A   1      45.675  29.034  27.237  1.00  0.00     0.074 A 
ATOM     58  C   UNL A   1      40.999  31.797  30.493  1.00  0.00     0.029 A 
ATOM     59  N   UNL A   1      42.264  30.372  29.350  1.00  0.00    -0.354 N 
ATOM     60  N   UNL A   1      44.681  29.511  27.945  1.00  0.00    -0.248 NA
ATOM     61  C   UNL A   1      46.772  29.988  27.018  1.00  0.00     0.031 C 
ATOM     62  C   UNL A   1      42.217  32.423  30.203  1.00  0.00     0.029 A 
ATOM     63  C   UNL A   1      43.007  31.535  29.492  1.00  0.00     0.049 A 
ATOM     64  H   UNL A   1      42.572  29.559  28.890  1.00  0.00     0.167 HD
ATOM     65  C   UNL A   1      45.040  30.812  28.276  1.00  0.00     0.074 A 
ATOM     66  C   UNL A   1      46.357  31.037  27.715  1.00  0.00     0.031 C 
ATOM     67  C   UNL A   1      44.333  31.740  28.964  1.00  0.00     0.034 A 
BRANCH  54  68
ATOM     68  C   UNL A   1      38.666  29.888  30.603  1.00  0.00     0.023 A 
ATOM     69  C   UNL A   1      38.393  29.435  31.909  1.00  0.00     0.012 A 
ATOM     70  C   UNL A   1      37.741  30.736  29.961  1.00  0.00     0.148 A 
ATOM     71  C   UNL A   1      37.211  29.794  32.556  1.00  0.00     0.002 A 
ATOM     72  C   UNL A   1      36.578  31.116  30.624  1.00  0.00     0.091 A 
ATOM     73  F   UNL A   1      38.010  31.149  28.714  1.00  0.00    -0.205 F 
ATOM     74  C   UNL A   1      36.308  30.639  31.917  1.00  0.00     0.022 A 
BRANCH  72  75
ATOM     75  S   UNL A   1      35.382  32.252  29.910  1.00  0.00     0.127 S 
ATOM     76  O   UNL A   1      36.232  33.388  29.554  1.00  0.00    -0.237 OA
ATOM     77  O   UNL A   1      34.873  31.492  28.768  1.00  0.00    -0.237 OA
ATOM     78  O   UNL A   1      34.400  32.507  30.954  1.00  0.00    -0.744 OA
ENDBRANCH  72  75
ENDBRANCH  54  68
BRANCH  55  79
ATOM     79  C   UNL A   1      47.087  27.269  25.938  1.00  0.00     0.023 A 
ATOM     80  C   UNL A   1      48.028  26.438  26.574  1.00  0.00     0.012 A 
ATOM     81  C   UNL A   1      47.311  27.666  24.605  1.00  0.00     0.148 A 
ATOM     82  C   UNL A   1      49.181  26.027  25.904  1.00  0.00     0.002 A 
ATOM     83  C   UNL A   1      48.431  27.204  23.923  1.00  0.00     0.091 A 
ATOM     84  F   UNL A   1      46.411  28.469  24.020  1.00  0.00    -0.205 F 
ATOM     85  C   UNL A   1      49.376  26.398  24.577  1.00  0.00     0.022 A 
BRANCH  83  86
ATOM     86  S   UNL A   1      48.671  27.514  22.170  1.00  0.00     0.127 S 
ATOM     87  O   UNL A   1      48.700  26.160  21.626  1.00  0.00    -0.237 OA
ATOM     88  O   UNL A   1      47.478  28.291  21.828  1.00  0.00    -0.237 OA
ATOM     89  O   UNL A   1      49.914  28.269  22.077  1.00  0.00    -0.744 OA
ENDBRANCH  83  86
ENDBRANCH  55  79
BRANCH  67  90
ATOM     90  C   UNL A   1      44.967  33.094  29.151  1.00  0.00     0.023 A 
ATOM     91  C   UNL A   1      45.745  33.341  30.300  1.00  0.00     0.012 A 
ATOM     92  C   UNL A   1      44.843  34.097  28.170  1.00  0.00     0.148 A 
ATOM     93  C   UNL A   1      46.367  34.575  30.483  1.00  0.00     0.002 A 
ATOM     94  C   UNL A   1      45.503  35.310  28.340  1.00  0.00     0.091 A 
ATOM     95  F   UNL A   1      44.078  33.853  27.096  1.00  0.00    -0.205 F 
ATOM     96  C   UNL A   1      46.256  35.554  29.500  1.00  0.00     0.022 A 
BRANCH  94  97
ATOM     97  S   UNL A   1      45.485  36.597  27.086  1.00  0.00     0.127 S 
ATOM     98  O   UNL A   1      46.069  35.905  25.940  1.00  0.00    -0.237 OA
ATOM     99  O   UNL A   1      44.056  36.889  26.960  1.00  0.00    -0.237 OA
ATOM    100  O   UNL A   1      46.276  37.693  27.630  1.00  0.00    -0.744 OA
ENDBRANCH  94  97
ENDBRANCH  67  90
ENDBRANCH  41  42
ENDBRANCH  33  36
ENDBRANCH  31  32
ENDBRANCH  30  31
ENDBRANCH   1  30
TORSDOF 18
ENDMDL
