MODEL 1
REMARK VINA RESULT:     -10.3      0.000      0.000
REMARK SMILES COc1ccc([C@H]2CC(c3ccc(S(C)(=O)=O)cc3)=NN2c2ccc(C(=O)NCCCNC(=O)c3ccc(-c4c5nc(c(-c6cccc(S(=O)(=O)[O-])c6F)c6ccc([nH]6)c(-c6cccc(S(=O)(=O)[O-])c6F)c6nc(c(-c7cccc(S(=O)(=O)[O-])c7F)c7ccc4[nH]7)C=C6)C=C5)cc3)cc2)cc1
REMARK SMILES IDX 30 1 29 2 28 3 26 4 27 5 25 7 22 8 23 9 99 10 24 11 98 12
REMARK SMILES IDX 21 13 7 14 8 15 9 16 20 17 6 18 3 19 4 20 101 21 5 22 100 23
REMARK SMILES IDX 2 24 1 25 10 26 11 27 19 28 12 29 18 30 13 31 14 32 15 33
REMARK SMILES IDX 16 34 17 35 31 36 32 37 33 38 34 40 35 41 36 42 97 43 37 44
REMARK SMILES IDX 96 45 38 46 39 47 40 48 90 49 41 50 95 51 89 52 91 53 42 54
REMARK SMILES IDX 94 55 88 56 87 57 43 59 75 60 55 61 74 62 56 63 59 64 73 65
REMARK SMILES IDX 92 66 57 67 58 68 72 70 93 71 60 72 44 73 45 74 53 75 46 76
REMARK SMILES IDX 48 77 54 78 47 79 49 80 50 81 51 82 52 83 76 84 77 85 85 86
REMARK SMILES IDX 78 87 80 88 86 89 79 90 81 91 82 92 83 93 84 94 61 95 62 96
REMARK SMILES IDX 70 97 63 98 65 99 71 100 64 101 66 102 67 103 68 104 69 105
REMARK H PARENT 28 6 32 39 91 58 59 69
REMARK Flexibility Score: inf
ROOT
ATOM      1  C   UNL A   1      34.759  33.184  30.455  1.00  0.00     0.042 C 
ENDROOT
BRANCH   1   2
ATOM      2  C   UNL A   1      35.514  34.231  31.271  1.00  0.00     0.118 C 
BRANCH   2   3
ATOM      3  N   UNL A   1      36.235  33.620  32.372  1.00  0.00    -0.352 N 
ATOM      4  C   UNL A   1      37.569  33.434  32.621  1.00  0.00     0.251 C 
ATOM      5  O   UNL A   1      37.872  32.929  33.703  1.00  0.00    -0.269 OA
ATOM      6  H   UNL A   1      35.649  33.270  33.081  1.00  0.00     0.163 HD
BRANCH   4   7
ATOM      7  C   UNL A   1      38.654  33.863  31.693  1.00  0.00     0.039 A 
ATOM      8  C   UNL A   1      40.825  34.757  30.103  1.00  0.00     0.060 A 
ATOM      9  C   UNL A   1      40.975  34.560  31.479  1.00  0.00     0.029 A 
ATOM     10  C   UNL A   1      39.592  34.441  29.527  1.00  0.00     0.029 A 
ATOM     11  C   UNL A   1      39.901  34.141  32.268  1.00  0.00     0.016 A 
ATOM     12  C   UNL A   1      38.529  33.963  30.306  1.00  0.00     0.016 A 
BRANCH   8  13
ATOM     13  N   UNL A   1      41.890  35.227  29.354  1.00  0.00    -0.257 N 
ATOM     14  C   UNL A   1      43.264  34.742  29.472  1.00  0.00     0.144 C 
ATOM     15  C   UNL A   1      44.057  35.769  28.652  1.00  0.00     0.091 C 
ATOM     16  C   UNL A   1      42.956  36.726  28.299  1.00  0.00     0.071 C 
ATOM     17  N   UNL A   1      41.764  36.402  28.685  1.00  0.00    -0.176 NA
BRANCH  14  18
ATOM     18  C   UNL A   1      43.400  33.331  28.923  1.00  0.00    -0.023 A 
ATOM     19  C   UNL A   1      43.655  30.708  27.924  1.00  0.00     0.118 A 
ATOM     20  C   UNL A   1      42.995  30.942  29.130  1.00  0.00     0.047 A 
ATOM     21  C   UNL A   1      44.154  31.782  27.192  1.00  0.00     0.047 A 
ATOM     22  C   UNL A   1      42.875  32.241  29.633  1.00  0.00     0.010 A 
ATOM     23  C   UNL A   1      44.027  33.084  27.689  1.00  0.00     0.010 A 
BRANCH  19  24
ATOM     24  O   UNL A   1      43.713  29.403  27.516  1.00  0.00    -0.497 OA
ATOM     25  C   UNL A   1      44.937  29.044  26.882  1.00  0.00     0.278 C 
ENDBRANCH  19  24
ENDBRANCH  14  18
BRANCH  16  26
ATOM     26  C   UNL A   1      43.241  37.969  27.583  1.00  0.00    -0.002 A 
ATOM     27  C   UNL A   1      42.174  38.798  27.224  1.00  0.00     0.011 A 
ATOM     28  C   UNL A   1      44.555  38.294  27.244  1.00  0.00     0.011 A 
ATOM     29  C   UNL A   1      42.424  39.978  26.524  1.00  0.00     0.021 A 
ATOM     30  C   UNL A   1      44.805  39.461  26.521  1.00  0.00     0.021 A 
ATOM     31  C   UNL A   1      43.738  40.293  26.161  1.00  0.00     0.067 A 
BRANCH  31  32
ATOM     32  S   UNL A   1      44.048  41.776  25.230  1.00  0.00     0.175 S 
ATOM     33  C   UNL A   1      42.534  42.067  24.353  1.00  0.00     0.163 C 
ATOM     34  O   UNL A   1      44.244  42.843  26.190  1.00  0.00    -0.224 OA
ATOM     35  O   UNL A   1      45.068  41.467  24.243  1.00  0.00    -0.224 OA
ENDBRANCH  31  32
ENDBRANCH  16  26
ENDBRANCH   8  13
ENDBRANCH   4   7
ENDBRANCH   2   3
ENDBRANCH   1   2
BRANCH   1  36
ATOM     36  C   UNL A   1      35.011  33.289  28.951  1.00  0.00     0.118 C 
BRANCH  36  37
ATOM     37  N   UNL A   1      34.264  32.285  28.203  1.00  0.00    -0.352 N 
ATOM     38  C   UNL A   1      34.647  31.038  27.779  1.00  0.00     0.251 C 
ATOM     39  H   UNL A   1      33.344  32.542  27.966  1.00  0.00     0.163 HD
ATOM     40  O   UNL A   1      33.949  30.440  26.964  1.00  0.00    -0.269 OA
BRANCH  38  41
ATOM     41  C   UNL A   1      35.888  30.412  28.287  1.00  0.00     0.039 A 
ATOM     42  C   UNL A   1      37.078  30.600  27.577  1.00  0.00     0.014 A 
ATOM     43  C   UNL A   1      35.875  29.599  29.424  1.00  0.00     0.014 A 
ATOM     44  C   UNL A   1      38.261  30.014  28.033  1.00  0.00     0.010 A 
ATOM     45  C   UNL A   1      37.066  29.067  29.912  1.00  0.00     0.010 A 
ATOM     46  C   UNL A   1      38.269  29.261  29.218  1.00  0.00    -0.014 A 
BRANCH  46  47
ATOM     47  C   UNL A   1      39.526  28.681  29.755  1.00  0.00     0.031 A 
ATOM     48  C   UNL A   1      40.176  29.273  30.977  1.00  0.00     0.074 A 
ATOM     49  C   UNL A   1      40.133  27.683  29.085  1.00  0.00     0.049 A 
ATOM     50  N   UNL A   1      41.300  28.938  31.555  1.00  0.00    -0.248 NA
ATOM     51  C   UNL A   1      39.486  30.404  31.617  1.00  0.00     0.031 C 
ATOM     52  C   UNL A   1      39.639  27.075  27.847  1.00  0.00     0.029 A 
ATOM     53  N   UNL A   1      41.309  27.021  29.333  1.00  0.00    -0.354 N 
ATOM     54  C   UNL A   1      41.477  29.841  32.596  1.00  0.00     0.074 A 
ATOM     55  C   UNL A   1      40.353  30.753  32.556  1.00  0.00     0.031 C 
ATOM     56  C   UNL A   1      40.502  26.127  27.450  1.00  0.00     0.029 A 
ATOM     57  C   UNL A   1      41.622  26.078  28.383  1.00  0.00     0.049 A 
ATOM     58  H   UNL A   1      41.876  27.207  30.117  1.00  0.00     0.167 HD
ATOM     59  C   UNL A   1      42.467  29.893  33.518  1.00  0.00     0.034 A 
ATOM     60  C   UNL A   1      42.692  25.265  28.276  1.00  0.00     0.034 A 
ATOM     61  C   UNL A   1      43.552  28.950  33.586  1.00  0.00     0.049 A 
ATOM     62  C   UNL A   1      43.758  25.314  29.336  1.00  0.00     0.074 A 
ATOM     63  C   UNL A   1      44.539  28.841  34.550  1.00  0.00     0.029 A 
ATOM     64  N   UNL A   1      43.799  27.958  32.649  1.00  0.00    -0.354 N 
ATOM     65  N   UNL A   1      43.815  26.058  30.414  1.00  0.00    -0.248 NA
ATOM     66  C   UNL A   1      44.891  24.391  29.182  1.00  0.00     0.031 C 
ATOM     67  C   UNL A   1      45.395  27.797  34.184  1.00  0.00     0.029 A 
ATOM     68  C   UNL A   1      44.931  27.244  33.000  1.00  0.00     0.049 A 
ATOM     69  H   UNL A   1      43.248  27.787  31.851  1.00  0.00     0.167 HD
ATOM     70  C   UNL A   1      44.971  25.672  31.082  1.00  0.00     0.074 A 
ATOM     71  C   UNL A   1      45.573  24.613  30.297  1.00  0.00     0.031 C 
ATOM     72  C   UNL A   1      45.495  26.161  32.234  1.00  0.00     0.034 A 
BRANCH  59  73
ATOM     73  C   UNL A   1      42.396  30.977  34.561  1.00  0.00     0.023 A 
ATOM     74  C   UNL A   1      41.831  30.692  35.821  1.00  0.00     0.012 A 
ATOM     75  C   UNL A   1      42.921  32.260  34.315  1.00  0.00     0.148 A 
ATOM     76  C   UNL A   1      41.755  31.676  36.807  1.00  0.00     0.002 A 
ATOM     77  C   UNL A   1      42.879  33.225  35.317  1.00  0.00     0.091 A 
ATOM     78  F   UNL A   1      43.432  32.523  33.104  1.00  0.00    -0.205 F 
ATOM     79  C   UNL A   1      42.287  32.939  36.558  1.00  0.00     0.022 A 
BRANCH  77  80
ATOM     80  S   UNL A   1      43.608  34.855  35.112  1.00  0.00     0.127 S 
ATOM     81  O   UNL A   1      43.857  35.242  36.499  1.00  0.00    -0.237 OA
ATOM     82  O   UNL A   1      44.815  34.562  34.337  1.00  0.00    -0.237 OA
ATOM     83  O   UNL A   1      42.614  35.646  34.403  1.00  0.00    -0.744 OA
ENDBRANCH  77  80
ENDBRANCH  59  73
BRANCH  60  84
ATOM     84  C   UNL A   1      42.756  24.274  27.166  1.00  0.00     0.023 A 
ATOM     85  C   UNL A   1      43.481  24.599  26.003  1.00  0.00     0.012 A 
ATOM     86  C   UNL A   1      42.158  23.003  27.269  1.00  0.00     0.148 A 
ATOM     87  C   UNL A   1      43.594  23.686  24.955  1.00  0.00     0.002 A 
ATOM     88  C   UNL A   1      42.317  22.079  26.243  1.00  0.00     0.091 A 
ATOM     89  F   UNL A   1      41.464  22.717  28.380  1.00  0.00    -0.205 F 
ATOM     90  C   UNL A   1      43.023  22.423  25.080  1.00  0.00     0.022 A 
BRANCH  88  91
ATOM     91  S   UNL A   1      41.731  20.385  26.367  1.00  0.00     0.127 S 
ATOM     92  O   UNL A   1      42.436  19.742  25.260  1.00  0.00    -0.237 OA
ATOM     93  O   UNL A   1      42.196  20.001  27.701  1.00  0.00    -0.237 OA
ATOM     94  O   UNL A   1      40.282  20.459  26.235  1.00  0.00    -0.744 OA
ENDBRANCH  88  91
ENDBRANCH  60  84
BRANCH  72  95
ATOM     95  C   UNL A   1      46.778  25.548  32.731  1.00  0.00     0.023 A 
ATOM     96  C   UNL A   1      48.012  26.096  32.328  1.00  0.00     0.012 A 
ATOM     97  C   UNL A   1      46.762  24.483  33.652  1.00  0.00     0.148 A 
ATOM     98  C   UNL A   1      49.211  25.574  32.811  1.00  0.00     0.002 A 
ATOM     99  C   UNL A   1      47.960  23.998  34.165  1.00  0.00     0.091 A 
ATOM    100  F   UNL A   1      45.578  23.961  34.008  1.00  0.00    -0.205 F 
ATOM    101  C   UNL A   1      49.185  24.535  33.738  1.00  0.00     0.022 A 
BRANCH  99 102
ATOM    102  S   UNL A   1      48.016  22.724  35.432  1.00  0.00     0.127 S 
ATOM    103  O   UNL A   1      49.438  22.388  35.454  1.00  0.00    -0.237 OA
ATOM    104  O   UNL A   1      47.540  23.440  36.616  1.00  0.00    -0.237 OA
ATOM    105  O   UNL A   1      47.126  21.666  34.972  1.00  0.00    -0.744 OA
ENDBRANCH  99 102
ENDBRANCH  72  95
ENDBRANCH  46  47
ENDBRANCH  38  41
ENDBRANCH  36  37
ENDBRANCH   1  36
TORSDOF 18
ENDMDL
MODEL 2
REMARK VINA RESULT:     -10.3      6.287     13.182
REMARK SMILES COc1ccc([C@H]2CC(c3ccc(S(C)(=O)=O)cc3)=NN2c2ccc(C(=O)NCCCNC(=O)c3ccc(-c4c5nc(c(-c6cccc(S(=O)(=O)[O-])c6F)c6ccc([nH]6)c(-c6cccc(S(=O)(=O)[O-])c6F)c6nc(c(-c7cccc(S(=O)(=O)[O-])c7F)c7ccc4[nH]7)C=C6)C=C5)cc3)cc2)cc1
REMARK SMILES IDX 30 1 29 2 28 3 26 4 27 5 25 7 22 8 23 9 99 10 24 11 98 12
REMARK SMILES IDX 21 13 7 14 8 15 9 16 20 17 6 18 3 19 4 20 101 21 5 22 100 23
REMARK SMILES IDX 2 24 1 25 10 26 11 27 19 28 12 29 18 30 13 31 14 32 15 33
REMARK SMILES IDX 16 34 17 35 31 36 32 37 33 38 34 40 35 41 36 42 97 43 37 44
REMARK SMILES IDX 96 45 38 46 39 47 40 48 90 49 41 50 95 51 89 52 91 53 42 54
REMARK SMILES IDX 94 55 88 56 87 57 43 59 75 60 55 61 74 62 56 63 59 64 73 65
REMARK SMILES IDX 92 66 57 67 58 68 72 70 93 71 60 72 44 73 45 74 53 75 46 76
REMARK SMILES IDX 48 77 54 78 47 79 49 80 50 81 51 82 52 83 76 84 77 85 85 86
REMARK SMILES IDX 78 87 80 88 86 89 79 90 81 91 82 92 83 93 84 94 61 95 62 96
REMARK SMILES IDX 70 97 63 98 65 99 71 100 64 101 66 102 67 103 68 104 69 105
REMARK H PARENT 28 6 32 39 91 58 59 69
REMARK Flexibility Score: inf
ROOT
ATOM      1  C   UNL A   1      40.408  19.217  25.963  1.00  0.00     0.042 C 
ENDROOT
BRANCH   1   2
ATOM      2  C   UNL A   1      39.301  20.241  25.717  1.00  0.00     0.118 C 
BRANCH   2   3
ATOM      3  N   UNL A   1      39.717  21.571  26.120  1.00  0.00    -0.352 N 
ATOM      4  C   UNL A   1      39.077  22.783  26.132  1.00  0.00     0.251 C 
ATOM      5  O   UNL A   1      39.693  23.737  26.607  1.00  0.00    -0.269 OA
ATOM      6  H   UNL A   1      40.643  21.612  26.451  1.00  0.00     0.163 HD
BRANCH   4   7
ATOM      7  C   UNL A   1      37.676  22.984  25.665  1.00  0.00     0.039 A 
ATOM      8  C   UNL A   1      35.085  23.350  24.570  1.00  0.00     0.060 A 
ATOM      9  C   UNL A   1      36.107  22.761  23.818  1.00  0.00     0.029 A 
ATOM     10  C   UNL A   1      35.363  23.695  25.895  1.00  0.00     0.029 A 
ATOM     11  C   UNL A   1      37.389  22.600  24.348  1.00  0.00     0.016 A 
ATOM     12  C   UNL A   1      36.633  23.480  26.449  1.00  0.00     0.016 A 
BRANCH   8  13
ATOM     13  N   UNL A   1      33.839  23.550  24.001  1.00  0.00    -0.257 N 
ATOM     14  C   UNL A   1      33.267  22.715  22.946  1.00  0.00     0.144 C 
ATOM     15  C   UNL A   1      32.042  23.525  22.501  1.00  0.00     0.091 C 
ATOM     16  C   UNL A   1      32.219  24.751  23.349  1.00  0.00     0.071 C 
ATOM     17  N   UNL A   1      33.211  24.740  24.180  1.00  0.00    -0.176 NA
BRANCH  14  18
ATOM     18  C   UNL A   1      32.893  21.339  23.474  1.00  0.00    -0.023 A 
ATOM     19  C   UNL A   1      32.214  18.789  24.464  1.00  0.00     0.118 A 
ATOM     20  C   UNL A   1      32.659  19.787  25.331  1.00  0.00     0.047 A 
ATOM     21  C   UNL A   1      32.066  19.070  23.108  1.00  0.00     0.047 A 
ATOM     22  C   UNL A   1      33.006  21.050  24.841  1.00  0.00     0.010 A 
ATOM     23  C   UNL A   1      32.403  20.336  22.617  1.00  0.00     0.010 A 
BRANCH  19  24
ATOM     24  O   UNL A   1      31.894  17.591  25.042  1.00  0.00    -0.497 OA
ATOM     25  C   UNL A   1      32.999  16.917  25.638  1.00  0.00     0.278 C 
ENDBRANCH  19  24
ENDBRANCH  14  18
BRANCH  16  26
ATOM     26  C   UNL A   1      31.326  25.901  23.204  1.00  0.00    -0.002 A 
ATOM     27  C   UNL A   1      30.134  25.923  23.935  1.00  0.00     0.011 A 
ATOM     28  C   UNL A   1      31.656  26.935  22.326  1.00  0.00     0.011 A 
ATOM     29  C   UNL A   1      29.261  27.001  23.794  1.00  0.00     0.021 A 
ATOM     30  C   UNL A   1      30.771  28.002  22.166  1.00  0.00     0.021 A 
ATOM     31  C   UNL A   1      29.577  28.026  22.897  1.00  0.00     0.067 A 
BRANCH  31  32
ATOM     32  S   UNL A   1      28.441  29.377  22.688  1.00  0.00     0.175 S 
ATOM     33  C   UNL A   1      29.129  30.684  23.671  1.00  0.00     0.163 C 
ATOM     34  O   UNL A   1      28.497  29.764  21.293  1.00  0.00    -0.224 OA
ATOM     35  O   UNL A   1      27.183  28.990  23.303  1.00  0.00    -0.224 OA
ENDBRANCH  31  32
ENDBRANCH  16  26
ENDBRANCH   8  13
ENDBRANCH   4   7
ENDBRANCH   2   3
ENDBRANCH   1   2
BRANCH   1  36
ATOM     36  C   UNL A   1      41.750  19.850  26.326  1.00  0.00     0.118 C 
BRANCH  36  37
ATOM     37  N   UNL A   1      42.820  19.400  25.443  1.00  0.00    -0.352 N 
ATOM     38  C   UNL A   1      43.824  20.114  24.840  1.00  0.00     0.251 C 
ATOM     39  H   UNL A   1      42.820  18.435  25.249  1.00  0.00     0.163 HD
ATOM     40  O   UNL A   1      44.485  19.586  23.949  1.00  0.00    -0.269 OA
BRANCH  38  41
ATOM     41  C   UNL A   1      44.113  21.507  25.247  1.00  0.00     0.039 A 
ATOM     42  C   UNL A   1      43.813  22.545  24.360  1.00  0.00     0.014 A 
ATOM     43  C   UNL A   1      44.725  21.790  26.471  1.00  0.00     0.014 A 
ATOM     44  C   UNL A   1      44.083  23.868  24.718  1.00  0.00     0.010 A 
ATOM     45  C   UNL A   1      44.936  23.113  26.854  1.00  0.00     0.010 A 
ATOM     46  C   UNL A   1      44.626  24.164  25.978  1.00  0.00    -0.014 A 
BRANCH  46  47
ATOM     47  C   UNL A   1      44.863  25.566  26.406  1.00  0.00     0.031 A 
ATOM     48  C   UNL A   1      46.252  26.146  26.380  1.00  0.00     0.074 A 
ATOM     49  C   UNL A   1      43.842  26.286  26.910  1.00  0.00     0.049 A 
ATOM     50  N   UNL A   1      46.659  27.327  26.767  1.00  0.00    -0.248 NA
ATOM     51  C   UNL A   1      47.327  25.276  25.876  1.00  0.00     0.031 C 
ATOM     52  C   UNL A   1      42.465  25.809  27.056  1.00  0.00     0.029 A 
ATOM     53  N   UNL A   1      43.807  27.560  27.418  1.00  0.00    -0.354 N 
ATOM     54  C   UNL A   1      48.038  27.328  26.599  1.00  0.00     0.074 A 
ATOM     55  C   UNL A   1      48.401  26.021  26.093  1.00  0.00     0.031 C 
ATOM     56  C   UNL A   1      41.721  26.779  27.610  1.00  0.00     0.029 A 
ATOM     57  C   UNL A   1      42.569  27.934  27.885  1.00  0.00     0.049 A 
ATOM     58  H   UNL A   1      44.596  28.149  27.447  1.00  0.00     0.167 HD
ATOM     59  C   UNL A   1      48.920  28.333  26.818  1.00  0.00     0.034 A 
ATOM     60  C   UNL A   1      42.162  29.079  28.468  1.00  0.00     0.034 A 
ATOM     61  C   UNL A   1      48.546  29.647  27.267  1.00  0.00     0.049 A 
ATOM     62  C   UNL A   1      43.153  30.193  28.663  1.00  0.00     0.074 A 
ATOM     63  C   UNL A   1      49.344  30.769  27.406  1.00  0.00     0.029 A 
ATOM     64  N   UNL A   1      47.269  30.016  27.660  1.00  0.00    -0.354 N 
ATOM     65  N   UNL A   1      44.421  30.237  28.330  1.00  0.00    -0.248 NA
ATOM     66  C   UNL A   1      42.652  31.427  29.284  1.00  0.00     0.031 C 
ATOM     67  C   UNL A   1      48.553  31.810  27.903  1.00  0.00     0.029 A 
ATOM     68  C   UNL A   1      47.258  31.341  28.059  1.00  0.00     0.049 A 
ATOM     69  H   UNL A   1      46.484  29.421  27.657  1.00  0.00     0.167 HD
ATOM     70  C   UNL A   1      44.861  31.511  28.672  1.00  0.00     0.074 A 
ATOM     71  C   UNL A   1      43.718  32.214  29.218  1.00  0.00     0.031 C 
ATOM     72  C   UNL A   1      46.103  32.044  28.558  1.00  0.00     0.034 A 
BRANCH  59  73
ATOM     73  C   UNL A   1      50.373  28.064  26.524  1.00  0.00     0.023 A 
ATOM     74  C   UNL A   1      51.243  27.720  27.579  1.00  0.00     0.012 A 
ATOM     75  C   UNL A   1      50.869  28.108  25.207  1.00  0.00     0.148 A 
ATOM     76  C   UNL A   1      52.592  27.463  27.334  1.00  0.00     0.002 A 
ATOM     77  C   UNL A   1      52.207  27.811  24.965  1.00  0.00     0.091 A 
ATOM     78  F   UNL A   1      50.036  28.461  24.218  1.00  0.00    -0.205 F 
ATOM     79  C   UNL A   1      53.071  27.499  26.027  1.00  0.00     0.022 A 
BRANCH  77  80
ATOM     80  S   UNL A   1      52.894  27.757  23.305  1.00  0.00     0.127 S 
ATOM     81  O   UNL A   1      54.259  27.303  23.566  1.00  0.00    -0.237 OA
ATOM     82  O   UNL A   1      52.040  26.770  22.645  1.00  0.00    -0.237 OA
ATOM     83  O   UNL A   1      52.768  29.110  22.782  1.00  0.00    -0.744 OA
ENDBRANCH  77  80
ENDBRANCH  59  73
BRANCH  60  84
ATOM     84  C   UNL A   1      40.728  29.254  28.826  1.00  0.00     0.023 A 
ATOM     85  C   UNL A   1      39.801  29.548  27.806  1.00  0.00     0.012 A 
ATOM     86  C   UNL A   1      40.264  29.080  30.145  1.00  0.00     0.148 A 
ATOM     87  C   UNL A   1      38.444  29.687  28.094  1.00  0.00     0.002 A 
ATOM     88  C   UNL A   1      38.904  29.169  30.417  1.00  0.00     0.091 A 
ATOM     89  F   UNL A   1      41.163  28.810  31.102  1.00  0.00    -0.205 F 
ATOM     90  C   UNL A   1      37.994  29.486  29.396  1.00  0.00     0.022 A 
BRANCH  88  91
ATOM     91  S   UNL A   1      38.215  28.798  32.035  1.00  0.00     0.127 S 
ATOM     92  O   UNL A   1      36.800  29.100  31.834  1.00  0.00    -0.237 OA
ATOM     93  O   UNL A   1      38.528  27.375  32.177  1.00  0.00    -0.237 OA
ATOM     94  O   UNL A   1      38.919  29.664  32.971  1.00  0.00    -0.744 OA
ENDBRANCH  88  91
ENDBRANCH  60  84
BRANCH  72  95
ATOM     95  C   UNL A   1      46.295  33.465  29.018  1.00  0.00     0.023 A 
ATOM     96  C   UNL A   1      46.690  33.719  30.346  1.00  0.00     0.012 A 
ATOM     97  C   UNL A   1      46.159  34.541  28.119  1.00  0.00     0.148 A 
ATOM     98  C   UNL A   1      46.919  35.024  30.781  1.00  0.00     0.002 A 
ATOM     99  C   UNL A   1      46.433  35.836  28.547  1.00  0.00     0.091 A 
ATOM    100  F   UNL A   1      45.761  34.282  26.864  1.00  0.00    -0.205 F 
ATOM    101  C   UNL A   1      46.803  36.079  29.880  1.00  0.00     0.022 A 
BRANCH  99 102
ATOM    102  S   UNL A   1      46.398  37.243  27.431  1.00  0.00     0.127 S 
ATOM    103  O   UNL A   1      47.346  38.154  28.070  1.00  0.00    -0.237 OA
ATOM    104  O   UNL A   1      46.866  36.658  26.174  1.00  0.00    -0.237 OA
ATOM    105  O   UNL A   1      45.013  37.696  27.404  1.00  0.00    -0.744 OA
ENDBRANCH  99 102
ENDBRANCH  72  95
ENDBRANCH  46  47
ENDBRANCH  38  41
ENDBRANCH  36  37
ENDBRANCH   1  36
TORSDOF 18
ENDMDL
MODEL 3
REMARK VINA RESULT:     -10.3      4.957     10.339
REMARK SMILES COc1ccc([C@H]2CC(c3ccc(S(C)(=O)=O)cc3)=NN2c2ccc(C(=O)NCCCNC(=O)c3ccc(-c4c5nc(c(-c6cccc(S(=O)(=O)[O-])c6F)c6ccc([nH]6)c(-c6cccc(S(=O)(=O)[O-])c6F)c6nc(c(-c7cccc(S(=O)(=O)[O-])c7F)c7ccc4[nH]7)C=C6)C=C5)cc3)cc2)cc1
REMARK SMILES IDX 30 1 29 2 28 3 26 4 27 5 25 7 22 8 23 9 99 10 24 11 98 12
REMARK SMILES IDX 21 13 7 14 8 15 9 16 20 17 6 18 3 19 4 20 101 21 5 22 100 23
REMARK SMILES IDX 2 24 1 25 10 26 11 27 19 28 12 29 18 30 13 31 14 32 15 33
REMARK SMILES IDX 16 34 17 35 31 36 32 37 33 38 34 40 35 41 36 42 97 43 37 44
REMARK SMILES IDX 96 45 38 46 39 47 40 48 90 49 41 50 95 51 89 52 91 53 42 54
REMARK SMILES IDX 94 55 88 56 87 57 43 59 75 60 55 61 74 62 56 63 59 64 73 65
REMARK SMILES IDX 92 66 57 67 58 68 72 70 93 71 60 72 44 73 45 74 53 75 46 76
REMARK SMILES IDX 48 77 54 78 47 79 49 80 50 81 51 82 52 83 76 84 77 85 85 86
REMARK SMILES IDX 78 87 80 88 86 89 79 90 81 91 82 92 83 93 84 94 61 95 62 96
REMARK SMILES IDX 70 97 63 98 65 99 71 100 64 101 66 102 67 103 68 104 69 105
REMARK H PARENT 28 6 32 39 91 58 59 69
REMARK Flexibility Score: inf
ROOT
ATOM      1  C   UNL A   1      32.893  34.538  28.139  1.00  0.00     0.042 C 
ENDROOT
BRANCH   1   2
ATOM      2  C   UNL A   1      32.915  33.071  27.713  1.00  0.00     0.118 C 
BRANCH   2   3
ATOM      3  N   UNL A   1      34.174  32.440  28.064  1.00  0.00    -0.352 N 
ATOM      4  C   UNL A   1      34.646  31.162  27.921  1.00  0.00     0.251 C 
ATOM      5  O   UNL A   1      35.810  30.952  28.266  1.00  0.00    -0.269 OA
ATOM      6  H   UNL A   1      34.817  33.052  28.488  1.00  0.00     0.163 HD
BRANCH   4   7
ATOM      7  C   UNL A   1      33.856  30.048  27.321  1.00  0.00     0.039 A 
ATOM      8  C   UNL A   1      32.539  27.866  26.079  1.00  0.00     0.060 A 
ATOM      9  C   UNL A   1      33.931  27.886  26.207  1.00  0.00     0.029 A 
ATOM     10  C   UNL A   1      31.814  28.923  26.636  1.00  0.00     0.029 A 
ATOM     11  C   UNL A   1      34.584  28.971  26.799  1.00  0.00     0.016 A 
ATOM     12  C   UNL A   1      32.462  29.983  27.284  1.00  0.00     0.016 A 
BRANCH   8  13
ATOM     13  N   UNL A   1      31.922  26.806  25.437  1.00  0.00    -0.257 N 
ATOM     14  C   UNL A   1      30.499  26.755  25.104  1.00  0.00     0.144 C 
ATOM     15  C   UNL A   1      30.303  25.292  24.683  1.00  0.00     0.091 C 
ATOM     16  C   UNL A   1      31.675  24.754  24.964  1.00  0.00     0.071 C 
ATOM     17  N   UNL A   1      32.559  25.609  25.369  1.00  0.00    -0.176 NA
BRANCH  14  18
ATOM     18  C   UNL A   1      30.159  27.731  23.989  1.00  0.00    -0.023 A 
ATOM     19  C   UNL A   1      29.544  29.550  21.926  1.00  0.00     0.118 A 
ATOM     20  C   UNL A   1      30.854  29.105  22.107  1.00  0.00     0.047 A 
ATOM     21  C   UNL A   1      28.531  29.058  22.744  1.00  0.00     0.047 A 
ATOM     22  C   UNL A   1      31.164  28.211  23.137  1.00  0.00     0.010 A 
ATOM     23  C   UNL A   1      28.836  28.156  23.768  1.00  0.00     0.010 A 
BRANCH  19  24
ATOM     24  O   UNL A   1      29.345  30.419  20.888  1.00  0.00    -0.497 OA
ATOM     25  C   UNL A   1      28.011  30.907  20.783  1.00  0.00     0.278 C 
ENDBRANCH  19  24
ENDBRANCH  14  18
BRANCH  16  26
ATOM     26  C   UNL A   1      31.970  23.329  24.815  1.00  0.00    -0.002 A 
ATOM     27  C   UNL A   1      32.119  22.805  23.527  1.00  0.00     0.011 A 
ATOM     28  C   UNL A   1      32.066  22.514  25.944  1.00  0.00     0.011 A 
ATOM     29  C   UNL A   1      32.380  21.445  23.364  1.00  0.00     0.021 A 
ATOM     30  C   UNL A   1      32.302  21.148  25.781  1.00  0.00     0.021 A 
ATOM     31  C   UNL A   1      32.452  20.621  24.493  1.00  0.00     0.067 A 
BRANCH  31  32
ATOM     32  S   UNL A   1      32.741  18.880  24.278  1.00  0.00     0.175 S 
ATOM     33  C   UNL A   1      34.500  18.706  24.427  1.00  0.00     0.163 C 
ATOM     34  O   UNL A   1      32.110  18.207  25.396  1.00  0.00    -0.224 OA
ATOM     35  O   UNL A   1      32.387  18.543  22.910  1.00  0.00    -0.224 OA
ENDBRANCH  31  32
ENDBRANCH  16  26
ENDBRANCH   8  13
ENDBRANCH   4   7
ENDBRANCH   2   3
ENDBRANCH   1   2
BRANCH   1  36
ATOM     36  C   UNL A   1      33.948  34.880  29.190  1.00  0.00     0.118 C 
BRANCH  36  37
ATOM     37  N   UNL A   1      33.350  35.432  30.400  1.00  0.00    -0.352 N 
ATOM     38  C   UNL A   1      33.618  35.161  31.717  1.00  0.00     0.251 C 
ATOM     39  H   UNL A   1      32.647  36.103  30.246  1.00  0.00     0.163 HD
ATOM     40  O   UNL A   1      32.843  35.564  32.582  1.00  0.00    -0.269 OA
BRANCH  38  41
ATOM     41  C   UNL A   1      34.819  34.389  32.104  1.00  0.00     0.039 A 
ATOM     42  C   UNL A   1      34.655  33.099  32.619  1.00  0.00     0.014 A 
ATOM     43  C   UNL A   1      36.097  34.947  32.013  1.00  0.00     0.014 A 
ATOM     44  C   UNL A   1      35.774  32.353  32.998  1.00  0.00     0.010 A 
ATOM     45  C   UNL A   1      37.215  34.179  32.332  1.00  0.00     0.010 A 
ATOM     46  C   UNL A   1      37.065  32.879  32.835  1.00  0.00    -0.014 A 
BRANCH  46  47
ATOM     47  C   UNL A   1      38.271  32.080  33.172  1.00  0.00     0.031 A 
ATOM     48  C   UNL A   1      39.058  32.379  34.419  1.00  0.00     0.074 A 
ATOM     49  C   UNL A   1      38.712  31.150  32.303  1.00  0.00     0.049 A 
ATOM     50  N   UNL A   1      40.165  31.829  34.846  1.00  0.00    -0.248 NA
ATOM     51  C   UNL A   1      38.549  33.454  35.286  1.00  0.00     0.031 C 
ATOM     52  C   UNL A   1      38.076  30.820  31.026  1.00  0.00     0.029 A 
ATOM     53  N   UNL A   1      39.812  30.331  32.348  1.00  0.00    -0.354 N 
ATOM     54  C   UNL A   1      40.510  32.517  36.003  1.00  0.00     0.074 A 
ATOM     55  C   UNL A   1      39.506  33.540  36.200  1.00  0.00     0.031 C 
ATOM     56  C   UNL A   1      38.793  29.865  30.413  1.00  0.00     0.029 A 
ATOM     57  C   UNL A   1      39.952  29.535  31.236  1.00  0.00     0.049 A 
ATOM     58  H   UNL A   1      40.441  30.316  33.106  1.00  0.00     0.167 HD
ATOM     59  C   UNL A   1      41.552  32.301  36.841  1.00  0.00     0.034 A 
ATOM     60  C   UNL A   1      40.906  28.639  30.915  1.00  0.00     0.034 A 
ATOM     61  C   UNL A   1      42.516  31.246  36.671  1.00  0.00     0.049 A 
ATOM     62  C   UNL A   1      42.030  28.389  31.883  1.00  0.00     0.074 A 
ATOM     63  C   UNL A   1      43.537  30.867  37.525  1.00  0.00     0.029 A 
ATOM     64  N   UNL A   1      42.585  30.408  35.569  1.00  0.00    -0.354 N 
ATOM     65  N   UNL A   1      42.240  28.927  33.060  1.00  0.00    -0.248 NA
ATOM     66  C   UNL A   1      43.031  27.386  31.493  1.00  0.00     0.031 C 
ATOM     67  C   UNL A   1      44.236  29.812  36.928  1.00  0.00     0.029 A 
ATOM     68  C   UNL A   1      43.641  29.524  35.710  1.00  0.00     0.049 A 
ATOM     69  H   UNL A   1      41.972  30.437  34.799  1.00  0.00     0.167 HD
ATOM     70  C   UNL A   1      43.378  28.307  33.565  1.00  0.00     0.074 A 
ATOM     71  C   UNL A   1      43.799  27.338  32.574  1.00  0.00     0.031 C 
ATOM     72  C   UNL A   1      44.024  28.532  34.737  1.00  0.00     0.034 A 
BRANCH  59  73
ATOM     73  C   UNL A   1      41.674  33.192  38.050  1.00  0.00     0.023 A 
ATOM     74  C   UNL A   1      41.088  32.793  39.269  1.00  0.00     0.012 A 
ATOM     75  C   UNL A   1      42.398  34.398  37.994  1.00  0.00     0.148 A 
ATOM     76  C   UNL A   1      41.188  33.598  40.403  1.00  0.00     0.002 A 
ATOM     77  C   UNL A   1      42.529  35.176  39.140  1.00  0.00     0.091 A 
ATOM     78  F   UNL A   1      42.927  34.777  36.822  1.00  0.00    -0.205 F 
ATOM     79  C   UNL A   1      41.916  34.784  40.342  1.00  0.00     0.022 A 
BRANCH  77  80
ATOM     80  S   UNL A   1      43.511  36.680  39.174  1.00  0.00     0.127 S 
ATOM     81  O   UNL A   1      44.825  36.183  38.768  1.00  0.00    -0.237 OA
ATOM     82  O   UNL A   1      42.841  37.514  38.175  1.00  0.00    -0.237 OA
ATOM     83  O   UNL A   1      43.419  37.182  40.537  1.00  0.00    -0.744 OA
ENDBRANCH  77  80
ENDBRANCH  59  73
BRANCH  60  84
ATOM     84  C   UNL A   1      40.784  27.851  29.658  1.00  0.00     0.023 A 
ATOM     85  C   UNL A   1      39.768  26.880  29.557  1.00  0.00     0.012 A 
ATOM     86  C   UNL A   1      41.620  28.087  28.549  1.00  0.00     0.148 A 
ATOM     87  C   UNL A   1      39.599  26.144  28.384  1.00  0.00     0.002 A 
ATOM     88  C   UNL A   1      41.414  27.387  27.366  1.00  0.00     0.091 A 
ATOM     89  F   UNL A   1      42.587  29.008  28.669  1.00  0.00    -0.205 F 
ATOM     90  C   UNL A   1      40.413  26.406  27.286  1.00  0.00     0.022 A 
BRANCH  88  91
ATOM     91  S   UNL A   1      42.325  27.745  25.859  1.00  0.00     0.127 S 
ATOM     92  O   UNL A   1      43.703  27.495  26.275  1.00  0.00    -0.237 OA
ATOM     93  O   UNL A   1      41.772  26.759  24.930  1.00  0.00    -0.237 OA
ATOM     94  O   UNL A   1      42.006  29.127  25.525  1.00  0.00    -0.744 OA
ENDBRANCH  88  91
ENDBRANCH  60  84
BRANCH  72  95
ATOM     95  C   UNL A   1      45.249  27.706  35.026  1.00  0.00     0.023 A 
ATOM     96  C   UNL A   1      46.519  28.198  34.667  1.00  0.00     0.012 A 
ATOM     97  C   UNL A   1      45.150  26.482  35.717  1.00  0.00     0.148 A 
ATOM     98  C   UNL A   1      47.671  27.472  34.967  1.00  0.00     0.002 A 
ATOM     99  C   UNL A   1      46.306  25.786  36.053  1.00  0.00     0.091 A 
ATOM    100  F   UNL A   1      43.931  26.020  36.031  1.00  0.00    -0.205 F 
ATOM    101  C   UNL A   1      47.566  26.274  35.669  1.00  0.00     0.022 A 
BRANCH  99 102
ATOM    102  S   UNL A   1      46.269  24.283  37.037  1.00  0.00     0.127 S 
ATOM    103  O   UNL A   1      45.574  24.732  38.241  1.00  0.00    -0.237 OA
ATOM    104  O   UNL A   1      45.497  23.373  36.190  1.00  0.00    -0.237 OA
ATOM    105  O   UNL A   1      47.661  23.894  37.223  1.00  0.00    -0.744 OA
ENDBRANCH  99 102
ENDBRANCH  72  95
ENDBRANCH  46  47
ENDBRANCH  38  41
ENDBRANCH  36  37
ENDBRANCH   1  36
TORSDOF 18
ENDMDL
