MODEL 1
REMARK VINA RESULT:     -12.6      0.000      0.000
REMARK SMILES CC(C)=Cc1c(C(=O)NCCCNC(=O)c2ccc(-c3c4nc(c(-c5cccc(S(=O)(=O)[O-])c5F)c5ccc([nH]5)c(-c5cccc(S(=O)(=O)[O-])c5F)c5nc(c(-c6cccc(S(=O)(=O)[O-])c6F)c6ccc3[nH]6)C=C5)C=C4)cc2)nnn1-c1ccc(C(C)C)cc1
REMARK SMILES IDX 11 1 10 2 9 3 7 4 8 5 6 7 5 8 81 9 79 10 80 11 4 12 1 13
REMARK SMILES IDX 2 14 3 15 82 16 83 17 90 18 84 19 89 20 85 21 86 22 87 23
REMARK SMILES IDX 88 24 12 25 13 26 14 27 15 29 16 30 17 31 78 32 18 33 77 34
REMARK SMILES IDX 19 35 20 36 21 37 71 38 22 39 76 40 70 41 72 42 23 43 75 44
REMARK SMILES IDX 69 45 68 46 24 48 56 49 36 50 55 51 37 52 40 53 54 54 73 55
REMARK SMILES IDX 38 56 39 57 53 59 74 60 41 61 25 62 26 63 34 64 27 65 29 66
REMARK SMILES IDX 35 67 28 68 30 69 31 70 32 71 33 72 57 73 58 74 66 75 59 76
REMARK SMILES IDX 61 77 67 78 60 79 62 80 63 81 64 82 65 83 42 84 43 85 51 86
REMARK SMILES IDX 44 87 46 88 52 89 45 90 47 91 48 92 49 93 50 94
REMARK H PARENT 9 6 13 28 72 47 40 58
REMARK Flexibility Score: inf
ROOT
ATOM      1  C   UNL A   1      32.576  30.452  26.538  1.00  0.00     0.042 C 
ENDROOT
BRANCH   1   2
ATOM      2  C   UNL A   1      32.507  29.214  25.642  1.00  0.00     0.118 C 
BRANCH   2   3
ATOM      3  N   UNL A   1      32.315  29.516  24.247  1.00  0.00    -0.351 N 
ATOM      4  C   UNL A   1      32.310  28.770  23.099  1.00  0.00     0.274 C 
ATOM      5  O   UNL A   1      31.919  29.381  22.101  1.00  0.00    -0.267 OA
ATOM      6  H   UNL A   1      32.149  30.472  24.082  1.00  0.00     0.163 HD
BRANCH   4   7
ATOM      7  C   UNL A   1      32.723  27.368  22.983  1.00  0.00     0.178 A 
ATOM      8  C   UNL A   1      32.509  26.191  23.698  1.00  0.00     0.100 A 
ATOM      9  N   UNL A   1      33.170  25.219  22.941  1.00  0.00    -0.213 N 
ATOM     10  N   UNL A   1      33.571  27.070  21.926  1.00  0.00    -0.124 NA
ATOM     11  N   UNL A   1      33.901  25.796  21.972  1.00  0.00    -0.061 NA
BRANCH   8  12
ATOM     12  C   UNL A   1      31.841  25.811  24.892  1.00  0.00     0.029 C 
ATOM     13  C   UNL A   1      29.490  25.995  23.927  1.00  0.00     0.039 C 
ATOM     14  C   UNL A   1      30.498  25.716  25.013  1.00  0.00    -0.074 C 
ATOM     15  C   UNL A   1      29.883  25.289  26.323  1.00  0.00     0.039 C 
ENDBRANCH   8  12
BRANCH   9  16
ATOM     16  C   UNL A   1      33.208  23.816  23.113  1.00  0.00     0.067 A 
ATOM     17  C   UNL A   1      34.170  23.276  23.972  1.00  0.00     0.029 A 
ATOM     18  C   UNL A   1      32.249  22.992  22.515  1.00  0.00     0.029 A 
ATOM     19  C   UNL A   1      34.086  21.932  24.326  1.00  0.00     0.006 A 
ATOM     20  C   UNL A   1      32.188  21.644  22.854  1.00  0.00     0.006 A 
ATOM     21  C   UNL A   1      33.082  21.108  23.789  1.00  0.00    -0.045 A 
BRANCH  21  22
ATOM     22  C   UNL A   1      32.931  19.665  24.223  1.00  0.00     0.013 C 
ATOM     23  C   UNL A   1      32.221  18.839  23.152  1.00  0.00     0.012 C 
ATOM     24  C   UNL A   1      34.290  19.064  24.591  1.00  0.00     0.012 C 
ENDBRANCH  21  22
ENDBRANCH   9  16
ENDBRANCH   4   7
ENDBRANCH   2   3
ENDBRANCH   1   2
BRANCH   1  25
ATOM     25  C   UNL A   1      33.915  30.539  27.245  1.00  0.00     0.118 C 
BRANCH  25  26
ATOM     26  N   UNL A   1      33.899  31.537  28.335  1.00  0.00    -0.352 N 
ATOM     27  C   UNL A   1      34.880  31.828  29.262  1.00  0.00     0.251 C 
ATOM     28  H   UNL A   1      33.073  32.068  28.410  1.00  0.00     0.163 HD
ATOM     29  O   UNL A   1      34.626  32.491  30.270  1.00  0.00    -0.269 OA
BRANCH  27  30
ATOM     30  C   UNL A   1      36.234  31.320  29.016  1.00  0.00     0.039 A 
ATOM     31  C   UNL A   1      37.373  32.114  29.168  1.00  0.00     0.014 A 
ATOM     32  C   UNL A   1      36.332  29.957  28.783  1.00  0.00     0.014 A 
ATOM     33  C   UNL A   1      38.614  31.483  29.210  1.00  0.00     0.010 A 
ATOM     34  C   UNL A   1      37.500  29.331  29.098  1.00  0.00     0.010 A 
ATOM     35  C   UNL A   1      38.661  30.082  29.217  1.00  0.00    -0.014 A 
BRANCH  35  36
ATOM     36  C   UNL A   1      39.899  29.342  29.396  1.00  0.00     0.031 A 
ATOM     37  C   UNL A   1      40.321  29.117  30.799  1.00  0.00     0.074 A 
ATOM     38  C   UNL A   1      40.519  28.731  28.364  1.00  0.00     0.049 A 
ATOM     39  N   UNL A   1      41.253  29.751  31.426  1.00  0.00    -0.248 NA
ATOM     40  C   UNL A   1      39.548  28.204  31.651  1.00  0.00     0.031 C 
ATOM     41  C   UNL A   1      40.074  28.598  26.967  1.00  0.00     0.029 A 
ATOM     42  N   UNL A   1      41.633  27.961  28.392  1.00  0.00    -0.354 N 
ATOM     43  C   UNL A   1      41.358  29.144  32.674  1.00  0.00     0.074 A 
ATOM     44  C   UNL A   1      40.156  28.365  32.830  1.00  0.00     0.031 C 
ATOM     45  C   UNL A   1      40.751  27.592  26.373  1.00  0.00     0.029 A 
ATOM     46  C   UNL A   1      41.803  27.162  27.271  1.00  0.00     0.049 A 
ATOM     47  H   UNL A   1      42.269  27.969  29.144  1.00  0.00     0.167 HD
ATOM     48  C   UNL A   1      42.538  29.150  33.357  1.00  0.00     0.034 A 
ATOM     49  C   UNL A   1      42.733  26.194  27.110  1.00  0.00     0.034 A 
ATOM     50  C   UNL A   1      43.508  29.993  32.696  1.00  0.00     0.049 A 
ATOM     51  C   UNL A   1      43.840  26.511  28.043  1.00  0.00     0.074 A 
ATOM     52  C   UNL A   1      43.568  31.326  32.345  1.00  0.00     0.029 A 
ATOM     53  N   UNL A   1      44.451  29.351  31.925  1.00  0.00    -0.354 N 
ATOM     54  N   UNL A   1      44.589  27.574  27.917  1.00  0.00    -0.248 NA
ATOM     55  C   UNL A   1      43.818  25.918  29.371  1.00  0.00     0.031 C 
ATOM     56  C   UNL A   1      44.183  31.334  31.059  1.00  0.00     0.029 A 
ATOM     57  C   UNL A   1      44.535  30.020  30.734  1.00  0.00     0.049 A 
ATOM     58  H   UNL A   1      44.969  28.555  32.183  1.00  0.00     0.167 HD
ATOM     59  C   UNL A   1      44.730  28.049  29.215  1.00  0.00     0.074 A 
ATOM     60  C   UNL A   1      44.347  26.927  30.072  1.00  0.00     0.031 C 
ATOM     61  C   UNL A   1      44.847  29.386  29.470  1.00  0.00     0.034 A 
BRANCH  48  62
ATOM     62  C   UNL A   1      42.999  28.152  34.395  1.00  0.00     0.023 A 
ATOM     63  C   UNL A   1      43.372  28.677  35.658  1.00  0.00     0.012 A 
ATOM     64  C   UNL A   1      43.346  26.810  34.136  1.00  0.00     0.148 A 
ATOM     65  C   UNL A   1      44.122  27.936  36.576  1.00  0.00     0.002 A 
ATOM     66  C   UNL A   1      44.031  26.053  35.082  1.00  0.00     0.091 A 
ATOM     67  F   UNL A   1      43.135  26.286  32.927  1.00  0.00    -0.205 F 
ATOM     68  C   UNL A   1      44.453  26.620  36.286  1.00  0.00     0.022 A 
BRANCH  66  69
ATOM     69  S   UNL A   1      44.450  24.330  34.785  1.00  0.00     0.127 S 
ATOM     70  O   UNL A   1      45.413  24.448  33.693  1.00  0.00    -0.237 OA
ATOM     71  O   UNL A   1      45.019  23.934  36.074  1.00  0.00    -0.237 OA
ATOM     72  O   UNL A   1      43.192  23.672  34.460  1.00  0.00    -0.744 OA
ENDBRANCH  66  69
ENDBRANCH  48  62
BRANCH  49  73
ATOM     73  C   UNL A   1      42.635  24.923  26.363  1.00  0.00     0.023 A 
ATOM     74  C   UNL A   1      43.653  24.559  25.463  1.00  0.00     0.012 A 
ATOM     75  C   UNL A   1      41.687  23.943  26.734  1.00  0.00     0.148 A 
ATOM     76  C   UNL A   1      43.747  23.251  24.975  1.00  0.00     0.002 A 
ATOM     77  C   UNL A   1      41.784  22.644  26.246  1.00  0.00     0.091 A 
ATOM     78  F   UNL A   1      40.750  24.260  27.638  1.00  0.00    -0.205 F 
ATOM     79  C   UNL A   1      42.819  22.291  25.373  1.00  0.00     0.022 A 
BRANCH  77  80
ATOM     80  S   UNL A   1      40.646  21.346  26.751  1.00  0.00     0.127 S 
ATOM     81  O   UNL A   1      41.190  20.179  26.057  1.00  0.00    -0.237 OA
ATOM     82  O   UNL A   1      40.828  21.338  28.200  1.00  0.00    -0.237 OA
ATOM     83  O   UNL A   1      39.333  21.768  26.280  1.00  0.00    -0.744 OA
ENDBRANCH  77  80
ENDBRANCH  49  73
BRANCH  61  84
ATOM     84  C   UNL A   1      45.053  30.325  28.305  1.00  0.00     0.023 A 
ATOM     85  C   UNL A   1      43.973  30.892  27.596  1.00  0.00     0.012 A 
ATOM     86  C   UNL A   1      46.349  30.810  28.065  1.00  0.00     0.148 A 
ATOM     87  C   UNL A   1      44.181  31.910  26.661  1.00  0.00     0.002 A 
ATOM     88  C   UNL A   1      46.547  31.858  27.173  1.00  0.00     0.091 A 
ATOM     89  F   UNL A   1      47.366  30.264  28.748  1.00  0.00    -0.205 F 
ATOM     90  C   UNL A   1      45.467  32.405  26.462  1.00  0.00     0.022 A 
BRANCH  88  91
ATOM     91  S   UNL A   1      48.154  32.632  26.986  1.00  0.00     0.127 S 
ATOM     92  O   UNL A   1      48.979  31.518  26.522  1.00  0.00    -0.237 OA
ATOM     93  O   UNL A   1      47.894  33.662  25.978  1.00  0.00    -0.237 OA
ATOM     94  O   UNL A   1      48.497  33.164  28.299  1.00  0.00    -0.744 OA
ENDBRANCH  88  91
ENDBRANCH  61  84
ENDBRANCH  35  36
ENDBRANCH  27  30
ENDBRANCH  25  26
ENDBRANCH   1  25
TORSDOF 16
ENDMDL
MODEL 2
REMARK VINA RESULT:     -12.5      3.365      8.792
REMARK SMILES CC(C)=Cc1c(C(=O)NCCCNC(=O)c2ccc(-c3c4nc(c(-c5cccc(S(=O)(=O)[O-])c5F)c5ccc([nH]5)c(-c5cccc(S(=O)(=O)[O-])c5F)c5nc(c(-c6cccc(S(=O)(=O)[O-])c6F)c6ccc3[nH]6)C=C5)C=C4)cc2)nnn1-c1ccc(C(C)C)cc1
REMARK SMILES IDX 11 1 10 2 9 3 7 4 8 5 6 7 5 8 81 9 79 10 80 11 4 12 1 13
REMARK SMILES IDX 2 14 3 15 82 16 83 17 90 18 84 19 89 20 85 21 86 22 87 23
REMARK SMILES IDX 88 24 12 25 13 26 14 27 15 29 16 30 17 31 78 32 18 33 77 34
REMARK SMILES IDX 19 35 20 36 21 37 71 38 22 39 76 40 70 41 72 42 23 43 75 44
REMARK SMILES IDX 69 45 68 46 24 48 56 49 36 50 55 51 37 52 40 53 54 54 73 55
REMARK SMILES IDX 38 56 39 57 53 59 74 60 41 61 25 62 26 63 34 64 27 65 29 66
REMARK SMILES IDX 35 67 28 68 30 69 31 70 32 71 33 72 57 73 58 74 66 75 59 76
REMARK SMILES IDX 61 77 67 78 60 79 62 80 63 81 64 82 65 83 42 84 43 85 51 86
REMARK SMILES IDX 44 87 46 88 52 89 45 90 47 91 48 92 49 93 50 94
REMARK H PARENT 9 6 13 28 72 47 40 58
REMARK Flexibility Score: inf
ROOT
ATOM      1  C   UNL A   1      37.264  21.476  25.305  1.00  0.00     0.042 C 
ENDROOT
BRANCH   1   2
ATOM      2  C   UNL A   1      36.013  22.218  25.780  1.00  0.00     0.118 C 
BRANCH   2   3
ATOM      3  N   UNL A   1      34.998  21.354  26.325  1.00  0.00    -0.351 N 
ATOM      4  C   UNL A   1      33.647  21.470  26.519  1.00  0.00     0.274 C 
ATOM      5  O   UNL A   1      33.092  20.418  26.851  1.00  0.00    -0.267 OA
ATOM      6  H   UNL A   1      35.353  20.486  26.624  1.00  0.00     0.163 HD
BRANCH   4   7
ATOM      7  C   UNL A   1      32.860  22.697  26.372  1.00  0.00     0.178 A 
ATOM      8  C   UNL A   1      32.618  23.625  25.360  1.00  0.00     0.100 A 
ATOM      9  N   UNL A   1      31.693  24.504  25.931  1.00  0.00    -0.213 N 
ATOM     10  N   UNL A   1      32.173  23.118  27.501  1.00  0.00    -0.124 NA
ATOM     11  N   UNL A   1      31.555  24.252  27.244  1.00  0.00    -0.061 NA
BRANCH   8  12
ATOM     12  C   UNL A   1      33.059  23.845  24.028  1.00  0.00     0.029 C 
ATOM     13  C   UNL A   1      31.974  21.751  23.063  1.00  0.00     0.039 C 
ATOM     14  C   UNL A   1      32.781  23.023  22.992  1.00  0.00    -0.074 C 
ATOM     15  C   UNL A   1      33.284  23.351  21.607  1.00  0.00     0.039 C 
ENDBRANCH   8  12
BRANCH   9  16
ATOM     16  C   UNL A   1      30.998  25.586  25.343  1.00  0.00     0.067 A 
ATOM     17  C   UNL A   1      31.581  26.856  25.387  1.00  0.00     0.029 A 
ATOM     18  C   UNL A   1      29.801  25.379  24.651  1.00  0.00     0.029 A 
ATOM     19  C   UNL A   1      31.026  27.885  24.631  1.00  0.00     0.006 A 
ATOM     20  C   UNL A   1      29.238  26.420  23.918  1.00  0.00     0.006 A 
ATOM     21  C   UNL A   1      29.863  27.671  23.871  1.00  0.00    -0.045 A 
BRANCH  21  22
ATOM     22  C   UNL A   1      29.292  28.757  22.982  1.00  0.00     0.013 C 
ATOM     23  C   UNL A   1      27.776  28.624  22.853  1.00  0.00     0.012 C 
ATOM     24  C   UNL A   1      29.696  30.144  23.492  1.00  0.00     0.012 C 
ENDBRANCH  21  22
ENDBRANCH   9  16
ENDBRANCH   4   7
ENDBRANCH   2   3
ENDBRANCH   1   2
BRANCH   1  25
ATOM     25  C   UNL A   1      38.515  22.290  25.577  1.00  0.00     0.118 C 
BRANCH  25  26
ATOM     26  N   UNL A   1      39.387  21.642  26.580  1.00  0.00    -0.352 N 
ATOM     27  C   UNL A   1      40.393  22.198  27.346  1.00  0.00     0.251 C 
ATOM     28  H   UNL A   1      39.227  20.681  26.721  1.00  0.00     0.163 HD
ATOM     29  O   UNL A   1      41.207  21.486  27.938  1.00  0.00    -0.269 OA
BRANCH  27  30
ATOM     30  C   UNL A   1      40.469  23.660  27.429  1.00  0.00     0.039 A 
ATOM     31  C   UNL A   1      39.349  24.479  27.275  1.00  0.00     0.014 A 
ATOM     32  C   UNL A   1      41.690  24.177  27.834  1.00  0.00     0.014 A 
ATOM     33  C   UNL A   1      39.450  25.813  27.664  1.00  0.00     0.010 A 
ATOM     34  C   UNL A   1      41.701  25.387  28.460  1.00  0.00     0.010 A 
ATOM     35  C   UNL A   1      40.623  26.246  28.297  1.00  0.00    -0.014 A 
BRANCH  35  36
ATOM     36  C   UNL A   1      40.764  27.579  28.856  1.00  0.00     0.031 A 
ATOM     37  C   UNL A   1      41.747  28.462  28.184  1.00  0.00     0.074 A 
ATOM     38  C   UNL A   1      39.918  28.050  29.797  1.00  0.00     0.049 A 
ATOM     39  N   UNL A   1      42.928  28.756  28.614  1.00  0.00    -0.248 NA
ATOM     40  C   UNL A   1      41.467  28.962  26.832  1.00  0.00     0.031 C 
ATOM     41  C   UNL A   1      38.708  27.419  30.350  1.00  0.00     0.029 A 
ATOM     42  N   UNL A   1      39.889  29.283  30.358  1.00  0.00    -0.354 N 
ATOM     43  C   UNL A   1      43.446  29.681  27.712  1.00  0.00     0.074 A 
ATOM     44  C   UNL A   1      42.608  29.596  26.544  1.00  0.00     0.031 C 
ATOM     45  C   UNL A   1      37.939  28.360  30.939  1.00  0.00     0.029 A 
ATOM     46  C   UNL A   1      38.691  29.596  30.985  1.00  0.00     0.049 A 
ATOM     47  H   UNL A   1      40.653  29.903  30.323  1.00  0.00     0.167 HD
ATOM     48  C   UNL A   1      44.371  30.601  28.109  1.00  0.00     0.034 A 
ATOM     49  C   UNL A   1      38.340  30.804  31.482  1.00  0.00     0.034 A 
ATOM     50  C   UNL A   1      44.814  30.332  29.458  1.00  0.00     0.049 A 
ATOM     51  C   UNL A   1      39.601  31.535  31.751  1.00  0.00     0.074 A 
ATOM     52  C   UNL A   1      45.423  29.271  30.095  1.00  0.00     0.029 A 
ATOM     53  N   UNL A   1      44.251  31.103  30.450  1.00  0.00    -0.354 N 
ATOM     54  N   UNL A   1      40.460  31.153  32.656  1.00  0.00    -0.248 NA
ATOM     55  C   UNL A   1      40.134  32.401  30.711  1.00  0.00     0.031 C 
ATOM     56  C   UNL A   1      44.783  29.198  31.368  1.00  0.00     0.029 A 
ATOM     57  C   UNL A   1      43.883  30.263  31.467  1.00  0.00     0.049 A 
ATOM     58  H   UNL A   1      44.134  32.080  30.432  1.00  0.00     0.167 HD
ATOM     59  C   UNL A   1      41.697  31.320  32.047  1.00  0.00     0.074 A 
ATOM     60  C   UNL A   1      41.442  32.205  30.911  1.00  0.00     0.031 C 
ATOM     61  C   UNL A   1      42.745  30.492  32.333  1.00  0.00     0.034 A 
BRANCH  48  62
ATOM     62  C   UNL A   1      44.641  31.952  27.488  1.00  0.00     0.023 A 
ATOM     63  C   UNL A   1      45.889  32.113  26.836  1.00  0.00     0.012 A 
ATOM     64  C   UNL A   1      43.896  33.124  27.735  1.00  0.00     0.148 A 
ATOM     65  C   UNL A   1      46.405  33.375  26.525  1.00  0.00     0.002 A 
ATOM     66  C   UNL A   1      44.381  34.373  27.358  1.00  0.00     0.091 A 
ATOM     67  F   UNL A   1      42.770  33.064  28.450  1.00  0.00    -0.205 F 
ATOM     68  C   UNL A   1      45.648  34.508  26.787  1.00  0.00     0.022 A 
BRANCH  66  69
ATOM     69  S   UNL A   1      43.430  35.874  27.631  1.00  0.00     0.127 S 
ATOM     70  O   UNL A   1      44.368  36.899  27.179  1.00  0.00    -0.237 OA
ATOM     71  O   UNL A   1      42.276  35.660  26.757  1.00  0.00    -0.237 OA
ATOM     72  O   UNL A   1      43.110  35.881  29.052  1.00  0.00    -0.744 OA
ENDBRANCH  66  69
ENDBRANCH  48  62
BRANCH  49  73
ATOM     73  C   UNL A   1      37.003  31.431  31.547  1.00  0.00     0.023 A 
ATOM     74  C   UNL A   1      36.486  31.852  32.786  1.00  0.00     0.012 A 
ATOM     75  C   UNL A   1      36.355  31.864  30.368  1.00  0.00     0.148 A 
ATOM     76  C   UNL A   1      35.381  32.708  32.849  1.00  0.00     0.002 A 
ATOM     77  C   UNL A   1      35.256  32.714  30.436  1.00  0.00     0.091 A 
ATOM     78  F   UNL A   1      36.875  31.520  29.181  1.00  0.00    -0.205 F 
ATOM     79  C   UNL A   1      34.772  33.147  31.676  1.00  0.00     0.022 A 
BRANCH  77  80
ATOM     80  S   UNL A   1      34.449  33.351  28.961  1.00  0.00     0.127 S 
ATOM     81  O   UNL A   1      34.018  32.122  28.296  1.00  0.00    -0.237 OA
ATOM     82  O   UNL A   1      33.369  34.150  29.534  1.00  0.00    -0.237 OA
ATOM     83  O   UNL A   1      35.475  34.096  28.242  1.00  0.00    -0.744 OA
ENDBRANCH  77  80
ENDBRANCH  49  73
BRANCH  61  84
ATOM     84  C   UNL A   1      42.608  29.534  33.492  1.00  0.00     0.023 A 
ATOM     85  C   UNL A   1      42.028  28.256  33.349  1.00  0.00     0.012 A 
ATOM     86  C   UNL A   1      43.272  29.844  34.691  1.00  0.00     0.148 A 
ATOM     87  C   UNL A   1      42.097  27.315  34.379  1.00  0.00     0.002 A 
ATOM     88  C   UNL A   1      43.384  28.889  35.694  1.00  0.00     0.091 A 
ATOM     89  F   UNL A   1      43.821  31.062  34.813  1.00  0.00    -0.205 F 
ATOM     90  C   UNL A   1      42.790  27.625  35.546  1.00  0.00     0.022 A 
BRANCH  88  91
ATOM     91  S   UNL A   1      44.386  29.180  37.152  1.00  0.00     0.127 S 
ATOM     92  O   UNL A   1      43.694  30.303  37.781  1.00  0.00    -0.237 OA
ATOM     93  O   UNL A   1      44.273  27.910  37.873  1.00  0.00    -0.237 OA
ATOM     94  O   UNL A   1      45.731  29.464  36.664  1.00  0.00    -0.744 OA
ENDBRANCH  88  91
ENDBRANCH  61  84
ENDBRANCH  35  36
ENDBRANCH  27  30
ENDBRANCH  25  26
ENDBRANCH   1  25
TORSDOF 16
ENDMDL
MODEL 3
REMARK VINA RESULT:     -12.5      3.300      7.370
REMARK SMILES CC(C)=Cc1c(C(=O)NCCCNC(=O)c2ccc(-c3c4nc(c(-c5cccc(S(=O)(=O)[O-])c5F)c5ccc([nH]5)c(-c5cccc(S(=O)(=O)[O-])c5F)c5nc(c(-c6cccc(S(=O)(=O)[O-])c6F)c6ccc3[nH]6)C=C5)C=C4)cc2)nnn1-c1ccc(C(C)C)cc1
REMARK SMILES IDX 11 1 10 2 9 3 7 4 8 5 6 7 5 8 81 9 79 10 80 11 4 12 1 13
REMARK SMILES IDX 2 14 3 15 82 16 83 17 90 18 84 19 89 20 85 21 86 22 87 23
REMARK SMILES IDX 88 24 12 25 13 26 14 27 15 29 16 30 17 31 78 32 18 33 77 34
REMARK SMILES IDX 19 35 20 36 21 37 71 38 22 39 76 40 70 41 72 42 23 43 75 44
REMARK SMILES IDX 69 45 68 46 24 48 56 49 36 50 55 51 37 52 40 53 54 54 73 55
REMARK SMILES IDX 38 56 39 57 53 59 74 60 41 61 25 62 26 63 34 64 27 65 29 66
REMARK SMILES IDX 35 67 28 68 30 69 31 70 32 71 33 72 57 73 58 74 66 75 59 76
REMARK SMILES IDX 61 77 67 78 60 79 62 80 63 81 64 82 65 83 42 84 43 85 51 86
REMARK SMILES IDX 44 87 46 88 52 89 45 90 47 91 48 92 49 93 50 94
REMARK H PARENT 9 6 13 28 72 47 40 58
REMARK Flexibility Score: inf
ROOT
ATOM      1  C   UNL A   1      31.710  31.856  26.791  1.00  0.00     0.042 C 
ENDROOT
BRANCH   1   2
ATOM      2  C   UNL A   1      32.109  30.500  26.205  1.00  0.00     0.118 C 
BRANCH   2   3
ATOM      3  N   UNL A   1      31.421  30.171  24.983  1.00  0.00    -0.351 N 
ATOM      4  C   UNL A   1      30.940  29.010  24.439  1.00  0.00     0.274 C 
ATOM      5  O   UNL A   1      30.236  29.175  23.439  1.00  0.00    -0.267 OA
ATOM      6  H   UNL A   1      31.261  30.956  24.410  1.00  0.00     0.163 HD
BRANCH   4   7
ATOM      7  C   UNL A   1      31.195  27.657  24.939  1.00  0.00     0.178 A 
ATOM      8  C   UNL A   1      31.480  26.412  24.379  1.00  0.00     0.100 A 
ATOM      9  N   UNL A   1      31.672  25.585  25.490  1.00  0.00    -0.213 N 
ATOM     10  N   UNL A   1      31.122  27.492  26.314  1.00  0.00    -0.124 NA
ATOM     11  N   UNL A   1      31.319  26.226  26.618  1.00  0.00    -0.061 NA
BRANCH   8  12
ATOM     12  C   UNL A   1      31.603  25.866  23.074  1.00  0.00     0.029 C 
ATOM     13  C   UNL A   1      33.636  27.256  22.418  1.00  0.00     0.039 C 
ATOM     14  C   UNL A   1      32.557  26.227  22.187  1.00  0.00    -0.074 C 
ATOM     15  C   UNL A   1      32.614  25.577  20.827  1.00  0.00     0.039 C 
ENDBRANCH   8  12
BRANCH   9  16
ATOM     16  C   UNL A   1      32.094  24.237  25.547  1.00  0.00     0.067 A 
ATOM     17  C   UNL A   1      31.120  23.238  25.641  1.00  0.00     0.029 A 
ATOM     18  C   UNL A   1      33.445  23.900  25.417  1.00  0.00     0.029 A 
ATOM     19  C   UNL A   1      31.495  21.907  25.478  1.00  0.00     0.006 A 
ATOM     20  C   UNL A   1      33.815  22.566  25.281  1.00  0.00     0.006 A 
ATOM     21  C   UNL A   1      32.841  21.559  25.273  1.00  0.00    -0.045 A 
BRANCH  21  22
ATOM     22  C   UNL A   1      33.255  20.125  25.016  1.00  0.00     0.013 C 
ATOM     23  C   UNL A   1      32.490  19.534  23.833  1.00  0.00     0.012 C 
ATOM     24  C   UNL A   1      34.770  20.024  24.818  1.00  0.00     0.012 C 
ENDBRANCH  21  22
ENDBRANCH   9  16
ENDBRANCH   4   7
ENDBRANCH   2   3
ENDBRANCH   1   2
BRANCH   1  25
ATOM     25  C   UNL A   1      32.920  32.589  27.339  1.00  0.00     0.118 C 
BRANCH  25  26
ATOM     26  N   UNL A   1      32.553  33.898  27.922  1.00  0.00    -0.352 N 
ATOM     27  C   UNL A   1      33.125  34.566  28.987  1.00  0.00     0.251 C 
ATOM     28  H   UNL A   1      31.797  34.356  27.490  1.00  0.00     0.163 HD
ATOM     29  O   UNL A   1      32.549  35.513  29.525  1.00  0.00    -0.269 OA
BRANCH  27  30
ATOM     30  C   UNL A   1      34.435  34.110  29.464  1.00  0.00     0.039 A 
ATOM     31  C   UNL A   1      34.576  33.135  30.453  1.00  0.00     0.014 A 
ATOM     32  C   UNL A   1      35.530  34.583  28.757  1.00  0.00     0.014 A 
ATOM     33  C   UNL A   1      35.828  32.550  30.629  1.00  0.00     0.010 A 
ATOM     34  C   UNL A   1      36.663  33.827  28.742  1.00  0.00     0.010 A 
ATOM     35  C   UNL A   1      36.857  32.876  29.734  1.00  0.00    -0.014 A 
BRANCH  35  36
ATOM     36  C   UNL A   1      38.151  32.215  29.758  1.00  0.00     0.031 A 
ATOM     37  C   UNL A   1      38.201  30.869  29.139  1.00  0.00     0.074 A 
ATOM     38  C   UNL A   1      39.274  32.860  30.139  1.00  0.00     0.049 A 
ATOM     39  N   UNL A   1      38.230  29.741  29.766  1.00  0.00    -0.248 NA
ATOM     40  C   UNL A   1      38.059  30.734  27.684  1.00  0.00     0.031 C 
ATOM     41  C   UNL A   1      39.450  34.279  30.489  1.00  0.00     0.029 A 
ATOM     42  N   UNL A   1      40.546  32.395  30.150  1.00  0.00    -0.354 N 
ATOM     43  C   UNL A   1      38.367  28.761  28.787  1.00  0.00     0.074 A 
ATOM     44  C   UNL A   1      38.035  29.405  27.542  1.00  0.00     0.031 C 
ATOM     45  C   UNL A   1      40.759  34.604  30.407  1.00  0.00     0.029 A 
ATOM     46  C   UNL A   1      41.516  33.385  30.209  1.00  0.00     0.049 A 
ATOM     47  H   UNL A   1      40.764  31.435  30.119  1.00  0.00     0.167 HD
ATOM     48  C   UNL A   1      38.975  27.573  29.068  1.00  0.00     0.034 A 
ATOM     49  C   UNL A   1      42.850  33.210  30.075  1.00  0.00     0.034 A 
ATOM     50  C   UNL A   1      39.245  27.459  30.484  1.00  0.00     0.049 A 
ATOM     51  C   UNL A   1      43.127  31.795  30.420  1.00  0.00     0.074 A 
ATOM     52  C   UNL A   1      38.478  27.473  31.630  1.00  0.00     0.029 A 
ATOM     53  N   UNL A   1      40.536  27.724  30.882  1.00  0.00    -0.354 N 
ATOM     54  N   UNL A   1      42.950  31.311  31.619  1.00  0.00    -0.248 NA
ATOM     55  C   UNL A   1      43.146  30.812  29.348  1.00  0.00     0.031 C 
ATOM     56  C   UNL A   1      39.248  28.218  32.571  1.00  0.00     0.029 A 
ATOM     57  C   UNL A   1      40.469  28.546  31.975  1.00  0.00     0.049 A 
ATOM     58  H   UNL A   1      41.357  27.384  30.459  1.00  0.00     0.167 HD
ATOM     59  C   UNL A   1      42.362  30.071  31.405  1.00  0.00     0.074 A 
ATOM     60  C   UNL A   1      42.626  29.766  29.999  1.00  0.00     0.031 C 
ATOM     61  C   UNL A   1      41.463  29.550  32.293  1.00  0.00     0.034 A 
BRANCH  48  62
ATOM     62  C   UNL A   1      39.677  26.653  28.096  1.00  0.00     0.023 A 
ATOM     63  C   UNL A   1      39.384  25.270  28.207  1.00  0.00     0.012 A 
ATOM     64  C   UNL A   1      40.780  27.007  27.292  1.00  0.00     0.148 A 
ATOM     65  C   UNL A   1      40.193  24.293  27.621  1.00  0.00     0.002 A 
ATOM     66  C   UNL A   1      41.541  26.034  26.652  1.00  0.00     0.091 A 
ATOM     67  F   UNL A   1      41.188  28.277  27.238  1.00  0.00    -0.205 F 
ATOM     68  C   UNL A   1      41.275  24.676  26.842  1.00  0.00     0.022 A 
BRANCH  66  69
ATOM     69  S   UNL A   1      42.928  26.467  25.594  1.00  0.00     0.127 S 
ATOM     70  O   UNL A   1      42.294  27.370  24.637  1.00  0.00    -0.237 OA
ATOM     71  O   UNL A   1      43.839  27.108  26.543  1.00  0.00    -0.237 OA
ATOM     72  O   UNL A   1      43.418  25.205  25.056  1.00  0.00    -0.744 OA
ENDBRANCH  66  69
ENDBRANCH  48  62
BRANCH  49  73
ATOM     73  C   UNL A   1      43.854  34.116  29.482  1.00  0.00     0.023 A 
ATOM     74  C   UNL A   1      44.616  34.958  30.313  1.00  0.00     0.012 A 
ATOM     75  C   UNL A   1      44.256  33.960  28.136  1.00  0.00     0.148 A 
ATOM     76  C   UNL A   1      45.764  35.596  29.829  1.00  0.00     0.002 A 
ATOM     77  C   UNL A   1      45.397  34.597  27.660  1.00  0.00     0.091 A 
ATOM     78  F   UNL A   1      43.574  33.114  27.352  1.00  0.00    -0.205 F 
ATOM     79  C   UNL A   1      46.161  35.408  28.507  1.00  0.00     0.022 A 
BRANCH  77  80
ATOM     80  S   UNL A   1      45.989  34.366  25.977  1.00  0.00     0.127 S 
ATOM     81  O   UNL A   1      47.059  35.360  25.893  1.00  0.00    -0.237 OA
ATOM     82  O   UNL A   1      46.441  32.978  26.008  1.00  0.00    -0.237 OA
ATOM     83  O   UNL A   1      44.844  34.641  25.117  1.00  0.00    -0.744 OA
ENDBRANCH  77  80
ENDBRANCH  49  73
BRANCH  61  84
ATOM     84  C   UNL A   1      41.289  30.238  33.626  1.00  0.00     0.023 A 
ATOM     85  C   UNL A   1      42.228  30.104  34.671  1.00  0.00     0.012 A 
ATOM     86  C   UNL A   1      40.279  31.207  33.745  1.00  0.00     0.148 A 
ATOM     87  C   UNL A   1      42.153  30.906  35.812  1.00  0.00     0.002 A 
ATOM     88  C   UNL A   1      40.238  32.039  34.857  1.00  0.00     0.091 A 
ATOM     89  F   UNL A   1      39.395  31.327  32.742  1.00  0.00    -0.205 F 
ATOM     90  C   UNL A   1      41.168  31.886  35.898  1.00  0.00     0.022 A 
BRANCH  88  91
ATOM     91  S   UNL A   1      39.087  33.410  34.955  1.00  0.00     0.127 S 
ATOM     92  O   UNL A   1      39.329  34.104  33.692  1.00  0.00    -0.237 OA
ATOM     93  O   UNL A   1      37.792  32.731  35.042  1.00  0.00    -0.237 OA
ATOM     94  O   UNL A   1      39.447  34.150  36.158  1.00  0.00    -0.744 OA
ENDBRANCH  88  91
ENDBRANCH  61  84
ENDBRANCH  35  36
ENDBRANCH  27  30
ENDBRANCH  25  26
ENDBRANCH   1  25
TORSDOF 16
ENDMDL
