MODEL 1
REMARK VINA RESULT:     -12.0      0.000      0.000
REMARK SMILES CO[C@@H]1C[C@@H](C(=O)NCCCNC(=O)c2ccc(-c3c4nc(c(-c5cccc(S(=O)(=O)[O-])c5F)c5ccc([nH]5)c(-c5cccc(S(=O)(=O)[O-])c5F)c5nc(c(-c6cccc(S(=O)(=O)[O-])c6F)c6ccc3[nH]6)C=C5)C=C4)cc2)N(C(=O)c2nc(C(C)C)n[nH]2)C1
REMARK SMILES IDX 10 1 9 2 8 3 6 4 7 5 5 7 3 8 4 9 89 10 78 11 2 12 1 13 79 14
REMARK SMILES IDX 80 15 81 16 82 17 88 18 83 19 87 20 84 22 85 23 86 24 11 25
REMARK SMILES IDX 12 26 13 27 14 29 15 30 16 31 77 32 17 33 76 34 18 35 19 36
REMARK SMILES IDX 20 37 70 38 21 39 75 40 69 41 71 42 22 43 74 44 68 45 67 46
REMARK SMILES IDX 23 48 55 49 35 50 54 51 36 52 39 53 53 54 72 55 37 56 38 57
REMARK SMILES IDX 52 59 73 60 40 61 24 62 25 63 33 64 26 65 28 66 34 67 27 68
REMARK SMILES IDX 29 69 30 70 31 71 32 72 56 73 57 74 65 75 58 76 60 77 66 78
REMARK SMILES IDX 59 79 61 80 62 81 63 82 64 83 41 84 42 85 50 86 43 87 45 88
REMARK SMILES IDX 51 89 44 90 46 91 47 92 48 93 49 94
REMARK H PARENT 8 6 88 21 12 28 71 47 39 58
REMARK Flexibility Score: inf
ROOT
ATOM      1  C   UNL A   1      37.665  19.322  24.935  1.00  0.00     0.042 C 
ENDROOT
BRANCH   1   2
ATOM      2  C   UNL A   1      36.269  19.946  24.886  1.00  0.00     0.117 C 
BRANCH   2   3
ATOM      3  N   UNL A   1      36.036  21.117  25.719  1.00  0.00    -0.354 N 
ATOM      4  C   UNL A   1      35.129  22.128  25.607  1.00  0.00     0.242 C 
ATOM      5  O   UNL A   1      34.823  22.714  26.650  1.00  0.00    -0.273 OA
ATOM      6  H   UNL A   1      36.638  21.194  26.494  1.00  0.00     0.163 HD
BRANCH   4   7
ATOM      7  C   UNL A   1      34.505  22.570  24.276  1.00  0.00     0.177 C 
ATOM      8  C   UNL A   1      33.242  24.499  23.497  1.00  0.00     0.139 C 
ATOM      9  C   UNL A   1      34.498  24.104  24.261  1.00  0.00     0.069 C 
ATOM     10  C   UNL A   1      32.297  23.318  23.714  1.00  0.00     0.153 C 
ATOM     11  N   UNL A   1      33.144  22.149  23.963  1.00  0.00    -0.321 N 
BRANCH   8  12
ATOM     12  O   UNL A   1      33.591  24.697  22.126  1.00  0.00    -0.380 OA
ATOM     13  C   UNL A   1      33.052  25.904  21.592  1.00  0.00     0.195 C 
ENDBRANCH   8  12
BRANCH  11  14
ATOM     14  C   UNL A   1      32.675  20.885  23.554  1.00  0.00     0.291 C 
ATOM     15  O   UNL A   1      32.025  20.839  22.506  1.00  0.00    -0.265 OA
BRANCH  14  16
ATOM     16  C   UNL A   1      32.832  19.677  24.371  1.00  0.00     0.214 A 
ATOM     17  N   UNL A   1      33.343  18.549  23.888  1.00  0.00    -0.207 NA
ATOM     18  N   UNL A   1      32.379  19.387  25.623  1.00  0.00    -0.255 N 
ATOM     19  C   UNL A   1      33.122  17.614  24.863  1.00  0.00     0.153 A 
ATOM     20  N   UNL A   1      32.515  18.097  25.948  1.00  0.00    -0.158 NA
ATOM     21  H   UNL A   1      31.989  20.060  26.227  1.00  0.00     0.192 HD
BRANCH  19  22
ATOM     22  C   UNL A   1      33.481  16.170  24.736  1.00  0.00     0.053 C 
ATOM     23  C   UNL A   1      34.922  15.907  25.166  1.00  0.00     0.016 C 
ATOM     24  C   UNL A   1      32.508  15.280  25.502  1.00  0.00     0.016 C 
ENDBRANCH  19  22
ENDBRANCH  14  16
ENDBRANCH  11  14
ENDBRANCH   4   7
ENDBRANCH   2   3
ENDBRANCH   1   2
BRANCH   1  25
ATOM     25  C   UNL A   1      38.737  20.091  25.703  1.00  0.00     0.118 C 
BRANCH  25  26
ATOM     26  N   UNL A   1      39.896  19.271  26.008  1.00  0.00    -0.352 N 
ATOM     27  C   UNL A   1      41.181  19.634  26.337  1.00  0.00     0.251 C 
ATOM     28  H   UNL A   1      39.735  18.301  25.975  1.00  0.00     0.163 HD
ATOM     29  O   UNL A   1      42.043  18.756  26.368  1.00  0.00    -0.269 OA
BRANCH  27  30
ATOM     30  C   UNL A   1      41.558  21.038  26.640  1.00  0.00     0.039 A 
ATOM     31  C   UNL A   1      41.858  21.891  25.570  1.00  0.00     0.014 A 
ATOM     32  C   UNL A   1      41.714  21.508  27.947  1.00  0.00     0.014 A 
ATOM     33  C   UNL A   1      42.275  23.208  25.807  1.00  0.00     0.010 A 
ATOM     34  C   UNL A   1      42.079  22.841  28.181  1.00  0.00     0.010 A 
ATOM     35  C   UNL A   1      42.376  23.705  27.116  1.00  0.00    -0.014 A 
BRANCH  35  36
ATOM     36  C   UNL A   1      42.785  25.118  27.368  1.00  0.00     0.031 A 
ATOM     37  C   UNL A   1      41.835  26.101  28.008  1.00  0.00     0.074 A 
ATOM     38  C   UNL A   1      44.005  25.541  26.977  1.00  0.00     0.049 A 
ATOM     39  N   UNL A   1      42.034  27.358  28.317  1.00  0.00    -0.248 NA
ATOM     40  C   UNL A   1      40.483  25.618  28.328  1.00  0.00     0.031 C 
ATOM     41  C   UNL A   1      44.998  24.722  26.279  1.00  0.00     0.029 A 
ATOM     42  N   UNL A   1      44.613  26.768  27.094  1.00  0.00    -0.354 N 
ATOM     43  C   UNL A   1      40.831  27.824  28.835  1.00  0.00     0.074 A 
ATOM     44  C   UNL A   1      39.897  26.719  28.779  1.00  0.00     0.031 C 
ATOM     45  C   UNL A   1      46.090  25.466  26.035  1.00  0.00     0.029 A 
ATOM     46  C   UNL A   1      45.872  26.819  26.538  1.00  0.00     0.049 A 
ATOM     47  H   UNL A   1      44.188  27.539  27.535  1.00  0.00     0.167 HD
ATOM     48  C   UNL A   1      40.533  29.048  29.336  1.00  0.00     0.034 A 
ATOM     49  C   UNL A   1      46.753  27.836  26.443  1.00  0.00     0.034 A 
ATOM     50  C   UNL A   1      41.472  30.135  29.441  1.00  0.00     0.049 A 
ATOM     51  C   UNL A   1      46.408  29.172  27.048  1.00  0.00     0.074 A 
ATOM     52  C   UNL A   1      41.288  31.375  30.030  1.00  0.00     0.029 A 
ATOM     53  N   UNL A   1      42.763  30.120  28.940  1.00  0.00    -0.354 N 
ATOM     54  N   UNL A   1      45.330  29.530  27.702  1.00  0.00    -0.248 NA
ATOM     55  C   UNL A   1      47.420  30.235  26.937  1.00  0.00     0.031 C 
ATOM     56  C   UNL A   1      42.461  32.118  29.864  1.00  0.00     0.029 A 
ATOM     57  C   UNL A   1      43.383  31.333  29.193  1.00  0.00     0.049 A 
ATOM     58  H   UNL A   1      43.180  29.361  28.472  1.00  0.00     0.167 HD
ATOM     59  C   UNL A   1      45.551  30.841  28.113  1.00  0.00     0.074 A 
ATOM     60  C   UNL A   1      46.875  31.207  27.654  1.00  0.00     0.031 C 
ATOM     61  C   UNL A   1      44.724  31.671  28.794  1.00  0.00     0.034 A 
BRANCH  48  62
ATOM     62  C   UNL A   1      39.144  29.278  29.874  1.00  0.00     0.023 A 
ATOM     63  C   UNL A   1      38.831  28.860  31.185  1.00  0.00     0.012 A 
ATOM     64  C   UNL A   1      38.185  29.992  29.130  1.00  0.00     0.148 A 
ATOM     65  C   UNL A   1      37.579  29.127  31.736  1.00  0.00     0.002 A 
ATOM     66  C   UNL A   1      36.953  30.291  29.702  1.00  0.00     0.091 A 
ATOM     67  F   UNL A   1      38.495  30.369  27.882  1.00  0.00    -0.205 F 
ATOM     68  C   UNL A   1      36.645  29.852  31.000  1.00  0.00     0.022 A 
BRANCH  66  69
ATOM     69  S   UNL A   1      35.709  31.288  28.870  1.00  0.00     0.127 S 
ATOM     70  O   UNL A   1      34.866  31.701  29.989  1.00  0.00    -0.237 OA
ATOM     71  O   UNL A   1      36.516  32.362  28.286  1.00  0.00    -0.237 OA
ATOM     72  O   UNL A   1      35.072  30.409  27.900  1.00  0.00    -0.744 OA
ENDBRANCH  66  69
ENDBRANCH  48  62
BRANCH  49  73
ATOM     73  C   UNL A   1      48.085  27.618  25.810  1.00  0.00     0.023 A 
ATOM     74  C   UNL A   1      49.201  27.349  26.628  1.00  0.00     0.012 A 
ATOM     75  C   UNL A   1      48.258  27.677  24.413  1.00  0.00     0.148 A 
ATOM     76  C   UNL A   1      50.470  27.181  26.071  1.00  0.00     0.002 A 
ATOM     77  C   UNL A   1      49.516  27.454  23.861  1.00  0.00     0.091 A 
ATOM     78  F   UNL A   1      47.190  27.952  23.651  1.00  0.00    -0.205 F 
ATOM     79  C   UNL A   1      50.625  27.225  24.690  1.00  0.00     0.022 A 
BRANCH  77  80
ATOM     80  S   UNL A   1      49.782  27.365  22.087  1.00  0.00     0.127 S 
ATOM     81  O   UNL A   1      48.788  26.371  21.686  1.00  0.00    -0.237 OA
ATOM     82  O   UNL A   1      49.485  28.735  21.666  1.00  0.00    -0.237 OA
ATOM     83  O   UNL A   1      51.174  26.977  21.921  1.00  0.00    -0.744 OA
ENDBRANCH  77  80
ENDBRANCH  49  73
BRANCH  61  84
ATOM     84  C   UNL A   1      45.230  33.050  29.131  1.00  0.00     0.023 A 
ATOM     85  C   UNL A   1      45.954  33.260  30.321  1.00  0.00     0.012 A 
ATOM     86  C   UNL A   1      45.056  34.122  28.231  1.00  0.00     0.148 A 
ATOM     87  C   UNL A   1      46.466  34.520  30.627  1.00  0.00     0.002 A 
ATOM     88  C   UNL A   1      45.612  35.363  28.519  1.00  0.00     0.091 A 
ATOM     89  F   UNL A   1      44.350  33.908  27.111  1.00  0.00    -0.205 F 
ATOM     90  C   UNL A   1      46.307  35.567  29.721  1.00  0.00     0.022 A 
BRANCH  88  91
ATOM     91  S   UNL A   1      45.539  36.741  27.369  1.00  0.00     0.127 S 
ATOM     92  O   UNL A   1      46.055  37.839  28.185  1.00  0.00    -0.237 OA
ATOM     93  O   UNL A   1      46.438  36.304  26.300  1.00  0.00    -0.237 OA
ATOM     94  O   UNL A   1      44.143  36.858  26.972  1.00  0.00    -0.744 OA
ENDBRANCH  88  91
ENDBRANCH  61  84
ENDBRANCH  35  36
ENDBRANCH  27  30
ENDBRANCH  25  26
ENDBRANCH   1  25
TORSDOF 17
ENDMDL
MODEL 2
REMARK VINA RESULT:     -11.9      5.636      8.937
REMARK SMILES CO[C@@H]1C[C@@H](C(=O)NCCCNC(=O)c2ccc(-c3c4nc(c(-c5cccc(S(=O)(=O)[O-])c5F)c5ccc([nH]5)c(-c5cccc(S(=O)(=O)[O-])c5F)c5nc(c(-c6cccc(S(=O)(=O)[O-])c6F)c6ccc3[nH]6)C=C5)C=C4)cc2)N(C(=O)c2nc(C(C)C)n[nH]2)C1
REMARK SMILES IDX 10 1 9 2 8 3 6 4 7 5 5 7 3 8 4 9 89 10 78 11 2 12 1 13 79 14
REMARK SMILES IDX 80 15 81 16 82 17 88 18 83 19 87 20 84 22 85 23 86 24 11 25
REMARK SMILES IDX 12 26 13 27 14 29 15 30 16 31 77 32 17 33 76 34 18 35 19 36
REMARK SMILES IDX 20 37 70 38 21 39 75 40 69 41 71 42 22 43 74 44 68 45 67 46
REMARK SMILES IDX 23 48 55 49 35 50 54 51 36 52 39 53 53 54 72 55 37 56 38 57
REMARK SMILES IDX 52 59 73 60 40 61 24 62 25 63 33 64 26 65 28 66 34 67 27 68
REMARK SMILES IDX 29 69 30 70 31 71 32 72 56 73 57 74 65 75 58 76 60 77 66 78
REMARK SMILES IDX 59 79 61 80 62 81 63 82 64 83 41 84 42 85 50 86 43 87 45 88
REMARK SMILES IDX 51 89 44 90 46 91 47 92 48 93 49 94
REMARK H PARENT 8 6 88 21 12 28 71 47 39 58
REMARK Flexibility Score: inf
ROOT
ATOM      1  C   UNL A   1      33.231  27.658  26.757  1.00  0.00     0.042 C 
ENDROOT
BRANCH   1   2
ATOM      2  C   UNL A   1      31.851  27.266  26.225  1.00  0.00     0.117 C 
BRANCH   2   3
ATOM      3  N   UNL A   1      31.294  26.004  26.692  1.00  0.00    -0.354 N 
ATOM      4  C   UNL A   1      31.765  24.729  26.595  1.00  0.00     0.242 C 
ATOM      5  O   UNL A   1      31.374  23.929  27.451  1.00  0.00    -0.273 OA
ATOM      6  H   UNL A   1      30.430  26.086  27.155  1.00  0.00     0.163 HD
BRANCH   4   7
ATOM      7  C   UNL A   1      32.714  24.253  25.487  1.00  0.00     0.177 C 
ATOM      8  C   UNL A   1      35.041  24.650  24.894  1.00  0.00     0.139 C 
ATOM      9  C   UNL A   1      34.137  24.278  26.060  1.00  0.00     0.069 C 
ATOM     10  C   UNL A   1      34.128  25.453  23.967  1.00  0.00     0.153 C 
ATOM     11  N   UNL A   1      32.762  24.998  24.234  1.00  0.00    -0.321 N 
BRANCH   8  12
ATOM     12  O   UNL A   1      35.528  23.446  24.299  1.00  0.00    -0.380 OA
ATOM     13  C   UNL A   1      36.859  23.133  24.705  1.00  0.00     0.195 C 
ENDBRANCH   8  12
BRANCH  11  14
ATOM     14  C   UNL A   1      31.831  25.022  23.176  1.00  0.00     0.291 C 
ATOM     15  O   UNL A   1      32.120  24.383  22.161  1.00  0.00    -0.265 OA
BRANCH  14  16
ATOM     16  C   UNL A   1      30.621  25.851  23.201  1.00  0.00     0.214 A 
ATOM     17  N   UNL A   1      30.588  27.081  22.700  1.00  0.00    -0.207 NA
ATOM     18  N   UNL A   1      29.428  25.661  23.831  1.00  0.00    -0.255 N 
ATOM     19  C   UNL A   1      29.384  27.595  23.102  1.00  0.00     0.153 A 
ATOM     20  N   UNL A   1      28.645  26.745  23.816  1.00  0.00    -0.158 NA
ATOM     21  H   UNL A   1      29.169  24.811  24.254  1.00  0.00     0.192 HD
BRANCH  19  22
ATOM     22  C   UNL A   1      28.931  28.989  22.818  1.00  0.00     0.053 C 
ATOM     23  C   UNL A   1      27.429  29.150  23.045  1.00  0.00     0.016 C 
ATOM     24  C   UNL A   1      29.721  30.013  23.625  1.00  0.00     0.016 C 
ENDBRANCH  19  22
ENDBRANCH  14  16
ENDBRANCH  11  14
ENDBRANCH   4   7
ENDBRANCH   2   3
ENDBRANCH   1   2
BRANCH   1  25
ATOM     25  C   UNL A   1      33.950  28.795  26.034  1.00  0.00     0.118 C 
BRANCH  25  26
ATOM     26  N   UNL A   1      33.760  30.076  26.690  1.00  0.00    -0.352 N 
ATOM     27  C   UNL A   1      34.505  30.696  27.665  1.00  0.00     0.251 C 
ATOM     28  H   UNL A   1      32.972  30.583  26.387  1.00  0.00     0.163 HD
ATOM     29  O   UNL A   1      34.040  31.702  28.202  1.00  0.00    -0.269 OA
BRANCH  27  30
ATOM     30  C   UNL A   1      35.834  30.189  28.094  1.00  0.00     0.039 A 
ATOM     31  C   UNL A   1      35.950  29.630  29.372  1.00  0.00     0.014 A 
ATOM     32  C   UNL A   1      36.982  30.335  27.310  1.00  0.00     0.014 A 
ATOM     33  C   UNL A   1      37.194  29.190  29.844  1.00  0.00     0.010 A 
ATOM     34  C   UNL A   1      38.214  29.845  27.762  1.00  0.00     0.010 A 
ATOM     35  C   UNL A   1      38.341  29.278  29.039  1.00  0.00    -0.014 A 
BRANCH  35  36
ATOM     36  C   UNL A   1      39.659  28.776  29.527  1.00  0.00     0.031 A 
ATOM     37  C   UNL A   1      40.387  29.468  30.653  1.00  0.00     0.074 A 
ATOM     38  C   UNL A   1      40.234  27.715  28.925  1.00  0.00     0.049 A 
ATOM     39  N   UNL A   1      41.528  29.155  31.213  1.00  0.00    -0.248 NA
ATOM     40  C   UNL A   1      39.764  30.678  31.213  1.00  0.00     0.031 C 
ATOM     41  C   UNL A   1      39.682  26.994  27.776  1.00  0.00     0.029 A 
ATOM     42  N   UNL A   1      41.420  27.067  29.181  1.00  0.00    -0.354 N 
ATOM     43  C   UNL A   1      41.777  30.139  32.163  1.00  0.00     0.074 A 
ATOM     44  C   UNL A   1      40.676  31.076  32.091  1.00  0.00     0.031 C 
ATOM     45  C   UNL A   1      40.522  26.004  27.432  1.00  0.00     0.029 A 
ATOM     46  C   UNL A   1      41.682  26.028  28.317  1.00  0.00     0.049 A 
ATOM     47  H   UNL A   1      42.025  27.323  29.915  1.00  0.00     0.167 HD
ATOM     48  C   UNL A   1      42.809  30.243  33.036  1.00  0.00     0.034 A 
ATOM     49  C   UNL A   1      42.736  25.189  28.243  1.00  0.00     0.034 A 
ATOM     50  C   UNL A   1      43.880  29.287  33.147  1.00  0.00     0.049 A 
ATOM     51  C   UNL A   1      43.846  25.304  29.254  1.00  0.00     0.074 A 
ATOM     52  C   UNL A   1      44.911  29.256  34.072  1.00  0.00     0.029 A 
ATOM     53  N   UNL A   1      44.067  28.202  32.307  1.00  0.00    -0.354 N 
ATOM     54  N   UNL A   1      43.961  26.131  30.265  1.00  0.00    -0.248 NA
ATOM     55  C   UNL A   1      44.954  24.343  29.140  1.00  0.00     0.031 C 
ATOM     56  C   UNL A   1      45.735  28.166  33.775  1.00  0.00     0.029 A 
ATOM     57  C   UNL A   1      45.203  27.504  32.682  1.00  0.00     0.049 A 
ATOM     58  H   UNL A   1      43.480  27.962  31.554  1.00  0.00     0.167 HD
ATOM     59  C   UNL A   1      45.130  25.765  30.926  1.00  0.00     0.074 A 
ATOM     60  C   UNL A   1      45.674  24.626  30.217  1.00  0.00     0.031 C 
ATOM     61  C   UNL A   1      45.707  26.332  32.014  1.00  0.00     0.034 A 
BRANCH  48  62
ATOM     62  C   UNL A   1      42.814  31.405  33.996  1.00  0.00     0.023 A 
ATOM     63  C   UNL A   1      43.409  32.623  33.605  1.00  0.00     0.012 A 
ATOM     64  C   UNL A   1      42.147  31.328  35.234  1.00  0.00     0.148 A 
ATOM     65  C   UNL A   1      43.361  33.737  34.442  1.00  0.00     0.002 A 
ATOM     66  C   UNL A   1      42.068  32.456  36.045  1.00  0.00     0.091 A 
ATOM     67  F   UNL A   1      41.600  30.159  35.594  1.00  0.00    -0.205 F 
ATOM     68  C   UNL A   1      42.682  33.658  35.654  1.00  0.00     0.022 A 
BRANCH  66  69
ATOM     69  S   UNL A   1      41.148  32.482  37.589  1.00  0.00     0.127 S 
ATOM     70  O   UNL A   1      41.102  33.914  37.880  1.00  0.00    -0.237 OA
ATOM     71  O   UNL A   1      39.865  31.899  37.193  1.00  0.00    -0.237 OA
ATOM     72  O   UNL A   1      41.917  31.679  38.529  1.00  0.00    -0.744 OA
ENDBRANCH  66  69
ENDBRANCH  48  62
BRANCH  49  73
ATOM     73  C   UNL A   1      42.763  24.109  27.215  1.00  0.00     0.023 A 
ATOM     74  C   UNL A   1      43.461  24.323  26.010  1.00  0.00     0.012 A 
ATOM     75  C   UNL A   1      42.107  22.879  27.418  1.00  0.00     0.148 A 
ATOM     76  C   UNL A   1      43.472  23.349  25.009  1.00  0.00     0.002 A 
ATOM     77  C   UNL A   1      42.168  21.892  26.439  1.00  0.00     0.091 A 
ATOM     78  F   UNL A   1      41.433  22.699  28.562  1.00  0.00    -0.205 F 
ATOM     79  C   UNL A   1      42.834  22.133  25.228  1.00  0.00     0.022 A 
BRANCH  77  80
ATOM     80  S   UNL A   1      41.485  20.250  26.689  1.00  0.00     0.127 S 
ATOM     81  O   UNL A   1      41.856  19.579  25.445  1.00  0.00    -0.237 OA
ATOM     82  O   UNL A   1      42.215  19.794  27.874  1.00  0.00    -0.237 OA
ATOM     83  O   UNL A   1      40.060  20.450  26.905  1.00  0.00    -0.744 OA
ENDBRANCH  77  80
ENDBRANCH  49  73
BRANCH  61  84
ATOM     84  C   UNL A   1      46.975  25.713  32.542  1.00  0.00     0.023 A 
ATOM     85  C   UNL A   1      48.224  26.160  32.068  1.00  0.00     0.012 A 
ATOM     86  C   UNL A   1      46.932  24.742  33.564  1.00  0.00     0.148 A 
ATOM     87  C   UNL A   1      49.408  25.629  32.577  1.00  0.00     0.002 A 
ATOM     88  C   UNL A   1      48.117  24.253  34.101  1.00  0.00     0.091 A 
ATOM     89  F   UNL A   1      45.734  24.315  33.991  1.00  0.00    -0.205 F 
ATOM     90  C   UNL A   1      49.356  24.686  33.602  1.00  0.00     0.022 A 
BRANCH  88  91
ATOM     91  S   UNL A   1      48.146  23.109  35.486  1.00  0.00     0.127 S 
ATOM     92  O   UNL A   1      47.411  23.855  36.506  1.00  0.00    -0.237 OA
ATOM     93  O   UNL A   1      47.434  21.949  34.950  1.00  0.00    -0.237 OA
ATOM     94  O   UNL A   1      49.553  22.869  35.779  1.00  0.00    -0.744 OA
ENDBRANCH  88  91
ENDBRANCH  61  84
ENDBRANCH  35  36
ENDBRANCH  27  30
ENDBRANCH  25  26
ENDBRANCH   1  25
TORSDOF 17
ENDMDL
MODEL 3
REMARK VINA RESULT:     -11.9      5.523      9.352
REMARK SMILES CO[C@@H]1C[C@@H](C(=O)NCCCNC(=O)c2ccc(-c3c4nc(c(-c5cccc(S(=O)(=O)[O-])c5F)c5ccc([nH]5)c(-c5cccc(S(=O)(=O)[O-])c5F)c5nc(c(-c6cccc(S(=O)(=O)[O-])c6F)c6ccc3[nH]6)C=C5)C=C4)cc2)N(C(=O)c2nc(C(C)C)n[nH]2)C1
REMARK SMILES IDX 10 1 9 2 8 3 6 4 7 5 5 7 3 8 4 9 89 10 78 11 2 12 1 13 79 14
REMARK SMILES IDX 80 15 81 16 82 17 88 18 83 19 87 20 84 22 85 23 86 24 11 25
REMARK SMILES IDX 12 26 13 27 14 29 15 30 16 31 77 32 17 33 76 34 18 35 19 36
REMARK SMILES IDX 20 37 70 38 21 39 75 40 69 41 71 42 22 43 74 44 68 45 67 46
REMARK SMILES IDX 23 48 55 49 35 50 54 51 36 52 39 53 53 54 72 55 37 56 38 57
REMARK SMILES IDX 52 59 73 60 40 61 24 62 25 63 33 64 26 65 28 66 34 67 27 68
REMARK SMILES IDX 29 69 30 70 31 71 32 72 56 73 57 74 65 75 58 76 60 77 66 78
REMARK SMILES IDX 59 79 61 80 62 81 63 82 64 83 41 84 42 85 50 86 43 87 45 88
REMARK SMILES IDX 51 89 44 90 46 91 47 92 48 93 49 94
REMARK H PARENT 8 6 88 21 12 28 71 47 39 58
REMARK Flexibility Score: inf
ROOT
ATOM      1  C   UNL A   1      33.974  27.932  25.925  1.00  0.00     0.042 C 
ENDROOT
BRANCH   1   2
ATOM      2  C   UNL A   1      33.641  28.507  24.547  1.00  0.00     0.117 C 
BRANCH   2   3
ATOM      3  N   UNL A   1      34.034  27.719  23.387  1.00  0.00    -0.354 N 
ATOM      4  C   UNL A   1      33.482  26.601  22.837  1.00  0.00     0.242 C 
ATOM      5  O   UNL A   1      33.696  26.413  21.636  1.00  0.00    -0.273 OA
ATOM      6  H   UNL A   1      34.835  28.050  22.921  1.00  0.00     0.163 HD
BRANCH   4   7
ATOM      7  C   UNL A   1      32.649  25.584  23.629  1.00  0.00     0.177 C 
ATOM      8  C   UNL A   1      32.016  23.251  23.348  1.00  0.00     0.139 C 
ATOM      9  C   UNL A   1      33.212  24.191  23.321  1.00  0.00     0.069 C 
ATOM     10  C   UNL A   1      30.836  24.152  22.984  1.00  0.00     0.153 C 
ATOM     11  N   UNL A   1      31.212  25.510  23.386  1.00  0.00    -0.321 N 
BRANCH   8  12
ATOM     12  O   UNL A   1      31.912  22.688  24.657  1.00  0.00    -0.380 OA
ATOM     13  C   UNL A   1      33.167  22.233  25.159  1.00  0.00     0.195 C 
ENDBRANCH   8  12
BRANCH  11  14
ATOM     14  C   UNL A   1      30.193  26.392  23.796  1.00  0.00     0.291 C 
ATOM     15  O   UNL A   1      29.427  25.993  24.677  1.00  0.00    -0.265 OA
BRANCH  14  16
ATOM     16  C   UNL A   1      29.952  27.685  23.147  1.00  0.00     0.214 A 
ATOM     17  N   UNL A   1      28.849  28.395  23.358  1.00  0.00    -0.207 NA
ATOM     18  N   UNL A   1      30.631  28.317  22.148  1.00  0.00    -0.255 N 
ATOM     19  C   UNL A   1      28.893  29.401  22.429  1.00  0.00     0.153 A 
ATOM     20  N   UNL A   1      29.978  29.375  21.655  1.00  0.00    -0.158 NA
ATOM     21  H   UNL A   1      31.512  28.023  21.823  1.00  0.00     0.192 HD
BRANCH  19  22
ATOM     22  C   UNL A   1      27.820  30.424  22.249  1.00  0.00     0.053 C 
ATOM     23  C   UNL A   1      27.616  31.256  23.514  1.00  0.00     0.016 C 
ATOM     24  C   UNL A   1      28.088  31.314  21.042  1.00  0.00     0.016 C 
ENDBRANCH  19  22
ENDBRANCH  14  16
ENDBRANCH  11  14
ENDBRANCH   4   7
ENDBRANCH   2   3
ENDBRANCH   1   2
BRANCH   1  25
ATOM     25  C   UNL A   1      33.264  28.559  27.123  1.00  0.00     0.118 C 
BRANCH  25  26
ATOM     26  N   UNL A   1      33.390  30.005  27.146  1.00  0.00    -0.352 N 
ATOM     27  C   UNL A   1      34.387  30.804  27.655  1.00  0.00     0.251 C 
ATOM     28  H   UNL A   1      32.643  30.492  26.729  1.00  0.00     0.163 HD
ATOM     29  O   UNL A   1      34.184  32.016  27.725  1.00  0.00    -0.269 OA
BRANCH  27  30
ATOM     30  C   UNL A   1      35.684  30.253  28.128  1.00  0.00     0.039 A 
ATOM     31  C   UNL A   1      35.755  29.752  29.434  1.00  0.00     0.014 A 
ATOM     32  C   UNL A   1      36.847  30.302  27.356  1.00  0.00     0.014 A 
ATOM     33  C   UNL A   1      36.969  29.275  29.946  1.00  0.00     0.010 A 
ATOM     34  C   UNL A   1      38.048  29.775  27.850  1.00  0.00     0.010 A 
ATOM     35  C   UNL A   1      38.128  29.266  29.155  1.00  0.00    -0.014 A 
BRANCH  35  36
ATOM     36  C   UNL A   1      39.413  28.725  29.688  1.00  0.00     0.031 A 
ATOM     37  C   UNL A   1      40.070  29.331  30.903  1.00  0.00     0.074 A 
ATOM     38  C   UNL A   1      40.025  27.706  29.048  1.00  0.00     0.049 A 
ATOM     39  N   UNL A   1      41.174  28.973  31.509  1.00  0.00    -0.248 NA
ATOM     40  C   UNL A   1      39.414  30.502  31.508  1.00  0.00     0.031 C 
ATOM     41  C   UNL A   1      39.545  27.071  27.819  1.00  0.00     0.029 A 
ATOM     42  N   UNL A   1      41.192  27.036  29.331  1.00  0.00    -0.354 N 
ATOM     43  C   UNL A   1      41.363  29.886  32.541  1.00  0.00     0.074 A 
ATOM     44  C   UNL A   1      40.269  30.831  32.467  1.00  0.00     0.031 C 
ATOM     45  C   UNL A   1      40.404  26.104  27.457  1.00  0.00     0.029 A 
ATOM     46  C   UNL A   1      41.507  26.060  28.413  1.00  0.00     0.049 A 
ATOM     47  H   UNL A   1      41.750  27.236  30.117  1.00  0.00     0.167 HD
ATOM     48  C   UNL A   1      42.339  29.922  33.481  1.00  0.00     0.034 A 
ATOM     49  C   UNL A   1      42.563  25.222  28.344  1.00  0.00     0.034 A 
ATOM     50  C   UNL A   1      43.401  28.955  33.591  1.00  0.00     0.049 A 
ATOM     51  C   UNL A   1      43.608  25.260  29.428  1.00  0.00     0.074 A 
ATOM     52  C   UNL A   1      44.372  28.854  34.573  1.00  0.00     0.029 A 
ATOM     53  N   UNL A   1      43.639  27.932  32.688  1.00  0.00    -0.354 N 
ATOM     54  N   UNL A   1      43.660  26.013  30.501  1.00  0.00    -0.248 NA
ATOM     55  C   UNL A   1      44.721  24.304  29.315  1.00  0.00     0.031 C 
ATOM     56  C   UNL A   1      45.212  27.783  34.251  1.00  0.00     0.029 A 
ATOM     57  C   UNL A   1      44.750  27.204  33.082  1.00  0.00     0.049 A 
ATOM     58  H   UNL A   1      43.100  27.750  31.885  1.00  0.00     0.167 HD
ATOM     59  C   UNL A   1      44.785  25.594  31.206  1.00  0.00     0.074 A 
ATOM     60  C   UNL A   1      45.372  24.506  30.452  1.00  0.00     0.031 C 
ATOM     61  C   UNL A   1      45.293  26.079  32.365  1.00  0.00     0.034 A 
BRANCH  48  62
ATOM     62  C   UNL A   1      42.285  31.013  34.520  1.00  0.00     0.023 A 
ATOM     63  C   UNL A   1      41.643  30.765  35.751  1.00  0.00     0.012 A 
ATOM     64  C   UNL A   1      42.952  32.238  34.324  1.00  0.00     0.148 A 
ATOM     65  C   UNL A   1      41.643  31.727  36.759  1.00  0.00     0.002 A 
ATOM     66  C   UNL A   1      42.983  33.177  35.349  1.00  0.00     0.091 A 
ATOM     67  F   UNL A   1      43.545  32.461  33.143  1.00  0.00    -0.205 F 
ATOM     68  C   UNL A   1      42.322  32.927  36.564  1.00  0.00     0.022 A 
BRANCH  66  69
ATOM     69  S   UNL A   1      43.898  34.720  35.229  1.00  0.00     0.127 S 
ATOM     70  O   UNL A   1      43.188  35.400  34.148  1.00  0.00    -0.237 OA
ATOM     71  O   UNL A   1      43.691  35.305  36.556  1.00  0.00    -0.237 OA
ATOM     72  O   UNL A   1      45.275  34.350  34.936  1.00  0.00    -0.744 OA
ENDBRANCH  66  69
ENDBRANCH  48  62
BRANCH  49  73
ATOM     73  C   UNL A   1      42.654  24.218  27.246  1.00  0.00     0.023 A 
ATOM     74  C   UNL A   1      43.353  24.549  26.067  1.00  0.00     0.012 A 
ATOM     75  C   UNL A   1      42.057  22.947  27.355  1.00  0.00     0.148 A 
ATOM     76  C   UNL A   1      43.422  23.648  25.003  1.00  0.00     0.002 A 
ATOM     77  C   UNL A   1      42.177  22.034  26.313  1.00  0.00     0.091 A 
ATOM     78  F   UNL A   1      41.381  22.656  28.475  1.00  0.00    -0.205 F 
ATOM     79  C   UNL A   1      42.842  22.390  25.130  1.00  0.00     0.022 A 
BRANCH  77  80
ATOM     80  S   UNL A   1      41.572  20.348  26.441  1.00  0.00     0.127 S 
ATOM     81  O   UNL A   1      42.019  19.972  27.781  1.00  0.00    -0.237 OA
ATOM     82  O   UNL A   1      40.126  20.532  26.305  1.00  0.00    -0.237 OA
ATOM     83  O   UNL A   1      42.190  19.628  25.339  1.00  0.00    -0.744 OA
ENDBRANCH  77  80
ENDBRANCH  49  73
BRANCH  61  84
ATOM     84  C   UNL A   1      46.526  25.418  32.926  1.00  0.00     0.023 A 
ATOM     85  C   UNL A   1      47.800  25.926  32.607  1.00  0.00     0.012 A 
ATOM     86  C   UNL A   1      46.418  24.342  33.830  1.00  0.00     0.148 A 
ATOM     87  C   UNL A   1      48.949  25.353  33.151  1.00  0.00     0.002 A 
ATOM     88  C   UNL A   1      47.565  23.807  34.407  1.00  0.00     0.091 A 
ATOM     89  F   UNL A   1      45.198  23.859  34.108  1.00  0.00    -0.205 F 
ATOM     90  C   UNL A   1      48.831  24.304  34.060  1.00  0.00     0.022 A 
BRANCH  88  91
ATOM     91  S   UNL A   1      47.502  22.519  35.658  1.00  0.00     0.127 S 
ATOM     92  O   UNL A   1      47.380  21.314  34.840  1.00  0.00    -0.237 OA
ATOM     93  O   UNL A   1      48.794  22.671  36.328  1.00  0.00    -0.237 OA
ATOM     94  O   UNL A   1      46.350  22.829  36.494  1.00  0.00    -0.744 OA
ENDBRANCH  88  91
ENDBRANCH  61  84
ENDBRANCH  35  36
ENDBRANCH  27  30
ENDBRANCH  25  26
ENDBRANCH   1  25
TORSDOF 17
ENDMDL
