MODEL 1
REMARK VINA RESULT:     -11.2      0.000      0.000
REMARK SMILES C[NH2+][C@]1(C(=O)NCCCNC(=O)c2ccc(-c3c4nc(c(-c5cccc(S(=O)(=O)[O-])c5F)c5ccc([nH]5)c(-c5cccc(S(=O)(=O)[O-])c5F)c5nc(c(-c6cccc(S(=O)(=O)[O-])c6F)c6ccc3[nH]6)C=C5)C=C4)cc2)CCC[C@@H]1CCn1nc(C)c(Cl)c1C
REMARK SMILES IDX 8 1 7 2 6 3 4 4 5 5 3 7 76 8 79 9 77 10 78 11 2 12 1 13
REMARK SMILES IDX 80 16 81 17 82 18 83 19 88 20 84 21 86 22 89 23 85 24 87 25
REMARK SMILES IDX 9 26 10 27 11 28 12 30 13 31 14 32 75 33 15 34 74 35 16 36
REMARK SMILES IDX 17 37 18 38 68 39 19 40 73 41 67 42 69 43 20 44 72 45 66 46
REMARK SMILES IDX 65 47 21 49 53 50 33 51 52 52 34 53 37 54 51 55 70 56 35 57
REMARK SMILES IDX 36 58 50 60 71 61 38 62 22 63 23 64 31 65 24 66 26 67 32 68
REMARK SMILES IDX 25 69 27 70 28 71 29 72 30 73 54 74 55 75 63 76 56 77 58 78
REMARK SMILES IDX 64 79 57 80 59 81 60 82 61 83 62 84 39 85 40 86 48 87 41 88
REMARK SMILES IDX 43 89 49 90 42 91 44 92 45 93 46 94 47 95
REMARK H PARENT 6 6 2 14 2 15 10 29 69 48 37 59
REMARK Flexibility Score: inf
ROOT
ATOM      1  C   UNL A   1      33.256  28.328  27.248  1.00  0.00     0.042 C 
ENDROOT
BRANCH   1   2
ATOM      2  C   UNL A   1      31.740  28.439  27.258  1.00  0.00     0.118 C 
BRANCH   2   3
ATOM      3  N   UNL A   1      31.090  27.141  27.166  1.00  0.00    -0.351 N 
ATOM      4  C   UNL A   1      30.706  26.348  26.126  1.00  0.00     0.281 C 
ATOM      5  O   UNL A   1      30.168  25.284  26.462  1.00  0.00    -0.268 OA
ATOM      6  H   UNL A   1      30.882  26.752  28.046  1.00  0.00     0.163 HD
BRANCH   4   7
ATOM      7  C   UNL A   1      30.979  26.700  24.618  1.00  0.00     0.178 C 
ATOM      8  C   UNL A   1      30.852  28.214  24.324  1.00  0.00     0.079 C 
ATOM      9  C   UNL A   1      32.477  26.443  24.275  1.00  0.00     0.062 C 
ATOM     10  C   UNL A   1      31.740  28.465  23.107  1.00  0.00     0.008 C 
ATOM     11  C   UNL A   1      32.764  27.328  23.057  1.00  0.00     0.011 C 
BRANCH   7  12
ATOM     12  N   UNL A   1      29.922  26.066  23.803  1.00  0.00    -0.336 N 
ATOM     13  C   UNL A   1      28.561  26.517  23.794  1.00  0.00     0.331 C 
ATOM     14  H   UNL A   1      30.241  26.121  22.836  1.00  0.00     0.346 HD
ATOM     15  H   UNL A   1      29.831  25.159  24.261  1.00  0.00     0.346 HD
ENDBRANCH   7  12
BRANCH   9  16
ATOM     16  C   UNL A   1      32.955  24.986  24.172  1.00  0.00     0.034 C 
BRANCH  16  17
ATOM     17  C   UNL A   1      33.798  24.500  25.362  1.00  0.00     0.145 C 
BRANCH  17  18
ATOM     18  N   UNL A   1      34.360  23.167  25.212  1.00  0.00    -0.268 N 
ATOM     19  N   UNL A   1      33.512  22.141  24.980  1.00  0.00    -0.176 NA
ATOM     20  C   UNL A   1      35.681  22.786  25.206  1.00  0.00     0.054 A 
ATOM     21  C   UNL A   1      34.306  21.067  24.865  1.00  0.00     0.078 A 
ATOM     22  C   UNL A   1      35.664  21.418  25.019  1.00  0.00     0.084 A 
ATOM     23  C   UNL A   1      36.841  23.693  25.387  1.00  0.00     0.068 C 
ATOM     24  C   UNL A   1      33.715  19.734  24.589  1.00  0.00     0.070 C 
ATOM     25  Cl  UNL A   1      36.998  20.370  24.969  1.00  0.00    -0.080 Cl
ENDBRANCH  17  18
ENDBRANCH  16  17
ENDBRANCH   9  16
ENDBRANCH   4   7
ENDBRANCH   2   3
ENDBRANCH   1   2
BRANCH   1  26
ATOM     26  C   UNL A   1      33.924  29.334  26.327  1.00  0.00     0.118 C 
BRANCH  26  27
ATOM     27  N   UNL A   1      33.922  30.684  26.882  1.00  0.00    -0.352 N 
ATOM     28  C   UNL A   1      34.732  31.245  27.836  1.00  0.00     0.251 C 
ATOM     29  H   UNL A   1      33.233  31.284  26.516  1.00  0.00     0.163 HD
ATOM     30  O   UNL A   1      34.438  32.342  28.312  1.00  0.00    -0.269 OA
BRANCH  28  31
ATOM     31  C   UNL A   1      35.940  30.536  28.305  1.00  0.00     0.039 A 
ATOM     32  C   UNL A   1      37.140  30.707  27.609  1.00  0.00     0.014 A 
ATOM     33  C   UNL A   1      35.892  29.695  29.419  1.00  0.00     0.014 A 
ATOM     34  C   UNL A   1      38.301  30.083  28.068  1.00  0.00     0.010 A 
ATOM     35  C   UNL A   1      37.067  29.156  29.931  1.00  0.00     0.010 A 
ATOM     36  C   UNL A   1      38.282  29.331  29.255  1.00  0.00    -0.014 A 
BRANCH  36  37
ATOM     37  C   UNL A   1      39.518  28.720  29.804  1.00  0.00     0.031 A 
ATOM     38  C   UNL A   1      40.176  29.308  31.024  1.00  0.00     0.074 A 
ATOM     39  C   UNL A   1      40.097  27.691  29.154  1.00  0.00     0.049 A 
ATOM     40  N   UNL A   1      41.287  28.951  31.615  1.00  0.00    -0.248 NA
ATOM     41  C   UNL A   1      39.516  30.469  31.647  1.00  0.00     0.031 C 
ATOM     42  C   UNL A   1      39.599  27.084  27.918  1.00  0.00     0.029 A 
ATOM     43  N   UNL A   1      41.245  26.990  29.428  1.00  0.00    -0.354 N 
ATOM     44  C   UNL A   1      41.479  29.860  32.648  1.00  0.00     0.074 A 
ATOM     45  C   UNL A   1      40.391  30.810  32.581  1.00  0.00     0.031 C 
ATOM     46  C   UNL A   1      40.430  26.097  27.546  1.00  0.00     0.029 A 
ATOM     47  C   UNL A   1      41.537  26.025  28.493  1.00  0.00     0.049 A 
ATOM     48  H   UNL A   1      41.805  27.162  30.219  1.00  0.00     0.167 HD
ATOM     49  C   UNL A   1      42.456  29.888  33.584  1.00  0.00     0.034 A 
ATOM     50  C   UNL A   1      42.587  25.184  28.402  1.00  0.00     0.034 A 
ATOM     51  C   UNL A   1      43.515  28.919  33.668  1.00  0.00     0.049 A 
ATOM     52  C   UNL A   1      43.643  25.216  29.472  1.00  0.00     0.074 A 
ATOM     53  C   UNL A   1      44.501  28.804  34.632  1.00  0.00     0.029 A 
ATOM     54  N   UNL A   1      43.737  27.908  32.746  1.00  0.00    -0.354 N 
ATOM     55  N   UNL A   1      43.720  25.982  30.533  1.00  0.00    -0.248 NA
ATOM     56  C   UNL A   1      44.739  24.244  29.352  1.00  0.00     0.031 C 
ATOM     57  C   UNL A   1      45.341  27.745  34.273  1.00  0.00     0.029 A 
ATOM     58  C   UNL A   1      44.854  27.175  33.108  1.00  0.00     0.049 A 
ATOM     59  H   UNL A   1      43.183  27.737  31.951  1.00  0.00     0.167 HD
ATOM     60  C   UNL A   1      44.850  25.561  31.227  1.00  0.00     0.074 A 
ATOM     61  C   UNL A   1      45.412  24.459  30.474  1.00  0.00     0.031 C 
ATOM     62  C   UNL A   1      45.378  26.050  32.376  1.00  0.00     0.034 A 
BRANCH  49  63
ATOM     63  C   UNL A   1      42.402  30.981  34.622  1.00  0.00     0.023 A 
ATOM     64  C   UNL A   1      41.751  30.748  35.851  1.00  0.00     0.012 A 
ATOM     65  C   UNL A   1      43.038  32.218  34.401  1.00  0.00     0.148 A 
ATOM     66  C   UNL A   1      41.697  31.742  36.827  1.00  0.00     0.002 A 
ATOM     67  C   UNL A   1      43.024  33.186  35.399  1.00  0.00     0.091 A 
ATOM     68  F   UNL A   1      43.635  32.430  33.220  1.00  0.00    -0.205 F 
ATOM     69  C   UNL A   1      42.343  32.956  36.605  1.00  0.00     0.022 A 
BRANCH  67  70
ATOM     70  S   UNL A   1      43.896  34.749  35.246  1.00  0.00     0.127 S 
ATOM     71  O   UNL A   1      43.170  35.386  34.149  1.00  0.00    -0.237 OA
ATOM     72  O   UNL A   1      43.671  35.356  36.559  1.00  0.00    -0.237 OA
ATOM     73  O   UNL A   1      45.283  34.409  34.964  1.00  0.00    -0.744 OA
ENDBRANCH  67  70
ENDBRANCH  49  63
BRANCH  50  74
ATOM     74  C   UNL A   1      42.657  24.201  27.283  1.00  0.00     0.023 A 
ATOM     75  C   UNL A   1      43.320  24.554  26.092  1.00  0.00     0.012 A 
ATOM     76  C   UNL A   1      42.094  22.916  27.401  1.00  0.00     0.148 A 
ATOM     77  C   UNL A   1      43.393  23.658  25.026  1.00  0.00     0.002 A 
ATOM     78  C   UNL A   1      42.222  22.007  26.357  1.00  0.00     0.091 A 
ATOM     79  F   UNL A   1      41.462  22.601  28.540  1.00  0.00    -0.205 F 
ATOM     80  C   UNL A   1      42.852  22.382  25.161  1.00  0.00     0.022 A 
BRANCH  78  81
ATOM     81  S   UNL A   1      41.675  20.302  26.491  1.00  0.00     0.127 S 
ATOM     82  O   UNL A   1      42.225  19.910  27.786  1.00  0.00    -0.237 OA
ATOM     83  O   UNL A   1      40.220  20.450  26.458  1.00  0.00    -0.237 OA
ATOM     84  O   UNL A   1      42.234  19.614  25.334  1.00  0.00    -0.744 OA
ENDBRANCH  78  81
ENDBRANCH  50  74
BRANCH  62  85
ATOM     85  C   UNL A   1      46.610  25.374  32.922  1.00  0.00     0.023 A 
ATOM     86  C   UNL A   1      47.890  25.838  32.557  1.00  0.00     0.012 A 
ATOM     87  C   UNL A   1      46.495  24.324  33.854  1.00  0.00     0.148 A 
ATOM     88  C   UNL A   1      49.035  25.243  33.084  1.00  0.00     0.002 A 
ATOM     89  C   UNL A   1      47.639  23.773  34.416  1.00  0.00     0.091 A 
ATOM     90  F   UNL A   1      45.268  23.886  34.175  1.00  0.00    -0.205 F 
ATOM     91  C   UNL A   1      48.909  24.220  34.022  1.00  0.00     0.022 A 
BRANCH  89  92
ATOM     92  S   UNL A   1      47.573  22.522  35.704  1.00  0.00     0.127 S 
ATOM     93  O   UNL A   1      48.989  22.205  35.884  1.00  0.00    -0.237 OA
ATOM     94  O   UNL A   1      46.966  23.256  36.815  1.00  0.00    -0.237 OA
ATOM     95  O   UNL A   1      46.755  21.441  35.174  1.00  0.00    -0.744 OA
ENDBRANCH  89  92
ENDBRANCH  62  85
ENDBRANCH  36  37
ENDBRANCH  28  31
ENDBRANCH  26  27
ENDBRANCH   1  26
TORSDOF 17
ENDMDL
MODEL 2
REMARK VINA RESULT:     -10.9      1.906      2.227
REMARK SMILES C[NH2+][C@]1(C(=O)NCCCNC(=O)c2ccc(-c3c4nc(c(-c5cccc(S(=O)(=O)[O-])c5F)c5ccc([nH]5)c(-c5cccc(S(=O)(=O)[O-])c5F)c5nc(c(-c6cccc(S(=O)(=O)[O-])c6F)c6ccc3[nH]6)C=C5)C=C4)cc2)CCC[C@@H]1CCn1nc(C)c(Cl)c1C
REMARK SMILES IDX 8 1 7 2 6 3 4 4 5 5 3 7 76 8 79 9 77 10 78 11 2 12 1 13
REMARK SMILES IDX 80 16 81 17 82 18 83 19 88 20 84 21 86 22 89 23 85 24 87 25
REMARK SMILES IDX 9 26 10 27 11 28 12 30 13 31 14 32 75 33 15 34 74 35 16 36
REMARK SMILES IDX 17 37 18 38 68 39 19 40 73 41 67 42 69 43 20 44 72 45 66 46
REMARK SMILES IDX 65 47 21 49 53 50 33 51 52 52 34 53 37 54 51 55 70 56 35 57
REMARK SMILES IDX 36 58 50 60 71 61 38 62 22 63 23 64 31 65 24 66 26 67 32 68
REMARK SMILES IDX 25 69 27 70 28 71 29 72 30 73 54 74 55 75 63 76 56 77 58 78
REMARK SMILES IDX 64 79 57 80 59 81 60 82 61 83 62 84 39 85 40 86 48 87 41 88
REMARK SMILES IDX 43 89 49 90 42 91 44 92 45 93 46 94 47 95
REMARK H PARENT 6 6 2 14 2 15 10 29 69 48 37 59
REMARK Flexibility Score: inf
ROOT
ATOM      1  C   UNL A   1      33.404  27.866  26.864  1.00  0.00     0.042 C 
ENDROOT
BRANCH   1   2
ATOM      2  C   UNL A   1      31.910  28.116  26.992  1.00  0.00     0.118 C 
BRANCH   2   3
ATOM      3  N   UNL A   1      31.142  26.882  26.997  1.00  0.00    -0.351 N 
ATOM      4  C   UNL A   1      30.541  26.137  26.026  1.00  0.00     0.281 C 
ATOM      5  O   UNL A   1      29.965  25.121  26.437  1.00  0.00    -0.268 OA
ATOM      6  H   UNL A   1      31.030  26.502  27.898  1.00  0.00     0.163 HD
BRANCH   4   7
ATOM      7  C   UNL A   1      30.623  26.482  24.493  1.00  0.00     0.178 C 
ATOM      8  C   UNL A   1      30.611  28.005  24.220  1.00  0.00     0.079 C 
ATOM      9  C   UNL A   1      32.018  26.078  23.931  1.00  0.00     0.062 C 
ATOM     10  C   UNL A   1      31.329  28.182  22.884  1.00  0.00     0.008 C 
ATOM     11  C   UNL A   1      32.212  26.946  22.683  1.00  0.00     0.011 C 
BRANCH   7  12
ATOM     12  N   UNL A   1      29.396  25.971  23.846  1.00  0.00    -0.336 N 
ATOM     13  C   UNL A   1      28.134  26.647  23.912  1.00  0.00     0.331 C 
ATOM     14  H   UNL A   1      29.617  25.888  22.853  1.00  0.00     0.346 HD
ATOM     15  H   UNL A   1      29.208  25.136  24.400  1.00  0.00     0.346 HD
ENDBRANCH   7  12
BRANCH   9  16
ATOM     16  C   UNL A   1      32.322  24.581  23.759  1.00  0.00     0.034 C 
BRANCH  16  17
ATOM     17  C   UNL A   1      33.809  24.244  23.566  1.00  0.00     0.145 C 
BRANCH  17  18
ATOM     18  N   UNL A   1      34.219  22.950  24.088  1.00  0.00    -0.268 N 
ATOM     19  N   UNL A   1      33.274  22.160  24.643  1.00  0.00    -0.176 NA
ATOM     20  C   UNL A   1      35.458  22.358  24.042  1.00  0.00     0.054 A 
ATOM     21  C   UNL A   1      33.934  21.049  25.002  1.00  0.00     0.078 A 
ATOM     22  C   UNL A   1      35.302  21.136  24.666  1.00  0.00     0.084 A 
ATOM     23  C   UNL A   1      36.680  22.959  23.453  1.00  0.00     0.068 C 
ATOM     24  C   UNL A   1      33.204  19.929  25.646  1.00  0.00     0.070 C 
ATOM     25  Cl  UNL A   1      36.498  19.969  24.959  1.00  0.00    -0.080 Cl
ENDBRANCH  17  18
ENDBRANCH  16  17
ENDBRANCH   9  16
ENDBRANCH   4   7
ENDBRANCH   2   3
ENDBRANCH   1   2
BRANCH   1  26
ATOM     26  C   UNL A   1      34.125  28.941  26.069  1.00  0.00     0.118 C 
BRANCH  26  27
ATOM     27  N   UNL A   1      33.829  30.285  26.555  1.00  0.00    -0.352 N 
ATOM     28  C   UNL A   1      34.435  31.018  27.543  1.00  0.00     0.251 C 
ATOM     29  H   UNL A   1      33.078  30.735  26.104  1.00  0.00     0.163 HD
ATOM     30  O   UNL A   1      33.905  32.058  27.938  1.00  0.00    -0.269 OA
BRANCH  28  31
ATOM     31  C   UNL A   1      35.704  30.561  28.144  1.00  0.00     0.039 A 
ATOM     32  C   UNL A   1      35.662  29.725  29.263  1.00  0.00     0.014 A 
ATOM     33  C   UNL A   1      36.934  30.963  27.617  1.00  0.00     0.014 A 
ATOM     34  C   UNL A   1      36.852  29.245  29.813  1.00  0.00     0.010 A 
ATOM     35  C   UNL A   1      38.111  30.404  28.103  1.00  0.00     0.010 A 
ATOM     36  C   UNL A   1      38.086  29.551  29.215  1.00  0.00    -0.014 A 
BRANCH  36  37
ATOM     37  C   UNL A   1      39.358  28.992  29.736  1.00  0.00     0.031 A 
ATOM     38  C   UNL A   1      40.069  29.666  30.880  1.00  0.00     0.074 A 
ATOM     39  C   UNL A   1      39.919  27.931  29.124  1.00  0.00     0.049 A 
ATOM     40  N   UNL A   1      41.214  29.360  31.433  1.00  0.00    -0.248 NA
ATOM     41  C   UNL A   1      39.423  30.855  31.461  1.00  0.00     0.031 C 
ATOM     42  C   UNL A   1      39.367  27.239  27.956  1.00  0.00     0.029 A 
ATOM     43  N   UNL A   1      41.090  27.263  29.381  1.00  0.00    -0.354 N 
ATOM     44  C   UNL A   1      41.444  30.336  32.395  1.00  0.00     0.074 A 
ATOM     45  C   UNL A   1      40.339  31.267  32.326  1.00  0.00     0.031 C 
ATOM     46  C   UNL A   1      40.194  26.241  27.605  1.00  0.00     0.029 A 
ATOM     47  C   UNL A   1      41.349  26.243  28.496  1.00  0.00     0.049 A 
ATOM     48  H   UNL A   1      41.687  27.492  30.129  1.00  0.00     0.167 HD
ATOM     49  C   UNL A   1      42.467  30.436  33.276  1.00  0.00     0.034 A 
ATOM     50  C   UNL A   1      42.405  25.411  28.403  1.00  0.00     0.034 A 
ATOM     51  C   UNL A   1      43.545  29.488  33.366  1.00  0.00     0.049 A 
ATOM     52  C   UNL A   1      43.515  25.525  29.412  1.00  0.00     0.074 A 
ATOM     53  C   UNL A   1      44.580  29.447  34.282  1.00  0.00     0.029 A 
ATOM     54  N   UNL A   1      43.735  28.423  32.499  1.00  0.00    -0.354 N 
ATOM     55  N   UNL A   1      43.634  26.358  30.417  1.00  0.00    -0.248 NA
ATOM     56  C   UNL A   1      44.618  24.561  29.297  1.00  0.00     0.031 C 
ATOM     57  C   UNL A   1      45.417  28.378  33.948  1.00  0.00     0.029 A 
ATOM     58  C   UNL A   1      44.880  27.728  32.848  1.00  0.00     0.049 A 
ATOM     59  H   UNL A   1      43.143  28.194  31.747  1.00  0.00     0.167 HD
ATOM     60  C   UNL A   1      44.804  25.997  31.076  1.00  0.00     0.074 A 
ATOM     61  C   UNL A   1      45.344  24.855  30.367  1.00  0.00     0.031 C 
ATOM     62  C   UNL A   1      45.383  26.565  32.162  1.00  0.00     0.034 A 
BRANCH  49  63
ATOM     63  C   UNL A   1      42.450  31.593  34.243  1.00  0.00     0.023 A 
ATOM     64  C   UNL A   1      43.164  32.771  33.939  1.00  0.00     0.012 A 
ATOM     65  C   UNL A   1      41.687  31.535  35.425  1.00  0.00     0.148 A 
ATOM     66  C   UNL A   1      43.154  33.856  34.815  1.00  0.00     0.002 A 
ATOM     67  C   UNL A   1      41.640  32.639  36.269  1.00  0.00     0.091 A 
ATOM     68  F   UNL A   1      41.030  30.402  35.709  1.00  0.00    -0.205 F 
ATOM     69  C   UNL A   1      42.383  33.794  35.973  1.00  0.00     0.022 A 
BRANCH  67  70
ATOM     70  S   UNL A   1      40.613  32.692  37.741  1.00  0.00     0.127 S 
ATOM     71  O   UNL A   1      40.340  34.123  37.860  1.00  0.00    -0.237 OA
ATOM     72  O   UNL A   1      39.461  31.883  37.340  1.00  0.00    -0.237 OA
ATOM     73  O   UNL A   1      41.415  32.118  38.812  1.00  0.00    -0.744 OA
ENDBRANCH  67  70
ENDBRANCH  49  63
BRANCH  50  74
ATOM     74  C   UNL A   1      42.433  24.359  27.347  1.00  0.00     0.023 A 
ATOM     75  C   UNL A   1      43.275  24.522  26.229  1.00  0.00     0.012 A 
ATOM     76  C   UNL A   1      41.653  23.192  27.454  1.00  0.00     0.148 A 
ATOM     77  C   UNL A   1      43.315  23.559  25.222  1.00  0.00     0.002 A 
ATOM     78  C   UNL A   1      41.741  22.209  26.476  1.00  0.00     0.091 A 
ATOM     79  F   UNL A   1      40.854  23.059  28.522  1.00  0.00    -0.205 F 
ATOM     80  C   UNL A   1      42.555  22.399  25.349  1.00  0.00     0.022 A 
BRANCH  78  81
ATOM     81  S   UNL A   1      40.904  20.627  26.620  1.00  0.00     0.127 S 
ATOM     82  O   UNL A   1      40.919  20.410  28.064  1.00  0.00    -0.237 OA
ATOM     83  O   UNL A   1      39.588  20.932  26.057  1.00  0.00    -0.237 OA
ATOM     84  O   UNL A   1      41.691  19.688  25.832  1.00  0.00    -0.744 OA
ENDBRANCH  78  81
ENDBRANCH  50  74
BRANCH  62  85
ATOM     85  C   UNL A   1      46.652  25.941  32.685  1.00  0.00     0.023 A 
ATOM     86  C   UNL A   1      46.595  24.983  33.716  1.00  0.00     0.012 A 
ATOM     87  C   UNL A   1      47.895  26.254  32.101  1.00  0.00     0.148 A 
ATOM     88  C   UNL A   1      47.759  24.373  34.183  1.00  0.00     0.002 A 
ATOM     89  C   UNL A   1      49.044  25.603  32.532  1.00  0.00     0.091 A 
ATOM     90  F   UNL A   1      47.930  27.181  31.132  1.00  0.00    -0.205 F 
ATOM     91  C   UNL A   1      48.980  24.674  33.583  1.00  0.00     0.022 A 
BRANCH  89  92
ATOM     92  S   UNL A   1      50.643  25.851  31.753  1.00  0.00     0.127 S 
ATOM     93  O   UNL A   1      51.559  25.562  32.855  1.00  0.00    -0.237 OA
ATOM     94  O   UNL A   1      50.628  24.844  30.692  1.00  0.00    -0.237 OA
ATOM     95  O   UNL A   1      50.651  27.228  31.280  1.00  0.00    -0.744 OA
ENDBRANCH  89  92
ENDBRANCH  62  85
ENDBRANCH  36  37
ENDBRANCH  28  31
ENDBRANCH  26  27
ENDBRANCH   1  26
TORSDOF 17
ENDMDL
MODEL 3
REMARK VINA RESULT:     -10.6      3.692      8.593
REMARK SMILES C[NH2+][C@]1(C(=O)NCCCNC(=O)c2ccc(-c3c4nc(c(-c5cccc(S(=O)(=O)[O-])c5F)c5ccc([nH]5)c(-c5cccc(S(=O)(=O)[O-])c5F)c5nc(c(-c6cccc(S(=O)(=O)[O-])c6F)c6ccc3[nH]6)C=C5)C=C4)cc2)CCC[C@@H]1CCn1nc(C)c(Cl)c1C
REMARK SMILES IDX 8 1 7 2 6 3 4 4 5 5 3 7 76 8 79 9 77 10 78 11 2 12 1 13
REMARK SMILES IDX 80 16 81 17 82 18 83 19 88 20 84 21 86 22 89 23 85 24 87 25
REMARK SMILES IDX 9 26 10 27 11 28 12 30 13 31 14 32 75 33 15 34 74 35 16 36
REMARK SMILES IDX 17 37 18 38 68 39 19 40 73 41 67 42 69 43 20 44 72 45 66 46
REMARK SMILES IDX 65 47 21 49 53 50 33 51 52 52 34 53 37 54 51 55 70 56 35 57
REMARK SMILES IDX 36 58 50 60 71 61 38 62 22 63 23 64 31 65 24 66 26 67 32 68
REMARK SMILES IDX 25 69 27 70 28 71 29 72 30 73 54 74 55 75 63 76 56 77 58 78
REMARK SMILES IDX 64 79 57 80 59 81 60 82 61 83 62 84 39 85 40 86 48 87 41 88
REMARK SMILES IDX 43 89 49 90 42 91 44 92 45 93 46 94 47 95
REMARK H PARENT 6 6 2 14 2 15 10 29 69 48 37 59
REMARK Flexibility Score: inf
ROOT
ATOM      1  C   UNL A   1      31.550  32.137  26.791  1.00  0.00     0.042 C 
ENDROOT
BRANCH   1   2
ATOM      2  C   UNL A   1      31.834  30.794  26.141  1.00  0.00     0.118 C 
BRANCH   2   3
ATOM      3  N   UNL A   1      31.630  29.682  27.056  1.00  0.00    -0.351 N 
ATOM      4  C   UNL A   1      31.477  28.338  26.893  1.00  0.00     0.281 C 
ATOM      5  O   UNL A   1      31.322  27.705  27.946  1.00  0.00    -0.268 OA
ATOM      6  H   UNL A   1      31.594  29.963  27.999  1.00  0.00     0.163 HD
BRANCH   4   7
ATOM      7  C   UNL A   1      31.561  27.618  25.496  1.00  0.00     0.178 C 
ATOM      8  C   UNL A   1      30.885  28.427  24.364  1.00  0.00     0.079 C 
ATOM      9  C   UNL A   1      33.039  27.578  25.007  1.00  0.00     0.062 C 
ATOM     10  C   UNL A   1      31.585  27.989  23.080  1.00  0.00     0.008 C 
ATOM     11  C   UNL A   1      32.951  27.426  23.485  1.00  0.00     0.011 C 
BRANCH   7  12
ATOM     12  N   UNL A   1      30.783  26.364  25.583  1.00  0.00    -0.336 N 
ATOM     13  C   UNL A   1      29.713  26.041  24.686  1.00  0.00     0.331 C 
ATOM     14  H   UNL A   1      31.461  25.607  25.493  1.00  0.00     0.346 HD
ATOM     15  H   UNL A   1      30.279  26.499  26.459  1.00  0.00     0.346 HD
ENDBRANCH   7  12
BRANCH   9  16
ATOM     16  C   UNL A   1      34.011  26.624  25.720  1.00  0.00     0.034 C 
BRANCH  16  17
ATOM     17  C   UNL A   1      33.380  25.312  26.212  1.00  0.00     0.145 C 
BRANCH  17  18
ATOM     18  N   UNL A   1      33.774  24.125  25.469  1.00  0.00    -0.268 N 
ATOM     19  N   UNL A   1      34.954  24.148  24.811  1.00  0.00    -0.176 NA
ATOM     20  C   UNL A   1      33.134  22.911  25.384  1.00  0.00     0.054 A 
ATOM     21  C   UNL A   1      35.053  22.933  24.254  1.00  0.00     0.078 A 
ATOM     22  C   UNL A   1      33.931  22.135  24.568  1.00  0.00     0.084 A 
ATOM     23  C   UNL A   1      31.846  22.568  26.037  1.00  0.00     0.068 C 
ATOM     24  C   UNL A   1      36.248  22.581  23.448  1.00  0.00     0.070 C 
ATOM     25  Cl  UNL A   1      33.638  20.545  24.053  1.00  0.00    -0.080 Cl
ENDBRANCH  17  18
ENDBRANCH  16  17
ENDBRANCH   9  16
ENDBRANCH   4   7
ENDBRANCH   2   3
ENDBRANCH   1   2
BRANCH   1  26
ATOM     26  C   UNL A   1      32.803  32.843  27.281  1.00  0.00     0.118 C 
BRANCH  26  27
ATOM     27  N   UNL A   1      32.542  34.218  27.693  1.00  0.00    -0.352 N 
ATOM     28  C   UNL A   1      33.087  34.950  28.717  1.00  0.00     0.251 C 
ATOM     29  H   UNL A   1      31.871  34.695  27.153  1.00  0.00     0.163 HD
ATOM     30  O   UNL A   1      32.585  36.032  29.024  1.00  0.00    -0.269 OA
BRANCH  28  31
ATOM     31  C   UNL A   1      34.257  34.441  29.461  1.00  0.00     0.039 A 
ATOM     32  C   UNL A   1      34.062  33.856  30.715  1.00  0.00     0.014 A 
ATOM     33  C   UNL A   1      35.546  34.550  28.934  1.00  0.00     0.014 A 
ATOM     34  C   UNL A   1      35.152  33.327  31.409  1.00  0.00     0.010 A 
ATOM     35  C   UNL A   1      36.613  33.934  29.579  1.00  0.00     0.010 A 
ATOM     36  C   UNL A   1      36.432  33.329  30.830  1.00  0.00    -0.014 A 
BRANCH  36  37
ATOM     37  C   UNL A   1      37.592  32.706  31.515  1.00  0.00     0.031 A 
ATOM     38  C   UNL A   1      38.320  31.553  30.874  1.00  0.00     0.074 A 
ATOM     39  C   UNL A   1      37.936  33.119  32.750  1.00  0.00     0.049 A 
ATOM     40  N   UNL A   1      39.315  30.844  31.342  1.00  0.00    -0.248 NA
ATOM     41  C   UNL A   1      37.850  31.120  29.547  1.00  0.00     0.031 C 
ATOM     42  C   UNL A   1      37.258  34.173  33.509  1.00  0.00     0.029 A 
ATOM     43  N   UNL A   1      38.925  32.685  33.597  1.00  0.00    -0.354 N 
ATOM     44  C   UNL A   1      39.563  29.864  30.390  1.00  0.00     0.074 A 
ATOM     45  C   UNL A   1      38.590  30.042  29.335  1.00  0.00     0.031 C 
ATOM     46  C   UNL A   1      37.857  34.309  34.703  1.00  0.00     0.029 A 
ATOM     47  C   UNL A   1      38.933  33.331  34.811  1.00  0.00     0.049 A 
ATOM     48  H   UNL A   1      39.567  31.978  33.358  1.00  0.00     0.167 HD
ATOM     49  C   UNL A   1      40.530  28.916  30.380  1.00  0.00     0.034 A 
ATOM     50  C   UNL A   1      39.713  33.147  35.895  1.00  0.00     0.034 A 
ATOM     51  C   UNL A   1      41.518  28.766  31.413  1.00  0.00     0.049 A 
ATOM     52  C   UNL A   1      40.798  32.107  35.846  1.00  0.00     0.074 A 
ATOM     53  C   UNL A   1      42.595  27.899  31.454  1.00  0.00     0.029 A 
ATOM     54  N   UNL A   1      41.542  29.489  32.596  1.00  0.00    -0.354 N 
ATOM     55  N   UNL A   1      41.120  31.295  34.869  1.00  0.00    -0.248 NA
ATOM     56  C   UNL A   1      41.652  31.983  37.035  1.00  0.00     0.031 C 
ATOM     57  C   UNL A   1      43.249  28.073  32.677  1.00  0.00     0.029 A 
ATOM     58  C   UNL A   1      42.605  29.077  33.381  1.00  0.00     0.049 A 
ATOM     59  H   UNL A   1      40.899  30.192  32.841  1.00  0.00     0.167 HD
ATOM     60  C   UNL A   1      42.234  30.589  35.309  1.00  0.00     0.074 A 
ATOM     61  C   UNL A   1      42.543  31.087  36.634  1.00  0.00     0.031 C 
ATOM     62  C   UNL A   1      42.930  29.612  34.678  1.00  0.00     0.034 A 
BRANCH  49  63
ATOM     63  C   UNL A   1      40.591  27.990  29.191  1.00  0.00     0.023 A 
ATOM     64  C   UNL A   1      39.697  26.903  29.103  1.00  0.00     0.012 A 
ATOM     65  C   UNL A   1      41.497  28.224  28.139  1.00  0.00     0.148 A 
ATOM     66  C   UNL A   1      39.730  26.040  28.008  1.00  0.00     0.002 A 
ATOM     67  C   UNL A   1      41.491  27.389  27.026  1.00  0.00     0.091 A 
ATOM     68  F   UNL A   1      42.354  29.249  28.247  1.00  0.00    -0.205 F 
ATOM     69  C   UNL A   1      40.619  26.290  26.966  1.00  0.00     0.022 A 
BRANCH  67  70
ATOM     70  S   UNL A   1      42.537  27.674  25.594  1.00  0.00     0.127 S 
ATOM     71  O   UNL A   1      42.260  26.488  24.786  1.00  0.00    -0.237 OA
ATOM     72  O   UNL A   1      41.989  28.920  25.057  1.00  0.00    -0.237 OA
ATOM     73  O   UNL A   1      43.897  27.779  26.104  1.00  0.00    -0.744 OA
ENDBRANCH  67  70
ENDBRANCH  49  63
BRANCH  50  74
ATOM     74  C   UNL A   1      39.530  34.010  37.098  1.00  0.00     0.023 A 
ATOM     75  C   UNL A   1      39.936  35.358  37.051  1.00  0.00     0.012 A 
ATOM     76  C   UNL A   1      38.936  33.512  38.273  1.00  0.00     0.148 A 
ATOM     77  C   UNL A   1      39.785  36.185  38.164  1.00  0.00     0.002 A 
ATOM     78  C   UNL A   1      38.735  34.357  39.358  1.00  0.00     0.091 A 
ATOM     79  F   UNL A   1      38.563  32.225  38.300  1.00  0.00    -0.205 F 
ATOM     80  C   UNL A   1      39.177  35.688  39.313  1.00  0.00     0.022 A 
BRANCH  78  81
ATOM     81  S   UNL A   1      37.843  33.843  40.829  1.00  0.00     0.127 S 
ATOM     82  O   UNL A   1      38.811  32.960  41.475  1.00  0.00    -0.237 OA
ATOM     83  O   UNL A   1      37.624  35.120  41.509  1.00  0.00    -0.237 OA
ATOM     84  O   UNL A   1      36.625  33.202  40.350  1.00  0.00    -0.744 OA
ENDBRANCH  78  81
ENDBRANCH  50  74
BRANCH  62  85
ATOM     85  C   UNL A   1      44.127  29.035  35.391  1.00  0.00     0.023 A 
ATOM     86  C   UNL A   1      45.404  29.597  35.197  1.00  0.00     0.012 A 
ATOM     87  C   UNL A   1      43.969  27.979  36.310  1.00  0.00     0.148 A 
ATOM     88  C   UNL A   1      46.511  29.094  35.878  1.00  0.00     0.002 A 
ATOM     89  C   UNL A   1      45.067  27.518  37.026  1.00  0.00     0.091 A 
ATOM     90  F   UNL A   1      42.749  27.445  36.468  1.00  0.00    -0.205 F 
ATOM     91  C   UNL A   1      46.340  28.064  36.801  1.00  0.00     0.022 A 
BRANCH  89  92
ATOM     92  S   UNL A   1      44.927  26.265  38.306  1.00  0.00     0.127 S 
ATOM     93  O   UNL A   1      44.869  25.037  37.515  1.00  0.00    -0.237 OA
ATOM     94  O   UNL A   1      46.170  26.451  39.055  1.00  0.00    -0.237 OA
ATOM     95  O   UNL A   1      43.718  26.584  39.051  1.00  0.00    -0.744 OA
ENDBRANCH  89  92
ENDBRANCH  62  85
ENDBRANCH  36  37
ENDBRANCH  28  31
ENDBRANCH  26  27
ENDBRANCH   1  26
TORSDOF 17
ENDMDL
