MODEL 1
REMARK VINA RESULT:     -14.1      0.000      0.000
REMARK SMILES O=C(NCCCNC(=O)c1ccc(-c2c3nc(c(-c4cccc(S(=O)(=O)[O-])c4F)c4ccc([nH]4)c(-c4cccc(S(=O)(=O)[O-])c4F)c4nc(c(-c5cccc(S(=O)(=O)[O-])c5F)c5ccc2[nH]5)C=C4)C=C3)cc1)C1=Cc2cc(S(F)(F)(F)(F)F)cc(Br)c2O[C@@H]1C(F)(F)F
REMARK SMILES IDX 6 1 5 2 4 3 3 4 1 5 2 6 73 8 74 9 89 10 75 11 88 12 76 13
REMARK SMILES IDX 87 14 77 15 85 16 84 17 86 18 90 19 91 20 92 21 93 22 78 23
REMARK SMILES IDX 79 24 80 25 81 26 82 27 83 28 7 29 8 30 9 32 10 33 11 34
REMARK SMILES IDX 72 35 12 36 71 37 13 38 14 39 15 40 65 41 16 42 70 43 64 44
REMARK SMILES IDX 66 45 17 46 69 47 63 48 62 49 18 51 50 52 30 53 49 54 31 55
REMARK SMILES IDX 34 56 48 57 67 58 32 59 33 60 47 62 68 63 35 64 19 65 20 66
REMARK SMILES IDX 28 67 21 68 23 69 29 70 22 71 24 72 25 73 26 74 27 75 51 76
REMARK SMILES IDX 52 77 60 78 53 79 55 80 61 81 54 82 56 83 57 84 58 85 59 86
REMARK SMILES IDX 36 87 37 88 45 89 38 90 40 91 46 92 39 93 41 94 42 95 43 96
REMARK SMILES IDX 44 97
REMARK H PARENT 3 7 7 31 66 50 34 61
REMARK Flexibility Score: inf
ROOT
ATOM      1  C   UNL A   1      33.741  28.970  25.303  1.00  0.00     0.118 C 
ENDROOT
BRANCH   1   2
ATOM      2  C   UNL A   1      32.984  27.914  24.515  1.00  0.00     0.042 C 
BRANCH   2   3
ATOM      3  C   UNL A   1      33.341  26.534  25.045  1.00  0.00     0.118 C 
BRANCH   3   4
ATOM      4  N   UNL A   1      33.797  25.685  23.935  1.00  0.00    -0.352 N 
ATOM      5  O   UNL A   1      33.443  23.736  22.624  1.00  0.00    -0.270 OA
ATOM      6  C   UNL A   1      33.049  24.470  23.583  1.00  0.00     0.251 C 
ATOM      7  H   UNL A   1      34.605  25.930  23.429  1.00  0.00     0.163 HD
BRANCH   6   8
ATOM      8  C   UNL A   1      31.802  24.092  24.367  1.00  0.00     0.067 C 
ATOM      9  C   UNL A   1      31.691  22.850  24.911  1.00  0.00     0.025 C 
ATOM     10  C   UNL A   1      30.678  25.100  24.540  1.00  0.00     0.314 C 
ATOM     11  C   UNL A   1      32.815  21.841  24.736  1.00  0.00     0.020 A 
ATOM     12  O   UNL A   1      34.297  23.669  25.065  1.00  0.00    -0.474 OA
ATOM     13  C   UNL A   1      32.558  20.511  24.444  1.00  0.00     0.036 A 
ATOM     14  C   UNL A   1      34.055  22.276  24.928  1.00  0.00     0.142 A 
ATOM     15  C   UNL A   1      33.661  19.653  24.663  1.00  0.00     0.109 A 
ATOM     16  C   UNL A   1      35.104  21.393  24.994  1.00  0.00     0.062 A 
ATOM     17  C   UNL A   1      34.914  20.057  24.776  1.00  0.00     0.044 A 
ATOM     18  Br  UNL A   1      36.901  22.057  25.411  1.00  0.00    -0.047 Br
BRANCH  10  19
ATOM     19  C   UNL A   1      30.461  25.366  26.021  1.00  0.00     0.429 C 
ATOM     20  F   UNL A   1      30.274  26.669  26.214  1.00  0.00    -0.167 F 
ATOM     21  F   UNL A   1      29.391  24.697  26.440  1.00  0.00    -0.167 F 
ATOM     22  F   UNL A   1      31.531  24.967  26.704  1.00  0.00    -0.167 F 
ENDBRANCH  10  19
BRANCH  15  23
ATOM     23  S   UNL A   1      33.333  17.878  24.796  1.00  0.00     0.310 S 
ATOM     24  F   UNL A   1      31.846  18.045  24.268  1.00  0.00    -0.094 F 
ATOM     25  F   UNL A   1      32.771  18.122  26.248  1.00  0.00    -0.094 F 
ATOM     26  F   UNL A   1      33.054  16.352  24.915  1.00  0.00    -0.094 F 
ATOM     27  F   UNL A   1      33.767  17.674  23.291  1.00  0.00    -0.094 F 
ATOM     28  F   UNL A   1      33.515  19.439  24.621  1.00  0.00    -0.094 F 
ENDBRANCH  15  23
ENDBRANCH   6   8
ENDBRANCH   3   4
ENDBRANCH   2   3
ENDBRANCH   1   2
BRANCH   1  29
ATOM     29  N   UNL A   1      32.805  30.010  25.752  1.00  0.00    -0.352 N 
ATOM     30  C   UNL A   1      33.181  30.914  26.849  1.00  0.00     0.251 C 
ATOM     31  H   UNL A   1      31.926  30.102  25.318  1.00  0.00     0.163 HD
ATOM     32  O   UNL A   1      32.372  31.813  27.237  1.00  0.00    -0.269 OA
BRANCH  30  33
ATOM     33  C   UNL A   1      34.538  30.773  27.518  1.00  0.00     0.039 A 
ATOM     34  C   UNL A   1      35.382  31.846  27.753  1.00  0.00     0.014 A 
ATOM     35  C   UNL A   1      34.809  29.566  28.000  1.00  0.00     0.014 A 
ATOM     36  C   UNL A   1      36.647  31.479  28.269  1.00  0.00     0.010 A 
ATOM     37  C   UNL A   1      36.012  29.312  28.614  1.00  0.00     0.010 A 
ATOM     38  C   UNL A   1      36.919  30.312  28.826  1.00  0.00    -0.014 A 
BRANCH  38  39
ATOM     39  C   UNL A   1      38.172  30.095  29.659  1.00  0.00     0.031 A 
ATOM     40  C   UNL A   1      39.125  29.228  29.121  1.00  0.00     0.074 A 
ATOM     41  C   UNL A   1      38.244  30.631  30.933  1.00  0.00     0.049 A 
ATOM     42  N   UNL A   1      40.250  28.799  29.694  1.00  0.00    -0.248 NA
ATOM     43  C   UNL A   1      39.032  28.630  27.780  1.00  0.00     0.031 C 
ATOM     44  C   UNL A   1      37.291  31.513  31.479  1.00  0.00     0.029 A 
ATOM     45  N   UNL A   1      39.218  30.421  31.884  1.00  0.00    -0.354 N 
ATOM     46  C   UNL A   1      40.914  27.995  28.862  1.00  0.00     0.074 A 
ATOM     47  C   UNL A   1      40.138  27.870  27.622  1.00  0.00     0.031 C 
ATOM     48  C   UNL A   1      37.678  31.820  32.745  1.00  0.00     0.029 A 
ATOM     49  C   UNL A   1      38.880  31.137  33.011  1.00  0.00     0.049 A 
ATOM     50  H   UNL A   1      40.016  29.855  31.777  1.00  0.00     0.167 HD
ATOM     51  C   UNL A   1      42.138  27.363  29.088  1.00  0.00     0.034 A 
ATOM     52  C   UNL A   1      39.566  31.201  34.214  1.00  0.00     0.034 A 
ATOM     53  C   UNL A   1      42.847  27.462  30.275  1.00  0.00     0.049 A 
ATOM     54  C   UNL A   1      40.762  30.522  34.461  1.00  0.00     0.074 A 
ATOM     55  C   UNL A   1      44.085  26.838  30.517  1.00  0.00     0.029 A 
ATOM     56  N   UNL A   1      42.497  28.159  31.411  1.00  0.00    -0.354 N 
ATOM     57  N   UNL A   1      41.446  29.750  33.615  1.00  0.00    -0.248 NA
ATOM     58  C   UNL A   1      41.481  30.557  35.741  1.00  0.00     0.031 C 
ATOM     59  C   UNL A   1      44.473  27.146  31.783  1.00  0.00     0.029 A 
ATOM     60  C   UNL A   1      43.482  27.967  32.354  1.00  0.00     0.049 A 
ATOM     61  H   UNL A   1      41.683  28.701  31.528  1.00  0.00     0.167 HD
ATOM     62  C   UNL A   1      42.550  29.288  34.204  1.00  0.00     0.074 A 
ATOM     63  C   UNL A   1      42.586  29.795  35.583  1.00  0.00     0.031 C 
ATOM     64  C   UNL A   1      43.532  28.469  33.645  1.00  0.00     0.034 A 
BRANCH  51  65
ATOM     65  C   UNL A   1      42.726  26.518  27.970  1.00  0.00     0.023 A 
ATOM     66  C   UNL A   1      43.582  27.152  27.084  1.00  0.00     0.012 A 
ATOM     67  C   UNL A   1      42.391  25.243  27.811  1.00  0.00     0.148 A 
ATOM     68  C   UNL A   1      43.805  26.431  25.888  1.00  0.00     0.002 A 
ATOM     69  C   UNL A   1      42.759  24.559  26.678  1.00  0.00     0.091 A 
ATOM     70  F   UNL A   1      41.692  24.623  28.758  1.00  0.00    -0.205 F 
ATOM     71  C   UNL A   1      43.555  25.143  25.732  1.00  0.00     0.022 A 
BRANCH  69  72
ATOM     72  S   UNL A   1      42.183  22.861  26.435  1.00  0.00     0.127 S 
ATOM     73  O   UNL A   1      42.643  22.357  25.064  1.00  0.00    -0.237 OA
ATOM     74  O   UNL A   1      42.765  21.964  27.530  1.00  0.00    -0.237 OA
ATOM     75  O   UNL A   1      40.476  22.822  26.512  1.00  0.00    -0.744 OA
ENDBRANCH  69  72
ENDBRANCH  51  65
BRANCH  52  76
ATOM     76  C   UNL A   1      38.986  32.059  35.326  1.00  0.00     0.023 A 
ATOM     77  C   UNL A   1      39.164  33.428  35.207  1.00  0.00     0.012 A 
ATOM     78  C   UNL A   1      38.308  31.538  36.342  1.00  0.00     0.148 A 
ATOM     79  C   UNL A   1      38.832  34.152  36.376  1.00  0.00     0.002 A 
ATOM     80  C   UNL A   1      37.895  32.330  37.386  1.00  0.00     0.091 A 
ATOM     81  F   UNL A   1      38.025  30.239  36.348  1.00  0.00    -0.205 F 
ATOM     82  C   UNL A   1      38.090  33.683  37.363  1.00  0.00     0.022 A 
BRANCH  80  83
ATOM     83  S   UNL A   1      37.080  31.571  38.813  1.00  0.00     0.127 S 
ATOM     84  O   UNL A   1      36.783  30.100  38.506  1.00  0.00    -0.237 OA
ATOM     85  O   UNL A   1      37.998  31.662  40.033  1.00  0.00    -0.237 OA
ATOM     86  O   UNL A   1      35.615  32.391  39.137  1.00  0.00    -0.744 OA
ENDBRANCH  80  83
ENDBRANCH  52  76
BRANCH  64  87
ATOM     87  C   UNL A   1      44.731  28.103  34.507  1.00  0.00     0.023 A 
ATOM     88  C   UNL A   1      45.850  28.916  34.580  1.00  0.00     0.012 A 
ATOM     89  C   UNL A   1      44.631  27.002  35.241  1.00  0.00     0.148 A 
ATOM     90  C   UNL A   1      46.946  28.324  35.251  1.00  0.00     0.002 A 
ATOM     91  C   UNL A   1      45.699  26.554  35.980  1.00  0.00     0.091 A 
ATOM     92  F   UNL A   1      43.485  26.326  35.261  1.00  0.00    -0.205 F 
ATOM     93  C   UNL A   1      46.857  27.276  36.051  1.00  0.00     0.022 A 
BRANCH  91  94
ATOM     94  S   UNL A   1      45.569  24.985  36.874  1.00  0.00     0.127 S 
ATOM     95  O   UNL A   1      45.431  23.837  35.871  1.00  0.00    -0.237 OA
ATOM     96  O   UNL A   1      46.828  24.775  37.719  1.00  0.00    -0.237 OA
ATOM     97  O   UNL A   1      44.198  25.020  37.893  1.00  0.00    -0.744 OA
ENDBRANCH  91  94
ENDBRANCH  64  87
ENDBRANCH  38  39
ENDBRANCH  30  33
ENDBRANCH   1  29
TORSDOF 15
ENDMDL
MODEL 2
REMARK VINA RESULT:     -13.8      1.370      1.756
REMARK SMILES O=C(NCCCNC(=O)c1ccc(-c2c3nc(c(-c4cccc(S(=O)(=O)[O-])c4F)c4ccc([nH]4)c(-c4cccc(S(=O)(=O)[O-])c4F)c4nc(c(-c5cccc(S(=O)(=O)[O-])c5F)c5ccc2[nH]5)C=C4)C=C3)cc1)C1=Cc2cc(S(F)(F)(F)(F)F)cc(Br)c2O[C@@H]1C(F)(F)F
REMARK SMILES IDX 6 1 5 2 4 3 3 4 1 5 2 6 73 8 74 9 89 10 75 11 88 12 76 13
REMARK SMILES IDX 87 14 77 15 85 16 84 17 86 18 90 19 91 20 92 21 93 22 78 23
REMARK SMILES IDX 79 24 80 25 81 26 82 27 83 28 7 29 8 30 9 32 10 33 11 34
REMARK SMILES IDX 72 35 12 36 71 37 13 38 14 39 15 40 65 41 16 42 70 43 64 44
REMARK SMILES IDX 66 45 17 46 69 47 63 48 62 49 18 51 50 52 30 53 49 54 31 55
REMARK SMILES IDX 34 56 48 57 67 58 32 59 33 60 47 62 68 63 35 64 19 65 20 66
REMARK SMILES IDX 28 67 21 68 23 69 29 70 22 71 24 72 25 73 26 74 27 75 51 76
REMARK SMILES IDX 52 77 60 78 53 79 55 80 61 81 54 82 56 83 57 84 58 85 59 86
REMARK SMILES IDX 36 87 37 88 45 89 38 90 40 91 46 92 39 93 41 94 42 95 43 96
REMARK SMILES IDX 44 97
REMARK H PARENT 3 7 7 31 66 50 34 61
REMARK Flexibility Score: inf
ROOT
ATOM      1  C   UNL A   1      34.036  28.913  25.482  1.00  0.00     0.118 C 
ENDROOT
BRANCH   1   2
ATOM      2  C   UNL A   1      33.297  27.958  24.560  1.00  0.00     0.042 C 
BRANCH   2   3
ATOM      3  C   UNL A   1      33.476  26.532  25.057  1.00  0.00     0.118 C 
BRANCH   3   4
ATOM      4  N   UNL A   1      33.871  25.668  23.936  1.00  0.00    -0.352 N 
ATOM      5  O   UNL A   1      33.394  23.751  22.616  1.00  0.00    -0.270 OA
ATOM      6  C   UNL A   1      33.053  24.498  23.586  1.00  0.00     0.251 C 
ATOM      7  H   UNL A   1      34.684  25.873  23.419  1.00  0.00     0.163 HD
BRANCH   6   8
ATOM      8  C   UNL A   1      31.797  24.182  24.384  1.00  0.00     0.067 C 
ATOM      9  C   UNL A   1      31.614  22.936  24.897  1.00  0.00     0.025 C 
ATOM     10  C   UNL A   1      30.747  25.258  24.606  1.00  0.00     0.314 C 
ATOM     11  C   UNL A   1      32.664  21.860  24.674  1.00  0.00     0.020 A 
ATOM     12  O   UNL A   1      34.271  23.576  25.021  1.00  0.00    -0.474 OA
ATOM     13  C   UNL A   1      32.314  20.559  24.353  1.00  0.00     0.036 A 
ATOM     14  C   UNL A   1      33.934  22.207  24.853  1.00  0.00     0.142 A 
ATOM     15  C   UNL A   1      33.361  19.623  24.527  1.00  0.00     0.109 A 
ATOM     16  C   UNL A   1      34.923  21.254  24.875  1.00  0.00     0.062 A 
ATOM     17  C   UNL A   1      34.639  19.940  24.626  1.00  0.00     0.044 A 
ATOM     18  Br  UNL A   1      36.767  21.786  25.273  1.00  0.00    -0.047 Br
BRANCH  10  19
ATOM     19  C   UNL A   1      30.576  25.498  26.097  1.00  0.00     0.429 C 
ATOM     20  F   UNL A   1      30.576  26.805  26.339  1.00  0.00    -0.167 F 
ATOM     21  F   UNL A   1      29.423  24.972  26.501  1.00  0.00    -0.167 F 
ATOM     22  F   UNL A   1      31.579  24.925  26.756  1.00  0.00    -0.167 F 
ENDBRANCH  10  19
BRANCH  15  23
ATOM     23  S   UNL A   1      32.917  17.871  24.620  1.00  0.00     0.310 S 
ATOM     24  F   UNL A   1      34.414  17.440  24.925  1.00  0.00    -0.094 F 
ATOM     25  F   UNL A   1      33.262  17.734  23.089  1.00  0.00    -0.094 F 
ATOM     26  F   UNL A   1      32.533  16.366  24.697  1.00  0.00    -0.094 F 
ATOM     27  F   UNL A   1      32.713  17.994  26.182  1.00  0.00    -0.094 F 
ATOM     28  F   UNL A   1      33.413  19.372  24.582  1.00  0.00    -0.094 F 
ENDBRANCH  15  23
ENDBRANCH   6   8
ENDBRANCH   3   4
ENDBRANCH   2   3
ENDBRANCH   1   2
BRANCH   1  29
ATOM     29  N   UNL A   1      33.143  30.015  25.865  1.00  0.00    -0.352 N 
ATOM     30  C   UNL A   1      33.539  30.947  26.931  1.00  0.00     0.251 C 
ATOM     31  H   UNL A   1      32.279  30.130  25.407  1.00  0.00     0.163 HD
ATOM     32  O   UNL A   1      32.766  31.899  27.262  1.00  0.00    -0.269 OA
BRANCH  30  33
ATOM     33  C   UNL A   1      34.872  30.769  27.638  1.00  0.00     0.039 A 
ATOM     34  C   UNL A   1      35.776  31.803  27.821  1.00  0.00     0.014 A 
ATOM     35  C   UNL A   1      35.060  29.583  28.204  1.00  0.00     0.014 A 
ATOM     36  C   UNL A   1      37.006  31.396  28.388  1.00  0.00     0.010 A 
ATOM     37  C   UNL A   1      36.233  29.299  28.860  1.00  0.00     0.010 A 
ATOM     38  C   UNL A   1      37.196  30.255  29.027  1.00  0.00    -0.014 A 
BRANCH  38  39
ATOM     39  C   UNL A   1      38.418  30.019  29.899  1.00  0.00     0.031 A 
ATOM     40  C   UNL A   1      39.374  29.136  29.393  1.00  0.00     0.074 A 
ATOM     41  C   UNL A   1      38.458  30.555  31.174  1.00  0.00     0.049 A 
ATOM     42  N   UNL A   1      40.474  28.690  30.002  1.00  0.00    -0.248 NA
ATOM     43  C   UNL A   1      39.315  28.538  28.050  1.00  0.00     0.031 C 
ATOM     44  C   UNL A   1      37.502  31.453  31.689  1.00  0.00     0.029 A 
ATOM     45  N   UNL A   1      39.397  30.331  32.156  1.00  0.00    -0.354 N 
ATOM     46  C   UNL A   1      41.151  27.874  29.192  1.00  0.00     0.074 A 
ATOM     47  C   UNL A   1      40.413  27.761  27.928  1.00  0.00     0.031 C 
ATOM     48  C   UNL A   1      37.853  31.755  32.966  1.00  0.00     0.029 A 
ATOM     49  C   UNL A   1      39.035  31.053  33.271  1.00  0.00     0.049 A 
ATOM     50  H   UNL A   1      40.190  29.752  32.076  1.00  0.00     0.167 HD
ATOM     51  C   UNL A   1      42.357  27.224  29.458  1.00  0.00     0.034 A 
ATOM     52  C   UNL A   1      39.683  31.108  34.495  1.00  0.00     0.034 A 
ATOM     53  C   UNL A   1      43.029  27.313  30.667  1.00  0.00     0.049 A 
ATOM     54  C   UNL A   1      40.859  30.410  34.781  1.00  0.00     0.074 A 
ATOM     55  C   UNL A   1      44.248  26.670  30.949  1.00  0.00     0.029 A 
ATOM     56  N   UNL A   1      42.653  28.017  31.791  1.00  0.00    -0.354 N 
ATOM     57  N   UNL A   1      41.558  29.627  33.958  1.00  0.00    -0.248 NA
ATOM     58  C   UNL A   1      41.537  30.436  36.084  1.00  0.00     0.031 C 
ATOM     59  C   UNL A   1      44.600  26.973  32.227  1.00  0.00     0.029 A 
ATOM     60  C   UNL A   1      43.605  27.810  32.765  1.00  0.00     0.049 A 
ATOM     61  H   UNL A   1      41.845  28.571  31.881  1.00  0.00     0.167 HD
ATOM     62  C   UNL A   1      42.635  29.149  34.582  1.00  0.00     0.074 A 
ATOM     63  C   UNL A   1      42.634  29.656  35.961  1.00  0.00     0.031 C 
ATOM     64  C   UNL A   1      43.621  28.313  34.057  1.00  0.00     0.034 A 
BRANCH  51  65
ATOM     65  C   UNL A   1      42.967  26.368  28.360  1.00  0.00     0.023 A 
ATOM     66  C   UNL A   1      42.592  25.035  28.318  1.00  0.00     0.012 A 
ATOM     67  C   UNL A   1      43.864  26.858  27.513  1.00  0.00     0.148 A 
ATOM     68  C   UNL A   1      43.441  24.226  27.527  1.00  0.00     0.002 A 
ATOM     69  C   UNL A   1      44.561  26.025  26.672  1.00  0.00     0.091 A 
ATOM     70  F   UNL A   1      44.091  28.169  27.479  1.00  0.00    -0.205 F 
ATOM     71  C   UNL A   1      44.284  24.687  26.620  1.00  0.00     0.022 A 
BRANCH  69  72
ATOM     72  S   UNL A   1      45.863  26.708  25.617  1.00  0.00     0.127 S 
ATOM     73  O   UNL A   1      45.279  27.818  24.739  1.00  0.00    -0.237 OA
ATOM     74  O   UNL A   1      46.979  27.283  26.492  1.00  0.00    -0.237 OA
ATOM     75  O   UNL A   1      46.499  25.471  24.623  1.00  0.00    -0.744 OA
ENDBRANCH  69  72
ENDBRANCH  51  65
BRANCH  52  76
ATOM     76  C   UNL A   1      39.081  31.977  35.587  1.00  0.00     0.023 A 
ATOM     77  C   UNL A   1      39.335  33.336  35.507  1.00  0.00     0.012 A 
ATOM     78  C   UNL A   1      38.317  31.475  36.551  1.00  0.00     0.148 A 
ATOM     79  C   UNL A   1      38.970  34.058  36.667  1.00  0.00     0.002 A 
ATOM     80  C   UNL A   1      37.883  32.271  37.584  1.00  0.00     0.091 A 
ATOM     81  F   UNL A   1      37.969  30.193  36.515  1.00  0.00    -0.205 F 
ATOM     82  C   UNL A   1      38.148  33.611  37.599  1.00  0.00     0.022 A 
BRANCH  80  83
ATOM     83  S   UNL A   1      36.946  31.531  38.945  1.00  0.00     0.127 S 
ATOM     84  O   UNL A   1      35.653  32.322  39.162  1.00  0.00    -0.237 OA
ATOM     85  O   UNL A   1      36.603  30.080  38.599  1.00  0.00    -0.237 OA
ATOM     86  O   UNL A   1      37.885  31.570  40.373  1.00  0.00    -0.744 OA
ENDBRANCH  80  83
ENDBRANCH  52  76
BRANCH  64  87
ATOM     87  C   UNL A   1      44.786  27.929  34.956  1.00  0.00     0.023 A 
ATOM     88  C   UNL A   1      45.910  28.731  35.074  1.00  0.00     0.012 A 
ATOM     89  C   UNL A   1      44.650  26.824  35.678  1.00  0.00     0.148 A 
ATOM     90  C   UNL A   1      46.976  28.123  35.778  1.00  0.00     0.002 A 
ATOM     91  C   UNL A   1      45.687  26.360  36.451  1.00  0.00     0.091 A 
ATOM     92  F   UNL A   1      43.498  26.159  35.654  1.00  0.00    -0.205 F 
ATOM     93  C   UNL A   1      46.849  27.071  36.567  1.00  0.00     0.022 A 
BRANCH  91  94
ATOM     94  S   UNL A   1      45.512  24.787  37.327  1.00  0.00     0.127 S 
ATOM     95  O   UNL A   1      44.453  24.928  38.424  1.00  0.00    -0.237 OA
ATOM     96  O   UNL A   1      45.081  23.699  36.340  1.00  0.00    -0.237 OA
ATOM     97  O   UNL A   1      47.009  24.356  38.033  1.00  0.00    -0.744 OA
ENDBRANCH  91  94
ENDBRANCH  64  87
ENDBRANCH  38  39
ENDBRANCH  30  33
ENDBRANCH   1  29
TORSDOF 15
ENDMDL
MODEL 3
REMARK VINA RESULT:     -13.7      1.348      1.735
REMARK SMILES O=C(NCCCNC(=O)c1ccc(-c2c3nc(c(-c4cccc(S(=O)(=O)[O-])c4F)c4ccc([nH]4)c(-c4cccc(S(=O)(=O)[O-])c4F)c4nc(c(-c5cccc(S(=O)(=O)[O-])c5F)c5ccc2[nH]5)C=C4)C=C3)cc1)C1=Cc2cc(S(F)(F)(F)(F)F)cc(Br)c2O[C@@H]1C(F)(F)F
REMARK SMILES IDX 6 1 5 2 4 3 3 4 1 5 2 6 73 8 74 9 89 10 75 11 88 12 76 13
REMARK SMILES IDX 87 14 77 15 85 16 84 17 86 18 90 19 91 20 92 21 93 22 78 23
REMARK SMILES IDX 79 24 80 25 81 26 82 27 83 28 7 29 8 30 9 32 10 33 11 34
REMARK SMILES IDX 72 35 12 36 71 37 13 38 14 39 15 40 65 41 16 42 70 43 64 44
REMARK SMILES IDX 66 45 17 46 69 47 63 48 62 49 18 51 50 52 30 53 49 54 31 55
REMARK SMILES IDX 34 56 48 57 67 58 32 59 33 60 47 62 68 63 35 64 19 65 20 66
REMARK SMILES IDX 28 67 21 68 23 69 29 70 22 71 24 72 25 73 26 74 27 75 51 76
REMARK SMILES IDX 52 77 60 78 53 79 55 80 61 81 54 82 56 83 57 84 58 85 59 86
REMARK SMILES IDX 36 87 37 88 45 89 38 90 40 91 46 92 39 93 41 94 42 95 43 96
REMARK SMILES IDX 44 97
REMARK H PARENT 3 7 7 31 66 50 34 61
REMARK Flexibility Score: inf
ROOT
ATOM      1  C   UNL A   1      33.998  28.749  25.340  1.00  0.00     0.118 C 
ENDROOT
BRANCH   1   2
ATOM      2  C   UNL A   1      33.259  27.751  24.464  1.00  0.00     0.042 C 
BRANCH   2   3
ATOM      3  C   UNL A   1      33.521  26.342  24.971  1.00  0.00     0.118 C 
BRANCH   3   4
ATOM      4  N   UNL A   1      33.910  25.480  23.844  1.00  0.00    -0.352 N 
ATOM      5  O   UNL A   1      33.445  23.547  22.544  1.00  0.00    -0.270 OA
ATOM      6  C   UNL A   1      33.109  24.292  23.518  1.00  0.00     0.251 C 
ATOM      7  H   UNL A   1      34.707  25.700  23.309  1.00  0.00     0.163 HD
BRANCH   6   8
ATOM      8  C   UNL A   1      31.879  23.954  24.344  1.00  0.00     0.067 C 
ATOM      9  C   UNL A   1      31.749  22.718  24.896  1.00  0.00     0.025 C 
ATOM     10  C   UNL A   1      30.793  24.996  24.553  1.00  0.00     0.314 C 
ATOM     11  C   UNL A   1      32.835  21.674  24.687  1.00  0.00     0.020 A 
ATOM     12  O   UNL A   1      34.382  23.457  24.959  1.00  0.00    -0.474 OA
ATOM     13  C   UNL A   1      32.528  20.352  24.408  1.00  0.00     0.036 A 
ATOM     14  C   UNL A   1      34.093  22.072  24.835  1.00  0.00     0.142 A 
ATOM     15  C   UNL A   1      33.611  19.461  24.593  1.00  0.00     0.109 A 
ATOM     16  C   UNL A   1      35.117  21.157  24.869  1.00  0.00     0.062 A 
ATOM     17  C   UNL A   1      34.879  19.827  24.662  1.00  0.00     0.044 A 
ATOM     18  Br  UNL A   1      36.946  21.767  25.222  1.00  0.00    -0.047 Br
BRANCH  10  19
ATOM     19  C   UNL A   1      30.635  25.273  26.039  1.00  0.00     0.429 C 
ATOM     20  F   UNL A   1      31.715  24.845  26.686  1.00  0.00    -0.167 F 
ATOM     21  F   UNL A   1      30.490  26.581  26.234  1.00  0.00    -0.167 F 
ATOM     22  F   UNL A   1      29.561  24.634  26.497  1.00  0.00    -0.167 F 
ENDBRANCH  10  19
BRANCH  15  23
ATOM     23  S   UNL A   1      33.235  17.697  24.743  1.00  0.00     0.310 S 
ATOM     24  F   UNL A   1      31.788  17.885  24.120  1.00  0.00    -0.094 F 
ATOM     25  F   UNL A   1      32.590  17.987  26.151  1.00  0.00    -0.094 F 
ATOM     26  F   UNL A   1      32.914  16.181  24.877  1.00  0.00    -0.094 F 
ATOM     27  F   UNL A   1      33.756  17.449  23.273  1.00  0.00    -0.094 F 
ATOM     28  F   UNL A   1      33.463  19.249  24.546  1.00  0.00    -0.094 F 
ENDBRANCH  15  23
ENDBRANCH   6   8
ENDBRANCH   3   4
ENDBRANCH   2   3
ENDBRANCH   1   2
BRANCH   1  29
ATOM     29  N   UNL A   1      33.134  29.910  25.596  1.00  0.00    -0.352 N 
ATOM     30  C   UNL A   1      33.421  30.805  26.727  1.00  0.00     0.251 C 
ATOM     31  H   UNL A   1      32.364  30.089  25.009  1.00  0.00     0.163 HD
ATOM     32  O   UNL A   1      32.673  31.808  26.948  1.00  0.00    -0.269 OA
BRANCH  30  33
ATOM     33  C   UNL A   1      34.609  30.529  27.631  1.00  0.00     0.039 A 
ATOM     34  C   UNL A   1      34.787  29.330  28.304  1.00  0.00     0.014 A 
ATOM     35  C   UNL A   1      35.554  31.462  27.627  1.00  0.00     0.014 A 
ATOM     36  C   UNL A   1      35.890  29.328  29.190  1.00  0.00     0.010 A 
ATOM     37  C   UNL A   1      36.671  31.330  28.416  1.00  0.00     0.010 A 
ATOM     38  C   UNL A   1      36.883  30.199  29.153  1.00  0.00    -0.014 A 
BRANCH  38  39
ATOM     39  C   UNL A   1      38.189  29.955  29.891  1.00  0.00     0.031 A 
ATOM     40  C   UNL A   1      39.088  29.080  29.277  1.00  0.00     0.074 A 
ATOM     41  C   UNL A   1      38.361  30.475  31.162  1.00  0.00     0.049 A 
ATOM     42  N   UNL A   1      40.245  28.629  29.763  1.00  0.00    -0.248 NA
ATOM     43  C   UNL A   1      38.890  28.499  27.940  1.00  0.00     0.031 C 
ATOM     44  C   UNL A   1      37.463  31.364  31.785  1.00  0.00     0.029 A 
ATOM     45  N   UNL A   1      39.398  30.240  32.038  1.00  0.00    -0.354 N 
ATOM     46  C   UNL A   1      40.835  27.825  28.876  1.00  0.00     0.074 A 
ATOM     47  C   UNL A   1      39.969  27.725  27.694  1.00  0.00     0.031 C 
ATOM     48  C   UNL A   1      37.945  31.651  33.022  1.00  0.00     0.029 A 
ATOM     49  C   UNL A   1      39.153  30.948  33.193  1.00  0.00     0.049 A 
ATOM     50  H   UNL A   1      40.178  29.664  31.868  1.00  0.00     0.167 HD
ATOM     51  C   UNL A   1      42.063  27.173  29.007  1.00  0.00     0.034 A 
ATOM     52  C   UNL A   1      39.925  30.989  34.344  1.00  0.00     0.034 A 
ATOM     53  C   UNL A   1      42.857  27.249  30.140  1.00  0.00     0.049 A 
ATOM     54  C   UNL A   1      41.125  30.290  34.497  1.00  0.00     0.074 A 
ATOM     55  C   UNL A   1      44.100  26.605  30.285  1.00  0.00     0.029 A 
ATOM     56  N   UNL A   1      42.600  27.938  31.306  1.00  0.00    -0.354 N 
ATOM     57  N   UNL A   1      41.735  29.518  33.596  1.00  0.00    -0.248 NA
ATOM     58  C   UNL A   1      41.935  30.301  35.722  1.00  0.00     0.031 C 
ATOM     59  C   UNL A   1      44.582  26.892  31.524  1.00  0.00     0.029 A 
ATOM     60  C   UNL A   1      43.648  27.721  32.173  1.00  0.00     0.049 A 
ATOM     61  H   UNL A   1      41.804  28.489  31.487  1.00  0.00     0.167 HD
ATOM     62  C   UNL A   1      42.872  29.034  34.098  1.00  0.00     0.074 A 
ATOM     63  C   UNL A   1      43.014  29.524  35.476  1.00  0.00     0.031 C 
ATOM     64  C   UNL A   1      43.798  28.207  33.462  1.00  0.00     0.034 A 
BRANCH  51  65
ATOM     65  C   UNL A   1      42.556  26.333  27.840  1.00  0.00     0.023 A 
ATOM     66  C   UNL A   1      43.281  26.984  26.856  1.00  0.00     0.012 A 
ATOM     67  C   UNL A   1      42.256  25.044  27.736  1.00  0.00     0.148 A 
ATOM     68  C   UNL A   1      43.399  26.252  25.652  1.00  0.00     0.002 A 
ATOM     69  C   UNL A   1      42.523  24.355  26.577  1.00  0.00     0.091 A 
ATOM     70  F   UNL A   1      41.692  24.413  28.762  1.00  0.00    -0.205 F 
ATOM     71  C   UNL A   1      43.184  24.953  25.541  1.00  0.00     0.022 A 
BRANCH  69  72
ATOM     72  S   UNL A   1      41.992  22.632  26.421  1.00  0.00     0.127 S 
ATOM     73  O   UNL A   1      40.463  22.563  26.466  1.00  0.00    -0.237 OA
ATOM     74  O   UNL A   1      42.489  22.064  25.090  1.00  0.00    -0.237 OA
ATOM     75  O   UNL A   1      42.642  21.716  27.710  1.00  0.00    -0.744 OA
ENDBRANCH  69  72
ENDBRANCH  51  65
BRANCH  52  76
ATOM     76  C   UNL A   1      39.439  31.843  35.504  1.00  0.00     0.023 A 
ATOM     77  C   UNL A   1      38.482  31.276  36.329  1.00  0.00     0.012 A 
ATOM     78  C   UNL A   1      39.929  33.053  35.746  1.00  0.00     0.148 A 
ATOM     79  C   UNL A   1      37.888  32.191  37.230  1.00  0.00     0.002 A 
ATOM     80  C   UNL A   1      39.388  33.841  36.734  1.00  0.00     0.091 A 
ATOM     81  F   UNL A   1      40.951  33.507  35.027  1.00  0.00    -0.205 F 
ATOM     82  C   UNL A   1      38.398  33.367  37.549  1.00  0.00     0.022 A 
BRANCH  80  83
ATOM     83  S   UNL A   1      39.996  35.531  36.959  1.00  0.00     0.127 S 
ATOM     84  O   UNL A   1      39.306  36.163  38.170  1.00  0.00    -0.237 OA
ATOM     85  O   UNL A   1      41.508  35.502  37.192  1.00  0.00    -0.237 OA
ATOM     86  O   UNL A   1      39.651  36.452  35.560  1.00  0.00    -0.744 OA
ENDBRANCH  80  83
ENDBRANCH  52  76
BRANCH  64  87
ATOM     87  C   UNL A   1      45.051  27.815  34.231  1.00  0.00     0.023 A 
ATOM     88  C   UNL A   1      46.183  28.613  34.234  1.00  0.00     0.012 A 
ATOM     89  C   UNL A   1      44.988  26.705  34.955  1.00  0.00     0.148 A 
ATOM     90  C   UNL A   1      47.316  27.998  34.817  1.00  0.00     0.002 A 
ATOM     91  C   UNL A   1      46.100  26.234  35.611  1.00  0.00     0.091 A 
ATOM     92  F   UNL A   1      43.838  26.043  35.049  1.00  0.00    -0.205 F 
ATOM     93  C   UNL A   1      47.270  26.940  35.608  1.00  0.00     0.022 A 
BRANCH  91  94
ATOM     94  S   UNL A   1      46.014  24.654  36.491  1.00  0.00     0.127 S 
ATOM     95  O   UNL A   1      47.383  24.332  37.096  1.00  0.00    -0.237 OA
ATOM     96  O   UNL A   1      44.973  24.750  37.609  1.00  0.00    -0.237 OA
ATOM     97  O   UNL A   1      45.567  23.416  35.399  1.00  0.00    -0.744 OA
ENDBRANCH  91  94
ENDBRANCH  64  87
ENDBRANCH  38  39
ENDBRANCH  30  33
ENDBRANCH   1  29
TORSDOF 15
ENDMDL
