MODEL 1
REMARK VINA RESULT:     -10.9      0.000      0.000
REMARK SMILES O=C(NCCCNC(=O)[C@H](CO)NC(=O)[C@H](CS)NC(=O)c1ccc(F)cc1)c1ccc(-c2c3nc(c(-c4cccc(S(=O)(=O)[O-])c4F)c4ccc([nH]4)c(-c4cccc(S(=O)(=O)[O-])c4F)c4nc(c(-c5cccc(S(=O)(=O)[O-])c5F)c5ccc2[nH]5)C=C4)C=C3)cc1
REMARK SMILES IDX 5 1 4 2 3 3 1 4 2 5 29 7 30 8 91 9 31 10 90 11 32 12 33 13
REMARK SMILES IDX 34 14 84 15 35 16 89 17 83 18 85 19 36 20 88 21 82 22 81 23
REMARK SMILES IDX 37 25 69 26 49 27 68 28 50 29 53 30 67 31 86 32 51 33 52 34
REMARK SMILES IDX 66 36 87 37 54 38 38 39 39 40 47 41 40 42 42 43 48 44 41 45
REMARK SMILES IDX 43 46 44 47 45 48 46 49 70 50 71 51 79 52 72 53 74 54 80 55
REMARK SMILES IDX 73 56 75 57 76 58 77 59 78 60 55 61 56 62 64 63 57 64 59 65
REMARK SMILES IDX 65 66 58 67 60 68 61 69 62 70 63 71 6 72 7 73 8 74 9 76
REMARK SMILES IDX 10 77 13 78 14 79 15 81 16 82 19 83 20 84 21 86 22 87 23 88
REMARK SMILES IDX 28 89 24 90 27 91 25 92 26 93 17 94 18 95 11 97 12 98
REMARK H PARENT 3 6 85 24 53 35 7 75 13 80 19 85 18 96 12 99
REMARK Flexibility Score: inf
ROOT
ATOM      1  C   UNL A   1      31.140  31.850  26.696  1.00  0.00     0.042 C 
ENDROOT
BRANCH   1   2
ATOM      2  C   UNL A   1      32.523  32.457  26.875  1.00  0.00     0.118 C 
BRANCH   2   3
ATOM      3  N   UNL A   1      32.463  33.828  27.354  1.00  0.00    -0.352 N 
ATOM      4  O   UNL A   1      32.812  35.526  28.785  1.00  0.00    -0.269 OA
ATOM      5  C   UNL A   1      33.169  34.430  28.374  1.00  0.00     0.251 C 
ATOM      6  H   UNL A   1      31.827  34.411  26.881  1.00  0.00     0.163 HD
BRANCH   5   7
ATOM      7  C   UNL A   1      34.333  33.738  28.974  1.00  0.00     0.039 A 
ATOM      8  C   UNL A   1      35.632  34.128  28.648  1.00  0.00     0.014 A 
ATOM      9  C   UNL A   1      34.126  32.703  29.891  1.00  0.00     0.014 A 
ATOM     10  C   UNL A   1      36.713  33.383  29.096  1.00  0.00     0.010 A 
ATOM     11  C   UNL A   1      35.224  32.031  30.441  1.00  0.00     0.010 A 
ATOM     12  C   UNL A   1      36.527  32.352  30.030  1.00  0.00    -0.014 A 
BRANCH  12  13
ATOM     13  C   UNL A   1      37.726  31.729  30.646  1.00  0.00     0.031 A 
ATOM     14  C   UNL A   1      38.190  32.087  32.027  1.00  0.00     0.074 A 
ATOM     15  C   UNL A   1      38.392  30.803  29.927  1.00  0.00     0.049 A 
ATOM     16  N   UNL A   1      39.182  31.578  32.712  1.00  0.00    -0.248 NA
ATOM     17  C   UNL A   1      37.463  33.154  32.732  1.00  0.00     0.031 C 
ATOM     18  C   UNL A   1      38.057  30.412  28.554  1.00  0.00     0.029 A 
ATOM     19  N   UNL A   1      39.468  30.012  30.241  1.00  0.00    -0.354 N 
ATOM     20  C   UNL A   1      39.227  32.285  33.907  1.00  0.00     0.074 A 
ATOM     21  C   UNL A   1      38.163  33.265  33.854  1.00  0.00     0.031 C 
ATOM     22  C   UNL A   1      38.870  29.425  28.164  1.00  0.00     0.029 A 
ATOM     23  C   UNL A   1      39.835  29.161  29.225  1.00  0.00     0.049 A 
ATOM     24  H   UNL A   1      39.932  30.050  31.108  1.00  0.00     0.167 HD
ATOM     25  C   UNL A   1      40.075  32.123  34.951  1.00  0.00     0.034 A 
ATOM     26  C   UNL A   1      40.846  28.276  29.137  1.00  0.00     0.034 A 
ATOM     27  C   UNL A   1      41.113  31.125  34.996  1.00  0.00     0.049 A 
ATOM     28  C   UNL A   1      41.756  28.102  30.314  1.00  0.00     0.074 A 
ATOM     29  C   UNL A   1      41.976  30.835  36.038  1.00  0.00     0.029 A 
ATOM     30  N   UNL A   1      41.443  30.270  33.956  1.00  0.00    -0.354 N 
ATOM     31  N   UNL A   1      41.708  28.699  31.480  1.00  0.00    -0.248 NA
ATOM     32  C   UNL A   1      42.842  27.122  30.180  1.00  0.00     0.031 C 
ATOM     33  C   UNL A   1      42.853  29.835  35.614  1.00  0.00     0.029 A 
ATOM     34  C   UNL A   1      42.509  29.465  34.324  1.00  0.00     0.049 A 
ATOM     35  H   UNL A   1      40.987  30.238  33.084  1.00  0.00     0.167 HD
ATOM     36  C   UNL A   1      42.741  28.155  32.229  1.00  0.00     0.074 A 
ATOM     37  C   UNL A   1      43.389  27.165  31.389  1.00  0.00     0.031 C 
ATOM     38  C   UNL A   1      43.120  28.456  33.494  1.00  0.00     0.034 A 
BRANCH  25  39
ATOM     39  C   UNL A   1      39.909  33.020  36.151  1.00  0.00     0.023 A 
ATOM     40  C   UNL A   1      40.457  34.319  36.138  1.00  0.00     0.012 A 
ATOM     41  C   UNL A   1      39.128  32.613  37.253  1.00  0.00     0.148 A 
ATOM     42  C   UNL A   1      40.254  35.187  37.210  1.00  0.00     0.002 A 
ATOM     43  C   UNL A   1      38.892  33.501  38.296  1.00  0.00     0.091 A 
ATOM     44  F   UNL A   1      38.631  31.368  37.259  1.00  0.00    -0.205 F 
ATOM     45  C   UNL A   1      39.463  34.783  38.283  1.00  0.00     0.022 A 
BRANCH  43  46
ATOM     46  S   UNL A   1      37.812  33.106  39.678  1.00  0.00     0.127 S 
ATOM     47  O   UNL A   1      38.476  31.932  40.244  1.00  0.00    -0.237 OA
ATOM     48  O   UNL A   1      37.909  34.313  40.499  1.00  0.00    -0.237 OA
ATOM     49  O   UNL A   1      36.496  32.865  39.104  1.00  0.00    -0.744 OA
ENDBRANCH  43  46
ENDBRANCH  25  39
BRANCH  26  50
ATOM     50  C   UNL A   1      40.991  27.473  27.892  1.00  0.00     0.023 A 
ATOM     51  C   UNL A   1      41.604  28.045  26.762  1.00  0.00     0.012 A 
ATOM     52  C   UNL A   1      40.646  26.106  27.872  1.00  0.00     0.148 A 
ATOM     53  C   UNL A   1      41.872  27.270  25.634  1.00  0.00     0.002 A 
ATOM     54  C   UNL A   1      40.975  25.326  26.772  1.00  0.00     0.091 A 
ATOM     55  F   UNL A   1      40.059  25.585  28.959  1.00  0.00    -0.205 F 
ATOM     56  C   UNL A   1      41.574  25.908  25.645  1.00  0.00     0.022 A 
BRANCH  54  57
ATOM     57  S   UNL A   1      40.788  23.539  26.765  1.00  0.00     0.127 S 
ATOM     58  O   UNL A   1      41.229  23.188  28.114  1.00  0.00    -0.237 OA
ATOM     59  O   UNL A   1      39.351  23.393  26.528  1.00  0.00    -0.237 OA
ATOM     60  O   UNL A   1      41.632  23.055  25.683  1.00  0.00    -0.744 OA
ENDBRANCH  54  57
ENDBRANCH  26  50
BRANCH  38  61
ATOM     61  C   UNL A   1      44.278  27.696  34.084  1.00  0.00     0.023 A 
ATOM     62  C   UNL A   1      45.576  28.240  34.032  1.00  0.00     0.012 A 
ATOM     63  C   UNL A   1      44.052  26.505  34.805  1.00  0.00     0.148 A 
ATOM     64  C   UNL A   1      46.635  27.604  34.679  1.00  0.00     0.002 A 
ATOM     65  C   UNL A   1      45.100  25.907  35.490  1.00  0.00     0.091 A 
ATOM     66  F   UNL A   1      42.811  25.999  34.823  1.00  0.00    -0.205 F 
ATOM     67  C   UNL A   1      46.394  26.449  35.420  1.00  0.00     0.022 A 
BRANCH  65  68
ATOM     68  S   UNL A   1      44.866  24.483  36.560  1.00  0.00     0.127 S 
ATOM     69  O   UNL A   1      44.187  23.547  35.665  1.00  0.00    -0.237 OA
ATOM     70  O   UNL A   1      46.242  24.119  36.894  1.00  0.00    -0.237 OA
ATOM     71  O   UNL A   1      44.070  24.951  37.687  1.00  0.00    -0.744 OA
ENDBRANCH  65  68
ENDBRANCH  38  61
ENDBRANCH  12  13
ENDBRANCH   5   7
ENDBRANCH   2   3
ENDBRANCH   1   2
BRANCH   1  72
ATOM     72  C   UNL A   1      30.920  31.235  25.320  1.00  0.00     0.117 C 
BRANCH  72  73
ATOM     73  N   UNL A   1      29.738  31.766  24.657  1.00  0.00    -0.354 N 
ATOM     74  C   UNL A   1      29.041  31.281  23.584  1.00  0.00     0.244 C 
ATOM     75  H   UNL A   1      29.387  32.603  25.038  1.00  0.00     0.163 HD
ATOM     76  O   UNL A   1      28.043  31.902  23.216  1.00  0.00    -0.273 OA
BRANCH  74  77
ATOM     77  C   UNL A   1      29.516  29.992  22.890  1.00  0.00     0.197 C 
BRANCH  77  78
ATOM     78  N   UNL A   1      28.798  28.817  23.401  1.00  0.00    -0.340 N 
ATOM     79  C   UNL A   1      29.205  27.520  23.489  1.00  0.00     0.244 C 
ATOM     80  H   UNL A   1      27.885  28.992  23.728  1.00  0.00     0.164 HD
ATOM     81  O   UNL A   1      28.353  26.641  23.635  1.00  0.00    -0.273 OA
BRANCH  79  82
ATOM     82  C   UNL A   1      30.706  27.179  23.440  1.00  0.00     0.181 C 
BRANCH  82  83
ATOM     83  N   UNL A   1      30.847  25.968  24.279  1.00  0.00    -0.339 N 
ATOM     84  C   UNL A   1      31.569  25.732  25.410  1.00  0.00     0.251 C 
ATOM     85  H   UNL A   1      30.327  25.195  23.963  1.00  0.00     0.164 HD
ATOM     86  O   UNL A   1      31.648  24.601  25.879  1.00  0.00    -0.269 OA
BRANCH  84  87
ATOM     87  C   UNL A   1      32.289  26.838  26.060  1.00  0.00     0.040 A 
ATOM     88  C   UNL A   1      31.667  27.616  27.045  1.00  0.00     0.017 A 
ATOM     89  C   UNL A   1      33.628  27.054  25.717  1.00  0.00     0.017 A 
ATOM     90  C   UNL A   1      32.379  28.651  27.650  1.00  0.00     0.040 A 
ATOM     91  C   UNL A   1      34.335  28.088  26.328  1.00  0.00     0.040 A 
ATOM     92  C   UNL A   1      33.702  28.880  27.283  1.00  0.00     0.123 A 
ATOM     93  F   UNL A   1      34.383  29.876  27.862  1.00  0.00    -0.207 F 
ENDBRANCH  84  87
ENDBRANCH  82  83
BRANCH  82  94
ATOM     94  C   UNL A   1      31.261  26.848  22.046  1.00  0.00     0.101 C 
BRANCH  94  95
ATOM     95  S   UNL A   1      32.846  25.975  21.913  1.00  0.00    -0.177 SA
ATOM     96  H   UNL A   1      32.828  25.166  20.821  1.00  0.00     0.102 HD
ENDBRANCH  94  95
ENDBRANCH  82  94
ENDBRANCH  79  82
ENDBRANCH  77  78
BRANCH  77  97
ATOM     97  C   UNL A   1      29.335  30.102  21.360  1.00  0.00     0.191 C 
BRANCH  97  98
ATOM     98  O   UNL A   1      27.958  30.091  20.979  1.00  0.00    -0.394 OA
ATOM     99  H   UNL A   1      27.403  30.101  21.774  1.00  0.00     0.210 HD
ENDBRANCH  97  98
ENDBRANCH  77  97
ENDBRANCH  74  77
ENDBRANCH  72  73
ENDBRANCH   1  72
TORSDOF 21
ENDMDL
MODEL 2
REMARK VINA RESULT:     -10.8      0.768      7.472
REMARK SMILES O=C(NCCCNC(=O)[C@H](CO)NC(=O)[C@H](CS)NC(=O)c1ccc(F)cc1)c1ccc(-c2c3nc(c(-c4cccc(S(=O)(=O)[O-])c4F)c4ccc([nH]4)c(-c4cccc(S(=O)(=O)[O-])c4F)c4nc(c(-c5cccc(S(=O)(=O)[O-])c5F)c5ccc2[nH]5)C=C4)C=C3)cc1
REMARK SMILES IDX 5 1 4 2 3 3 1 4 2 5 29 7 30 8 91 9 31 10 90 11 32 12 33 13
REMARK SMILES IDX 34 14 84 15 35 16 89 17 83 18 85 19 36 20 88 21 82 22 81 23
REMARK SMILES IDX 37 25 69 26 49 27 68 28 50 29 53 30 67 31 86 32 51 33 52 34
REMARK SMILES IDX 66 36 87 37 54 38 38 39 39 40 47 41 40 42 42 43 48 44 41 45
REMARK SMILES IDX 43 46 44 47 45 48 46 49 70 50 71 51 79 52 72 53 74 54 80 55
REMARK SMILES IDX 73 56 75 57 76 58 77 59 78 60 55 61 56 62 64 63 57 64 59 65
REMARK SMILES IDX 65 66 58 67 60 68 61 69 62 70 63 71 6 72 7 73 8 74 9 76
REMARK SMILES IDX 10 77 13 78 14 79 15 81 16 82 19 83 20 84 21 86 22 87 23 88
REMARK SMILES IDX 28 89 24 90 27 91 25 92 26 93 17 94 18 95 11 97 12 98
REMARK H PARENT 3 6 85 24 53 35 7 75 13 80 19 85 18 96 12 99
REMARK Flexibility Score: inf
ROOT
ATOM      1  C   UNL A   1      31.047  32.340  26.507  1.00  0.00     0.042 C 
ENDROOT
BRANCH   1   2
ATOM      2  C   UNL A   1      32.440  32.673  27.018  1.00  0.00     0.118 C 
BRANCH   2   3
ATOM      3  N   UNL A   1      32.562  34.066  27.413  1.00  0.00    -0.352 N 
ATOM      4  O   UNL A   1      33.161  35.788  28.727  1.00  0.00    -0.269 OA
ATOM      5  C   UNL A   1      33.369  34.635  28.374  1.00  0.00     0.251 C 
ATOM      6  H   UNL A   1      31.985  34.694  26.922  1.00  0.00     0.163 HD
BRANCH   5   7
ATOM      7  C   UNL A   1      34.462  33.842  28.984  1.00  0.00     0.039 A 
ATOM      8  C   UNL A   1      35.794  34.203  28.783  1.00  0.00     0.014 A 
ATOM      9  C   UNL A   1      34.153  32.739  29.786  1.00  0.00     0.014 A 
ATOM     10  C   UNL A   1      36.813  33.375  29.231  1.00  0.00     0.010 A 
ATOM     11  C   UNL A   1      35.184  31.975  30.344  1.00  0.00     0.010 A 
ATOM     12  C   UNL A   1      36.523  32.273  30.052  1.00  0.00    -0.014 A 
BRANCH  12  13
ATOM     13  C   UNL A   1      37.652  31.546  30.686  1.00  0.00     0.031 A 
ATOM     14  C   UNL A   1      38.465  30.529  29.940  1.00  0.00     0.074 A 
ATOM     15  C   UNL A   1      37.946  31.839  31.969  1.00  0.00     0.049 A 
ATOM     16  N   UNL A   1      39.515  29.865  30.350  1.00  0.00    -0.248 NA
ATOM     17  C   UNL A   1      38.049  30.204  28.567  1.00  0.00     0.031 C 
ATOM     18  C   UNL A   1      37.191  32.777  32.806  1.00  0.00     0.029 A 
ATOM     19  N   UNL A   1      38.954  31.403  32.791  1.00  0.00    -0.354 N 
ATOM     20  C   UNL A   1      39.863  29.016  29.307  1.00  0.00     0.074 A 
ATOM     21  C   UNL A   1      38.908  29.244  28.244  1.00  0.00     0.031 C 
ATOM     22  C   UNL A   1      37.788  32.887  33.997  1.00  0.00     0.029 A 
ATOM     23  C   UNL A   1      38.923  31.973  34.043  1.00  0.00     0.049 A 
ATOM     24  H   UNL A   1      39.632  30.747  32.512  1.00  0.00     0.167 HD
ATOM     25  C   UNL A   1      40.890  28.134  29.245  1.00  0.00     0.034 A 
ATOM     26  C   UNL A   1      39.704  31.775  35.121  1.00  0.00     0.034 A 
ATOM     27  C   UNL A   1      41.846  27.938  30.304  1.00  0.00     0.049 A 
ATOM     28  C   UNL A   1      40.845  30.810  35.018  1.00  0.00     0.074 A 
ATOM     29  C   UNL A   1      42.963  27.120  30.308  1.00  0.00     0.029 A 
ATOM     30  N   UNL A   1      41.793  28.545  31.550  1.00  0.00    -0.354 N 
ATOM     31  N   UNL A   1      41.227  30.103  33.983  1.00  0.00    -0.248 NA
ATOM     32  C   UNL A   1      41.676  30.628  36.215  1.00  0.00     0.031 C 
ATOM     33  C   UNL A   1      43.560  27.202  31.568  1.00  0.00     0.029 A 
ATOM     34  C   UNL A   1      42.846  28.107  32.336  1.00  0.00     0.049 A 
ATOM     35  H   UNL A   1      41.108  29.194  31.833  1.00  0.00     0.167 HD
ATOM     36  C   UNL A   1      42.355  29.408  34.392  1.00  0.00     0.074 A 
ATOM     37  C   UNL A   1      42.606  29.792  35.768  1.00  0.00     0.031 C 
ATOM     38  C   UNL A   1      43.108  28.526  33.691  1.00  0.00     0.034 A 
BRANCH  25  39
ATOM     39  C   UNL A   1      41.062  27.327  27.983  1.00  0.00     0.023 A 
ATOM     40  C   UNL A   1      41.663  27.912  26.851  1.00  0.00     0.012 A 
ATOM     41  C   UNL A   1      40.716  25.960  27.951  1.00  0.00     0.148 A 
ATOM     42  C   UNL A   1      41.894  27.160  25.700  1.00  0.00     0.002 A 
ATOM     43  C   UNL A   1      40.991  25.206  26.816  1.00  0.00     0.091 A 
ATOM     44  F   UNL A   1      40.126  25.423  29.029  1.00  0.00    -0.205 F 
ATOM     45  C   UNL A   1      41.569  25.806  25.686  1.00  0.00     0.022 A 
BRANCH  43  46
ATOM     46  S   UNL A   1      40.694  23.435  26.733  1.00  0.00     0.127 S 
ATOM     47  O   UNL A   1      41.611  23.032  25.668  1.00  0.00    -0.237 OA
ATOM     48  O   UNL A   1      41.086  22.995  28.072  1.00  0.00    -0.237 OA
ATOM     49  O   UNL A   1      39.277  23.279  26.431  1.00  0.00    -0.744 OA
ENDBRANCH  43  46
ENDBRANCH  25  39
BRANCH  26  50
ATOM     50  C   UNL A   1      39.432  32.558  36.358  1.00  0.00     0.023 A 
ATOM     51  C   UNL A   1      39.962  33.854  36.491  1.00  0.00     0.012 A 
ATOM     52  C   UNL A   1      38.541  32.073  37.337  1.00  0.00     0.148 A 
ATOM     53  C   UNL A   1      39.610  34.655  37.577  1.00  0.00     0.002 A 
ATOM     54  C   UNL A   1      38.142  32.899  38.379  1.00  0.00     0.091 A 
ATOM     55  F   UNL A   1      38.052  30.833  37.190  1.00  0.00    -0.205 F 
ATOM     56  C   UNL A   1      38.687  34.186  38.511  1.00  0.00     0.022 A 
BRANCH  54  57
ATOM     57  S   UNL A   1      36.836  32.445  39.526  1.00  0.00     0.127 S 
ATOM     58  O   UNL A   1      37.272  31.121  39.965  1.00  0.00    -0.237 OA
ATOM     59  O   UNL A   1      36.948  33.498  40.536  1.00  0.00    -0.237 OA
ATOM     60  O   UNL A   1      35.602  32.475  38.755  1.00  0.00    -0.744 OA
ENDBRANCH  54  57
ENDBRANCH  26  50
BRANCH  38  61
ATOM     61  C   UNL A   1      44.304  27.918  34.375  1.00  0.00     0.023 A 
ATOM     62  C   UNL A   1      45.521  28.623  34.418  1.00  0.00     0.012 A 
ATOM     63  C   UNL A   1      44.175  26.707  35.086  1.00  0.00     0.148 A 
ATOM     64  C   UNL A   1      46.599  28.125  35.150  1.00  0.00     0.002 A 
ATOM     65  C   UNL A   1      45.235  26.246  35.854  1.00  0.00     0.091 A 
ATOM     66  F   UNL A   1      43.011  26.046  35.013  1.00  0.00    -0.205 F 
ATOM     67  C   UNL A   1      46.451  26.948  35.880  1.00  0.00     0.022 A 
BRANCH  65  68
ATOM     68  S   UNL A   1      45.101  24.802  36.915  1.00  0.00     0.127 S 
ATOM     69  O   UNL A   1      44.067  25.222  37.859  1.00  0.00    -0.237 OA
ATOM     70  O   UNL A   1      44.684  23.765  35.973  1.00  0.00    -0.237 OA
ATOM     71  O   UNL A   1      46.423  24.602  37.494  1.00  0.00    -0.744 OA
ENDBRANCH  65  68
ENDBRANCH  38  61
ENDBRANCH  12  13
ENDBRANCH   5   7
ENDBRANCH   2   3
ENDBRANCH   1   2
BRANCH   1  72
ATOM     72  C   UNL A   1      31.032  31.235  25.459  1.00  0.00     0.117 C 
BRANCH  72  73
ATOM     73  N   UNL A   1      29.953  31.400  24.496  1.00  0.00    -0.354 N 
ATOM     74  C   UNL A   1      29.466  30.523  23.564  1.00  0.00     0.244 C 
ATOM     75  H   UNL A   1      29.505  32.276  24.516  1.00  0.00     0.163 HD
ATOM     76  O   UNL A   1      28.515  30.887  22.871  1.00  0.00    -0.273 OA
BRANCH  74  77
ATOM     77  C   UNL A   1      30.108  29.131  23.424  1.00  0.00     0.197 C 
BRANCH  77  78
ATOM     78  N   UNL A   1      29.141  28.066  23.724  1.00  0.00    -0.340 N 
ATOM     79  C   UNL A   1      29.322  26.717  23.771  1.00  0.00     0.244 C 
ATOM     80  H   UNL A   1      28.226  28.374  23.922  1.00  0.00     0.164 HD
ATOM     81  O   UNL A   1      28.330  25.986  23.715  1.00  0.00    -0.273 OA
BRANCH  79  82
ATOM     82  C   UNL A   1      30.738  26.134  23.924  1.00  0.00     0.181 C 
BRANCH  82  83
ATOM     83  N   UNL A   1      30.691  25.348  25.177  1.00  0.00    -0.339 N 
ATOM     84  C   UNL A   1      31.335  25.505  26.368  1.00  0.00     0.251 C 
ATOM     85  H   UNL A   1      30.088  24.572  25.144  1.00  0.00     0.164 HD
ATOM     86  O   UNL A   1      31.251  24.652  27.244  1.00  0.00    -0.269 OA
BRANCH  84  87
ATOM     87  C   UNL A   1      32.168  26.697  26.594  1.00  0.00     0.040 A 
ATOM     88  C   UNL A   1      33.468  26.770  26.076  1.00  0.00     0.017 A 
ATOM     89  C   UNL A   1      31.609  27.779  27.282  1.00  0.00     0.017 A 
ATOM     90  C   UNL A   1      34.229  27.916  26.299  1.00  0.00     0.040 A 
ATOM     91  C   UNL A   1      32.375  28.924  27.498  1.00  0.00     0.040 A 
ATOM     92  C   UNL A   1      33.678  28.978  27.011  1.00  0.00     0.123 A 
ATOM     93  F   UNL A   1      34.412  30.077  27.226  1.00  0.00    -0.207 F 
ENDBRANCH  84  87
ENDBRANCH  82  83
BRANCH  82  94
ATOM     94  C   UNL A   1      31.188  25.190  22.798  1.00  0.00     0.101 C 
BRANCH  94  95
ATOM     95  S   UNL A   1      31.481  23.441  23.178  1.00  0.00    -0.177 SA
ATOM     96  H   UNL A   1      30.532  22.680  22.571  1.00  0.00     0.102 HD
ENDBRANCH  94  95
ENDBRANCH  82  94
ENDBRANCH  79  82
ENDBRANCH  77  78
BRANCH  77  97
ATOM     97  C   UNL A   1      30.684  28.941  22.003  1.00  0.00     0.191 C 
BRANCH  97  98
ATOM     98  O   UNL A   1      30.658  30.152  21.245  1.00  0.00    -0.394 OA
ATOM     99  H   UNL A   1      30.193  29.999  20.408  1.00  0.00     0.210 HD
ENDBRANCH  97  98
ENDBRANCH  77  97
ENDBRANCH  74  77
ENDBRANCH  72  73
ENDBRANCH   1  72
TORSDOF 21
ENDMDL
MODEL 3
REMARK VINA RESULT:     -10.4      5.516     10.513
REMARK SMILES O=C(NCCCNC(=O)[C@H](CO)NC(=O)[C@H](CS)NC(=O)c1ccc(F)cc1)c1ccc(-c2c3nc(c(-c4cccc(S(=O)(=O)[O-])c4F)c4ccc([nH]4)c(-c4cccc(S(=O)(=O)[O-])c4F)c4nc(c(-c5cccc(S(=O)(=O)[O-])c5F)c5ccc2[nH]5)C=C4)C=C3)cc1
REMARK SMILES IDX 5 1 4 2 3 3 1 4 2 5 29 7 30 8 91 9 31 10 90 11 32 12 33 13
REMARK SMILES IDX 34 14 84 15 35 16 89 17 83 18 85 19 36 20 88 21 82 22 81 23
REMARK SMILES IDX 37 25 69 26 49 27 68 28 50 29 53 30 67 31 86 32 51 33 52 34
REMARK SMILES IDX 66 36 87 37 54 38 38 39 39 40 47 41 40 42 42 43 48 44 41 45
REMARK SMILES IDX 43 46 44 47 45 48 46 49 70 50 71 51 79 52 72 53 74 54 80 55
REMARK SMILES IDX 73 56 75 57 76 58 77 59 78 60 55 61 56 62 64 63 57 64 59 65
REMARK SMILES IDX 65 66 58 67 60 68 61 69 62 70 63 71 6 72 7 73 8 74 9 76
REMARK SMILES IDX 10 77 13 78 14 79 15 81 16 82 19 83 20 84 21 86 22 87 23 88
REMARK SMILES IDX 28 89 24 90 27 91 25 92 26 93 17 94 18 95 11 97 12 98
REMARK H PARENT 3 6 85 24 53 35 7 75 13 80 19 85 18 96 12 99
REMARK Flexibility Score: inf
ROOT
ATOM      1  C   UNL A   1      34.343  21.555  27.292  1.00  0.00     0.042 C 
ENDROOT
BRANCH   1   2
ATOM      2  C   UNL A   1      35.622  22.176  26.751  1.00  0.00     0.118 C 
BRANCH   2   3
ATOM      3  N   UNL A   1      36.478  21.195  26.105  1.00  0.00    -0.352 N 
ATOM      4  O   UNL A   1      38.263  20.463  24.952  1.00  0.00    -0.269 OA
ATOM      5  C   UNL A   1      37.786  21.317  25.688  1.00  0.00     0.251 C 
ATOM      6  H   UNL A   1      36.064  20.318  25.944  1.00  0.00     0.163 HD
BRANCH   5   7
ATOM      7  C   UNL A   1      38.592  22.484  26.113  1.00  0.00     0.039 A 
ATOM      8  C   UNL A   1      38.202  23.777  25.763  1.00  0.00     0.014 A 
ATOM      9  C   UNL A   1      39.738  22.289  26.891  1.00  0.00     0.014 A 
ATOM     10  C   UNL A   1      39.037  24.851  26.035  1.00  0.00     0.010 A 
ATOM     11  C   UNL A   1      40.514  23.390  27.274  1.00  0.00     0.010 A 
ATOM     12  C   UNL A   1      40.182  24.678  26.829  1.00  0.00    -0.014 A 
BRANCH  12  13
ATOM     13  C   UNL A   1      40.923  25.885  27.277  1.00  0.00     0.031 A 
ATOM     14  C   UNL A   1      42.342  26.147  26.866  1.00  0.00     0.074 A 
ATOM     15  C   UNL A   1      40.272  26.765  28.064  1.00  0.00     0.049 A 
ATOM     16  N   UNL A   1      43.088  27.188  27.131  1.00  0.00    -0.248 NA
ATOM     17  C   UNL A   1      43.017  25.115  26.065  1.00  0.00     0.031 C 
ATOM     18  C   UNL A   1      38.905  26.586  28.565  1.00  0.00     0.029 A 
ATOM     19  N   UNL A   1      40.650  27.983  28.568  1.00  0.00    -0.354 N 
ATOM     20  C   UNL A   1      44.330  26.923  26.570  1.00  0.00     0.074 A 
ATOM     21  C   UNL A   1      44.241  25.618  25.950  1.00  0.00     0.031 C 
ATOM     22  C   UNL A   1      38.542  27.672  29.255  1.00  0.00     0.029 A 
ATOM     23  C   UNL A   1      39.670  28.593  29.316  1.00  0.00     0.049 A 
ATOM     24  H   UNL A   1      41.536  28.381  28.411  1.00  0.00     0.167 HD
ATOM     25  C   UNL A   1      45.438  27.703  26.567  1.00  0.00     0.034 A 
ATOM     26  C   UNL A   1      39.675  29.755  29.996  1.00  0.00     0.034 A 
ATOM     27  C   UNL A   1      45.502  29.011  27.168  1.00  0.00     0.049 A 
ATOM     28  C   UNL A   1      40.905  30.608  29.960  1.00  0.00     0.074 A 
ATOM     29  C   UNL A   1      46.556  29.907  27.156  1.00  0.00     0.029 A 
ATOM     30  N   UNL A   1      44.484  29.603  27.901  1.00  0.00    -0.354 N 
ATOM     31  N   UNL A   1      42.031  30.391  29.324  1.00  0.00    -0.248 NA
ATOM     32  C   UNL A   1      40.866  31.870  30.709  1.00  0.00     0.031 C 
ATOM     33  C   UNL A   1      46.192  31.021  27.915  1.00  0.00     0.029 A 
ATOM     34  C   UNL A   1      44.892  30.844  28.362  1.00  0.00     0.049 A 
ATOM     35  H   UNL A   1      43.601  29.200  28.069  1.00  0.00     0.167 HD
ATOM     36  C   UNL A   1      42.829  31.498  29.576  1.00  0.00     0.074 A 
ATOM     37  C   UNL A   1      42.050  32.393  30.411  1.00  0.00     0.031 C 
ATOM     38  C   UNL A   1      44.094  31.742  29.159  1.00  0.00     0.034 A 
BRANCH  25  39
ATOM     39  C   UNL A   1      46.673  27.187  25.873  1.00  0.00     0.023 A 
ATOM     40  C   UNL A   1      47.458  26.189  26.485  1.00  0.00     0.012 A 
ATOM     41  C   UNL A   1      47.002  27.622  24.572  1.00  0.00     0.148 A 
ATOM     42  C   UNL A   1      48.563  25.650  25.826  1.00  0.00     0.002 A 
ATOM     43  C   UNL A   1      48.078  27.046  23.904  1.00  0.00     0.091 A 
ATOM     44  F   UNL A   1      46.258  28.586  24.012  1.00  0.00    -0.205 F 
ATOM     45  C   UNL A   1      48.866  26.070  24.534  1.00  0.00     0.022 A 
BRANCH  43  46
ATOM     46  S   UNL A   1      48.493  27.454  22.204  1.00  0.00     0.127 S 
ATOM     47  O   UNL A   1      49.683  28.284  22.383  1.00  0.00    -0.237 OA
ATOM     48  O   UNL A   1      48.752  26.135  21.626  1.00  0.00    -0.237 OA
ATOM     49  O   UNL A   1      47.329  28.139  21.659  1.00  0.00    -0.744 OA
ENDBRANCH  43  46
ENDBRANCH  25  39
BRANCH  26  50
ATOM     50  C   UNL A   1      38.440  30.168  30.718  1.00  0.00     0.023 A 
ATOM     51  C   UNL A   1      38.328  29.927  32.100  1.00  0.00     0.012 A 
ATOM     52  C   UNL A   1      37.440  30.918  30.066  1.00  0.00     0.148 A 
ATOM     53  C   UNL A   1      37.243  30.426  32.820  1.00  0.00     0.002 A 
ATOM     54  C   UNL A   1      36.398  31.468  30.801  1.00  0.00     0.091 A 
ATOM     55  F   UNL A   1      37.567  31.131  28.749  1.00  0.00    -0.205 F 
ATOM     56  C   UNL A   1      36.288  31.210  32.175  1.00  0.00     0.022 A 
BRANCH  54  57
ATOM     57  S   UNL A   1      35.223  32.627  30.091  1.00  0.00     0.127 S 
ATOM     58  O   UNL A   1      34.626  31.829  29.021  1.00  0.00    -0.237 OA
ATOM     59  O   UNL A   1      34.342  32.891  31.229  1.00  0.00    -0.237 OA
ATOM     60  O   UNL A   1      36.008  33.772  29.656  1.00  0.00    -0.744 OA
ENDBRANCH  54  57
ENDBRANCH  26  50
BRANCH  38  61
ATOM     61  C   UNL A   1      44.732  33.044  29.566  1.00  0.00     0.023 A 
ATOM     62  C   UNL A   1      45.546  33.099  30.713  1.00  0.00     0.012 A 
ATOM     63  C   UNL A   1      44.628  34.177  28.732  1.00  0.00     0.148 A 
ATOM     64  C   UNL A   1      46.238  34.268  31.033  1.00  0.00     0.002 A 
ATOM     65  C   UNL A   1      45.361  35.317  29.028  1.00  0.00     0.091 A 
ATOM     66  F   UNL A   1      43.832  34.104  27.656  1.00  0.00    -0.205 F 
ATOM     67  C   UNL A   1      46.159  35.369  30.183  1.00  0.00     0.022 A 
BRANCH  65  68
ATOM     68  S   UNL A   1      45.411  36.743  27.935  1.00  0.00     0.127 S 
ATOM     69  O   UNL A   1      45.790  36.129  26.663  1.00  0.00    -0.237 OA
ATOM     70  O   UNL A   1      44.031  37.225  27.994  1.00  0.00    -0.237 OA
ATOM     71  O   UNL A   1      46.397  37.653  28.502  1.00  0.00    -0.744 OA
ENDBRANCH  65  68
ENDBRANCH  38  61
ENDBRANCH  12  13
ENDBRANCH   5   7
ENDBRANCH   2   3
ENDBRANCH   1   2
BRANCH   1  72
ATOM     72  C   UNL A   1      33.115  22.436  27.107  1.00  0.00     0.117 C 
BRANCH  72  73
ATOM     73  N   UNL A   1      32.481  22.238  25.811  1.00  0.00    -0.354 N 
ATOM     74  C   UNL A   1      31.404  22.872  25.254  1.00  0.00     0.244 C 
ATOM     75  H   UNL A   1      32.889  21.540  25.249  1.00  0.00     0.163 HD
ATOM     76  O   UNL A   1      31.065  22.544  24.116  1.00  0.00    -0.273 OA
BRANCH  74  77
ATOM     77  C   UNL A   1      30.669  23.963  26.054  1.00  0.00     0.197 C 
BRANCH  77  78
ATOM     78  N   UNL A   1      29.951  24.884  25.163  1.00  0.00    -0.340 N 
ATOM     79  C   UNL A   1      30.134  26.218  24.962  1.00  0.00     0.244 C 
ATOM     80  H   UNL A   1      29.229  24.475  24.630  1.00  0.00     0.164 HD
ATOM     81  O   UNL A   1      29.229  26.866  24.430  1.00  0.00    -0.273 OA
BRANCH  79  82
ATOM     82  C   UNL A   1      31.462  26.884  25.367  1.00  0.00     0.181 C 
BRANCH  82  83
ATOM     83  N   UNL A   1      31.936  27.562  24.140  1.00  0.00    -0.339 N 
ATOM     84  C   UNL A   1      32.831  27.182  23.185  1.00  0.00     0.251 C 
ATOM     85  H   UNL A   1      31.533  28.446  23.986  1.00  0.00     0.164 HD
ATOM     86  O   UNL A   1      33.180  27.963  22.307  1.00  0.00    -0.269 OA
BRANCH  84  87
ATOM     87  C   UNL A   1      33.410  25.829  23.226  1.00  0.00     0.040 A 
ATOM     88  C   UNL A   1      33.071  24.877  22.256  1.00  0.00     0.017 A 
ATOM     89  C   UNL A   1      34.354  25.540  24.216  1.00  0.00     0.017 A 
ATOM     90  C   UNL A   1      33.645  23.608  22.316  1.00  0.00     0.040 A 
ATOM     91  C   UNL A   1      34.926  24.269  24.267  1.00  0.00     0.040 A 
ATOM     92  C   UNL A   1      34.561  23.315  23.322  1.00  0.00     0.123 A 
ATOM     93  F   UNL A   1      35.108  22.094  23.379  1.00  0.00    -0.207 F 
ENDBRANCH  84  87
ENDBRANCH  82  83
BRANCH  82  94
ATOM     94  C   UNL A   1      31.358  27.943  26.475  1.00  0.00     0.101 C 
BRANCH  94  95
ATOM     95  S   UNL A   1      31.952  29.625  26.144  1.00  0.00    -0.177 SA
ATOM     96  H   UNL A   1      33.081  29.858  26.865  1.00  0.00     0.102 HD
ENDBRANCH  94  95
ENDBRANCH  82  94
ENDBRANCH  79  82
ENDBRANCH  77  78
BRANCH  77  97
ATOM     97  C   UNL A   1      29.688  23.327  27.063  1.00  0.00     0.191 C 
BRANCH  97  98
ATOM     98  O   UNL A   1      29.351  21.983  26.712  1.00  0.00    -0.394 OA
ATOM     99  H   UNL A   1      28.406  21.932  26.500  1.00  0.00     0.210 HD
ENDBRANCH  97  98
ENDBRANCH  77  97
ENDBRANCH  74  77
ENDBRANCH  72  73
ENDBRANCH   1  72
TORSDOF 21
ENDMDL
