MODEL 1
REMARK VINA RESULT:     -10.6      0.000      0.000
REMARK SMILES CCC[NH2+][C@H]1C[C@@H](C(=O)NCCCNC(=O)c2ccc(-c3c4nc(c(-c5cccc(S(=O)(=O)[O-])c5F)c5ccc([nH]5)c(-c5cccc(S(=O)(=O)[O-])c5F)c5nc(c(-c6cccc(S(=O)(=O)[O-])c6F)c6ccc3[nH]6)C=C5)C=C4)cc2)C1
REMARK SMILES IDX 12 1 11 2 10 3 8 4 9 5 7 7 5 8 80 9 6 10 4 11 3 14 2 15 1 16
REMARK SMILES IDX 13 17 14 18 15 19 16 21 17 22 18 23 79 24 19 25 78 26 20 27
REMARK SMILES IDX 21 28 22 29 72 30 23 31 77 32 71 33 73 34 24 35 76 36 70 37
REMARK SMILES IDX 69 38 25 40 57 41 37 42 56 43 38 44 41 45 55 46 74 47 39 48
REMARK SMILES IDX 40 49 54 51 75 52 42 53 26 54 27 55 35 56 28 57 30 58 36 59
REMARK SMILES IDX 29 60 31 61 32 62 33 63 34 64 58 65 59 66 67 67 60 68 62 69
REMARK SMILES IDX 68 70 61 71 63 72 64 73 65 74 66 75 43 76 44 77 52 78 45 79
REMARK SMILES IDX 47 80 53 81 46 82 48 83 49 84 50 85 51 86
REMARK H PARENT 10 6 4 12 4 13 14 20 73 39 41 50
REMARK Flexibility Score: inf
ROOT
ATOM      1  C   UNL A   1      36.933  22.404  24.077  1.00  0.00     0.042 C 
ENDROOT
BRANCH   1   2
ATOM      2  C   UNL A   1      35.825  23.367  23.677  1.00  0.00     0.117 C 
BRANCH   2   3
ATOM      3  N   UNL A   1      34.921  23.650  24.778  1.00  0.00    -0.356 N 
ATOM      4  C   UNL A   1      33.785  23.011  25.202  1.00  0.00     0.223 C 
ATOM      5  O   UNL A   1      33.223  23.513  26.187  1.00  0.00    -0.275 OA
ATOM      6  H   UNL A   1      35.168  24.438  25.314  1.00  0.00     0.163 HD
BRANCH   4   7
ATOM      7  C   UNL A   1      33.253  21.737  24.534  1.00  0.00     0.090 C 
ATOM      8  C   UNL A   1      32.622  19.694  24.608  1.00  0.00     0.183 C 
ATOM      9  C   UNL A   1      31.997  21.022  25.086  1.00  0.00     0.078 C 
ATOM     10  C   UNL A   1      34.004  20.387  24.623  1.00  0.00     0.078 C 
BRANCH   8  11
ATOM     11  N   UNL A   1      32.553  18.719  25.698  1.00  0.00    -0.344 N 
ATOM     12  H   UNL A   1      33.399  18.779  26.265  1.00  0.00     0.346 HD
ATOM     13  H   UNL A   1      31.743  18.917  26.285  1.00  0.00     0.346 HD
BRANCH  11  14
ATOM     14  C   UNL A   1      32.437  17.372  25.129  1.00  0.00     0.260 C 
BRANCH  14  15
ATOM     15  C   UNL A   1      33.450  16.390  25.727  1.00  0.00     0.058 C 
ATOM     16  C   UNL A   1      34.692  16.188  24.871  1.00  0.00     0.010 C 
ENDBRANCH  14  15
ENDBRANCH  11  14
ENDBRANCH   8  11
ENDBRANCH   4   7
ENDBRANCH   2   3
ENDBRANCH   1   2
BRANCH   1  17
ATOM     17  C   UNL A   1      37.119  22.255  25.582  1.00  0.00     0.118 C 
BRANCH  17  18
ATOM     18  N   UNL A   1      38.141  21.276  25.934  1.00  0.00    -0.352 N 
ATOM     19  C   UNL A   1      39.416  21.461  26.404  1.00  0.00     0.251 C 
ATOM     20  H   UNL A   1      37.873  20.336  25.814  1.00  0.00     0.163 HD
ATOM     21  O   UNL A   1      40.182  20.498  26.467  1.00  0.00    -0.269 OA
BRANCH  19  22
ATOM     22  C   UNL A   1      39.878  22.801  26.822  1.00  0.00     0.039 A 
ATOM     23  C   UNL A   1      40.808  22.905  27.860  1.00  0.00     0.014 A 
ATOM     24  C   UNL A   1      39.390  23.956  26.207  1.00  0.00     0.014 A 
ATOM     25  C   UNL A   1      41.289  24.161  28.238  1.00  0.00     0.010 A 
ATOM     26  C   UNL A   1      39.940  25.195  26.519  1.00  0.00     0.010 A 
ATOM     27  C   UNL A   1      40.885  25.315  27.547  1.00  0.00    -0.014 A 
BRANCH  27  28
ATOM     28  C   UNL A   1      41.431  26.654  27.888  1.00  0.00     0.031 A 
ATOM     29  C   UNL A   1      42.853  27.005  27.539  1.00  0.00     0.074 A 
ATOM     30  C   UNL A   1      40.673  27.527  28.581  1.00  0.00     0.049 A 
ATOM     31  N   UNL A   1      43.522  28.099  27.800  1.00  0.00    -0.248 NA
ATOM     32  C   UNL A   1      43.639  25.981  26.830  1.00  0.00     0.031 C 
ATOM     33  C   UNL A   1      39.305  27.281  29.044  1.00  0.00     0.029 A 
ATOM     34  N   UNL A   1      40.953  28.791  29.039  1.00  0.00    -0.354 N 
ATOM     35  C   UNL A   1      44.809  27.882  27.323  1.00  0.00     0.074 A 
ATOM     36  C   UNL A   1      44.841  26.536  26.794  1.00  0.00     0.031 C 
ATOM     37  C   UNL A   1      38.862  28.362  29.706  1.00  0.00     0.029 A 
ATOM     38  C   UNL A   1      39.922  29.363  29.748  1.00  0.00     0.049 A 
ATOM     39  H   UNL A   1      41.811  29.245  28.876  1.00  0.00     0.167 HD
ATOM     40  C   UNL A   1      45.862  28.733  27.296  1.00  0.00     0.034 A 
ATOM     41  C   UNL A   1      39.841  30.557  30.367  1.00  0.00     0.034 A 
ATOM     42  C   UNL A   1      45.816  30.083  27.789  1.00  0.00     0.049 A 
ATOM     43  C   UNL A   1      41.018  31.495  30.301  1.00  0.00     0.074 A 
ATOM     44  C   UNL A   1      46.801  31.053  27.736  1.00  0.00     0.029 A 
ATOM     45  N   UNL A   1      44.729  30.652  28.435  1.00  0.00    -0.354 N 
ATOM     46  N   UNL A   1      42.176  31.327  29.712  1.00  0.00    -0.248 NA
ATOM     47  C   UNL A   1      40.861  32.802  30.954  1.00  0.00     0.031 C 
ATOM     48  C   UNL A   1      46.321  32.198  28.379  1.00  0.00     0.029 A 
ATOM     49  C   UNL A   1      45.022  31.956  28.796  1.00  0.00     0.049 A 
ATOM     50  H   UNL A   1      43.875  30.196  28.611  1.00  0.00     0.167 HD
ATOM     51  C   UNL A   1      42.869  32.519  29.884  1.00  0.00     0.074 A 
ATOM     52  C   UNL A   1      41.991  33.408  30.618  1.00  0.00     0.031 C 
ATOM     53  C   UNL A   1      44.121  32.848  29.479  1.00  0.00     0.034 A 
BRANCH  40  54
ATOM     54  C   UNL A   1      47.143  28.241  26.670  1.00  0.00     0.023 A 
ATOM     55  C   UNL A   1      48.224  27.864  27.494  1.00  0.00     0.012 A 
ATOM     56  C   UNL A   1      47.263  28.105  25.273  1.00  0.00     0.148 A 
ATOM     57  C   UNL A   1      49.418  27.405  26.938  1.00  0.00     0.002 A 
ATOM     58  C   UNL A   1      48.437  27.598  24.728  1.00  0.00     0.091 A 
ATOM     59  F   UNL A   1      46.233  28.484  24.502  1.00  0.00    -0.205 F 
ATOM     60  C   UNL A   1      49.520  27.262  25.558  1.00  0.00     0.022 A 
BRANCH  58  61
ATOM     61  S   UNL A   1      48.640  27.295  22.969  1.00  0.00     0.127 S 
ATOM     62  O   UNL A   1      50.060  27.589  22.782  1.00  0.00    -0.237 OA
ATOM     63  O   UNL A   1      48.290  25.879  22.859  1.00  0.00    -0.237 OA
ATOM     64  O   UNL A   1      47.721  28.203  22.296  1.00  0.00    -0.744 OA
ENDBRANCH  58  61
ENDBRANCH  40  54
BRANCH  41  65
ATOM     65  C   UNL A   1      38.577  30.965  31.044  1.00  0.00     0.023 A 
ATOM     66  C   UNL A   1      38.443  30.767  32.432  1.00  0.00     0.012 A 
ATOM     67  C   UNL A   1      37.519  31.557  30.330  1.00  0.00     0.148 A 
ATOM     68  C   UNL A   1      37.263  31.118  33.091  1.00  0.00     0.002 A 
ATOM     69  C   UNL A   1      36.368  31.955  31.001  1.00  0.00     0.091 A 
ATOM     70  F   UNL A   1      37.663  31.730  29.008  1.00  0.00    -0.205 F 
ATOM     71  C   UNL A   1      36.230  31.719  32.377  1.00  0.00     0.022 A 
BRANCH  69  72
ATOM     72  S   UNL A   1      35.038  32.851  30.191  1.00  0.00     0.127 S 
ATOM     73  O   UNL A   1      34.133  33.116  31.307  1.00  0.00    -0.237 OA
ATOM     74  O   UNL A   1      35.740  34.026  29.673  1.00  0.00    -0.237 OA
ATOM     75  O   UNL A   1      34.527  31.955  29.164  1.00  0.00    -0.744 OA
ENDBRANCH  69  72
ENDBRANCH  41  65
BRANCH  53  76
ATOM     76  C   UNL A   1      44.606  34.245  29.770  1.00  0.00     0.023 A 
ATOM     77  C   UNL A   1      45.309  34.517  30.962  1.00  0.00     0.012 A 
ATOM     78  C   UNL A   1      44.424  35.273  28.825  1.00  0.00     0.148 A 
ATOM     79  C   UNL A   1      45.788  35.800  31.223  1.00  0.00     0.002 A 
ATOM     80  C   UNL A   1      44.952  36.535  29.067  1.00  0.00     0.091 A 
ATOM     81  F   UNL A   1      43.738  34.999  27.706  1.00  0.00    -0.205 F 
ATOM     82  C   UNL A   1      45.621  36.804  30.273  1.00  0.00     0.022 A 
BRANCH  80  83
ATOM     83  S   UNL A   1      44.874  37.861  27.858  1.00  0.00     0.127 S 
ATOM     84  O   UNL A   1      45.348  39.003  28.637  1.00  0.00    -0.237 OA
ATOM     85  O   UNL A   1      45.805  37.397  26.830  1.00  0.00    -0.237 OA
ATOM     86  O   UNL A   1      43.484  37.932  27.428  1.00  0.00    -0.744 OA
ENDBRANCH  80  83
ENDBRANCH  53  76
ENDBRANCH  27  28
ENDBRANCH  19  22
ENDBRANCH  17  18
ENDBRANCH   1  17
TORSDOF 16
ENDMDL
MODEL 2
REMARK VINA RESULT:     -10.4      6.315     11.844
REMARK SMILES CCC[NH2+][C@H]1C[C@@H](C(=O)NCCCNC(=O)c2ccc(-c3c4nc(c(-c5cccc(S(=O)(=O)[O-])c5F)c5ccc([nH]5)c(-c5cccc(S(=O)(=O)[O-])c5F)c5nc(c(-c6cccc(S(=O)(=O)[O-])c6F)c6ccc3[nH]6)C=C5)C=C4)cc2)C1
REMARK SMILES IDX 12 1 11 2 10 3 8 4 9 5 7 7 5 8 80 9 6 10 4 11 3 14 2 15 1 16
REMARK SMILES IDX 13 17 14 18 15 19 16 21 17 22 18 23 79 24 19 25 78 26 20 27
REMARK SMILES IDX 21 28 22 29 72 30 23 31 77 32 71 33 73 34 24 35 76 36 70 37
REMARK SMILES IDX 69 38 25 40 57 41 37 42 56 43 38 44 41 45 55 46 74 47 39 48
REMARK SMILES IDX 40 49 54 51 75 52 42 53 26 54 27 55 35 56 28 57 30 58 36 59
REMARK SMILES IDX 29 60 31 61 32 62 33 63 34 64 58 65 59 66 67 67 60 68 62 69
REMARK SMILES IDX 68 70 61 71 63 72 64 73 65 74 66 75 43 76 44 77 52 78 45 79
REMARK SMILES IDX 47 80 53 81 46 82 48 83 49 84 50 85 51 86
REMARK H PARENT 10 6 4 12 4 13 14 20 73 39 41 50
REMARK Flexibility Score: inf
ROOT
ATOM      1  C   UNL A   1      35.508  33.692  29.424  1.00  0.00     0.042 C 
ENDROOT
BRANCH   1   2
ATOM      2  C   UNL A   1      34.259  33.393  30.241  1.00  0.00     0.117 C 
BRANCH   2   3
ATOM      3  N   UNL A   1      33.443  34.576  30.449  1.00  0.00    -0.356 N 
ATOM      4  C   UNL A   1      33.273  35.374  31.551  1.00  0.00     0.223 C 
ATOM      5  O   UNL A   1      32.485  36.322  31.409  1.00  0.00    -0.275 OA
ATOM      6  H   UNL A   1      32.922  34.854  29.661  1.00  0.00     0.163 HD
BRANCH   4   7
ATOM      7  C   UNL A   1      34.027  35.142  32.866  1.00  0.00     0.090 C 
ATOM      8  C   UNL A   1      35.592  34.230  34.005  1.00  0.00     0.183 C 
ATOM      9  C   UNL A   1      35.557  35.354  32.946  1.00  0.00     0.078 C 
ATOM     10  C   UNL A   1      34.238  33.727  33.454  1.00  0.00     0.078 C 
BRANCH   8  11
ATOM     11  N   UNL A   1      36.647  33.279  33.650  1.00  0.00    -0.344 N 
ATOM     12  H   UNL A   1      36.232  32.375  33.427  1.00  0.00     0.346 HD
ATOM     13  H   UNL A   1      37.159  33.622  32.837  1.00  0.00     0.346 HD
BRANCH  11  14
ATOM     14  C   UNL A   1      37.562  33.134  34.788  1.00  0.00     0.260 C 
BRANCH  14  15
ATOM     15  C   UNL A   1      38.985  33.601  34.462  1.00  0.00     0.058 C 
ATOM     16  C   UNL A   1      39.131  34.208  33.073  1.00  0.00     0.010 C 
ENDBRANCH  14  15
ENDBRANCH  11  14
ENDBRANCH   8  11
ENDBRANCH   4   7
ENDBRANCH   2   3
ENDBRANCH   1   2
BRANCH   1  17
ATOM     17  C   UNL A   1      35.388  33.335  27.948  1.00  0.00     0.118 C 
BRANCH  17  18
ATOM     18  N   UNL A   1      34.414  32.278  27.697  1.00  0.00    -0.352 N 
ATOM     19  C   UNL A   1      34.575  30.916  27.677  1.00  0.00     0.251 C 
ATOM     20  H   UNL A   1      33.499  32.592  27.512  1.00  0.00     0.163 HD
ATOM     21  O   UNL A   1      33.658  30.206  27.264  1.00  0.00    -0.269 OA
BRANCH  19  22
ATOM     22  C   UNL A   1      35.839  30.300  28.133  1.00  0.00     0.039 A 
ATOM     23  C   UNL A   1      36.925  30.250  27.255  1.00  0.00     0.014 A 
ATOM     24  C   UNL A   1      35.955  29.757  29.414  1.00  0.00     0.014 A 
ATOM     25  C   UNL A   1      38.141  29.712  27.683  1.00  0.00     0.010 A 
ATOM     26  C   UNL A   1      37.191  29.309  29.870  1.00  0.00     0.010 A 
ATOM     27  C   UNL A   1      38.295  29.268  29.007  1.00  0.00    -0.014 A 
BRANCH  27  28
ATOM     28  C   UNL A   1      39.596  28.750  29.505  1.00  0.00     0.031 A 
ATOM     29  C   UNL A   1      40.314  29.457  30.624  1.00  0.00     0.074 A 
ATOM     30  C   UNL A   1      40.168  27.691  28.899  1.00  0.00     0.049 A 
ATOM     31  N   UNL A   1      41.479  29.188  31.157  1.00  0.00    -0.248 NA
ATOM     32  C   UNL A   1      39.653  30.640  31.201  1.00  0.00     0.031 C 
ATOM     33  C   UNL A   1      39.610  26.964  27.757  1.00  0.00     0.029 A 
ATOM     34  N   UNL A   1      41.360  27.055  29.145  1.00  0.00    -0.354 N 
ATOM     35  C   UNL A   1      41.705  30.183  32.101  1.00  0.00     0.074 A 
ATOM     36  C   UNL A   1      40.577  31.087  32.038  1.00  0.00     0.031 C 
ATOM     37  C   UNL A   1      40.450  25.975  27.411  1.00  0.00     0.029 A 
ATOM     38  C   UNL A   1      41.622  26.018  28.279  1.00  0.00     0.049 A 
ATOM     39  H   UNL A   1      41.971  27.317  29.871  1.00  0.00     0.167 HD
ATOM     40  C   UNL A   1      42.739  30.318  32.965  1.00  0.00     0.034 A 
ATOM     41  C   UNL A   1      42.688  25.198  28.190  1.00  0.00     0.034 A 
ATOM     42  C   UNL A   1      43.840  29.398  33.049  1.00  0.00     0.049 A 
ATOM     43  C   UNL A   1      43.813  25.355  29.179  1.00  0.00     0.074 A 
ATOM     44  C   UNL A   1      44.896  29.399  33.942  1.00  0.00     0.029 A 
ATOM     45  N   UNL A   1      44.033  28.316  32.203  1.00  0.00    -0.354 N 
ATOM     46  N   UNL A   1      43.936  26.212  30.162  1.00  0.00    -0.248 NA
ATOM     47  C   UNL A   1      44.930  24.406  29.067  1.00  0.00     0.031 C 
ATOM     48  C   UNL A   1      45.746  28.337  33.615  1.00  0.00     0.029 A 
ATOM     49  C   UNL A   1      45.197  27.649  32.545  1.00  0.00     0.049 A 
ATOM     50  H   UNL A   1      43.431  28.060  31.468  1.00  0.00     0.167 HD
ATOM     51  C   UNL A   1      45.118  25.879  30.813  1.00  0.00     0.074 A 
ATOM     52  C   UNL A   1      45.665  24.730  30.121  1.00  0.00     0.031 C 
ATOM     53  C   UNL A   1      45.703  26.475  31.882  1.00  0.00     0.034 A 
BRANCH  40  54
ATOM     54  C   UNL A   1      42.703  31.484  33.920  1.00  0.00     0.023 A 
ATOM     55  C   UNL A   1      43.220  32.734  33.518  1.00  0.00     0.012 A 
ATOM     56  C   UNL A   1      42.118  31.360  35.196  1.00  0.00     0.148 A 
ATOM     57  C   UNL A   1      43.197  33.827  34.385  1.00  0.00     0.002 A 
ATOM     58  C   UNL A   1      42.051  32.467  36.035  1.00  0.00     0.091 A 
ATOM     59  F   UNL A   1      41.647  30.162  35.570  1.00  0.00    -0.205 F 
ATOM     60  C   UNL A   1      42.603  33.696  35.636  1.00  0.00     0.022 A 
BRANCH  58  61
ATOM     61  S   UNL A   1      41.233  32.426  37.633  1.00  0.00     0.127 S 
ATOM     62  O   UNL A   1      39.925  31.874  37.280  1.00  0.00    -0.237 OA
ATOM     63  O   UNL A   1      42.092  31.520  38.395  1.00  0.00    -0.237 OA
ATOM     64  O   UNL A   1      41.220  33.801  38.113  1.00  0.00    -0.744 OA
ENDBRANCH  58  61
ENDBRANCH  40  54
BRANCH  41  65
ATOM     65  C   UNL A   1      42.712  24.110  27.172  1.00  0.00     0.023 A 
ATOM     66  C   UNL A   1      43.404  24.312  25.962  1.00  0.00     0.012 A 
ATOM     67  C   UNL A   1      42.070  22.878  27.398  1.00  0.00     0.148 A 
ATOM     68  C   UNL A   1      43.425  23.321  24.980  1.00  0.00     0.002 A 
ATOM     69  C   UNL A   1      42.142  21.874  26.439  1.00  0.00     0.091 A 
ATOM     70  F   UNL A   1      41.410  22.707  28.553  1.00  0.00    -0.205 F 
ATOM     71  C   UNL A   1      42.802  22.099  25.221  1.00  0.00     0.022 A 
BRANCH  69  72
ATOM     72  S   UNL A   1      41.480  20.226  26.713  1.00  0.00     0.127 S 
ATOM     73  O   UNL A   1      41.879  19.536  25.489  1.00  0.00    -0.237 OA
ATOM     74  O   UNL A   1      42.198  19.811  27.918  1.00  0.00    -0.237 OA
ATOM     75  O   UNL A   1      40.046  20.403  26.898  1.00  0.00    -0.744 OA
ENDBRANCH  69  72
ENDBRANCH  41  65
BRANCH  53  76
ATOM     76  C   UNL A   1      46.978  25.868  32.410  1.00  0.00     0.023 A 
ATOM     77  C   UNL A   1      48.224  26.281  31.897  1.00  0.00     0.012 A 
ATOM     78  C   UNL A   1      46.939  24.938  33.467  1.00  0.00     0.148 A 
ATOM     79  C   UNL A   1      49.409  25.747  32.402  1.00  0.00     0.002 A 
ATOM     80  C   UNL A   1      48.125  24.452  34.002  1.00  0.00     0.091 A 
ATOM     81  F   UNL A   1      45.743  24.545  33.930  1.00  0.00    -0.205 F 
ATOM     82  C   UNL A   1      49.361  24.843  33.461  1.00  0.00     0.022 A 
BRANCH  80  83
ATOM     83  S   UNL A   1      48.163  23.364  35.432  1.00  0.00     0.127 S 
ATOM     84  O   UNL A   1      48.086  24.320  36.535  1.00  0.00    -0.237 OA
ATOM     85  O   UNL A   1      46.957  22.559  35.239  1.00  0.00    -0.237 OA
ATOM     86  O   UNL A   1      49.410  22.618  35.337  1.00  0.00    -0.744 OA
ENDBRANCH  80  83
ENDBRANCH  53  76
ENDBRANCH  27  28
ENDBRANCH  19  22
ENDBRANCH  17  18
ENDBRANCH   1  17
TORSDOF 16
ENDMDL
MODEL 3
REMARK VINA RESULT:     -10.4      2.286      2.547
REMARK SMILES CCC[NH2+][C@H]1C[C@@H](C(=O)NCCCNC(=O)c2ccc(-c3c4nc(c(-c5cccc(S(=O)(=O)[O-])c5F)c5ccc([nH]5)c(-c5cccc(S(=O)(=O)[O-])c5F)c5nc(c(-c6cccc(S(=O)(=O)[O-])c6F)c6ccc3[nH]6)C=C5)C=C4)cc2)C1
REMARK SMILES IDX 12 1 11 2 10 3 8 4 9 5 7 7 5 8 80 9 6 10 4 11 3 14 2 15 1 16
REMARK SMILES IDX 13 17 14 18 15 19 16 21 17 22 18 23 79 24 19 25 78 26 20 27
REMARK SMILES IDX 21 28 22 29 72 30 23 31 77 32 71 33 73 34 24 35 76 36 70 37
REMARK SMILES IDX 69 38 25 40 57 41 37 42 56 43 38 44 41 45 55 46 74 47 39 48
REMARK SMILES IDX 40 49 54 51 75 52 42 53 26 54 27 55 35 56 28 57 30 58 36 59
REMARK SMILES IDX 29 60 31 61 32 62 33 63 34 64 58 65 59 66 67 67 60 68 62 69
REMARK SMILES IDX 68 70 61 71 63 72 64 73 65 74 66 75 43 76 44 77 52 78 45 79
REMARK SMILES IDX 47 80 53 81 46 82 48 83 49 84 50 85 51 86
REMARK H PARENT 10 6 4 12 4 13 14 20 73 39 41 50
REMARK Flexibility Score: inf
ROOT
ATOM      1  C   UNL A   1      37.027  22.523  24.179  1.00  0.00     0.042 C 
ENDROOT
BRANCH   1   2
ATOM      2  C   UNL A   1      35.812  23.350  23.784  1.00  0.00     0.117 C 
BRANCH   2   3
ATOM      3  N   UNL A   1      34.929  23.599  24.909  1.00  0.00    -0.356 N 
ATOM      4  C   UNL A   1      33.867  22.883  25.400  1.00  0.00     0.223 C 
ATOM      5  O   UNL A   1      33.300  23.374  26.389  1.00  0.00    -0.275 OA
ATOM      6  H   UNL A   1      35.126  24.424  25.407  1.00  0.00     0.163 HD
BRANCH   4   7
ATOM      7  C   UNL A   1      33.421  21.545  24.799  1.00  0.00     0.090 C 
ATOM      8  C   UNL A   1      32.910  19.475  24.980  1.00  0.00     0.183 C 
ATOM      9  C   UNL A   1      32.200  20.788  25.375  1.00  0.00     0.078 C 
ATOM     10  C   UNL A   1      34.248  20.249  24.973  1.00  0.00     0.078 C 
BRANCH   8  11
ATOM     11  N   UNL A   1      32.881  18.560  26.123  1.00  0.00    -0.344 N 
ATOM     12  H   UNL A   1      33.784  18.576  26.597  1.00  0.00     0.346 HD
ATOM     13  H   UNL A   1      32.155  18.851  26.778  1.00  0.00     0.346 HD
BRANCH  11  14
ATOM     14  C   UNL A   1      32.600  17.203  25.642  1.00  0.00     0.260 C 
BRANCH  14  15
ATOM     15  C   UNL A   1      33.855  16.490  25.124  1.00  0.00     0.058 C 
ATOM     16  C   UNL A   1      34.019  16.554  23.612  1.00  0.00     0.010 C 
ENDBRANCH  14  15
ENDBRANCH  11  14
ENDBRANCH   8  11
ENDBRANCH   4   7
ENDBRANCH   2   3
ENDBRANCH   1   2
BRANCH   1  17
ATOM     17  C   UNL A   1      37.476  22.724  25.621  1.00  0.00     0.118 C 
BRANCH  17  18
ATOM     18  N   UNL A   1      38.607  21.876  25.986  1.00  0.00    -0.352 N 
ATOM     19  C   UNL A   1      39.834  22.214  26.496  1.00  0.00     0.251 C 
ATOM     20  H   UNL A   1      38.466  20.912  25.842  1.00  0.00     0.163 HD
ATOM     21  O   UNL A   1      40.716  21.357  26.564  1.00  0.00    -0.269 OA
BRANCH  19  22
ATOM     22  C   UNL A   1      40.108  23.594  26.950  1.00  0.00     0.039 A 
ATOM     23  C   UNL A   1      40.620  23.797  28.235  1.00  0.00     0.014 A 
ATOM     24  C   UNL A   1      39.849  24.689  26.124  1.00  0.00     0.014 A 
ATOM     25  C   UNL A   1      40.926  25.090  28.664  1.00  0.00     0.010 A 
ATOM     26  C   UNL A   1      40.244  25.965  26.515  1.00  0.00     0.010 A 
ATOM     27  C   UNL A   1      40.773  26.183  27.795  1.00  0.00    -0.014 A 
BRANCH  27  28
ATOM     28  C   UNL A   1      41.152  27.560  28.206  1.00  0.00     0.031 A 
ATOM     29  C   UNL A   1      42.600  27.975  28.220  1.00  0.00     0.074 A 
ATOM     30  C   UNL A   1      40.202  28.412  28.641  1.00  0.00     0.049 A 
ATOM     31  N   UNL A   1      43.128  29.112  28.596  1.00  0.00    -0.248 NA
ATOM     32  C   UNL A   1      43.587  26.974  27.783  1.00  0.00     0.031 C 
ATOM     33  C   UNL A   1      38.774  28.106  28.746  1.00  0.00     0.029 A 
ATOM     34  N   UNL A   1      40.298  29.702  29.100  1.00  0.00    -0.354 N 
ATOM     35  C   UNL A   1      44.504  28.950  28.477  1.00  0.00     0.074 A 
ATOM     36  C   UNL A   1      44.731  27.592  28.034  1.00  0.00     0.031 C 
ATOM     37  C   UNL A   1      38.126  29.181  29.223  1.00  0.00     0.029 A 
ATOM     38  C   UNL A   1      39.094  30.239  29.493  1.00  0.00     0.049 A 
ATOM     39  H   UNL A   1      41.148  30.196  29.143  1.00  0.00     0.167 HD
ATOM     40  C   UNL A   1      45.489  29.856  28.684  1.00  0.00     0.034 A 
ATOM     41  C   UNL A   1      38.803  31.446  30.018  1.00  0.00     0.034 A 
ATOM     42  C   UNL A   1      45.257  31.215  29.090  1.00  0.00     0.049 A 
ATOM     43  C   UNL A   1      39.913  32.443  30.216  1.00  0.00     0.074 A 
ATOM     44  C   UNL A   1      46.178  32.235  29.249  1.00  0.00     0.029 A 
ATOM     45  N   UNL A   1      44.016  31.745  29.408  1.00  0.00    -0.354 N 
ATOM     46  N   UNL A   1      41.191  32.320  29.953  1.00  0.00    -0.248 NA
ATOM     47  C   UNL A   1      39.535  33.760  30.747  1.00  0.00     0.031 C 
ATOM     48  C   UNL A   1      45.498  33.373  29.696  1.00  0.00     0.029 A 
ATOM     49  C   UNL A   1      44.147  33.073  29.775  1.00  0.00     0.049 A 
ATOM     50  H   UNL A   1      43.166  31.249  29.378  1.00  0.00     0.167 HD
ATOM     51  C   UNL A   1      41.762  33.553  30.245  1.00  0.00     0.074 A 
ATOM     52  C   UNL A   1      40.685  34.415  30.688  1.00  0.00     0.031 C 
ATOM     53  C   UNL A   1      43.061  33.936  30.162  1.00  0.00     0.034 A 
BRANCH  40  54
ATOM     54  C   UNL A   1      46.909  29.414  28.432  1.00  0.00     0.023 A 
ATOM     55  C   UNL A   1      47.491  29.624  27.165  1.00  0.00     0.012 A 
ATOM     56  C   UNL A   1      47.682  28.836  29.459  1.00  0.00     0.148 A 
ATOM     57  C   UNL A   1      48.803  29.224  26.909  1.00  0.00     0.002 A 
ATOM     58  C   UNL A   1      49.005  28.488  29.212  1.00  0.00     0.091 A 
ATOM     59  F   UNL A   1      47.109  28.628  30.653  1.00  0.00    -0.205 F 
ATOM     60  C   UNL A   1      49.562  28.668  27.934  1.00  0.00     0.022 A 
BRANCH  58  61
ATOM     61  S   UNL A   1      50.094  27.843  30.486  1.00  0.00     0.127 S 
ATOM     62  O   UNL A   1      49.462  26.559  30.791  1.00  0.00    -0.237 OA
ATOM     63  O   UNL A   1      51.370  27.742  29.778  1.00  0.00    -0.237 OA
ATOM     64  O   UNL A   1      50.072  28.820  31.566  1.00  0.00    -0.744 OA
ENDBRANCH  58  61
ENDBRANCH  40  54
BRANCH  41  65
ATOM     65  C   UNL A   1      37.390  31.806  30.327  1.00  0.00     0.023 A 
ATOM     66  C   UNL A   1      36.917  31.674  31.648  1.00  0.00     0.012 A 
ATOM     67  C   UNL A   1      36.519  32.289  29.332  1.00  0.00     0.148 A 
ATOM     68  C   UNL A   1      35.593  31.981  31.965  1.00  0.00     0.002 A 
ATOM     69  C   UNL A   1      35.217  32.646  29.666  1.00  0.00     0.091 A 
ATOM     70  F   UNL A   1      36.985  32.400  28.080  1.00  0.00    -0.205 F 
ATOM     71  C   UNL A   1      34.746  32.474  30.976  1.00  0.00     0.022 A 
BRANCH  69  72
ATOM     72  S   UNL A   1      34.093  33.408  28.490  1.00  0.00     0.127 S 
ATOM     73  O   UNL A   1      33.229  34.193  29.368  1.00  0.00    -0.237 OA
ATOM     74  O   UNL A   1      35.011  34.193  27.664  1.00  0.00    -0.237 OA
ATOM     75  O   UNL A   1      33.448  32.307  27.790  1.00  0.00    -0.744 OA
ENDBRANCH  69  72
ENDBRANCH  41  65
BRANCH  53  76
ATOM     76  C   UNL A   1      43.392  35.366  30.507  1.00  0.00     0.023 A 
ATOM     77  C   UNL A   1      43.807  35.702  31.811  1.00  0.00     0.012 A 
ATOM     78  C   UNL A   1      43.357  36.363  29.514  1.00  0.00     0.148 A 
ATOM     79  C   UNL A   1      44.144  37.017  32.130  1.00  0.00     0.002 A 
ATOM     80  C   UNL A   1      43.747  37.660  29.824  1.00  0.00     0.091 A 
ATOM     81  F   UNL A   1      42.942  36.027  28.283  1.00  0.00    -0.205 F 
ATOM     82  C   UNL A   1      44.127  37.992  31.135  1.00  0.00     0.022 A 
BRANCH  80  83
ATOM     83  S   UNL A   1      43.853  38.957  28.585  1.00  0.00     0.127 S 
ATOM     84  O   UNL A   1      44.162  40.127  29.405  1.00  0.00    -0.237 OA
ATOM     85  O   UNL A   1      44.958  38.493  27.746  1.00  0.00    -0.237 OA
ATOM     86  O   UNL A   1      42.559  38.985  27.920  1.00  0.00    -0.744 OA
ENDBRANCH  80  83
ENDBRANCH  53  76
ENDBRANCH  27  28
ENDBRANCH  19  22
ENDBRANCH  17  18
ENDBRANCH   1  17
TORSDOF 16
ENDMDL
