MODEL 1
REMARK VINA RESULT:     -10.8      0.000      0.000
REMARK SMILES C[C@H](C(=O)NCCCNC(=O)c1ccc(-c2c3nc(c(-c4cccc(S(=O)(=O)[O-])c4F)c4ccc([nH]4)c(-c4cccc(S(=O)(=O)[O-])c4F)c4nc(c(-c5cccc(S(=O)(=O)[O-])c5F)c5ccc2[nH]5)C=C4)C=C3)cc1)[C@@H](C)[NH2+]CC1(O)CCCC1
REMARK SMILES IDX 6 1 5 2 3 3 4 4 2 6 1 7 75 8 76 9 77 10 78 13 79 14 81 15
REMARK SMILES IDX 84 16 82 17 83 18 80 19 7 21 8 22 9 23 10 24 11 26 12 27
REMARK SMILES IDX 13 28 74 29 14 30 73 31 15 32 16 33 17 34 67 35 18 36 72 37
REMARK SMILES IDX 66 38 68 39 19 40 71 41 65 42 64 43 20 45 52 46 32 47 51 48
REMARK SMILES IDX 33 49 36 50 50 51 69 52 34 53 35 54 49 56 70 57 37 58 21 59
REMARK SMILES IDX 22 60 30 61 23 62 25 63 31 64 24 65 26 66 27 67 28 68 29 69
REMARK SMILES IDX 53 70 54 71 62 72 55 73 57 74 63 75 56 76 58 77 59 78 60 79
REMARK SMILES IDX 61 80 38 81 39 82 47 83 40 84 42 85 48 86 41 87 43 88 44 89
REMARK SMILES IDX 45 90 46 91
REMARK H PARENT 5 5 77 11 77 12 80 20 9 25 68 44 36 55
REMARK Flexibility Score: inf
ROOT
ATOM      1  C   UNL A   1      33.769  26.354  26.074  1.00  0.00     0.117 C 
ENDROOT
BRANCH   1   2
ATOM      2  N   UNL A   1      32.774  25.532  25.403  1.00  0.00    -0.356 N 
ATOM      3  C   UNL A   1      32.477  25.247  24.111  1.00  0.00     0.228 C 
ATOM      4  O   UNL A   1      31.649  24.341  23.946  1.00  0.00    -0.275 OA
ATOM      5  H   UNL A   1      32.174  25.075  26.037  1.00  0.00     0.163 HD
BRANCH   3   6
ATOM      6  C   UNL A   1      33.026  25.979  22.877  1.00  0.00     0.133 C 
ATOM      7  C   UNL A   1      32.775  25.095  21.657  1.00  0.00     0.024 C 
BRANCH   6   8
ATOM      8  C   UNL A   1      32.609  27.456  22.693  1.00  0.00     0.191 C 
ATOM      9  C   UNL A   1      33.790  28.195  22.046  1.00  0.00     0.076 C 
BRANCH   8  10
ATOM     10  N   UNL A   1      31.392  27.597  21.881  1.00  0.00    -0.341 N 
ATOM     11  H   UNL A   1      31.161  26.675  21.510  1.00  0.00     0.346 HD
ATOM     12  H   UNL A   1      31.625  28.299  21.178  1.00  0.00     0.346 HD
BRANCH  10  13
ATOM     13  C   UNL A   1      30.187  28.119  22.554  1.00  0.00     0.296 C 
BRANCH  13  14
ATOM     14  C   UNL A   1      29.732  29.604  22.391  1.00  0.00     0.113 C 
ATOM     15  C   UNL A   1      29.694  30.413  23.693  1.00  0.00     0.041 C 
ATOM     16  C   UNL A   1      28.363  29.764  21.720  1.00  0.00     0.041 C 
ATOM     17  C   UNL A   1      28.454  31.302  23.630  1.00  0.00     0.003 C 
ATOM     18  C   UNL A   1      27.752  31.031  22.307  1.00  0.00     0.003 C 
BRANCH  14  19
ATOM     19  O   UNL A   1      30.693  30.253  21.533  1.00  0.00    -0.384 OA
ATOM     20  H   UNL A   1      30.271  31.002  21.084  1.00  0.00     0.211 HD
ENDBRANCH  14  19
ENDBRANCH  13  14
ENDBRANCH  10  13
ENDBRANCH   8  10
ENDBRANCH   6   8
ENDBRANCH   3   6
ENDBRANCH   1   2
BRANCH   1  21
ATOM     21  C   UNL A   1      33.415  27.827  26.083  1.00  0.00     0.042 C 
BRANCH  21  22
ATOM     22  C   UNL A   1      33.396  28.426  27.475  1.00  0.00     0.118 C 
BRANCH  22  23
ATOM     23  N   UNL A   1      33.409  29.885  27.467  1.00  0.00    -0.352 N 
ATOM     24  C   UNL A   1      34.382  30.752  27.900  1.00  0.00     0.251 C 
ATOM     25  H   UNL A   1      32.601  30.309  27.097  1.00  0.00     0.163 HD
ATOM     26  O   UNL A   1      34.144  31.953  27.949  1.00  0.00    -0.269 OA
BRANCH  24  27
ATOM     27  C   UNL A   1      35.701  30.230  28.322  1.00  0.00     0.039 A 
ATOM     28  C   UNL A   1      36.781  30.329  27.441  1.00  0.00     0.014 A 
ATOM     29  C   UNL A   1      35.874  29.644  29.578  1.00  0.00     0.014 A 
ATOM     30  C   UNL A   1      38.039  29.875  27.841  1.00  0.00     0.010 A 
ATOM     31  C   UNL A   1      37.147  29.307  30.017  1.00  0.00     0.010 A 
ATOM     32  C   UNL A   1      38.237  29.380  29.141  1.00  0.00    -0.014 A 
BRANCH  32  33
ATOM     33  C   UNL A   1      39.562  28.877  29.582  1.00  0.00     0.031 A 
ATOM     34  C   UNL A   1      40.304  29.586  30.686  1.00  0.00     0.074 A 
ATOM     35  C   UNL A   1      40.124  27.825  28.955  1.00  0.00     0.049 A 
ATOM     36  N   UNL A   1      41.480  29.318  31.193  1.00  0.00    -0.248 NA
ATOM     37  C   UNL A   1      39.660  30.774  31.273  1.00  0.00     0.031 C 
ATOM     38  C   UNL A   1      39.550  27.113  27.813  1.00  0.00     0.029 A 
ATOM     39  N   UNL A   1      41.318  27.186  29.181  1.00  0.00    -0.354 N 
ATOM     40  C   UNL A   1      41.725  30.316  32.130  1.00  0.00     0.074 A 
ATOM     41  C   UNL A   1      40.607  31.231  32.075  1.00  0.00     0.031 C 
ATOM     42  C   UNL A   1      40.386  26.128  27.444  1.00  0.00     0.029 A 
ATOM     43  C   UNL A   1      41.565  26.157  28.304  1.00  0.00     0.049 A 
ATOM     44  H   UNL A   1      41.937  27.442  29.901  1.00  0.00     0.167 HD
ATOM     45  C   UNL A   1      42.762  30.443  32.989  1.00  0.00     0.034 A 
ATOM     46  C   UNL A   1      42.624  25.331  28.203  1.00  0.00     0.034 A 
ATOM     47  C   UNL A   1      43.854  29.511  33.066  1.00  0.00     0.049 A 
ATOM     48  C   UNL A   1      43.742  25.455  29.202  1.00  0.00     0.074 A 
ATOM     49  C   UNL A   1      44.921  29.505  33.946  1.00  0.00     0.029 A 
ATOM     50  N   UNL A   1      44.021  28.422  32.225  1.00  0.00    -0.354 N 
ATOM     51  N   UNL A   1      43.886  26.320  30.177  1.00  0.00    -0.248 NA
ATOM     52  C   UNL A   1      44.820  24.459  29.118  1.00  0.00     0.031 C 
ATOM     53  C   UNL A   1      45.748  28.424  33.619  1.00  0.00     0.029 A 
ATOM     54  C   UNL A   1      45.173  27.733  32.565  1.00  0.00     0.049 A 
ATOM     55  H   UNL A   1      43.410  28.174  31.494  1.00  0.00     0.167 HD
ATOM     56  C   UNL A   1      45.045  25.948  30.849  1.00  0.00     0.074 A 
ATOM     57  C   UNL A   1      45.554  24.769  30.178  1.00  0.00     0.031 C 
ATOM     58  C   UNL A   1      45.639  26.533  31.918  1.00  0.00     0.034 A 
BRANCH  45  59
ATOM     59  C   UNL A   1      42.731  31.605  33.950  1.00  0.00     0.023 A 
ATOM     60  C   UNL A   1      43.281  32.847  33.563  1.00  0.00     0.012 A 
ATOM     61  C   UNL A   1      42.136  31.483  35.221  1.00  0.00     0.148 A 
ATOM     62  C   UNL A   1      43.287  33.929  34.440  1.00  0.00     0.002 A 
ATOM     63  C   UNL A   1      42.098  32.583  36.070  1.00  0.00     0.091 A 
ATOM     64  F   UNL A   1      41.637  30.293  35.582  1.00  0.00    -0.205 F 
ATOM     65  C   UNL A   1      42.687  33.801  35.689  1.00  0.00     0.022 A 
BRANCH  63  66
ATOM     66  S   UNL A   1      41.273  32.548  37.665  1.00  0.00     0.127 S 
ATOM     67  O   UNL A   1      41.323  33.956  38.055  1.00  0.00    -0.237 OA
ATOM     68  O   UNL A   1      39.940  32.061  37.309  1.00  0.00    -0.237 OA
ATOM     69  O   UNL A   1      42.049  31.641  38.499  1.00  0.00    -0.744 OA
ENDBRANCH  63  66
ENDBRANCH  45  59
BRANCH  46  70
ATOM     70  C   UNL A   1      42.640  24.272  27.155  1.00  0.00     0.023 A 
ATOM     71  C   UNL A   1      43.312  24.502  25.939  1.00  0.00     0.012 A 
ATOM     72  C   UNL A   1      42.020  23.026  27.374  1.00  0.00     0.148 A 
ATOM     73  C   UNL A   1      43.336  23.524  24.945  1.00  0.00     0.002 A 
ATOM     74  C   UNL A   1      42.098  22.036  26.402  1.00  0.00     0.091 A 
ATOM     75  F   UNL A   1      41.383  22.831  28.536  1.00  0.00    -0.205 F 
ATOM     76  C   UNL A   1      42.738  22.288  25.180  1.00  0.00     0.022 A 
BRANCH  74  77
ATOM     77  S   UNL A   1      41.475  20.373  26.670  1.00  0.00     0.127 S 
ATOM     78  O   UNL A   1      40.046  20.615  26.847  1.00  0.00    -0.237 OA
ATOM     79  O   UNL A   1      41.839  19.713  25.416  1.00  0.00    -0.237 OA
ATOM     80  O   UNL A   1      42.180  19.871  27.842  1.00  0.00    -0.744 OA
ENDBRANCH  74  77
ENDBRANCH  46  70
BRANCH  58  81
ATOM     81  C   UNL A   1      46.874  25.876  32.477  1.00  0.00     0.023 A 
ATOM     82  C   UNL A   1      48.150  26.239  32.000  1.00  0.00     0.012 A 
ATOM     83  C   UNL A   1      46.769  24.935  33.520  1.00  0.00     0.148 A 
ATOM     84  C   UNL A   1      49.297  25.643  32.523  1.00  0.00     0.002 A 
ATOM     85  C   UNL A   1      47.919  24.387  34.074  1.00  0.00     0.091 A 
ATOM     86  F   UNL A   1      45.546  24.588  33.948  1.00  0.00    -0.205 F 
ATOM     87  C   UNL A   1      49.182  24.727  33.567  1.00  0.00     0.022 A 
BRANCH  85  88
ATOM     88  S   UNL A   1      47.867  23.280  35.488  1.00  0.00     0.127 S 
ATOM     89  O   UNL A   1      49.285  23.161  35.824  1.00  0.00    -0.237 OA
ATOM     90  O   UNL A   1      47.073  24.043  36.451  1.00  0.00    -0.237 OA
ATOM     91  O   UNL A   1      47.231  22.057  35.017  1.00  0.00    -0.744 OA
ENDBRANCH  85  88
ENDBRANCH  58  81
ENDBRANCH  32  33
ENDBRANCH  24  27
ENDBRANCH  22  23
ENDBRANCH  21  22
ENDBRANCH   1  21
TORSDOF 18
ENDMDL
MODEL 2
REMARK VINA RESULT:     -10.8      2.182      2.876
REMARK SMILES C[C@H](C(=O)NCCCNC(=O)c1ccc(-c2c3nc(c(-c4cccc(S(=O)(=O)[O-])c4F)c4ccc([nH]4)c(-c4cccc(S(=O)(=O)[O-])c4F)c4nc(c(-c5cccc(S(=O)(=O)[O-])c5F)c5ccc2[nH]5)C=C4)C=C3)cc1)[C@@H](C)[NH2+]CC1(O)CCCC1
REMARK SMILES IDX 6 1 5 2 3 3 4 4 2 6 1 7 75 8 76 9 77 10 78 13 79 14 81 15
REMARK SMILES IDX 84 16 82 17 83 18 80 19 7 21 8 22 9 23 10 24 11 26 12 27
REMARK SMILES IDX 13 28 74 29 14 30 73 31 15 32 16 33 17 34 67 35 18 36 72 37
REMARK SMILES IDX 66 38 68 39 19 40 71 41 65 42 64 43 20 45 52 46 32 47 51 48
REMARK SMILES IDX 33 49 36 50 50 51 69 52 34 53 35 54 49 56 70 57 37 58 21 59
REMARK SMILES IDX 22 60 30 61 23 62 25 63 31 64 24 65 26 66 27 67 28 68 29 69
REMARK SMILES IDX 53 70 54 71 62 72 55 73 57 74 63 75 56 76 58 77 59 78 60 79
REMARK SMILES IDX 61 80 38 81 39 82 47 83 40 84 42 85 48 86 41 87 43 88 44 89
REMARK SMILES IDX 45 90 46 91
REMARK H PARENT 5 5 77 11 77 12 80 20 9 25 68 44 36 55
REMARK Flexibility Score: inf
ROOT
ATOM      1  C   UNL A   1      34.196  28.211  23.503  1.00  0.00     0.117 C 
ENDROOT
BRANCH   1   2
ATOM      2  N   UNL A   1      33.812  27.487  22.301  1.00  0.00    -0.356 N 
ATOM      3  C   UNL A   1      33.164  26.323  22.046  1.00  0.00     0.228 C 
ATOM      4  O   UNL A   1      32.867  26.132  20.859  1.00  0.00    -0.275 OA
ATOM      5  H   UNL A   1      34.087  27.952  21.477  1.00  0.00     0.163 HD
BRANCH   3   6
ATOM      6  C   UNL A   1      32.835  25.231  23.075  1.00  0.00     0.133 C 
ATOM      7  C   UNL A   1      34.058  25.048  23.972  1.00  0.00     0.024 C 
BRANCH   6   8
ATOM      8  C   UNL A   1      31.497  25.364  23.837  1.00  0.00     0.191 C 
ATOM      9  C   UNL A   1      31.810  25.931  25.230  1.00  0.00     0.076 C 
BRANCH   8  10
ATOM     10  N   UNL A   1      30.530  26.215  23.129  1.00  0.00    -0.341 N 
ATOM     11  H   UNL A   1      29.712  25.643  22.921  1.00  0.00     0.346 HD
ATOM     12  H   UNL A   1      31.034  26.561  22.312  1.00  0.00     0.346 HD
BRANCH  10  13
ATOM     13  C   UNL A   1      30.059  27.427  23.826  1.00  0.00     0.296 C 
BRANCH  13  14
ATOM     14  C   UNL A   1      29.509  28.663  23.045  1.00  0.00     0.113 C 
ATOM     15  C   UNL A   1      29.832  30.021  23.680  1.00  0.00     0.041 C 
ATOM     16  C   UNL A   1      27.996  28.624  22.807  1.00  0.00     0.041 C 
ATOM     17  C   UNL A   1      28.592  30.897  23.512  1.00  0.00     0.003 C 
ATOM     18  C   UNL A   1      27.535  30.077  22.787  1.00  0.00     0.003 C 
BRANCH  14  19
ATOM     19  O   UNL A   1      30.134  28.659  21.745  1.00  0.00    -0.384 OA
ATOM     20  H   UNL A   1      30.884  29.274  21.745  1.00  0.00     0.211 HD
ENDBRANCH  14  19
ENDBRANCH  13  14
ENDBRANCH  10  13
ENDBRANCH   8  10
ENDBRANCH   6   8
ENDBRANCH   3   6
ENDBRANCH   1   2
BRANCH   1  21
ATOM     21  C   UNL A   1      33.140  29.191  23.971  1.00  0.00     0.042 C 
BRANCH  21  22
ATOM     22  C   UNL A   1      33.114  29.364  25.477  1.00  0.00     0.118 C 
BRANCH  22  23
ATOM     23  N   UNL A   1      32.681  30.694  25.889  1.00  0.00    -0.352 N 
ATOM     24  C   UNL A   1      33.157  31.495  26.899  1.00  0.00     0.251 C 
ATOM     25  H   UNL A   1      31.937  31.074  25.366  1.00  0.00     0.163 HD
ATOM     26  O   UNL A   1      32.559  32.524  27.188  1.00  0.00    -0.269 OA
BRANCH  24  27
ATOM     27  C   UNL A   1      34.374  31.099  27.641  1.00  0.00     0.039 A 
ATOM     28  C   UNL A   1      34.483  29.788  28.113  1.00  0.00     0.014 A 
ATOM     29  C   UNL A   1      35.404  32.013  27.876  1.00  0.00     0.014 A 
ATOM     30  C   UNL A   1      35.641  29.392  28.783  1.00  0.00     0.010 A 
ATOM     31  C   UNL A   1      36.601  31.584  28.431  1.00  0.00     0.010 A 
ATOM     32  C   UNL A   1      36.719  30.280  28.928  1.00  0.00    -0.014 A 
BRANCH  32  33
ATOM     33  C   UNL A   1      37.954  29.885  29.649  1.00  0.00     0.031 A 
ATOM     34  C   UNL A   1      38.226  30.429  31.028  1.00  0.00     0.074 A 
ATOM     35  C   UNL A   1      38.858  29.087  29.047  1.00  0.00     0.049 A 
ATOM     36  N   UNL A   1      39.257  30.225  31.808  1.00  0.00    -0.248 NA
ATOM     37  C   UNL A   1      37.229  31.355  31.593  1.00  0.00     0.031 C 
ATOM     38  C   UNL A   1      38.756  28.571  27.681  1.00  0.00     0.029 A 
ATOM     39  N   UNL A   1      40.053  28.589  29.502  1.00  0.00    -0.354 N 
ATOM     40  C   UNL A   1      39.046  31.015  32.931  1.00  0.00     0.074 A 
ATOM     41  C   UNL A   1      37.823  31.752  32.706  1.00  0.00     0.031 C 
ATOM     42  C   UNL A   1      39.837  27.820  27.413  1.00  0.00     0.029 A 
ATOM     43  C   UNL A   1      40.720  27.824  28.575  1.00  0.00     0.049 A 
ATOM     44  H   UNL A   1      40.399  28.764  30.407  1.00  0.00     0.167 HD
ATOM     45  C   UNL A   1      39.776  31.094  34.068  1.00  0.00     0.034 A 
ATOM     46  C   UNL A   1      41.911  27.199  28.653  1.00  0.00     0.034 A 
ATOM     47  C   UNL A   1      40.971  30.332  34.304  1.00  0.00     0.049 A 
ATOM     48  C   UNL A   1      42.680  27.256  29.944  1.00  0.00     0.074 A 
ATOM     49  C   UNL A   1      41.750  30.281  35.446  1.00  0.00     0.029 A 
ATOM     50  N   UNL A   1      41.565  29.490  33.377  1.00  0.00    -0.354 N 
ATOM     51  N   UNL A   1      42.390  27.895  31.051  1.00  0.00    -0.248 NA
ATOM     52  C   UNL A   1      43.917  26.465  30.014  1.00  0.00     0.031 C 
ATOM     53  C   UNL A   1      42.830  29.427  35.198  1.00  0.00     0.029 A 
ATOM     54  C   UNL A   1      42.700  28.913  33.919  1.00  0.00     0.049 A 
ATOM     55  H   UNL A   1      41.228  29.326  32.465  1.00  0.00     0.167 HD
ATOM     56  C   UNL A   1      43.382  27.551  31.962  1.00  0.00     0.074 A 
ATOM     57  C   UNL A   1      44.272  26.633  31.280  1.00  0.00     0.031 C 
ATOM     58  C   UNL A   1      43.548  27.963  33.243  1.00  0.00     0.034 A 
BRANCH  45  59
ATOM     59  C   UNL A   1      39.264  31.999  35.161  1.00  0.00     0.023 A 
ATOM     60  C   UNL A   1      39.436  33.396  35.048  1.00  0.00     0.012 A 
ATOM     61  C   UNL A   1      38.592  31.477  36.283  1.00  0.00     0.148 A 
ATOM     62  C   UNL A   1      38.995  34.252  36.056  1.00  0.00     0.002 A 
ATOM     63  C   UNL A   1      38.107  32.342  37.257  1.00  0.00     0.091 A 
ATOM     64  F   UNL A   1      38.455  30.148  36.386  1.00  0.00    -0.205 F 
ATOM     65  C   UNL A   1      38.322  33.727  37.154  1.00  0.00     0.022 A 
BRANCH  63  66
ATOM     66  S   UNL A   1      37.152  31.774  38.668  1.00  0.00     0.127 S 
ATOM     67  O   UNL A   1      36.896  30.380  38.311  1.00  0.00    -0.237 OA
ATOM     68  O   UNL A   1      38.096  31.958  39.771  1.00  0.00    -0.237 OA
ATOM     69  O   UNL A   1      35.975  32.630  38.728  1.00  0.00    -0.744 OA
ENDBRANCH  63  66
ENDBRANCH  45  59
BRANCH  46  70
ATOM     70  C   UNL A   1      42.410  26.411  27.491  1.00  0.00     0.023 A 
ATOM     71  C   UNL A   1      43.246  27.024  26.538  1.00  0.00     0.012 A 
ATOM     72  C   UNL A   1      42.086  25.048  27.346  1.00  0.00     0.148 A 
ATOM     73  C   UNL A   1      43.722  26.303  25.442  1.00  0.00     0.002 A 
ATOM     74  C   UNL A   1      42.610  24.322  26.284  1.00  0.00     0.091 A 
ATOM     75  F   UNL A   1      41.285  24.486  28.263  1.00  0.00    -0.205 F 
ATOM     76  C   UNL A   1      43.412  24.951  25.320  1.00  0.00     0.022 A 
BRANCH  74  77
ATOM     77  S   UNL A   1      42.375  22.549  26.121  1.00  0.00     0.127 S 
ATOM     78  O   UNL A   1      40.922  22.447  26.027  1.00  0.00    -0.237 OA
ATOM     79  O   UNL A   1      43.095  22.266  24.879  1.00  0.00    -0.237 OA
ATOM     80  O   UNL A   1      42.974  21.959  27.311  1.00  0.00    -0.744 OA
ENDBRANCH  74  77
ENDBRANCH  46  70
BRANCH  58  81
ATOM     81  C   UNL A   1      44.698  27.380  34.021  1.00  0.00     0.023 A 
ATOM     82  C   UNL A   1      45.956  28.016  34.014  1.00  0.00     0.012 A 
ATOM     83  C   UNL A   1      44.512  26.226  34.808  1.00  0.00     0.148 A 
ATOM     84  C   UNL A   1      47.021  27.486  34.743  1.00  0.00     0.002 A 
ATOM     85  C   UNL A   1      45.561  25.737  35.575  1.00  0.00     0.091 A 
ATOM     86  F   UNL A   1      43.313  25.624  34.787  1.00  0.00    -0.205 F 
ATOM     87  C   UNL A   1      46.820  26.356  35.532  1.00  0.00     0.022 A 
BRANCH  85  88
ATOM     88  S   UNL A   1      45.362  24.348  36.697  1.00  0.00     0.127 S 
ATOM     89  O   UNL A   1      46.713  24.208  37.239  1.00  0.00    -0.237 OA
ATOM     90  O   UNL A   1      44.373  24.857  37.648  1.00  0.00    -0.237 OA
ATOM     91  O   UNL A   1      44.896  23.236  35.880  1.00  0.00    -0.744 OA
ENDBRANCH  85  88
ENDBRANCH  58  81
ENDBRANCH  32  33
ENDBRANCH  24  27
ENDBRANCH  22  23
ENDBRANCH  21  22
ENDBRANCH   1  21
TORSDOF 18
ENDMDL
MODEL 3
REMARK VINA RESULT:     -10.8      5.136     10.204
REMARK SMILES C[C@H](C(=O)NCCCNC(=O)c1ccc(-c2c3nc(c(-c4cccc(S(=O)(=O)[O-])c4F)c4ccc([nH]4)c(-c4cccc(S(=O)(=O)[O-])c4F)c4nc(c(-c5cccc(S(=O)(=O)[O-])c5F)c5ccc2[nH]5)C=C4)C=C3)cc1)[C@@H](C)[NH2+]CC1(O)CCCC1
REMARK SMILES IDX 6 1 5 2 3 3 4 4 2 6 1 7 75 8 76 9 77 10 78 13 79 14 81 15
REMARK SMILES IDX 84 16 82 17 83 18 80 19 7 21 8 22 9 23 10 24 11 26 12 27
REMARK SMILES IDX 13 28 74 29 14 30 73 31 15 32 16 33 17 34 67 35 18 36 72 37
REMARK SMILES IDX 66 38 68 39 19 40 71 41 65 42 64 43 20 45 52 46 32 47 51 48
REMARK SMILES IDX 33 49 36 50 50 51 69 52 34 53 35 54 49 56 70 57 37 58 21 59
REMARK SMILES IDX 22 60 30 61 23 62 25 63 31 64 24 65 26 66 27 67 28 68 29 69
REMARK SMILES IDX 53 70 54 71 62 72 55 73 57 74 63 75 56 76 58 77 59 78 60 79
REMARK SMILES IDX 61 80 38 81 39 82 47 83 40 84 42 85 48 86 41 87 43 88 44 89
REMARK SMILES IDX 45 90 46 91
REMARK H PARENT 5 5 77 11 77 12 80 20 9 25 68 44 36 55
REMARK Flexibility Score: inf
ROOT
ATOM      1  C   UNL A   1      34.629  24.364  25.661  1.00  0.00     0.117 C 
ENDROOT
BRANCH   1   2
ATOM      2  N   UNL A   1      33.422  24.399  26.473  1.00  0.00    -0.356 N 
ATOM      3  C   UNL A   1      32.117  24.089  26.267  1.00  0.00     0.228 C 
ATOM      4  O   UNL A   1      31.408  24.086  27.283  1.00  0.00    -0.275 OA
ATOM      5  H   UNL A   1      33.592  24.724  27.387  1.00  0.00     0.163 HD
BRANCH   3   6
ATOM      6  C   UNL A   1      31.460  23.810  24.907  1.00  0.00     0.133 C 
ATOM      7  C   UNL A   1      31.790  24.979  23.979  1.00  0.00     0.024 C 
BRANCH   6   8
ATOM      8  C   UNL A   1      31.696  22.415  24.286  1.00  0.00     0.191 C 
ATOM      9  C   UNL A   1      32.723  22.577  23.156  1.00  0.00     0.076 C 
BRANCH   8  10
ATOM     10  N   UNL A   1      32.156  21.431  25.277  1.00  0.00    -0.341 N 
ATOM     11  H   UNL A   1      31.359  20.840  25.515  1.00  0.00     0.346 HD
ATOM     12  H   UNL A   1      32.527  21.987  26.047  1.00  0.00     0.346 HD
BRANCH  10  13
ATOM     13  C   UNL A   1      33.265  20.542  24.882  1.00  0.00     0.296 C 
BRANCH  13  14
ATOM     14  C   UNL A   1      33.036  19.030  24.566  1.00  0.00     0.113 C 
ATOM     15  C   UNL A   1      34.307  18.172  24.568  1.00  0.00     0.041 C 
ATOM     16  C   UNL A   1      32.320  18.775  23.235  1.00  0.00     0.041 C 
ATOM     17  C   UNL A   1      34.175  17.179  23.415  1.00  0.00     0.003 C 
ATOM     18  C   UNL A   1      32.843  17.437  22.726  1.00  0.00     0.003 C 
BRANCH  14  19
ATOM     19  O   UNL A   1      32.183  18.503  25.604  1.00  0.00    -0.384 OA
ATOM     20  H   UNL A   1      32.373  17.560  25.730  1.00  0.00     0.211 HD
ENDBRANCH  14  19
ENDBRANCH  13  14
ENDBRANCH  10  13
ENDBRANCH   8  10
ENDBRANCH   6   8
ENDBRANCH   3   6
ENDBRANCH   1   2
BRANCH   1  21
ATOM     21  C   UNL A   1      35.684  23.422  26.204  1.00  0.00     0.042 C 
BRANCH  21  22
ATOM     22  C   UNL A   1      36.964  23.431  25.392  1.00  0.00     0.118 C 
BRANCH  22  23
ATOM     23  N   UNL A   1      37.942  22.457  25.862  1.00  0.00    -0.352 N 
ATOM     24  C   UNL A   1      39.144  22.661  26.495  1.00  0.00     0.251 C 
ATOM     25  H   UNL A   1      37.705  21.514  25.701  1.00  0.00     0.163 HD
ATOM     26  O   UNL A   1      39.900  21.714  26.677  1.00  0.00    -0.269 OA
BRANCH  24  27
ATOM     27  C   UNL A   1      39.525  24.022  26.933  1.00  0.00     0.039 A 
ATOM     28  C   UNL A   1      39.403  24.358  28.283  1.00  0.00     0.014 A 
ATOM     29  C   UNL A   1      40.000  24.965  26.018  1.00  0.00     0.014 A 
ATOM     30  C   UNL A   1      39.794  25.626  28.715  1.00  0.00     0.010 A 
ATOM     31  C   UNL A   1      40.502  26.178  26.469  1.00  0.00     0.010 A 
ATOM     32  C   UNL A   1      40.367  26.539  27.815  1.00  0.00    -0.014 A 
BRANCH  32  33
ATOM     33  C   UNL A   1      40.777  27.898  28.250  1.00  0.00     0.031 A 
ATOM     34  C   UNL A   1      42.235  28.277  28.256  1.00  0.00     0.074 A 
ATOM     35  C   UNL A   1      39.849  28.769  28.693  1.00  0.00     0.049 A 
ATOM     36  N   UNL A   1      42.794  29.401  28.624  1.00  0.00    -0.248 NA
ATOM     37  C   UNL A   1      43.198  27.247  27.828  1.00  0.00     0.031 C 
ATOM     38  C   UNL A   1      38.418  28.491  28.825  1.00  0.00     0.029 A 
ATOM     39  N   UNL A   1      39.979  30.062  29.137  1.00  0.00    -0.354 N 
ATOM     40  C   UNL A   1      44.164  29.201  28.502  1.00  0.00     0.074 A 
ATOM     41  C   UNL A   1      44.357  27.830  28.089  1.00  0.00     0.031 C 
ATOM     42  C   UNL A   1      37.801  29.583  29.304  1.00  0.00     0.029 A 
ATOM     43  C   UNL A   1      38.793  30.627  29.540  1.00  0.00     0.049 A 
ATOM     44  H   UNL A   1      40.840  30.538  29.163  1.00  0.00     0.167 HD
ATOM     45  C   UNL A   1      45.174  30.086  28.676  1.00  0.00     0.034 A 
ATOM     46  C   UNL A   1      38.535  31.848  30.047  1.00  0.00     0.034 A 
ATOM     47  C   UNL A   1      44.976  31.459  29.051  1.00  0.00     0.049 A 
ATOM     48  C   UNL A   1      39.664  32.834  30.181  1.00  0.00     0.074 A 
ATOM     49  C   UNL A   1      45.922  32.460  29.187  1.00  0.00     0.029 A 
ATOM     50  N   UNL A   1      43.748  32.024  29.358  1.00  0.00    -0.354 N 
ATOM     51  N   UNL A   1      40.938  32.670  29.922  1.00  0.00    -0.248 NA
ATOM     52  C   UNL A   1      39.311  34.187  30.633  1.00  0.00     0.031 C 
ATOM     53  C   UNL A   1      45.266  33.625  29.601  1.00  0.00     0.029 A 
ATOM     54  C   UNL A   1      43.908  33.361  29.681  1.00  0.00     0.049 A 
ATOM     55  H   UNL A   1      42.887  31.545  29.346  1.00  0.00     0.167 HD
ATOM     56  C   UNL A   1      41.533  33.909  30.135  1.00  0.00     0.074 A 
ATOM     57  C   UNL A   1      40.474  34.816  30.530  1.00  0.00     0.031 C 
ATOM     58  C   UNL A   1      42.838  34.262  30.024  1.00  0.00     0.034 A 
BRANCH  45  59
ATOM     59  C   UNL A   1      46.576  29.602  28.406  1.00  0.00     0.023 A 
ATOM     60  C   UNL A   1      47.132  29.753  27.116  1.00  0.00     0.012 A 
ATOM     61  C   UNL A   1      47.355  29.023  29.427  1.00  0.00     0.148 A 
ATOM     62  C   UNL A   1      48.416  29.291  26.834  1.00  0.00     0.002 A 
ATOM     63  C   UNL A   1      48.655  28.614  29.150  1.00  0.00     0.091 A 
ATOM     64  F   UNL A   1      46.807  28.867  30.639  1.00  0.00    -0.205 F 
ATOM     65  C   UNL A   1      49.181  28.731  27.853  1.00  0.00     0.022 A 
BRANCH  63  66
ATOM     66  S   UNL A   1      49.753  27.960  30.412  1.00  0.00     0.127 S 
ATOM     67  O   UNL A   1      51.064  28.156  29.794  1.00  0.00    -0.237 OA
ATOM     68  O   UNL A   1      49.477  28.842  31.546  1.00  0.00    -0.237 OA
ATOM     69  O   UNL A   1      49.357  26.573  30.610  1.00  0.00    -0.744 OA
ENDBRANCH  63  66
ENDBRANCH  45  59
BRANCH  46  70
ATOM     70  C   UNL A   1      37.137  32.223  30.398  1.00  0.00     0.023 A 
ATOM     71  C   UNL A   1      36.659  31.999  31.705  1.00  0.00     0.012 A 
ATOM     72  C   UNL A   1      36.290  32.833  29.452  1.00  0.00     0.148 A 
ATOM     73  C   UNL A   1      35.353  32.342  32.052  1.00  0.00     0.002 A 
ATOM     74  C   UNL A   1      35.009  33.224  29.822  1.00  0.00     0.091 A 
ATOM     75  F   UNL A   1      36.763  33.033  28.214  1.00  0.00    -0.205 F 
ATOM     76  C   UNL A   1      34.531  32.962  31.114  1.00  0.00     0.022 A 
BRANCH  74  77
ATOM     77  S   UNL A   1      33.930  34.148  28.723  1.00  0.00     0.127 S 
ATOM     78  O   UNL A   1      33.531  33.123  27.763  1.00  0.00    -0.237 OA
ATOM     79  O   UNL A   1      32.873  34.582  29.638  1.00  0.00    -0.237 OA
ATOM     80  O   UNL A   1      34.744  35.232  28.189  1.00  0.00    -0.744 OA
ENDBRANCH  74  77
ENDBRANCH  46  70
BRANCH  58  81
ATOM     81  C   UNL A   1      43.194  35.704  30.270  1.00  0.00     0.023 A 
ATOM     82  C   UNL A   1      43.691  36.111  31.524  1.00  0.00     0.012 A 
ATOM     83  C   UNL A   1      43.086  36.650  29.230  1.00  0.00     0.148 A 
ATOM     84  C   UNL A   1      44.034  37.443  31.752  1.00  0.00     0.002 A 
ATOM     85  C   UNL A   1      43.483  37.963  29.448  1.00  0.00     0.091 A 
ATOM     86  F   UNL A   1      42.594  36.249  28.049  1.00  0.00    -0.205 F 
ATOM     87  C   UNL A   1      43.941  38.365  30.711  1.00  0.00     0.022 A 
BRANCH  85  88
ATOM     88  S   UNL A   1      43.494  39.191  28.136  1.00  0.00     0.127 S 
ATOM     89  O   UNL A   1      44.190  38.477  27.067  1.00  0.00    -0.237 OA
ATOM     90  O   UNL A   1      42.065  39.403  27.899  1.00  0.00    -0.237 OA
ATOM     91  O   UNL A   1      44.194  40.349  28.676  1.00  0.00    -0.744 OA
ENDBRANCH  85  88
ENDBRANCH  58  81
ENDBRANCH  32  33
ENDBRANCH  24  27
ENDBRANCH  22  23
ENDBRANCH  21  22
ENDBRANCH   1  21
TORSDOF 18
ENDMDL
