MODEL 1
REMARK VINA RESULT:     -13.5      0.000      0.000
REMARK SMILES Cc1cc(C(=O)NCCCNC(=O)c2ccc(-c3c4nc(c(-c5cccc(S(=O)(=O)[O-])c5F)c5ccc([nH]5)c(-c5cccc(S(=O)(=O)[O-])c5F)c5nc(c(-c6cccc(S(=O)(=O)[O-])c6F)c6ccc3[nH]6)C=C5)C=C4)cc2)c(O)c(S(=O)(=O)N2CCCc3cc(F)cc(F)c32)c1
REMARK SMILES IDX 9 1 8 2 7 3 5 4 6 5 4 7 1 8 2 9 3 10 95 11 79 12 77 13 80 14
REMARK SMILES IDX 81 15 82 16 83 17 84 18 94 19 85 20 87 21 92 22 86 23 88 24
REMARK SMILES IDX 91 25 93 26 89 27 90 28 78 29 10 31 11 32 12 33 13 35 14 36
REMARK SMILES IDX 15 37 76 38 16 39 75 40 17 41 18 42 19 43 69 44 20 45 74 46
REMARK SMILES IDX 68 47 70 48 21 49 73 50 67 51 66 52 22 54 54 55 34 56 53 57
REMARK SMILES IDX 35 58 38 59 52 60 71 61 36 62 37 63 51 65 72 66 39 67 23 68
REMARK SMILES IDX 24 69 32 70 25 71 27 72 33 73 26 74 28 75 29 76 30 77 31 78
REMARK SMILES IDX 55 79 56 80 64 81 57 82 59 83 65 84 58 85 60 86 61 87 62 88
REMARK SMILES IDX 63 89 40 90 41 91 49 92 42 93 44 94 50 95 43 96 45 97 46 98
REMARK SMILES IDX 47 99 48 100
REMARK H PARENT 7 6 78 30 11 34 70 53 38 64
REMARK Flexibility Score: inf
ROOT
ATOM      1  C   UNL A   1      33.198  28.124  26.985  1.00  0.00     0.042 C 
ENDROOT
BRANCH   1   2
ATOM      2  C   UNL A   1      31.687  28.373  27.082  1.00  0.00     0.118 C 
BRANCH   2   3
ATOM      3  N   UNL A   1      31.008  28.208  25.796  1.00  0.00    -0.352 N 
ATOM      4  C   UNL A   1      30.714  27.101  25.021  1.00  0.00     0.255 C 
ATOM      5  O   UNL A   1      30.036  27.286  24.007  1.00  0.00    -0.269 OA
ATOM      6  H   UNL A   1      30.698  29.055  25.402  1.00  0.00     0.163 HD
BRANCH   4   7
ATOM      7  C   UNL A   1      31.069  25.694  25.385  1.00  0.00     0.083 A 
ATOM      8  C   UNL A   1      29.390  22.832  27.239  1.00  0.00     0.044 C 
ATOM      9  C   UNL A   1      30.478  23.644  26.598  1.00  0.00    -0.049 A 
ATOM     10  C   UNL A   1      30.164  24.946  26.148  1.00  0.00     0.021 A 
ATOM     11  C   UNL A   1      31.788  23.158  26.450  1.00  0.00     0.029 A 
ATOM     12  C   UNL A   1      32.669  23.887  25.660  1.00  0.00     0.130 A 
ATOM     13  C   UNL A   1      32.231  25.049  24.995  1.00  0.00     0.148 A 
BRANCH  12  14
ATOM     14  S   UNL A   1      34.425  23.708  25.686  1.00  0.00     0.268 S 
ATOM     15  O   UNL A   1      34.906  25.058  25.864  1.00  0.00    -0.201 OA
ATOM     16  O   UNL A   1      34.676  22.713  26.726  1.00  0.00    -0.201 OA
BRANCH  14  17
ATOM     17  N   UNL A   1      35.143  23.121  24.200  1.00  0.00    -0.263 N 
ATOM     18  C   UNL A   1      36.636  23.146  24.136  1.00  0.00     0.136 C 
ATOM     19  C   UNL A   1      34.552  21.771  24.023  1.00  0.00     0.091 A 
ATOM     20  C   UNL A   1      37.301  21.770  24.210  1.00  0.00     0.028 C 
ATOM     21  C   UNL A   1      35.140  20.722  24.762  1.00  0.00    -0.018 A 
ATOM     22  C   UNL A   1      33.216  21.650  23.610  1.00  0.00     0.150 A 
ATOM     23  C   UNL A   1      36.585  20.827  25.169  1.00  0.00     0.040 C 
ATOM     24  C   UNL A   1      34.329  19.691  25.250  1.00  0.00     0.045 A 
ATOM     25  C   UNL A   1      32.424  20.598  24.056  1.00  0.00     0.080 A 
ATOM     26  F   UNL A   1      32.653  22.612  22.863  1.00  0.00    -0.205 F 
ATOM     27  C   UNL A   1      32.976  19.660  24.919  1.00  0.00     0.126 A 
ATOM     28  F   UNL A   1      32.186  18.726  25.465  1.00  0.00    -0.207 F 
ENDBRANCH  14  17
ENDBRANCH  12  14
BRANCH  13  29
ATOM     29  O   UNL A   1      32.867  25.523  23.884  1.00  0.00    -0.506 OA
ATOM     30  H   UNL A   1      32.677  26.384  23.567  1.00  0.00     0.293 HD
ENDBRANCH  13  29
ENDBRANCH   4   7
ENDBRANCH   2   3
ENDBRANCH   1   2
BRANCH   1  31
ATOM     31  C   UNL A   1      33.976  29.148  26.172  1.00  0.00     0.118 C 
BRANCH  31  32
ATOM     32  N   UNL A   1      33.884  30.490  26.723  1.00  0.00    -0.352 N 
ATOM     33  C   UNL A   1      34.633  31.099  27.702  1.00  0.00     0.251 C 
ATOM     34  H   UNL A   1      33.173  31.050  26.337  1.00  0.00     0.163 HD
ATOM     35  O   UNL A   1      34.267  32.190  28.138  1.00  0.00    -0.269 OA
BRANCH  33  36
ATOM     36  C   UNL A   1      35.862  30.469  28.250  1.00  0.00     0.039 A 
ATOM     37  C   UNL A   1      37.072  30.664  27.573  1.00  0.00     0.014 A 
ATOM     38  C   UNL A   1      35.832  29.645  29.378  1.00  0.00     0.014 A 
ATOM     39  C   UNL A   1      38.249  30.074  28.049  1.00  0.00     0.010 A 
ATOM     40  C   UNL A   1      37.017  29.116  29.893  1.00  0.00     0.010 A 
ATOM     41  C   UNL A   1      38.236  29.313  29.228  1.00  0.00    -0.014 A 
BRANCH  41  42
ATOM     42  C   UNL A   1      39.484  28.714  29.776  1.00  0.00     0.031 A 
ATOM     43  C   UNL A   1      40.148  29.312  30.988  1.00  0.00     0.074 A 
ATOM     44  C   UNL A   1      40.067  27.683  29.133  1.00  0.00     0.049 A 
ATOM     45  N   UNL A   1      41.267  28.967  31.572  1.00  0.00    -0.248 NA
ATOM     46  C   UNL A   1      39.480  30.466  31.614  1.00  0.00     0.031 C 
ATOM     47  C   UNL A   1      39.565  27.061  27.906  1.00  0.00     0.029 A 
ATOM     48  N   UNL A   1      41.225  26.995  29.403  1.00  0.00    -0.354 N 
ATOM     49  C   UNL A   1      41.458  29.879  32.603  1.00  0.00     0.074 A 
ATOM     50  C   UNL A   1      40.353  30.812  32.550  1.00  0.00     0.031 C 
ATOM     51  C   UNL A   1      40.410  26.087  27.529  1.00  0.00     0.029 A 
ATOM     52  C   UNL A   1      41.525  26.032  28.469  1.00  0.00     0.049 A 
ATOM     53  H   UNL A   1      41.786  27.175  30.192  1.00  0.00     0.167 HD
ATOM     54  C   UNL A   1      42.447  29.923  33.529  1.00  0.00     0.034 A 
ATOM     55  C   UNL A   1      42.582  25.199  28.373  1.00  0.00     0.034 A 
ATOM     56  C   UNL A   1      43.517  28.966  33.611  1.00  0.00     0.049 A 
ATOM     57  C   UNL A   1      43.640  25.235  29.444  1.00  0.00     0.074 A 
ATOM     58  C   UNL A   1      44.514  28.868  34.567  1.00  0.00     0.029 A 
ATOM     59  N   UNL A   1      43.734  27.941  32.702  1.00  0.00    -0.354 N 
ATOM     60  N   UNL A   1      43.714  26.002  30.505  1.00  0.00    -0.248 NA
ATOM     61  C   UNL A   1      44.739  24.266  29.327  1.00  0.00     0.031 C 
ATOM     62  C   UNL A   1      45.344  27.795  34.225  1.00  0.00     0.029 A 
ATOM     63  C   UNL A   1      44.852  27.212  33.068  1.00  0.00     0.049 A 
ATOM     64  H   UNL A   1      43.176  27.760  31.912  1.00  0.00     0.167 HD
ATOM     65  C   UNL A   1      44.845  25.585  31.199  1.00  0.00     0.074 A 
ATOM     66  C   UNL A   1      45.413  24.484  30.449  1.00  0.00     0.031 C 
ATOM     67  C   UNL A   1      45.375  26.082  32.344  1.00  0.00     0.034 A 
BRANCH  54  68
ATOM     68  C   UNL A   1      42.387  31.012  34.570  1.00  0.00     0.023 A 
ATOM     69  C   UNL A   1      41.740  30.761  35.798  1.00  0.00     0.012 A 
ATOM     70  C   UNL A   1      43.018  32.254  34.364  1.00  0.00     0.148 A 
ATOM     71  C   UNL A   1      41.691  31.741  36.790  1.00  0.00     0.002 A 
ATOM     72  C   UNL A   1      43.004  33.210  35.374  1.00  0.00     0.091 A 
ATOM     73  F   UNL A   1      43.612  32.483  33.184  1.00  0.00    -0.205 F 
ATOM     74  C   UNL A   1      42.332  32.959  36.583  1.00  0.00     0.022 A 
BRANCH  72  75
ATOM     75  S   UNL A   1      43.865  34.780  35.236  1.00  0.00     0.127 S 
ATOM     76  O   UNL A   1      43.621  35.368  36.552  1.00  0.00    -0.237 OA
ATOM     77  O   UNL A   1      45.248  34.357  35.007  1.00  0.00    -0.237 OA
ATOM     78  O   UNL A   1      43.252  35.477  34.114  1.00  0.00    -0.744 OA
ENDBRANCH  72  75
ENDBRANCH  54  68
BRANCH  55  79
ATOM     79  C   UNL A   1      42.650  24.211  27.259  1.00  0.00     0.023 A 
ATOM     80  C   UNL A   1      43.373  24.535  26.094  1.00  0.00     0.012 A 
ATOM     81  C   UNL A   1      42.041  22.945  27.359  1.00  0.00     0.148 A 
ATOM     82  C   UNL A   1      43.462  23.630  25.036  1.00  0.00     0.002 A 
ATOM     83  C   UNL A   1      42.181  22.026  26.325  1.00  0.00     0.091 A 
ATOM     84  F   UNL A   1      41.347  22.659  28.469  1.00  0.00    -0.205 F 
ATOM     85  C   UNL A   1      42.876  22.372  25.155  1.00  0.00     0.022 A 
BRANCH  83  86
ATOM     86  S   UNL A   1      41.579  20.337  26.448  1.00  0.00     0.127 S 
ATOM     87  O   UNL A   1      40.137  20.521  26.302  1.00  0.00    -0.237 OA
ATOM     88  O   UNL A   1      42.236  19.695  25.309  1.00  0.00    -0.237 OA
ATOM     89  O   UNL A   1      42.030  19.853  27.746  1.00  0.00    -0.744 OA
ENDBRANCH  83  86
ENDBRANCH  55  79
BRANCH  67  90
ATOM     90  C   UNL A   1      46.617  25.422  32.883  1.00  0.00     0.023 A 
ATOM     91  C   UNL A   1      47.886  25.904  32.502  1.00  0.00     0.012 A 
ATOM     92  C   UNL A   1      46.529  24.380  33.826  1.00  0.00     0.148 A 
ATOM     93  C   UNL A   1      49.046  25.338  33.027  1.00  0.00     0.002 A 
ATOM     94  C   UNL A   1      47.688  23.852  34.381  1.00  0.00     0.091 A 
ATOM     95  F   UNL A   1      45.314  23.922  34.162  1.00  0.00    -0.205 F 
ATOM     96  C   UNL A   1      48.948  24.322  33.975  1.00  0.00     0.022 A 
BRANCH  94  97
ATOM     97  S   UNL A   1      47.654  22.607  35.677  1.00  0.00     0.127 S 
ATOM     98  O   UNL A   1      49.072  22.480  36.006  1.00  0.00    -0.237 OA
ATOM     99  O   UNL A   1      46.843  23.253  36.709  1.00  0.00    -0.237 OA
ATOM    100  O   UNL A   1      47.041  21.427  35.080  1.00  0.00    -0.744 OA
ENDBRANCH  94  97
ENDBRANCH  67  90
ENDBRANCH  41  42
ENDBRANCH  33  36
ENDBRANCH  31  32
ENDBRANCH   1  31
TORSDOF 16
ENDMDL
MODEL 2
REMARK VINA RESULT:     -13.5      2.683      3.386
REMARK SMILES Cc1cc(C(=O)NCCCNC(=O)c2ccc(-c3c4nc(c(-c5cccc(S(=O)(=O)[O-])c5F)c5ccc([nH]5)c(-c5cccc(S(=O)(=O)[O-])c5F)c5nc(c(-c6cccc(S(=O)(=O)[O-])c6F)c6ccc3[nH]6)C=C5)C=C4)cc2)c(O)c(S(=O)(=O)N2CCCc3cc(F)cc(F)c32)c1
REMARK SMILES IDX 9 1 8 2 7 3 5 4 6 5 4 7 1 8 2 9 3 10 95 11 79 12 77 13 80 14
REMARK SMILES IDX 81 15 82 16 83 17 84 18 94 19 85 20 87 21 92 22 86 23 88 24
REMARK SMILES IDX 91 25 93 26 89 27 90 28 78 29 10 31 11 32 12 33 13 35 14 36
REMARK SMILES IDX 15 37 76 38 16 39 75 40 17 41 18 42 19 43 69 44 20 45 74 46
REMARK SMILES IDX 68 47 70 48 21 49 73 50 67 51 66 52 22 54 54 55 34 56 53 57
REMARK SMILES IDX 35 58 38 59 52 60 71 61 36 62 37 63 51 65 72 66 39 67 23 68
REMARK SMILES IDX 24 69 32 70 25 71 27 72 33 73 26 74 28 75 29 76 30 77 31 78
REMARK SMILES IDX 55 79 56 80 64 81 57 82 59 83 65 84 58 85 60 86 61 87 62 88
REMARK SMILES IDX 63 89 40 90 41 91 49 92 42 93 44 94 50 95 43 96 45 97 46 98
REMARK SMILES IDX 47 99 48 100
REMARK H PARENT 7 6 78 30 11 34 70 53 38 64
REMARK Flexibility Score: inf
ROOT
ATOM      1  C   UNL A   1      32.504  29.863  25.475  1.00  0.00     0.042 C 
ENDROOT
BRANCH   1   2
ATOM      2  C   UNL A   1      33.645  28.872  25.204  1.00  0.00     0.118 C 
BRANCH   2   3
ATOM      3  N   UNL A   1      33.997  28.798  23.785  1.00  0.00    -0.352 N 
ATOM      4  C   UNL A   1      33.606  27.957  22.760  1.00  0.00     0.255 C 
ATOM      5  O   UNL A   1      34.023  28.215  21.628  1.00  0.00    -0.269 OA
ATOM      6  H   UNL A   1      34.643  29.485  23.504  1.00  0.00     0.163 HD
BRANCH   4   7
ATOM      7  C   UNL A   1      32.633  26.831  22.912  1.00  0.00     0.083 A 
ATOM      8  C   UNL A   1      28.972  26.477  23.873  1.00  0.00     0.044 C 
ATOM      9  C   UNL A   1      30.396  26.089  23.597  1.00  0.00    -0.049 A 
ATOM     10  C   UNL A   1      31.334  27.116  23.349  1.00  0.00     0.021 A 
ATOM     11  C   UNL A   1      30.822  24.750  23.598  1.00  0.00     0.029 A 
ATOM     12  C   UNL A   1      32.099  24.471  23.127  1.00  0.00     0.130 A 
ATOM     13  C   UNL A   1      32.911  25.505  22.623  1.00  0.00     0.148 A 
BRANCH  12  14
ATOM     14  S   UNL A   1      32.976  22.969  23.431  1.00  0.00     0.268 S 
ATOM     15  O   UNL A   1      32.432  22.051  22.458  1.00  0.00    -0.201 OA
ATOM     16  O   UNL A   1      34.385  23.346  23.354  1.00  0.00    -0.201 OA
BRANCH  14  17
ATOM     17  N   UNL A   1      32.702  22.243  25.001  1.00  0.00    -0.263 N 
ATOM     18  C   UNL A   1      31.835  21.026  25.021  1.00  0.00     0.136 C 
ATOM     19  C   UNL A   1      34.067  22.023  25.540  1.00  0.00     0.091 A 
ATOM     20  C   UNL A   1      32.579  19.717  25.294  1.00  0.00     0.028 C 
ATOM     21  C   UNL A   1      34.747  20.871  25.087  1.00  0.00    -0.018 A 
ATOM     22  C   UNL A   1      34.813  23.118  26.002  1.00  0.00     0.150 A 
ATOM     23  C   UNL A   1      33.951  19.677  24.633  1.00  0.00     0.040 C 
ATOM     24  C   UNL A   1      36.134  20.922  24.906  1.00  0.00     0.045 A 
ATOM     25  C   UNL A   1      36.197  23.147  25.866  1.00  0.00     0.080 A 
ATOM     26  F   UNL A   1      34.188  24.203  26.484  1.00  0.00    -0.205 F 
ATOM     27  C   UNL A   1      36.836  22.070  25.266  1.00  0.00     0.126 A 
ATOM     28  F   UNL A   1      38.146  22.149  25.003  1.00  0.00    -0.207 F 
ENDBRANCH  14  17
ENDBRANCH  12  14
BRANCH  13  29
ATOM     29  O   UNL A   1      33.931  25.256  21.751  1.00  0.00    -0.506 OA
ATOM     30  H   UNL A   1      33.917  24.484  21.220  1.00  0.00     0.293 HD
ENDBRANCH  13  29
ENDBRANCH   4   7
ENDBRANCH   2   3
ENDBRANCH   1   2
BRANCH   1  31
ATOM     31  C   UNL A   1      32.450  30.421  26.890  1.00  0.00     0.118 C 
BRANCH  31  32
ATOM     32  N   UNL A   1      32.625  31.864  26.930  1.00  0.00    -0.352 N 
ATOM     33  C   UNL A   1      33.580  32.623  27.567  1.00  0.00     0.251 C 
ATOM     34  H   UNL A   1      31.956  32.379  26.425  1.00  0.00     0.163 HD
ATOM     35  O   UNL A   1      33.435  33.844  27.610  1.00  0.00    -0.269 OA
BRANCH  33  36
ATOM     36  C   UNL A   1      34.769  32.004  28.208  1.00  0.00     0.039 A 
ATOM     37  C   UNL A   1      35.954  32.747  28.275  1.00  0.00     0.014 A 
ATOM     38  C   UNL A   1      34.752  30.691  28.687  1.00  0.00     0.014 A 
ATOM     39  C   UNL A   1      37.100  32.193  28.857  1.00  0.00     0.010 A 
ATOM     40  C   UNL A   1      35.874  30.166  29.332  1.00  0.00     0.010 A 
ATOM     41  C   UNL A   1      37.064  30.904  29.413  1.00  0.00    -0.014 A 
BRANCH  41  42
ATOM     42  C   UNL A   1      38.258  30.314  30.077  1.00  0.00     0.031 A 
ATOM     43  C   UNL A   1      38.674  30.776  31.448  1.00  0.00     0.074 A 
ATOM     44  C   UNL A   1      39.018  29.422  29.411  1.00  0.00     0.049 A 
ATOM     45  N   UNL A   1      39.715  30.423  32.159  1.00  0.00    -0.248 NA
ATOM     46  C   UNL A   1      37.823  31.786  32.099  1.00  0.00     0.031 C 
ATOM     47  C   UNL A   1      38.766  28.949  28.049  1.00  0.00     0.029 A 
ATOM     48  N   UNL A   1      40.174  28.777  29.777  1.00  0.00    -0.354 N 
ATOM     49  C   UNL A   1      39.667  31.191  33.316  1.00  0.00     0.074 A 
ATOM     50  C   UNL A   1      38.509  32.051  33.202  1.00  0.00     0.031 C 
ATOM     51  C   UNL A   1      39.737  28.092  27.693  1.00  0.00     0.029 A 
ATOM     52  C   UNL A   1      40.695  27.975  28.788  1.00  0.00     0.049 A 
ATOM     53  H   UNL A   1      40.590  28.878  30.663  1.00  0.00     0.167 HD
ATOM     54  C   UNL A   1      40.494  31.167  34.389  1.00  0.00     0.034 A 
ATOM     55  C   UNL A   1      41.821  27.232  28.761  1.00  0.00     0.034 A 
ATOM     56  C   UNL A   1      41.615  30.276  34.522  1.00  0.00     0.049 A 
ATOM     57  C   UNL A   1      42.694  27.183  29.987  1.00  0.00     0.074 A 
ATOM     58  C   UNL A   1      42.458  30.107  35.608  1.00  0.00     0.029 A 
ATOM     59  N   UNL A   1      42.056  29.405  33.537  1.00  0.00    -0.354 N 
ATOM     60  N   UNL A   1      42.539  27.796  31.135  1.00  0.00    -0.248 NA
ATOM     61  C   UNL A   1      43.875  26.311  29.928  1.00  0.00     0.031 C 
ATOM     62  C   UNL A   1      43.418  29.148  35.272  1.00  0.00     0.029 A 
ATOM     63  C   UNL A   1      43.162  28.702  33.985  1.00  0.00     0.049 A 
ATOM     64  H   UNL A   1      41.643  29.302  32.649  1.00  0.00     0.167 HD
ATOM     65  C   UNL A   1      43.580  27.358  31.946  1.00  0.00     0.074 A 
ATOM     66  C   UNL A   1      44.347  26.411  31.164  1.00  0.00     0.031 C 
ATOM     67  C   UNL A   1      43.883  27.721  33.217  1.00  0.00     0.034 A 
BRANCH  54  68
ATOM     68  C   UNL A   1      40.183  32.092  35.538  1.00  0.00     0.023 A 
ATOM     69  C   UNL A   1      40.946  33.266  35.708  1.00  0.00     0.012 A 
ATOM     70  C   UNL A   1      39.105  31.838  36.408  1.00  0.00     0.148 A 
ATOM     71  C   UNL A   1      40.664  34.154  36.746  1.00  0.00     0.002 A 
ATOM     72  C   UNL A   1      38.802  32.750  37.414  1.00  0.00     0.091 A 
ATOM     73  F   UNL A   1      38.402  30.709  36.244  1.00  0.00    -0.205 F 
ATOM     74  C   UNL A   1      39.587  33.902  37.591  1.00  0.00     0.022 A 
BRANCH  72  75
ATOM     75  S   UNL A   1      37.389  32.556  38.505  1.00  0.00     0.127 S 
ATOM     76  O   UNL A   1      37.763  33.413  39.629  1.00  0.00    -0.237 OA
ATOM     77  O   UNL A   1      36.291  33.072  37.686  1.00  0.00    -0.237 OA
ATOM     78  O   UNL A   1      37.304  31.133  38.803  1.00  0.00    -0.744 OA
ENDBRANCH  72  75
ENDBRANCH  54  68
BRANCH  55  79
ATOM     79  C   UNL A   1      42.143  26.416  27.556  1.00  0.00     0.023 A 
ATOM     80  C   UNL A   1      42.750  27.037  26.446  1.00  0.00     0.012 A 
ATOM     81  C   UNL A   1      41.889  25.032  27.513  1.00  0.00     0.148 A 
ATOM     82  C   UNL A   1      43.071  26.300  25.306  1.00  0.00     0.002 A 
ATOM     83  C   UNL A   1      42.263  24.293  26.396  1.00  0.00     0.091 A 
ATOM     84  F   UNL A   1      41.299  24.460  28.573  1.00  0.00    -0.205 F 
ATOM     85  C   UNL A   1      42.838  24.928  25.284  1.00  0.00     0.022 A 
BRANCH  83  86
ATOM     86  S   UNL A   1      42.127  22.502  26.335  1.00  0.00     0.127 S 
ATOM     87  O   UNL A   1      40.686  22.305  26.473  1.00  0.00    -0.237 OA
ATOM     88  O   UNL A   1      42.665  22.200  25.008  1.00  0.00    -0.237 OA
ATOM     89  O   UNL A   1      42.944  22.009  27.436  1.00  0.00    -0.744 OA
ENDBRANCH  83  86
ENDBRANCH  55  79
BRANCH  67  90
ATOM     90  C   UNL A   1      45.079  27.071  33.863  1.00  0.00     0.023 A 
ATOM     91  C   UNL A   1      46.323  27.733  33.855  1.00  0.00     0.012 A 
ATOM     92  C   UNL A   1      44.952  25.845  34.546  1.00  0.00     0.148 A 
ATOM     93  C   UNL A   1      47.429  27.170  34.490  1.00  0.00     0.002 A 
ATOM     94  C   UNL A   1      46.046  25.313  35.216  1.00  0.00     0.091 A 
ATOM     95  F   UNL A   1      43.765  25.222  34.526  1.00  0.00    -0.205 F 
ATOM     96  C   UNL A   1      47.289  25.968  35.180  1.00  0.00     0.022 A 
BRANCH  94  97
ATOM     97  S   UNL A   1      45.934  23.819  36.208  1.00  0.00     0.127 S 
ATOM     98  O   UNL A   1      45.579  22.819  35.204  1.00  0.00    -0.237 OA
ATOM     99  O   UNL A   1      47.292  23.695  36.740  1.00  0.00    -0.237 OA
ATOM    100  O   UNL A   1      44.915  24.085  37.216  1.00  0.00    -0.744 OA
ENDBRANCH  94  97
ENDBRANCH  67  90
ENDBRANCH  41  42
ENDBRANCH  33  36
ENDBRANCH  31  32
ENDBRANCH   1  31
TORSDOF 16
ENDMDL
MODEL 3
REMARK VINA RESULT:     -13.4      3.602      8.346
REMARK SMILES Cc1cc(C(=O)NCCCNC(=O)c2ccc(-c3c4nc(c(-c5cccc(S(=O)(=O)[O-])c5F)c5ccc([nH]5)c(-c5cccc(S(=O)(=O)[O-])c5F)c5nc(c(-c6cccc(S(=O)(=O)[O-])c6F)c6ccc3[nH]6)C=C5)C=C4)cc2)c(O)c(S(=O)(=O)N2CCCc3cc(F)cc(F)c32)c1
REMARK SMILES IDX 9 1 8 2 7 3 5 4 6 5 4 7 1 8 2 9 3 10 95 11 79 12 77 13 80 14
REMARK SMILES IDX 81 15 82 16 83 17 84 18 94 19 85 20 87 21 92 22 86 23 88 24
REMARK SMILES IDX 91 25 93 26 89 27 90 28 78 29 10 31 11 32 12 33 13 35 14 36
REMARK SMILES IDX 15 37 76 38 16 39 75 40 17 41 18 42 19 43 69 44 20 45 74 46
REMARK SMILES IDX 68 47 70 48 21 49 73 50 67 51 66 52 22 54 54 55 34 56 53 57
REMARK SMILES IDX 35 58 38 59 52 60 71 61 36 62 37 63 51 65 72 66 39 67 23 68
REMARK SMILES IDX 24 69 32 70 25 71 27 72 33 73 26 74 28 75 29 76 30 77 31 78
REMARK SMILES IDX 55 79 56 80 64 81 57 82 59 83 65 84 58 85 60 86 61 87 62 88
REMARK SMILES IDX 63 89 40 90 41 91 49 92 42 93 44 94 50 95 43 96 45 97 46 98
REMARK SMILES IDX 47 99 48 100
REMARK H PARENT 7 6 78 30 11 34 70 53 38 64
REMARK Flexibility Score: inf
ROOT
ATOM      1  C   UNL A   1      31.420  31.822  26.543  1.00  0.00     0.042 C 
ENDROOT
BRANCH   1   2
ATOM      2  C   UNL A   1      31.545  30.331  26.202  1.00  0.00     0.118 C 
BRANCH   2   3
ATOM      3  N   UNL A   1      32.420  30.089  25.054  1.00  0.00    -0.352 N 
ATOM      4  C   UNL A   1      32.583  29.011  24.204  1.00  0.00     0.255 C 
ATOM      5  O   UNL A   1      33.357  29.153  23.254  1.00  0.00    -0.269 OA
ATOM      6  H   UNL A   1      33.014  30.846  24.846  1.00  0.00     0.163 HD
BRANCH   4   7
ATOM      7  C   UNL A   1      31.806  27.735  24.295  1.00  0.00     0.083 A 
ATOM      8  C   UNL A   1      28.183  26.687  23.825  1.00  0.00     0.044 C 
ATOM      9  C   UNL A   1      29.621  26.619  24.250  1.00  0.00    -0.049 A 
ATOM     10  C   UNL A   1      30.421  27.772  24.090  1.00  0.00     0.021 A 
ATOM     11  C   UNL A   1      30.183  25.460  24.811  1.00  0.00     0.029 A 
ATOM     12  C   UNL A   1      31.562  25.417  24.975  1.00  0.00     0.130 A 
ATOM     13  C   UNL A   1      32.362  26.492  24.542  1.00  0.00     0.148 A 
BRANCH  12  14
ATOM     14  S   UNL A   1      32.413  24.280  26.025  1.00  0.00     0.268 S 
ATOM     15  O   UNL A   1      33.744  24.832  26.120  1.00  0.00    -0.201 OA
ATOM     16  O   UNL A   1      31.583  24.197  27.224  1.00  0.00    -0.201 OA
BRANCH  14  17
ATOM     17  N   UNL A   1      32.596  22.660  25.387  1.00  0.00    -0.263 N 
ATOM     18  C   UNL A   1      31.805  22.343  24.159  1.00  0.00     0.136 C 
ATOM     19  C   UNL A   1      34.062  22.501  25.219  1.00  0.00     0.091 A 
ATOM     20  C   UNL A   1      32.635  22.216  22.880  1.00  0.00     0.028 C 
ATOM     21  C   UNL A   1      34.630  23.062  24.054  1.00  0.00    -0.018 A 
ATOM     22  C   UNL A   1      34.872  22.316  26.350  1.00  0.00     0.150 A 
ATOM     23  C   UNL A   1      33.778  23.221  22.824  1.00  0.00     0.040 C 
ATOM     24  C   UNL A   1      35.914  23.615  24.116  1.00  0.00     0.045 A 
ATOM     25  C   UNL A   1      36.165  22.824  26.394  1.00  0.00     0.080 A 
ATOM     26  F   UNL A   1      34.367  21.738  27.452  1.00  0.00    -0.205 F 
ATOM     27  C   UNL A   1      36.651  23.519  25.294  1.00  0.00     0.126 A 
ATOM     28  F   UNL A   1      37.839  24.132  25.378  1.00  0.00    -0.207 F 
ENDBRANCH  14  17
ENDBRANCH  12  14
BRANCH  13  29
ATOM     29  O   UNL A   1      33.685  26.328  24.248  1.00  0.00    -0.506 OA
ATOM     30  H   UNL A   1      33.951  26.152  23.367  1.00  0.00     0.293 HD
ENDBRANCH  13  29
ENDBRANCH   4   7
ENDBRANCH   2   3
ENDBRANCH   1   2
BRANCH   1  31
ATOM     31  C   UNL A   1      32.707  32.495  26.997  1.00  0.00     0.118 C 
BRANCH  31  32
ATOM     32  N   UNL A   1      32.489  33.844  27.494  1.00  0.00    -0.352 N 
ATOM     33  C   UNL A   1      33.088  34.512  28.537  1.00  0.00     0.251 C 
ATOM     34  H   UNL A   1      31.805  34.360  27.010  1.00  0.00     0.163 HD
ATOM     35  O   UNL A   1      32.624  35.594  28.894  1.00  0.00    -0.269 OA
BRANCH  33  36
ATOM     36  C   UNL A   1      34.269  33.954  29.245  1.00  0.00     0.039 A 
ATOM     37  C   UNL A   1      34.059  32.998  30.245  1.00  0.00     0.014 A 
ATOM     38  C   UNL A   1      35.568  34.400  28.982  1.00  0.00     0.014 A 
ATOM     39  C   UNL A   1      35.145  32.461  30.946  1.00  0.00     0.010 A 
ATOM     40  C   UNL A   1      36.656  33.811  29.631  1.00  0.00     0.010 A 
ATOM     41  C   UNL A   1      36.457  32.846  30.628  1.00  0.00    -0.014 A 
BRANCH  41  42
ATOM     42  C   UNL A   1      37.629  32.254  31.329  1.00  0.00     0.031 A 
ATOM     43  C   UNL A   1      38.398  31.120  30.704  1.00  0.00     0.074 A 
ATOM     44  C   UNL A   1      37.951  32.679  32.567  1.00  0.00     0.049 A 
ATOM     45  N   UNL A   1      39.406  30.439  31.189  1.00  0.00    -0.248 NA
ATOM     46  C   UNL A   1      37.964  30.675  29.370  1.00  0.00     0.031 C 
ATOM     47  C   UNL A   1      37.239  33.718  33.313  1.00  0.00     0.029 A 
ATOM     48  N   UNL A   1      38.939  32.271  33.429  1.00  0.00    -0.354 N 
ATOM     49  C   UNL A   1      39.699  29.465  30.242  1.00  0.00     0.074 A 
ATOM     50  C   UNL A   1      38.746  29.623  29.165  1.00  0.00     0.031 C 
ATOM     51  C   UNL A   1      37.810  33.864  34.520  1.00  0.00     0.029 A 
ATOM     52  C   UNL A   1      38.911  32.913  34.645  1.00  0.00     0.049 A 
ATOM     53  H   UNL A   1      39.605  31.584  33.198  1.00  0.00     0.167 HD
ATOM     54  C   UNL A   1      40.688  28.539  30.251  1.00  0.00     0.034 A 
ATOM     55  C   UNL A   1      39.679  32.752  35.742  1.00  0.00     0.034 A 
ATOM     56  C   UNL A   1      41.666  28.415  31.299  1.00  0.00     0.049 A 
ATOM     57  C   UNL A   1      40.804  31.752  35.706  1.00  0.00     0.074 A 
ATOM     58  C   UNL A   1      42.763  27.573  31.359  1.00  0.00     0.029 A 
ATOM     59  N   UNL A   1      41.665  29.151  32.474  1.00  0.00    -0.354 N 
ATOM     60  N   UNL A   1      41.166  30.951  34.732  1.00  0.00    -0.248 NA
ATOM     61  C   UNL A   1      41.650  31.659  36.904  1.00  0.00     0.031 C 
ATOM     62  C   UNL A   1      43.415  27.787  32.578  1.00  0.00     0.029 A 
ATOM     63  C   UNL A   1      42.736  28.778  33.269  1.00  0.00     0.049 A 
ATOM     64  H   UNL A   1      40.999  29.837  32.709  1.00  0.00     0.167 HD
ATOM     65  C   UNL A   1      42.300  30.287  35.186  1.00  0.00     0.074 A 
ATOM     66  C   UNL A   1      42.578  30.794  36.514  1.00  0.00     0.031 C 
ATOM     67  C   UNL A   1      43.034  29.330  34.565  1.00  0.00     0.034 A 
BRANCH  54  68
ATOM     68  C   UNL A   1      40.803  27.619  29.062  1.00  0.00     0.023 A 
ATOM     69  C   UNL A   1      39.994  26.466  28.997  1.00  0.00     0.012 A 
ATOM     70  C   UNL A   1      41.659  27.923  27.985  1.00  0.00     0.148 A 
ATOM     71  C   UNL A   1      40.060  25.612  27.897  1.00  0.00     0.002 A 
ATOM     72  C   UNL A   1      41.687  27.089  26.872  1.00  0.00     0.091 A 
ATOM     73  F   UNL A   1      42.435  29.012  28.072  1.00  0.00    -0.205 F 
ATOM     74  C   UNL A   1      40.897  25.928  26.831  1.00  0.00     0.022 A 
BRANCH  72  75
ATOM     75  S   UNL A   1      42.673  27.451  25.415  1.00  0.00     0.127 S 
ATOM     76  O   UNL A   1      42.377  26.299  24.564  1.00  0.00    -0.237 OA
ATOM     77  O   UNL A   1      42.093  28.713  24.953  1.00  0.00    -0.237 OA
ATOM     78  O   UNL A   1      44.051  27.552  25.877  1.00  0.00    -0.744 OA
ENDBRANCH  72  75
ENDBRANCH  54  68
BRANCH  55  79
ATOM     79  C   UNL A   1      39.455  33.613  36.938  1.00  0.00     0.023 A 
ATOM     80  C   UNL A   1      39.859  34.962  36.899  1.00  0.00     0.012 A 
ATOM     81  C   UNL A   1      38.817  33.121  38.092  1.00  0.00     0.148 A 
ATOM     82  C   UNL A   1      39.657  35.798  37.999  1.00  0.00     0.002 A 
ATOM     83  C   UNL A   1      38.568  33.972  39.163  1.00  0.00     0.091 A 
ATOM     84  F   UNL A   1      38.452  31.831  38.116  1.00  0.00    -0.205 F 
ATOM     85  C   UNL A   1      39.004  35.307  39.126  1.00  0.00     0.022 A 
BRANCH  83  86
ATOM     86  S   UNL A   1      37.612  33.464  40.597  1.00  0.00     0.127 S 
ATOM     87  O   UNL A   1      36.384  32.971  39.980  1.00  0.00    -0.237 OA
ATOM     88  O   UNL A   1      38.465  32.430  41.183  1.00  0.00    -0.237 OA
ATOM     89  O   UNL A   1      37.474  34.659  41.420  1.00  0.00    -0.744 OA
ENDBRANCH  83  86
ENDBRANCH  55  79
BRANCH  67  90
ATOM     90  C   UNL A   1      44.233  28.785  35.296  1.00  0.00     0.023 A 
ATOM     91  C   UNL A   1      45.500  29.368  35.093  1.00  0.00     0.012 A 
ATOM     92  C   UNL A   1      44.092  27.750  36.242  1.00  0.00     0.148 A 
ATOM     93  C   UNL A   1      46.612  28.909  35.796  1.00  0.00     0.002 A 
ATOM     94  C   UNL A   1      45.196  27.330  36.973  1.00  0.00     0.091 A 
ATOM     95  F   UNL A   1      42.882  27.196  36.408  1.00  0.00    -0.205 F 
ATOM     96  C   UNL A   1      46.459  27.900  36.744  1.00  0.00     0.022 A 
BRANCH  94  97
ATOM     97  S   UNL A   1      45.073  26.102  38.281  1.00  0.00     0.127 S 
ATOM     98  O   UNL A   1      44.551  24.946  37.556  1.00  0.00    -0.237 OA
ATOM     99  O   UNL A   1      46.464  25.973  38.718  1.00  0.00    -0.237 OA
ATOM    100  O   UNL A   1      44.179  26.672  39.280  1.00  0.00    -0.744 OA
ENDBRANCH  94  97
ENDBRANCH  67  90
ENDBRANCH  41  42
ENDBRANCH  33  36
ENDBRANCH  31  32
ENDBRANCH   1  31
TORSDOF 16
ENDMDL
