MODEL 1
REMARK VINA RESULT:     -12.9      0.000      0.000
REMARK SMILES Cc1cccc(CC(=O)N2CCCC[C@@H]2C(=O)NCCCNC(=O)c2ccc(-c3c4nc(c(-c5cccc(S(=O)(=O)[O-])c5F)c5ccc([nH]5)c(-c5cccc(S(=O)(=O)[O-])c5F)c5nc(c(-c6cccc(S(=O)(=O)[O-])c6F)c6ccc3[nH]6)C=C5)C=C4)cc2)c1
REMARK SMILES IDX 20 1 19 2 18 3 16 4 17 5 15 7 10 8 11 9 12 10 14 11 13 12
REMARK SMILES IDX 8 13 9 14 7 15 6 16 1 17 2 18 3 19 88 20 4 21 5 22 21 23
REMARK SMILES IDX 22 24 23 25 24 27 25 28 26 29 87 30 27 31 86 32 28 33 29 34
REMARK SMILES IDX 30 35 80 36 31 37 85 38 79 39 81 40 32 41 84 42 78 43 77 44
REMARK SMILES IDX 33 46 65 47 45 48 64 49 46 50 49 51 63 52 82 53 47 54 48 55
REMARK SMILES IDX 62 57 83 58 50 59 34 60 35 61 43 62 36 63 38 64 44 65 37 66
REMARK SMILES IDX 39 67 40 68 41 69 42 70 66 71 67 72 75 73 68 74 70 75 76 76
REMARK SMILES IDX 69 77 71 78 72 79 73 80 74 81 51 82 52 83 60 84 53 85 55 86
REMARK SMILES IDX 61 87 54 88 56 89 57 90 58 91 59 92
REMARK H PARENT 18 6 22 26 81 45 49 56
REMARK Flexibility Score: inf
ROOT
ATOM      1  C   UNL A   1      32.498  30.669  26.751  1.00  0.00     0.042 C 
ENDROOT
BRANCH   1   2
ATOM      2  C   UNL A   1      31.999  29.759  25.649  1.00  0.00     0.117 C 
BRANCH   2   3
ATOM      3  N   UNL A   1      32.928  29.711  24.524  1.00  0.00    -0.354 N 
ATOM      4  C   UNL A   1      33.249  28.669  23.701  1.00  0.00     0.242 C 
ATOM      5  O   UNL A   1      34.216  28.788  22.943  1.00  0.00    -0.273 OA
ATOM      6  H   UNL A   1      33.395  30.555  24.330  1.00  0.00     0.163 HD
BRANCH   4   7
ATOM      7  C   UNL A   1      32.618  27.291  23.933  1.00  0.00     0.174 C 
ATOM      8  N   UNL A   1      31.133  27.204  23.871  1.00  0.00    -0.330 N 
ATOM      9  C   UNL A   1      30.515  26.177  24.712  1.00  0.00     0.120 C 
ATOM     10  C   UNL A   1      30.965  26.239  26.160  1.00  0.00     0.022 C 
ATOM     11  C   UNL A   1      33.203  26.995  25.358  1.00  0.00     0.035 C 
ATOM     12  C   UNL A   1      32.461  26.006  26.231  1.00  0.00     0.004 C 
BRANCH   8  13
ATOM     13  C   UNL A   1      30.269  27.851  22.983  1.00  0.00     0.227 C 
ATOM     14  O   UNL A   1      30.532  27.821  21.771  1.00  0.00    -0.275 OA
BRANCH  13  15
ATOM     15  C   UNL A   1      29.127  28.759  23.423  1.00  0.00     0.135 C 
BRANCH  15  16
ATOM     16  C   UNL A   1      28.835  30.037  22.690  1.00  0.00    -0.038 A 
ATOM     17  C   UNL A   1      29.204  33.770  23.366  1.00  0.00     0.044 C 
ATOM     18  C   UNL A   1      28.897  32.479  22.670  1.00  0.00    -0.051 A 
ATOM     19  C   UNL A   1      28.185  32.477  21.469  1.00  0.00     0.003 A 
ATOM     20  C   UNL A   1      29.219  31.256  23.270  1.00  0.00     0.007 A 
ATOM     21  C   UNL A   1      27.857  31.270  20.852  1.00  0.00     0.001 A 
ATOM     22  C   UNL A   1      28.211  30.054  21.437  1.00  0.00     0.004 A 
ENDBRANCH  15  16
ENDBRANCH  13  15
ENDBRANCH   8  13
ENDBRANCH   4   7
ENDBRANCH   2   3
ENDBRANCH   1   2
BRANCH   1  23
ATOM     23  C   UNL A   1      33.922  30.315  27.063  1.00  0.00     0.118 C 
BRANCH  23  24
ATOM     24  N   UNL A   1      34.733  31.412  27.512  1.00  0.00    -0.352 N 
ATOM     25  C   UNL A   1      35.911  31.345  28.219  1.00  0.00     0.251 C 
ATOM     26  H   UNL A   1      34.408  32.314  27.287  1.00  0.00     0.163 HD
ATOM     27  O   UNL A   1      36.308  32.391  28.735  1.00  0.00    -0.269 OA
BRANCH  25  28
ATOM     28  C   UNL A   1      36.744  30.103  28.238  1.00  0.00     0.039 A 
ATOM     29  C   UNL A   1      36.833  29.418  29.457  1.00  0.00     0.014 A 
ATOM     30  C   UNL A   1      37.616  29.746  27.210  1.00  0.00     0.014 A 
ATOM     31  C   UNL A   1      37.960  28.658  29.746  1.00  0.00     0.010 A 
ATOM     32  C   UNL A   1      38.749  29.044  27.496  1.00  0.00     0.010 A 
ATOM     33  C   UNL A   1      38.968  28.625  28.802  1.00  0.00    -0.014 A 
BRANCH  33  34
ATOM     34  C   UNL A   1      40.327  28.188  29.013  1.00  0.00     0.031 A 
ATOM     35  C   UNL A   1      40.647  26.789  28.773  1.00  0.00     0.074 A 
ATOM     36  C   UNL A   1      41.232  29.189  28.996  1.00  0.00     0.049 A 
ATOM     37  N   UNL A   1      41.747  26.228  29.118  1.00  0.00    -0.248 NA
ATOM     38  C   UNL A   1      39.687  25.889  28.148  1.00  0.00     0.031 C 
ATOM     39  C   UNL A   1      42.610  29.178  28.541  1.00  0.00     0.029 A 
ATOM     40  N   UNL A   1      41.043  30.483  29.488  1.00  0.00    -0.354 N 
ATOM     41  C   UNL A   1      41.780  25.018  28.460  1.00  0.00     0.074 A 
ATOM     42  C   UNL A   1      40.416  24.777  28.059  1.00  0.00     0.031 C 
ATOM     43  C   UNL A   1      43.216  30.294  28.989  1.00  0.00     0.029 A 
ATOM     44  C   UNL A   1      42.294  30.948  29.908  1.00  0.00     0.049 A 
ATOM     45  H   UNL A   1      40.191  30.974  29.530  1.00  0.00     0.167 HD
ATOM     46  C   UNL A   1      42.995  24.492  28.136  1.00  0.00     0.034 A 
ATOM     47  C   UNL A   1      42.550  31.261  31.214  1.00  0.00     0.034 A 
ATOM     48  C   UNL A   1      44.072  25.356  28.677  1.00  0.00     0.049 A 
ATOM     49  C   UNL A   1      43.537  30.273  31.812  1.00  0.00     0.074 A 
ATOM     50  C   UNL A   1      44.869  26.329  28.092  1.00  0.00     0.029 A 
ATOM     51  N   UNL A   1      44.180  25.552  30.054  1.00  0.00    -0.354 N 
ATOM     52  N   UNL A   1      43.977  29.213  31.191  1.00  0.00    -0.248 NA
ATOM     53  C   UNL A   1      44.086  30.387  33.159  1.00  0.00     0.031 C 
ATOM     54  C   UNL A   1      45.355  27.183  29.126  1.00  0.00     0.029 A 
ATOM     55  C   UNL A   1      44.892  26.713  30.345  1.00  0.00     0.049 A 
ATOM     56  H   UNL A   1      43.802  24.948  30.734  1.00  0.00     0.167 HD
ATOM     57  C   UNL A   1      44.697  28.432  32.046  1.00  0.00     0.074 A 
ATOM     58  C   UNL A   1      44.816  29.259  33.239  1.00  0.00     0.031 C 
ATOM     59  C   UNL A   1      45.066  27.150  31.734  1.00  0.00     0.034 A 
BRANCH  46  60
ATOM     60  C   UNL A   1      43.233  23.429  27.064  1.00  0.00     0.023 A 
ATOM     61  C   UNL A   1      43.865  23.854  25.874  1.00  0.00     0.012 A 
ATOM     62  C   UNL A   1      42.850  22.063  27.088  1.00  0.00     0.148 A 
ATOM     63  C   UNL A   1      44.037  23.014  24.765  1.00  0.00     0.002 A 
ATOM     64  C   UNL A   1      42.984  21.231  25.970  1.00  0.00     0.091 A 
ATOM     65  F   UNL A   1      42.408  21.505  28.211  1.00  0.00    -0.205 F 
ATOM     66  C   UNL A   1      43.575  21.707  24.803  1.00  0.00     0.022 A 
BRANCH  64  67
ATOM     67  S   UNL A   1      42.387  19.526  25.949  1.00  0.00     0.127 S 
ATOM     68  O   UNL A   1      40.938  19.709  25.833  1.00  0.00    -0.237 OA
ATOM     69  O   UNL A   1      43.028  18.988  24.750  1.00  0.00    -0.237 OA
ATOM     70  O   UNL A   1      42.811  18.919  27.204  1.00  0.00    -0.744 OA
ENDBRANCH  64  67
ENDBRANCH  46  60
BRANCH  47  71
ATOM     71  C   UNL A   1      41.348  31.830  31.913  1.00  0.00     0.023 A 
ATOM     72  C   UNL A   1      40.805  33.019  31.365  1.00  0.00     0.012 A 
ATOM     73  C   UNL A   1      40.511  30.996  32.676  1.00  0.00     0.148 A 
ATOM     74  C   UNL A   1      39.427  33.258  31.402  1.00  0.00     0.002 A 
ATOM     75  C   UNL A   1      39.136  31.233  32.692  1.00  0.00     0.091 A 
ATOM     76  F   UNL A   1      41.044  29.921  33.270  1.00  0.00    -0.205 F 
ATOM     77  C   UNL A   1      38.587  32.333  32.015  1.00  0.00     0.022 A 
BRANCH  75  78
ATOM     78  S   UNL A   1      38.021  30.028  33.427  1.00  0.00     0.127 S 
ATOM     79  O   UNL A   1      38.601  28.769  32.973  1.00  0.00    -0.237 OA
ATOM     80  O   UNL A   1      38.159  30.282  34.859  1.00  0.00    -0.237 OA
ATOM     81  O   UNL A   1      36.714  30.373  32.886  1.00  0.00    -0.744 OA
ENDBRANCH  75  78
ENDBRANCH  47  71
BRANCH  59  82
ATOM     82  C   UNL A   1      45.630  26.178  32.747  1.00  0.00     0.023 A 
ATOM     83  C   UNL A   1      47.016  26.032  32.953  1.00  0.00     0.012 A 
ATOM     84  C   UNL A   1      44.773  25.480  33.632  1.00  0.00     0.148 A 
ATOM     85  C   UNL A   1      47.530  25.163  33.918  1.00  0.00     0.002 A 
ATOM     86  C   UNL A   1      45.290  24.721  34.675  1.00  0.00     0.091 A 
ATOM     87  F   UNL A   1      43.444  25.533  33.456  1.00  0.00    -0.205 F 
ATOM     88  C   UNL A   1      46.667  24.522  34.794  1.00  0.00     0.022 A 
BRANCH  86  89
ATOM     89  S   UNL A   1      44.229  24.112  35.992  1.00  0.00     0.127 S 
ATOM     90  O   UNL A   1      43.220  23.365  35.245  1.00  0.00    -0.237 OA
ATOM     91  O   UNL A   1      45.147  23.281  36.774  1.00  0.00    -0.237 OA
ATOM     92  O   UNL A   1      43.763  25.302  36.690  1.00  0.00    -0.744 OA
ENDBRANCH  86  89
ENDBRANCH  59  82
ENDBRANCH  33  34
ENDBRANCH  25  28
ENDBRANCH  23  24
ENDBRANCH   1  23
TORSDOF 16
ENDMDL
MODEL 2
REMARK VINA RESULT:     -12.9      4.187      9.295
REMARK SMILES Cc1cccc(CC(=O)N2CCCC[C@@H]2C(=O)NCCCNC(=O)c2ccc(-c3c4nc(c(-c5cccc(S(=O)(=O)[O-])c5F)c5ccc([nH]5)c(-c5cccc(S(=O)(=O)[O-])c5F)c5nc(c(-c6cccc(S(=O)(=O)[O-])c6F)c6ccc3[nH]6)C=C5)C=C4)cc2)c1
REMARK SMILES IDX 20 1 19 2 18 3 16 4 17 5 15 7 10 8 11 9 12 10 14 11 13 12
REMARK SMILES IDX 8 13 9 14 7 15 6 16 1 17 2 18 3 19 88 20 4 21 5 22 21 23
REMARK SMILES IDX 22 24 23 25 24 27 25 28 26 29 87 30 27 31 86 32 28 33 29 34
REMARK SMILES IDX 30 35 80 36 31 37 85 38 79 39 81 40 32 41 84 42 78 43 77 44
REMARK SMILES IDX 33 46 65 47 45 48 64 49 46 50 49 51 63 52 82 53 47 54 48 55
REMARK SMILES IDX 62 57 83 58 50 59 34 60 35 61 43 62 36 63 38 64 44 65 37 66
REMARK SMILES IDX 39 67 40 68 41 69 42 70 66 71 67 72 75 73 68 74 70 75 76 76
REMARK SMILES IDX 69 77 71 78 72 79 73 80 74 81 51 82 52 83 60 84 53 85 55 86
REMARK SMILES IDX 61 87 54 88 56 89 57 90 58 91 59 92
REMARK H PARENT 18 6 22 26 81 45 49 56
REMARK Flexibility Score: inf
ROOT
ATOM      1  C   UNL A   1      37.770  20.977  25.039  1.00  0.00     0.042 C 
ENDROOT
BRANCH   1   2
ATOM      2  C   UNL A   1      36.259  21.031  25.078  1.00  0.00     0.117 C 
BRANCH   2   3
ATOM      3  N   UNL A   1      35.774  21.894  26.152  1.00  0.00    -0.354 N 
ATOM      4  C   UNL A   1      34.538  22.441  26.343  1.00  0.00     0.242 C 
ATOM      5  O   UNL A   1      34.400  23.311  27.207  1.00  0.00    -0.273 OA
ATOM      6  H   UNL A   1      36.440  22.115  26.843  1.00  0.00     0.163 HD
BRANCH   4   7
ATOM      7  C   UNL A   1      33.431  22.202  25.309  1.00  0.00     0.174 C 
ATOM      8  N   UNL A   1      33.172  23.290  24.326  1.00  0.00    -0.330 N 
ATOM      9  C   UNL A   1      31.797  23.401  23.839  1.00  0.00     0.120 C 
ATOM     10  C   UNL A   1      30.770  23.464  24.955  1.00  0.00     0.022 C 
ATOM     11  C   UNL A   1      32.234  21.949  26.291  1.00  0.00     0.035 C 
ATOM     12  C   UNL A   1      30.833  22.188  25.768  1.00  0.00     0.004 C 
BRANCH   8  13
ATOM     13  C   UNL A   1      34.106  24.101  23.675  1.00  0.00     0.227 C 
ATOM     14  O   UNL A   1      34.817  23.596  22.791  1.00  0.00    -0.275 OA
BRANCH  13  15
ATOM     15  C   UNL A   1      34.446  25.520  24.111  1.00  0.00     0.135 C 
BRANCH  15  16
ATOM     16  C   UNL A   1      33.405  26.401  24.742  1.00  0.00    -0.038 A 
ATOM     17  C   UNL A   1      30.855  28.972  23.556  1.00  0.00     0.044 C 
ATOM     18  C   UNL A   1      31.645  28.069  24.453  1.00  0.00    -0.051 A 
ATOM     19  C   UNL A   1      31.548  28.192  25.840  1.00  0.00     0.003 A 
ATOM     20  C   UNL A   1      32.573  27.170  23.915  1.00  0.00     0.007 A 
ATOM     21  C   UNL A   1      32.324  27.385  26.670  1.00  0.00     0.001 A 
ATOM     22  C   UNL A   1      33.222  26.465  26.128  1.00  0.00     0.004 A 
ENDBRANCH  15  16
ENDBRANCH  13  15
ENDBRANCH   8  13
ENDBRANCH   4   7
ENDBRANCH   2   3
ENDBRANCH   1   2
BRANCH   1  23
ATOM     23  C   UNL A   1      38.315  22.217  25.686  1.00  0.00     0.118 C 
BRANCH  23  24
ATOM     24  N   UNL A   1      39.540  22.030  26.413  1.00  0.00    -0.352 N 
ATOM     25  C   UNL A   1      40.384  23.005  26.890  1.00  0.00     0.251 C 
ATOM     26  H   UNL A   1      39.804  21.098  26.590  1.00  0.00     0.163 HD
ATOM     27  O   UNL A   1      41.505  22.641  27.249  1.00  0.00    -0.269 OA
BRANCH  25  28
ATOM     28  C   UNL A   1      39.918  24.410  27.103  1.00  0.00     0.039 A 
ATOM     29  C   UNL A   1      40.505  25.401  26.305  1.00  0.00     0.014 A 
ATOM     30  C   UNL A   1      39.145  24.808  28.194  1.00  0.00     0.014 A 
ATOM     31  C   UNL A   1      40.601  26.705  26.774  1.00  0.00     0.010 A 
ATOM     32  C   UNL A   1      39.273  26.072  28.690  1.00  0.00     0.010 A 
ATOM     33  C   UNL A   1      40.113  26.967  28.041  1.00  0.00    -0.014 A 
BRANCH  33  34
ATOM     34  C   UNL A   1      40.392  28.132  28.844  1.00  0.00     0.031 A 
ATOM     35  C   UNL A   1      39.500  29.276  28.733  1.00  0.00     0.074 A 
ATOM     36  C   UNL A   1      41.184  27.886  29.909  1.00  0.00     0.049 A 
ATOM     37  N   UNL A   1      39.745  30.436  29.222  1.00  0.00    -0.248 NA
ATOM     38  C   UNL A   1      38.249  29.191  27.991  1.00  0.00     0.031 C 
ATOM     39  C   UNL A   1      41.188  28.510  31.219  1.00  0.00     0.029 A 
ATOM     40  N   UNL A   1      42.249  26.982  29.956  1.00  0.00    -0.354 N 
ATOM     41  C   UNL A   1      38.556  31.131  29.166  1.00  0.00     0.074 A 
ATOM     42  C   UNL A   1      37.745  30.403  28.223  1.00  0.00     0.031 C 
ATOM     43  C   UNL A   1      42.328  28.172  31.849  1.00  0.00     0.029 A 
ATOM     44  C   UNL A   1      43.172  27.485  30.880  1.00  0.00     0.049 A 
ATOM     45  H   UNL A   1      42.332  26.150  29.438  1.00  0.00     0.167 HD
ATOM     46  C   UNL A   1      38.328  32.094  30.103  1.00  0.00     0.034 A 
ATOM     47  C   UNL A   1      44.437  27.851  30.515  1.00  0.00     0.034 A 
ATOM     48  C   UNL A   1      39.524  32.243  30.967  1.00  0.00     0.049 A 
ATOM     49  C   UNL A   1      44.608  29.356  30.635  1.00  0.00     0.074 A 
ATOM     50  C   UNL A   1      39.828  31.758  32.230  1.00  0.00     0.029 A 
ATOM     51  N   UNL A   1      40.741  32.639  30.408  1.00  0.00    -0.354 N 
ATOM     52  N   UNL A   1      43.641  30.181  30.933  1.00  0.00    -0.248 NA
ATOM     53  C   UNL A   1      45.871  30.051  30.410  1.00  0.00     0.031 C 
ATOM     54  C   UNL A   1      41.247  31.754  32.373  1.00  0.00     0.029 A 
ATOM     55  C   UNL A   1      41.812  32.272  31.218  1.00  0.00     0.049 A 
ATOM     56  H   UNL A   1      40.830  33.116  29.551  1.00  0.00     0.167 HD
ATOM     57  C   UNL A   1      44.060  31.469  30.784  1.00  0.00     0.074 A 
ATOM     58  C   UNL A   1      45.491  31.335  30.548  1.00  0.00     0.031 C 
ATOM     59  C   UNL A   1      43.191  32.528  30.789  1.00  0.00     0.034 A 
BRANCH  46  60
ATOM     60  C   UNL A   1      36.953  32.650  30.474  1.00  0.00     0.023 A 
ATOM     61  C   UNL A   1      36.450  32.307  31.749  1.00  0.00     0.012 A 
ATOM     62  C   UNL A   1      36.082  33.433  29.673  1.00  0.00     0.148 A 
ATOM     63  C   UNL A   1      35.157  32.647  32.171  1.00  0.00     0.002 A 
ATOM     64  C   UNL A   1      34.777  33.742  30.073  1.00  0.00     0.091 A 
ATOM     65  F   UNL A   1      36.508  33.962  28.530  1.00  0.00    -0.205 F 
ATOM     66  C   UNL A   1      34.309  33.345  31.323  1.00  0.00     0.022 A 
BRANCH  64  67
ATOM     67  S   UNL A   1      33.618  34.632  29.011  1.00  0.00     0.127 S 
ATOM     68  O   UNL A   1      33.272  33.616  28.014  1.00  0.00    -0.237 OA
ATOM     69  O   UNL A   1      32.538  34.963  29.939  1.00  0.00    -0.237 OA
ATOM     70  O   UNL A   1      34.342  35.774  28.468  1.00  0.00    -0.744 OA
ENDBRANCH  64  67
ENDBRANCH  46  60
BRANCH  47  71
ATOM     71  C   UNL A   1      44.985  26.993  29.410  1.00  0.00     0.023 A 
ATOM     72  C   UNL A   1      45.081  25.605  29.679  1.00  0.00     0.012 A 
ATOM     73  C   UNL A   1      44.892  27.415  28.072  1.00  0.00     0.148 A 
ATOM     74  C   UNL A   1      44.879  24.664  28.663  1.00  0.00     0.002 A 
ATOM     75  C   UNL A   1      44.673  26.471  27.068  1.00  0.00     0.091 A 
ATOM     76  F   UNL A   1      44.893  28.729  27.811  1.00  0.00    -0.205 F 
ATOM     77  C   UNL A   1      44.616  25.101  27.368  1.00  0.00     0.022 A 
BRANCH  75  78
ATOM     78  S   UNL A   1      44.275  27.006  25.397  1.00  0.00     0.127 S 
ATOM     79  O   UNL A   1      45.601  27.232  24.832  1.00  0.00    -0.237 OA
ATOM     80  O   UNL A   1      43.565  25.855  24.844  1.00  0.00    -0.237 OA
ATOM     81  O   UNL A   1      43.441  28.184  25.588  1.00  0.00    -0.744 OA
ENDBRANCH  75  78
ENDBRANCH  47  71
BRANCH  59  82
ATOM     82  C   UNL A   1      43.583  33.928  30.370  1.00  0.00     0.023 A 
ATOM     83  C   UNL A   1      44.025  34.891  31.299  1.00  0.00     0.012 A 
ATOM     84  C   UNL A   1      43.659  34.276  29.000  1.00  0.00     0.148 A 
ATOM     85  C   UNL A   1      44.425  36.169  30.902  1.00  0.00     0.002 A 
ATOM     86  C   UNL A   1      44.183  35.502  28.603  1.00  0.00     0.091 A 
ATOM     87  F   UNL A   1      43.203  33.426  28.068  1.00  0.00    -0.205 F 
ATOM     88  C   UNL A   1      44.525  36.468  29.551  1.00  0.00     0.022 A 
BRANCH  86  89
ATOM     89  S   UNL A   1      44.594  35.820  26.883  1.00  0.00     0.127 S 
ATOM     90  O   UNL A   1      45.380  34.638  26.537  1.00  0.00    -0.237 OA
ATOM     91  O   UNL A   1      43.274  35.878  26.252  1.00  0.00    -0.237 OA
ATOM     92  O   UNL A   1      45.307  37.089  26.887  1.00  0.00    -0.744 OA
ENDBRANCH  86  89
ENDBRANCH  59  82
ENDBRANCH  33  34
ENDBRANCH  25  28
ENDBRANCH  23  24
ENDBRANCH   1  23
TORSDOF 16
ENDMDL
MODEL 3
REMARK VINA RESULT:     -12.5      3.059      4.881
REMARK SMILES Cc1cccc(CC(=O)N2CCCC[C@@H]2C(=O)NCCCNC(=O)c2ccc(-c3c4nc(c(-c5cccc(S(=O)(=O)[O-])c5F)c5ccc([nH]5)c(-c5cccc(S(=O)(=O)[O-])c5F)c5nc(c(-c6cccc(S(=O)(=O)[O-])c6F)c6ccc3[nH]6)C=C5)C=C4)cc2)c1
REMARK SMILES IDX 20 1 19 2 18 3 16 4 17 5 15 7 10 8 11 9 12 10 14 11 13 12
REMARK SMILES IDX 8 13 9 14 7 15 6 16 1 17 2 18 3 19 88 20 4 21 5 22 21 23
REMARK SMILES IDX 22 24 23 25 24 27 25 28 26 29 87 30 27 31 86 32 28 33 29 34
REMARK SMILES IDX 30 35 80 36 31 37 85 38 79 39 81 40 32 41 84 42 78 43 77 44
REMARK SMILES IDX 33 46 65 47 45 48 64 49 46 50 49 51 63 52 82 53 47 54 48 55
REMARK SMILES IDX 62 57 83 58 50 59 34 60 35 61 43 62 36 63 38 64 44 65 37 66
REMARK SMILES IDX 39 67 40 68 41 69 42 70 66 71 67 72 75 73 68 74 70 75 76 76
REMARK SMILES IDX 69 77 71 78 72 79 73 80 74 81 51 82 52 83 60 84 53 85 55 86
REMARK SMILES IDX 61 87 54 88 56 89 57 90 58 91 59 92
REMARK H PARENT 18 6 22 26 81 45 49 56
REMARK Flexibility Score: inf
ROOT
ATOM      1  C   UNL A   1      34.208  29.808  27.555  1.00  0.00     0.042 C 
ENDROOT
BRANCH   1   2
ATOM      2  C   UNL A   1      33.086  30.238  26.635  1.00  0.00     0.117 C 
BRANCH   2   3
ATOM      3  N   UNL A   1      33.378  29.922  25.240  1.00  0.00    -0.354 N 
ATOM      4  C   UNL A   1      32.640  29.221  24.330  1.00  0.00     0.242 C 
ATOM      5  O   UNL A   1      33.169  28.892  23.264  1.00  0.00    -0.273 OA
ATOM      6  H   UNL A   1      34.237  30.267  24.904  1.00  0.00     0.163 HD
BRANCH   4   7
ATOM      7  C   UNL A   1      31.304  28.598  24.750  1.00  0.00     0.174 C 
ATOM      8  N   UNL A   1      31.342  27.219  25.310  1.00  0.00    -0.330 N 
ATOM      9  C   UNL A   1      30.155  26.397  25.072  1.00  0.00     0.120 C 
ATOM     10  C   UNL A   1      29.744  26.346  23.612  1.00  0.00     0.022 C 
ATOM     11  C   UNL A   1      30.551  28.695  23.376  1.00  0.00     0.035 C 
ATOM     12  C   UNL A   1      29.398  27.743  23.138  1.00  0.00     0.004 C 
BRANCH   8  13
ATOM     13  C   UNL A   1      32.285  26.671  26.183  1.00  0.00     0.227 C 
ATOM     14  O   UNL A   1      32.072  26.736  27.404  1.00  0.00    -0.275 OA
BRANCH  13  15
ATOM     15  C   UNL A   1      33.655  26.168  25.744  1.00  0.00     0.135 C 
BRANCH  15  16
ATOM     16  C   UNL A   1      33.825  24.780  25.198  1.00  0.00    -0.038 A 
ATOM     17  C   UNL A   1      36.524  22.843  23.330  1.00  0.00     0.044 C 
ATOM     18  C   UNL A   1      35.243  23.165  24.037  1.00  0.00    -0.051 A 
ATOM     19  C   UNL A   1      34.177  22.263  24.011  1.00  0.00     0.003 A 
ATOM     20  C   UNL A   1      35.058  24.417  24.635  1.00  0.00     0.007 A 
ATOM     21  C   UNL A   1      32.970  22.589  24.626  1.00  0.00     0.001 A 
ATOM     22  C   UNL A   1      32.802  23.825  25.251  1.00  0.00     0.004 A 
ENDBRANCH  15  16
ENDBRANCH  13  15
ENDBRANCH   8  13
ENDBRANCH   4   7
ENDBRANCH   2   3
ENDBRANCH   1   2
BRANCH   1  23
ATOM     23  C   UNL A   1      35.169  30.950  27.712  1.00  0.00     0.118 C 
BRANCH  23  24
ATOM     24  N   UNL A   1      34.556  32.237  27.885  1.00  0.00    -0.352 N 
ATOM     25  C   UNL A   1      34.790  33.145  28.890  1.00  0.00     0.251 C 
ATOM     26  H   UNL A   1      33.893  32.498  27.205  1.00  0.00     0.163 HD
ATOM     27  O   UNL A   1      33.978  34.065  29.007  1.00  0.00    -0.269 OA
BRANCH  25  28
ATOM     28  C   UNL A   1      36.044  33.106  29.704  1.00  0.00     0.039 A 
ATOM     29  C   UNL A   1      37.216  33.559  29.085  1.00  0.00     0.014 A 
ATOM     30  C   UNL A   1      36.154  32.426  30.916  1.00  0.00     0.014 A 
ATOM     31  C   UNL A   1      38.450  33.056  29.479  1.00  0.00     0.010 A 
ATOM     32  C   UNL A   1      37.351  31.886  31.284  1.00  0.00     0.010 A 
ATOM     33  C   UNL A   1      38.461  32.100  30.478  1.00  0.00    -0.014 A 
BRANCH  33  34
ATOM     34  C   UNL A   1      39.555  31.221  30.813  1.00  0.00     0.031 A 
ATOM     35  C   UNL A   1      39.654  29.948  30.114  1.00  0.00     0.074 A 
ATOM     36  C   UNL A   1      40.591  31.841  31.414  1.00  0.00     0.049 A 
ATOM     37  N   UNL A   1      40.440  28.994  30.456  1.00  0.00    -0.248 NA
ATOM     38  C   UNL A   1      38.803  29.643  28.972  1.00  0.00     0.031 C 
ATOM     39  C   UNL A   1      42.011  31.551  31.336  1.00  0.00     0.029 A 
ATOM     40  N   UNL A   1      40.507  32.898  32.325  1.00  0.00    -0.354 N 
ATOM     41  C   UNL A   1      40.452  28.114  29.395  1.00  0.00     0.074 A 
ATOM     42  C   UNL A   1      39.285  28.451  28.620  1.00  0.00     0.031 C 
ATOM     43  C   UNL A   1      42.638  32.217  32.324  1.00  0.00     0.029 A 
ATOM     44  C   UNL A   1      41.608  32.790  33.181  1.00  0.00     0.049 A 
ATOM     45  H   UNL A   1      39.805  33.587  32.356  1.00  0.00     0.167 HD
ATOM     46  C   UNL A   1      41.576  27.372  29.186  1.00  0.00     0.034 A 
ATOM     47  C   UNL A   1      41.465  32.569  34.522  1.00  0.00     0.034 A 
ATOM     48  C   UNL A   1      42.556  27.636  30.268  1.00  0.00     0.049 A 
ATOM     49  C   UNL A   1      41.977  31.186  34.888  1.00  0.00     0.074 A 
ATOM     50  C   UNL A   1      43.679  28.447  30.331  1.00  0.00     0.029 A 
ATOM     51  N   UNL A   1      42.230  27.333  31.591  1.00  0.00    -0.354 N 
ATOM     52  N   UNL A   1      42.383  30.302  34.018  1.00  0.00    -0.248 NA
ATOM     53  C   UNL A   1      42.051  30.683  36.256  1.00  0.00     0.031 C 
ATOM     54  C   UNL A   1      43.946  28.727  31.704  1.00  0.00     0.029 A 
ATOM     55  C   UNL A   1      43.017  28.056  32.483  1.00  0.00     0.049 A 
ATOM     56  H   UNL A   1      41.533  26.691  31.859  1.00  0.00     0.167 HD
ATOM     57  C   UNL A   1      42.603  29.105  34.632  1.00  0.00     0.074 A 
ATOM     58  C   UNL A   1      42.473  29.422  36.048  1.00  0.00     0.031 C 
ATOM     59  C   UNL A   1      42.794  27.945  33.929  1.00  0.00     0.034 A 
BRANCH  46  60
ATOM     60  C   UNL A   1      41.947  26.694  27.868  1.00  0.00     0.023 A 
ATOM     61  C   UNL A   1      42.034  27.522  26.727  1.00  0.00     0.012 A 
ATOM     62  C   UNL A   1      42.168  25.312  27.628  1.00  0.00     0.148 A 
ATOM     63  C   UNL A   1      42.247  27.016  25.437  1.00  0.00     0.002 A 
ATOM     64  C   UNL A   1      42.343  24.797  26.338  1.00  0.00     0.091 A 
ATOM     65  F   UNL A   1      42.285  24.461  28.642  1.00  0.00    -0.205 F 
ATOM     66  C   UNL A   1      42.378  25.650  25.237  1.00  0.00     0.022 A 
BRANCH  64  67
ATOM     67  S   UNL A   1      42.501  23.028  26.009  1.00  0.00     0.127 S 
ATOM     68  O   UNL A   1      42.911  23.013  24.603  1.00  0.00    -0.237 OA
ATOM     69  O   UNL A   1      43.545  22.629  26.950  1.00  0.00    -0.237 OA
ATOM     70  O   UNL A   1      41.189  22.440  26.251  1.00  0.00    -0.744 OA
ENDBRANCH  64  67
ENDBRANCH  46  60
BRANCH  47  71
ATOM     71  C   UNL A   1      40.235  33.225  35.082  1.00  0.00     0.023 A 
ATOM     72  C   UNL A   1      39.052  32.444  35.086  1.00  0.00     0.012 A 
ATOM     73  C   UNL A   1      40.351  34.278  36.007  1.00  0.00     0.148 A 
ATOM     74  C   UNL A   1      38.112  32.576  36.114  1.00  0.00     0.002 A 
ATOM     75  C   UNL A   1      39.419  34.391  37.039  1.00  0.00     0.091 A 
ATOM     76  F   UNL A   1      41.427  35.073  35.944  1.00  0.00    -0.205 F 
ATOM     77  C   UNL A   1      38.328  33.511  37.123  1.00  0.00     0.022 A 
BRANCH  75  78
ATOM     78  S   UNL A   1      39.698  35.550  38.385  1.00  0.00     0.127 S 
ATOM     79  O   UNL A   1      39.589  36.834  37.702  1.00  0.00    -0.237 OA
ATOM     80  O   UNL A   1      38.604  35.254  39.307  1.00  0.00    -0.237 OA
ATOM     81  O   UNL A   1      41.016  35.196  38.894  1.00  0.00    -0.744 OA
ENDBRANCH  75  78
ENDBRANCH  47  71
BRANCH  59  82
ATOM     82  C   UNL A   1      42.780  26.574  34.568  1.00  0.00     0.023 A 
ATOM     83  C   UNL A   1      41.655  26.083  35.260  1.00  0.00     0.012 A 
ATOM     84  C   UNL A   1      43.853  25.673  34.367  1.00  0.00     0.148 A 
ATOM     85  C   UNL A   1      41.632  24.800  35.813  1.00  0.00     0.002 A 
ATOM     86  C   UNL A   1      43.770  24.356  34.805  1.00  0.00     0.091 A 
ATOM     87  F   UNL A   1      44.975  26.093  33.764  1.00  0.00    -0.205 F 
ATOM     88  C   UNL A   1      42.682  23.928  35.568  1.00  0.00     0.022 A 
BRANCH  86  89
ATOM     89  S   UNL A   1      44.965  23.125  34.268  1.00  0.00     0.127 S 
ATOM     90  O   UNL A   1      44.439  21.906  34.879  1.00  0.00    -0.237 OA
ATOM     91  O   UNL A   1      44.837  23.179  32.811  1.00  0.00    -0.237 OA
ATOM     92  O   UNL A   1      46.249  23.593  34.770  1.00  0.00    -0.744 OA
ENDBRANCH  86  89
ENDBRANCH  59  82
ENDBRANCH  33  34
ENDBRANCH  25  28
ENDBRANCH  23  24
ENDBRANCH   1  23
TORSDOF 16
ENDMDL
