MODEL 1
REMARK VINA RESULT:     -12.7      0.000      0.000
REMARK SMILES CS(=O)(=O)c1ccc(/C=C(/C(=O)NCCCNC(=O)c2ccc(-c3c4nc(c(-c5cccc(S(=O)(=O)[O-])c5F)c5ccc([nH]5)c(-c5cccc(S(=O)(=O)[O-])c5F)c5nc(c(-c6cccc(S(=O)(=O)[O-])c6F)c6ccc3[nH]6)C=C5)C=C4)cc2)c2ccc(F)cc2)cc1
REMARK SMILES IDX 15 1 14 2 13 3 11 4 12 5 10 7 9 8 8 9 5 10 6 11 91 12 7 13
REMARK SMILES IDX 90 14 2 15 1 16 3 17 4 18 83 19 84 20 89 21 85 22 88 23
REMARK SMILES IDX 86 24 87 25 16 26 17 27 18 28 19 30 20 31 21 32 82 33 22 34
REMARK SMILES IDX 81 35 23 36 24 37 25 38 75 39 26 40 80 41 74 42 76 43 27 44
REMARK SMILES IDX 79 45 73 46 72 47 28 49 60 50 40 51 59 52 41 53 44 54 58 55
REMARK SMILES IDX 77 56 42 57 43 58 57 60 78 61 45 62 29 63 30 64 38 65 31 66
REMARK SMILES IDX 33 67 39 68 32 69 34 70 35 71 36 72 37 73 61 74 62 75 70 76
REMARK SMILES IDX 63 77 65 78 71 79 64 80 66 81 67 82 68 83 69 84 46 85 47 86
REMARK SMILES IDX 55 87 48 88 50 89 56 90 49 91 51 92 52 93 53 94 54 95
REMARK H PARENT 13 6 17 29 76 48 44 59
REMARK Flexibility Score: inf
ROOT
ATOM      1  C   UNL A   1      33.845  27.885  25.934  1.00  0.00     0.042 C 
ENDROOT
BRANCH   1   2
ATOM      2  C   UNL A   1      32.777  27.107  25.165  1.00  0.00     0.118 C 
BRANCH   2   3
ATOM      3  N   UNL A   1      33.117  27.031  23.756  1.00  0.00    -0.352 N 
ATOM      4  C   UNL A   1      33.537  26.032  22.938  1.00  0.00     0.251 C 
ATOM      5  O   UNL A   1      33.751  26.349  21.766  1.00  0.00    -0.269 OA
ATOM      6  H   UNL A   1      33.022  27.894  23.291  1.00  0.00     0.163 HD
BRANCH   4   7
ATOM      7  C   UNL A   1      33.648  24.587  23.372  1.00  0.00     0.047 C 
ATOM      8  C   UNL A   1      32.574  23.765  23.424  1.00  0.00     0.022 C 
BRANCH   8   9
ATOM      9  C   UNL A   1      32.503  22.305  23.664  1.00  0.00    -0.025 A 
ATOM     10  C   UNL A   1      32.555  19.509  23.895  1.00  0.00     0.067 A 
ATOM     11  C   UNL A   1      32.775  20.303  25.020  1.00  0.00     0.021 A 
ATOM     12  C   UNL A   1      32.271  20.090  22.661  1.00  0.00     0.021 A 
ATOM     13  C   UNL A   1      32.707  21.695  24.906  1.00  0.00     0.009 A 
ATOM     14  C   UNL A   1      32.243  21.483  22.551  1.00  0.00     0.009 A 
BRANCH  10  15
ATOM     15  S   UNL A   1      32.682  17.743  24.032  1.00  0.00     0.175 S 
ATOM     16  C   UNL A   1      34.404  17.494  24.373  1.00  0.00     0.163 C 
ATOM     17  O   UNL A   1      32.388  17.177  22.731  1.00  0.00    -0.224 OA
ATOM     18  O   UNL A   1      31.921  17.338  25.202  1.00  0.00    -0.224 OA
ENDBRANCH  10  15
ENDBRANCH   8   9
BRANCH   7  19
ATOM     19  C   UNL A   1      34.962  24.159  23.915  1.00  0.00    -0.013 A 
ATOM     20  C   UNL A   1      35.275  24.505  25.244  1.00  0.00     0.012 A 
ATOM     21  C   UNL A   1      35.850  23.344  23.197  1.00  0.00     0.012 A 
ATOM     22  C   UNL A   1      36.424  24.014  25.859  1.00  0.00     0.040 A 
ATOM     23  C   UNL A   1      36.992  22.835  23.824  1.00  0.00     0.040 A 
ATOM     24  C   UNL A   1      37.263  23.169  25.148  1.00  0.00     0.123 A 
ATOM     25  F   UNL A   1      38.340  22.652  25.753  1.00  0.00    -0.207 F 
ENDBRANCH   7  19
ENDBRANCH   4   7
ENDBRANCH   2   3
ENDBRANCH   1   2
BRANCH   1  26
ATOM     26  C   UNL A   1      33.331  28.481  27.243  1.00  0.00     0.118 C 
BRANCH  26  27
ATOM     27  N   UNL A   1      33.458  29.930  27.265  1.00  0.00    -0.352 N 
ATOM     28  C   UNL A   1      34.433  30.724  27.812  1.00  0.00     0.251 C 
ATOM     29  H   UNL A   1      32.729  30.418  26.815  1.00  0.00     0.163 HD
ATOM     30  O   UNL A   1      34.216  31.925  27.946  1.00  0.00    -0.269 OA
BRANCH  28  31
ATOM     31  C   UNL A   1      35.732  30.152  28.227  1.00  0.00     0.039 A 
ATOM     32  C   UNL A   1      35.845  29.604  29.509  1.00  0.00     0.014 A 
ATOM     33  C   UNL A   1      36.855  30.219  27.398  1.00  0.00     0.014 A 
ATOM     34  C   UNL A   1      37.076  29.115  29.950  1.00  0.00     0.010 A 
ATOM     35  C   UNL A   1      38.058  29.651  27.805  1.00  0.00     0.010 A 
ATOM     36  C   UNL A   1      38.192  29.126  29.098  1.00  0.00    -0.014 A 
BRANCH  36  37
ATOM     37  C   UNL A   1      39.519  28.644  29.564  1.00  0.00     0.031 A 
ATOM     38  C   UNL A   1      40.239  29.376  30.668  1.00  0.00     0.074 A 
ATOM     39  C   UNL A   1      40.098  27.587  28.961  1.00  0.00     0.049 A 
ATOM     40  N   UNL A   1      41.416  29.136  31.186  1.00  0.00    -0.248 NA
ATOM     41  C   UNL A   1      39.564  30.550  31.250  1.00  0.00     0.031 C 
ATOM     42  C   UNL A   1      39.534  26.839  27.835  1.00  0.00     0.029 A 
ATOM     43  N   UNL A   1      41.302  26.971  29.197  1.00  0.00    -0.354 N 
ATOM     44  C   UNL A   1      41.638  30.146  32.115  1.00  0.00     0.074 A 
ATOM     45  C   UNL A   1      40.490  31.023  32.072  1.00  0.00     0.031 C 
ATOM     46  C   UNL A   1      40.387  25.864  27.482  1.00  0.00     0.029 A 
ATOM     47  C   UNL A   1      41.571  25.936  28.331  1.00  0.00     0.049 A 
ATOM     48  H   UNL A   1      41.915  27.244  29.917  1.00  0.00     0.167 HD
ATOM     49  C   UNL A   1      42.691  30.315  32.950  1.00  0.00     0.034 A 
ATOM     50  C   UNL A   1      42.655  25.141  28.229  1.00  0.00     0.034 A 
ATOM     51  C   UNL A   1      43.805  29.411  33.027  1.00  0.00     0.049 A 
ATOM     52  C   UNL A   1      43.784  25.322  29.209  1.00  0.00     0.074 A 
ATOM     53  C   UNL A   1      44.878  29.443  33.902  1.00  0.00     0.029 A 
ATOM     54  N   UNL A   1      43.995  28.317  32.199  1.00  0.00    -0.354 N 
ATOM     55  N   UNL A   1      43.904  26.194  30.180  1.00  0.00    -0.248 NA
ATOM     56  C   UNL A   1      44.907  24.379  29.109  1.00  0.00     0.031 C 
ATOM     57  C   UNL A   1      45.735  28.388  33.578  1.00  0.00     0.029 A 
ATOM     58  C   UNL A   1      45.170  27.669  32.537  1.00  0.00     0.049 A 
ATOM     59  H   UNL A   1      43.386  28.042  31.477  1.00  0.00     0.167 HD
ATOM     60  C   UNL A   1      45.085  25.870  30.839  1.00  0.00     0.074 A 
ATOM     61  C   UNL A   1      45.635  24.713  30.165  1.00  0.00     0.031 C 
ATOM     62  C   UNL A   1      45.668  26.479  31.901  1.00  0.00     0.034 A 
BRANCH  49  63
ATOM     63  C   UNL A   1      42.678  31.498  33.881  1.00  0.00     0.023 A 
ATOM     64  C   UNL A   1      43.165  32.745  33.441  1.00  0.00     0.012 A 
ATOM     65  C   UNL A   1      42.096  31.397  35.160  1.00  0.00     0.148 A 
ATOM     66  C   UNL A   1      43.095  33.867  34.266  1.00  0.00     0.002 A 
ATOM     67  C   UNL A   1      41.983  32.529  35.958  1.00  0.00     0.091 A 
ATOM     68  F   UNL A   1      41.657  30.198  35.569  1.00  0.00    -0.205 F 
ATOM     69  C   UNL A   1      42.493  33.762  35.517  1.00  0.00     0.022 A 
BRANCH  67  70
ATOM     70  S   UNL A   1      41.146  32.520  37.547  1.00  0.00     0.127 S 
ATOM     71  O   UNL A   1      41.998  31.620  38.323  1.00  0.00    -0.237 OA
ATOM     72  O   UNL A   1      41.226  33.926  37.940  1.00  0.00    -0.237 OA
ATOM     73  O   UNL A   1      39.799  32.030  37.292  1.00  0.00    -0.744 OA
ENDBRANCH  67  70
ENDBRANCH  49  63
BRANCH  50  74
ATOM     74  C   UNL A   1      42.714  24.069  27.195  1.00  0.00     0.023 A 
ATOM     75  C   UNL A   1      43.348  24.322  25.963  1.00  0.00     0.012 A 
ATOM     76  C   UNL A   1      42.127  22.809  27.417  1.00  0.00     0.148 A 
ATOM     77  C   UNL A   1      43.346  23.361  24.950  1.00  0.00     0.002 A 
ATOM     78  C   UNL A   1      42.183  21.835  26.428  1.00  0.00     0.091 A 
ATOM     79  F   UNL A   1      41.522  22.587  28.592  1.00  0.00    -0.205 F 
ATOM     80  C   UNL A   1      42.770  22.116  25.185  1.00  0.00     0.022 A 
BRANCH  78  81
ATOM     81  S   UNL A   1      41.584  20.162  26.695  1.00  0.00     0.127 S 
ATOM     82  O   UNL A   1      40.161  20.388  26.931  1.00  0.00    -0.237 OA
ATOM     83  O   UNL A   1      41.904  19.519  25.420  1.00  0.00    -0.237 OA
ATOM     84  O   UNL A   1      42.345  19.652  27.828  1.00  0.00    -0.744 OA
ENDBRANCH  78  81
ENDBRANCH  50  74
BRANCH  62  85
ATOM     85  C   UNL A   1      46.923  25.862  32.461  1.00  0.00     0.023 A 
ATOM     86  C   UNL A   1      48.188  26.270  31.996  1.00  0.00     0.012 A 
ATOM     87  C   UNL A   1      46.838  24.913  33.498  1.00  0.00     0.148 A 
ATOM     88  C   UNL A   1      49.349  25.706  32.524  1.00  0.00     0.002 A 
ATOM     89  C   UNL A   1      48.000  24.400  34.059  1.00  0.00     0.091 A 
ATOM     90  F   UNL A   1      45.623  24.524  33.914  1.00  0.00    -0.205 F 
ATOM     91  C   UNL A   1      49.256  24.782  33.562  1.00  0.00     0.022 A 
BRANCH  89  92
ATOM     92  S   UNL A   1      47.972  23.288  35.469  1.00  0.00     0.127 S 
ATOM     93  O   UNL A   1      47.239  24.078  36.457  1.00  0.00    -0.237 OA
ATOM     94  O   UNL A   1      47.238  22.137  34.942  1.00  0.00    -0.237 OA
ATOM     95  O   UNL A   1      49.366  23.016  35.793  1.00  0.00    -0.744 OA
ENDBRANCH  89  92
ENDBRANCH  62  85
ENDBRANCH  36  37
ENDBRANCH  28  31
ENDBRANCH  26  27
ENDBRANCH   1  26
TORSDOF 16
ENDMDL
MODEL 2
REMARK VINA RESULT:     -12.5      5.138      9.998
REMARK SMILES CS(=O)(=O)c1ccc(/C=C(/C(=O)NCCCNC(=O)c2ccc(-c3c4nc(c(-c5cccc(S(=O)(=O)[O-])c5F)c5ccc([nH]5)c(-c5cccc(S(=O)(=O)[O-])c5F)c5nc(c(-c6cccc(S(=O)(=O)[O-])c6F)c6ccc3[nH]6)C=C5)C=C4)cc2)c2ccc(F)cc2)cc1
REMARK SMILES IDX 15 1 14 2 13 3 11 4 12 5 10 7 9 8 8 9 5 10 6 11 91 12 7 13
REMARK SMILES IDX 90 14 2 15 1 16 3 17 4 18 83 19 84 20 89 21 85 22 88 23
REMARK SMILES IDX 86 24 87 25 16 26 17 27 18 28 19 30 20 31 21 32 82 33 22 34
REMARK SMILES IDX 81 35 23 36 24 37 25 38 75 39 26 40 80 41 74 42 76 43 27 44
REMARK SMILES IDX 79 45 73 46 72 47 28 49 60 50 40 51 59 52 41 53 44 54 58 55
REMARK SMILES IDX 77 56 42 57 43 58 57 60 78 61 45 62 29 63 30 64 38 65 31 66
REMARK SMILES IDX 33 67 39 68 32 69 34 70 35 71 36 72 37 73 61 74 62 75 70 76
REMARK SMILES IDX 63 77 65 78 71 79 64 80 66 81 67 82 68 83 69 84 46 85 47 86
REMARK SMILES IDX 55 87 48 88 50 89 56 90 49 91 51 92 52 93 53 94 54 95
REMARK H PARENT 13 6 17 29 76 48 44 59
REMARK Flexibility Score: inf
ROOT
ATOM      1  C   UNL A   1      36.205  23.548  24.293  1.00  0.00     0.042 C 
ENDROOT
BRANCH   1   2
ATOM      2  C   UNL A   1      34.734  23.868  24.025  1.00  0.00     0.118 C 
BRANCH   2   3
ATOM      3  N   UNL A   1      33.923  23.548  25.185  1.00  0.00    -0.352 N 
ATOM      4  C   UNL A   1      32.904  24.176  25.826  1.00  0.00     0.251 C 
ATOM      5  O   UNL A   1      32.455  23.598  26.819  1.00  0.00    -0.269 OA
ATOM      6  H   UNL A   1      34.164  22.687  25.597  1.00  0.00     0.163 HD
BRANCH   4   7
ATOM      7  C   UNL A   1      32.262  25.452  25.329  1.00  0.00     0.047 C 
ATOM      8  C   UNL A   1      31.594  25.513  24.154  1.00  0.00     0.022 C 
BRANCH   8   9
ATOM      9  C   UNL A   1      30.775  26.606  23.580  1.00  0.00    -0.025 A 
ATOM     10  C   UNL A   1      29.119  28.719  22.762  1.00  0.00     0.067 A 
ATOM     11  C   UNL A   1      30.471  28.722  22.418  1.00  0.00     0.021 A 
ATOM     12  C   UNL A   1      28.572  27.655  23.477  1.00  0.00     0.021 A 
ATOM     13  C   UNL A   1      31.281  27.647  22.794  1.00  0.00     0.009 A 
ATOM     14  C   UNL A   1      29.400  26.604  23.880  1.00  0.00     0.009 A 
BRANCH  10  15
ATOM     15  S   UNL A   1      28.101  30.104  22.320  1.00  0.00     0.175 S 
ATOM     16  C   UNL A   1      29.070  31.493  22.845  1.00  0.00     0.163 C 
ATOM     17  O   UNL A   1      26.904  30.049  23.134  1.00  0.00    -0.224 OA
ATOM     18  O   UNL A   1      28.007  30.135  20.870  1.00  0.00    -0.224 OA
ENDBRANCH  10  15
ENDBRANCH   8   9
BRANCH   7  19
ATOM     19  C   UNL A   1      32.557  26.685  26.103  1.00  0.00    -0.013 A 
ATOM     20  C   UNL A   1      33.830  27.270  25.960  1.00  0.00     0.012 A 
ATOM     21  C   UNL A   1      31.591  27.339  26.882  1.00  0.00     0.012 A 
ATOM     22  C   UNL A   1      34.122  28.500  26.544  1.00  0.00     0.040 A 
ATOM     23  C   UNL A   1      31.879  28.585  27.448  1.00  0.00     0.040 A 
ATOM     24  C   UNL A   1      33.136  29.155  27.268  1.00  0.00     0.123 A 
ATOM     25  F   UNL A   1      33.395  30.363  27.785  1.00  0.00    -0.207 F 
ENDBRANCH   7  19
ENDBRANCH   4   7
ENDBRANCH   2   3
ENDBRANCH   1   2
BRANCH   1  26
ATOM     26  C   UNL A   1      36.575  23.608  25.773  1.00  0.00     0.118 C 
BRANCH  26  27
ATOM     27  N   UNL A   1      37.575  22.609  26.122  1.00  0.00    -0.352 N 
ATOM     28  C   UNL A   1      38.882  22.763  26.504  1.00  0.00     0.251 C 
ATOM     29  H   UNL A   1      37.263  21.675  26.077  1.00  0.00     0.163 HD
ATOM     30  O   UNL A   1      39.623  21.784  26.499  1.00  0.00    -0.269 OA
BRANCH  28  31
ATOM     31  C   UNL A   1      39.398  24.083  26.926  1.00  0.00     0.039 A 
ATOM     32  C   UNL A   1      39.261  24.462  28.265  1.00  0.00     0.014 A 
ATOM     33  C   UNL A   1      39.944  24.980  26.002  1.00  0.00     0.014 A 
ATOM     34  C   UNL A   1      39.681  25.728  28.677  1.00  0.00     0.010 A 
ATOM     35  C   UNL A   1      40.444  26.206  26.431  1.00  0.00     0.010 A 
ATOM     36  C   UNL A   1      40.285  26.608  27.764  1.00  0.00    -0.014 A 
BRANCH  36  37
ATOM     37  C   UNL A   1      40.703  27.973  28.177  1.00  0.00     0.031 A 
ATOM     38  C   UNL A   1      42.164  28.350  28.162  1.00  0.00     0.074 A 
ATOM     39  C   UNL A   1      39.781  28.853  28.616  1.00  0.00     0.049 A 
ATOM     40  N   UNL A   1      42.729  29.473  28.520  1.00  0.00    -0.248 NA
ATOM     41  C   UNL A   1      43.119  27.321  27.711  1.00  0.00     0.031 C 
ATOM     42  C   UNL A   1      38.347  28.584  28.745  1.00  0.00     0.029 A 
ATOM     43  N   UNL A   1      39.916  30.146  29.057  1.00  0.00    -0.354 N 
ATOM     44  C   UNL A   1      44.098  29.273  28.382  1.00  0.00     0.074 A 
ATOM     45  C   UNL A   1      44.285  27.911  27.936  1.00  0.00     0.031 C 
ATOM     46  C   UNL A   1      37.735  29.678  29.227  1.00  0.00     0.029 A 
ATOM     47  C   UNL A   1      38.733  30.714  29.472  1.00  0.00     0.049 A 
ATOM     48  H   UNL A   1      40.777  30.622  29.075  1.00  0.00     0.167 HD
ATOM     49  C   UNL A   1      45.109  30.151  28.582  1.00  0.00     0.034 A 
ATOM     50  C   UNL A   1      38.485  31.928  30.000  1.00  0.00     0.034 A 
ATOM     51  C   UNL A   1      44.915  31.520  28.973  1.00  0.00     0.049 A 
ATOM     52  C   UNL A   1      39.624  32.900  30.157  1.00  0.00     0.074 A 
ATOM     53  C   UNL A   1      45.867  32.515  29.115  1.00  0.00     0.029 A 
ATOM     54  N   UNL A   1      43.692  32.086  29.292  1.00  0.00    -0.354 N 
ATOM     55  N   UNL A   1      40.894  32.736  29.877  1.00  0.00    -0.248 NA
ATOM     56  C   UNL A   1      39.290  34.239  30.661  1.00  0.00     0.031 C 
ATOM     57  C   UNL A   1      45.222  33.676  29.553  1.00  0.00     0.029 A 
ATOM     58  C   UNL A   1      43.863  33.416  29.634  1.00  0.00     0.049 A 
ATOM     59  H   UNL A   1      42.829  31.613  29.277  1.00  0.00     0.167 HD
ATOM     60  C   UNL A   1      41.498  33.966  30.117  1.00  0.00     0.074 A 
ATOM     61  C   UNL A   1      40.452  34.867  30.550  1.00  0.00     0.031 C 
ATOM     62  C   UNL A   1      42.802  34.317  29.998  1.00  0.00     0.034 A 
BRANCH  49  63
ATOM     63  C   UNL A   1      46.520  29.680  28.343  1.00  0.00     0.023 A 
ATOM     64  C   UNL A   1      47.133  29.904  27.094  1.00  0.00     0.012 A 
ATOM     65  C   UNL A   1      47.268  29.103  29.388  1.00  0.00     0.148 A 
ATOM     66  C   UNL A   1      48.462  29.538  26.880  1.00  0.00     0.002 A 
ATOM     67  C   UNL A   1      48.606  28.788  29.184  1.00  0.00     0.091 A 
ATOM     68  F   UNL A   1      46.661  28.881  30.562  1.00  0.00    -0.205 F 
ATOM     69  C   UNL A   1      49.202  28.994  27.927  1.00  0.00     0.022 A 
BRANCH  67  70
ATOM     70  S   UNL A   1      49.668  28.165  30.491  1.00  0.00     0.127 S 
ATOM     71  O   UNL A   1      50.937  27.993  29.783  1.00  0.00    -0.237 OA
ATOM     72  O   UNL A   1      49.650  29.270  31.449  1.00  0.00    -0.237 OA
ATOM     73  O   UNL A   1      49.051  26.935  30.963  1.00  0.00    -0.744 OA
ENDBRANCH  67  70
ENDBRANCH  49  63
BRANCH  50  74
ATOM     74  C   UNL A   1      37.096  32.322  30.376  1.00  0.00     0.023 A 
ATOM     75  C   UNL A   1      36.609  32.020  31.662  1.00  0.00     0.012 A 
ATOM     76  C   UNL A   1      36.251  32.975  29.459  1.00  0.00     0.148 A 
ATOM     77  C   UNL A   1      35.287  32.307  32.009  1.00  0.00     0.002 A 
ATOM     78  C   UNL A   1      34.956  33.314  29.832  1.00  0.00     0.091 A 
ATOM     79  F   UNL A   1      36.728  33.249  28.237  1.00  0.00    -0.205 F 
ATOM     80  C   UNL A   1      34.464  32.960  31.097  1.00  0.00     0.022 A 
BRANCH  78  81
ATOM     81  S   UNL A   1      33.872  34.273  28.767  1.00  0.00     0.127 S 
ATOM     82  O   UNL A   1      33.520  33.297  27.741  1.00  0.00    -0.237 OA
ATOM     83  O   UNL A   1      32.786  34.627  29.681  1.00  0.00    -0.237 OA
ATOM     84  O   UNL A   1      34.669  35.408  28.319  1.00  0.00    -0.744 OA
ENDBRANCH  78  81
ENDBRANCH  50  74
BRANCH  62  85
ATOM     85  C   UNL A   1      43.168  35.755  30.256  1.00  0.00     0.023 A 
ATOM     86  C   UNL A   1      43.724  36.141  31.491  1.00  0.00     0.012 A 
ATOM     87  C   UNL A   1      43.009  36.715  29.237  1.00  0.00     0.148 A 
ATOM     88  C   UNL A   1      44.072  37.471  31.724  1.00  0.00     0.002 A 
ATOM     89  C   UNL A   1      43.413  38.025  29.456  1.00  0.00     0.091 A 
ATOM     90  F   UNL A   1      42.461  36.332  28.074  1.00  0.00    -0.205 F 
ATOM     91  C   UNL A   1      43.928  38.409  30.704  1.00  0.00     0.022 A 
BRANCH  89  92
ATOM     92  S   UNL A   1      43.363  39.272  28.164  1.00  0.00     0.127 S 
ATOM     93  O   UNL A   1      44.277  40.284  28.692  1.00  0.00    -0.237 OA
ATOM     94  O   UNL A   1      43.871  38.538  27.005  1.00  0.00    -0.237 OA
ATOM     95  O   UNL A   1      41.969  39.681  28.055  1.00  0.00    -0.744 OA
ENDBRANCH  89  92
ENDBRANCH  62  85
ENDBRANCH  36  37
ENDBRANCH  28  31
ENDBRANCH  26  27
ENDBRANCH   1  26
TORSDOF 16
ENDMDL
MODEL 3
REMARK VINA RESULT:     -12.5      4.800      9.821
REMARK SMILES CS(=O)(=O)c1ccc(/C=C(/C(=O)NCCCNC(=O)c2ccc(-c3c4nc(c(-c5cccc(S(=O)(=O)[O-])c5F)c5ccc([nH]5)c(-c5cccc(S(=O)(=O)[O-])c5F)c5nc(c(-c6cccc(S(=O)(=O)[O-])c6F)c6ccc3[nH]6)C=C5)C=C4)cc2)c2ccc(F)cc2)cc1
REMARK SMILES IDX 15 1 14 2 13 3 11 4 12 5 10 7 9 8 8 9 5 10 6 11 91 12 7 13
REMARK SMILES IDX 90 14 2 15 1 16 3 17 4 18 83 19 84 20 89 21 85 22 88 23
REMARK SMILES IDX 86 24 87 25 16 26 17 27 18 28 19 30 20 31 21 32 82 33 22 34
REMARK SMILES IDX 81 35 23 36 24 37 25 38 75 39 26 40 80 41 74 42 76 43 27 44
REMARK SMILES IDX 79 45 73 46 72 47 28 49 60 50 40 51 59 52 41 53 44 54 58 55
REMARK SMILES IDX 77 56 42 57 43 58 57 60 78 61 45 62 29 63 30 64 38 65 31 66
REMARK SMILES IDX 33 67 39 68 32 69 34 70 35 71 36 72 37 73 61 74 62 75 70 76
REMARK SMILES IDX 63 77 65 78 71 79 64 80 66 81 67 82 68 83 69 84 46 85 47 86
REMARK SMILES IDX 55 87 48 88 50 89 56 90 49 91 51 92 52 93 53 94 54 95
REMARK H PARENT 13 6 17 29 76 48 44 59
REMARK Flexibility Score: inf
ROOT
ATOM      1  C   UNL A   1      35.873  23.801  25.829  1.00  0.00     0.042 C 
ENDROOT
BRANCH   1   2
ATOM      2  C   UNL A   1      34.525  23.817  25.108  1.00  0.00     0.118 C 
BRANCH   2   3
ATOM      3  N   UNL A   1      33.449  23.504  26.030  1.00  0.00    -0.352 N 
ATOM      4  C   UNL A   1      32.315  24.147  26.409  1.00  0.00     0.251 C 
ATOM      5  O   UNL A   1      31.626  23.571  27.255  1.00  0.00    -0.269 OA
ATOM      6  H   UNL A   1      33.568  22.636  26.479  1.00  0.00     0.163 HD
BRANCH   4   7
ATOM      7  C   UNL A   1      31.835  25.438  25.784  1.00  0.00     0.047 C 
ATOM      8  C   UNL A   1      31.143  25.462  24.621  1.00  0.00     0.022 C 
BRANCH   8   9
ATOM      9  C   UNL A   1      30.461  26.588  23.942  1.00  0.00    -0.025 A 
ATOM     10  C   UNL A   1      29.012  28.754  22.901  1.00  0.00     0.067 A 
ATOM     11  C   UNL A   1      30.406  28.757  22.838  1.00  0.00     0.021 A 
ATOM     12  C   UNL A   1      28.328  27.668  23.442  1.00  0.00     0.021 A 
ATOM     13  C   UNL A   1      31.119  27.656  23.322  1.00  0.00     0.009 A 
ATOM     14  C   UNL A   1      29.054  26.590  23.957  1.00  0.00     0.009 A 
BRANCH  10  15
ATOM     15  S   UNL A   1      28.109  30.170  22.324  1.00  0.00     0.175 S 
ATOM     16  C   UNL A   1      29.180  31.520  22.739  1.00  0.00     0.163 C 
ATOM     17  O   UNL A   1      26.905  30.280  23.123  1.00  0.00    -0.224 OA
ATOM     18  O   UNL A   1      28.028  30.079  20.876  1.00  0.00    -0.224 OA
ENDBRANCH  10  15
ENDBRANCH   8   9
BRANCH   7  19
ATOM     19  C   UNL A   1      32.317  26.695  26.410  1.00  0.00    -0.013 A 
ATOM     20  C   UNL A   1      33.622  27.130  26.105  1.00  0.00     0.012 A 
ATOM     21  C   UNL A   1      31.496  27.510  27.203  1.00  0.00     0.012 A 
ATOM     22  C   UNL A   1      34.083  28.368  26.544  1.00  0.00     0.040 A 
ATOM     23  C   UNL A   1      31.954  28.763  27.622  1.00  0.00     0.040 A 
ATOM     24  C   UNL A   1      33.237  29.182  27.283  1.00  0.00     0.123 A 
ATOM     25  F   UNL A   1      33.657  30.396  27.660  1.00  0.00    -0.207 F 
ENDBRANCH   7  19
ENDBRANCH   4   7
ENDBRANCH   2   3
ENDBRANCH   1   2
BRANCH   1  26
ATOM     26  C   UNL A   1      37.035  23.394  24.926  1.00  0.00     0.118 C 
BRANCH  26  27
ATOM     27  N   UNL A   1      37.914  22.431  25.575  1.00  0.00    -0.352 N 
ATOM     28  C   UNL A   1      39.056  22.631  26.306  1.00  0.00     0.251 C 
ATOM     29  H   UNL A   1      37.646  21.489  25.472  1.00  0.00     0.163 HD
ATOM     30  O   UNL A   1      39.787  21.673  26.542  1.00  0.00    -0.269 OA
BRANCH  28  31
ATOM     31  C   UNL A   1      39.405  23.975  26.816  1.00  0.00     0.039 A 
ATOM     32  C   UNL A   1      40.050  24.872  25.958  1.00  0.00     0.014 A 
ATOM     33  C   UNL A   1      39.174  24.330  28.147  1.00  0.00     0.014 A 
ATOM     34  C   UNL A   1      40.447  26.123  26.431  1.00  0.00     0.010 A 
ATOM     35  C   UNL A   1      39.491  25.610  28.593  1.00  0.00     0.010 A 
ATOM     36  C   UNL A   1      40.163  26.507  27.752  1.00  0.00    -0.014 A 
BRANCH  36  37
ATOM     37  C   UNL A   1      40.613  27.820  28.283  1.00  0.00     0.031 A 
ATOM     38  C   UNL A   1      42.086  28.110  28.425  1.00  0.00     0.074 A 
ATOM     39  C   UNL A   1      39.702  28.728  28.687  1.00  0.00     0.049 A 
ATOM     40  N   UNL A   1      42.675  29.176  28.901  1.00  0.00    -0.248 NA
ATOM     41  C   UNL A   1      43.023  27.053  28.004  1.00  0.00     0.031 C 
ATOM     42  C   UNL A   1      38.249  28.538  28.667  1.00  0.00     0.029 A 
ATOM     43  N   UNL A   1      39.863  29.984  29.216  1.00  0.00    -0.354 N 
ATOM     44  C   UNL A   1      44.037  28.903  28.878  1.00  0.00     0.074 A 
ATOM     45  C   UNL A   1      44.193  27.559  28.370  1.00  0.00     0.031 C 
ATOM     46  C   UNL A   1      37.655  29.638  29.155  1.00  0.00     0.029 A 
ATOM     47  C   UNL A   1      38.679  30.598  29.553  1.00  0.00     0.049 A 
ATOM     48  H   UNL A   1      40.744  30.407  29.341  1.00  0.00     0.167 HD
ATOM     49  C   UNL A   1      45.071  29.707  29.223  1.00  0.00     0.034 A 
ATOM     50  C   UNL A   1      38.447  31.795  30.128  1.00  0.00     0.034 A 
ATOM     51  C   UNL A   1      44.915  31.061  29.676  1.00  0.00     0.049 A 
ATOM     52  C   UNL A   1      39.617  32.686  30.448  1.00  0.00     0.074 A 
ATOM     53  C   UNL A   1      45.901  31.989  29.965  1.00  0.00     0.029 A 
ATOM     54  N   UNL A   1      43.699  31.681  29.914  1.00  0.00    -0.354 N 
ATOM     55  N   UNL A   1      40.898  32.463  30.277  1.00  0.00    -0.248 NA
ATOM     56  C   UNL A   1      39.309  34.014  30.998  1.00  0.00     0.031 C 
ATOM     57  C   UNL A   1      45.281  33.160  30.410  1.00  0.00     0.029 A 
ATOM     58  C   UNL A   1      43.908  32.977  30.350  1.00  0.00     0.049 A 
ATOM     59  H   UNL A   1      42.817  31.261  29.792  1.00  0.00     0.167 HD
ATOM     60  C   UNL A   1      41.541  33.640  30.644  1.00  0.00     0.074 A 
ATOM     61  C   UNL A   1      40.509  34.577  31.033  1.00  0.00     0.031 C 
ATOM     62  C   UNL A   1      42.868  33.919  30.668  1.00  0.00     0.034 A 
BRANCH  49  63
ATOM     63  C   UNL A   1      46.470  29.167  29.087  1.00  0.00     0.023 A 
ATOM     64  C   UNL A   1      47.102  28.566  30.194  1.00  0.00     0.012 A 
ATOM     65  C   UNL A   1      47.121  29.170  27.837  1.00  0.00     0.148 A 
ATOM     66  C   UNL A   1      48.369  27.997  30.066  1.00  0.00     0.002 A 
ATOM     67  C   UNL A   1      48.361  28.557  27.705  1.00  0.00     0.091 A 
ATOM     68  F   UNL A   1      46.511  29.764  26.801  1.00  0.00    -0.205 F 
ATOM     69  C   UNL A   1      48.992  27.981  28.820  1.00  0.00     0.022 A 
BRANCH  67  70
ATOM     70  S   UNL A   1      49.206  28.404  26.128  1.00  0.00     0.127 S 
ATOM     71  O   UNL A   1      49.915  29.680  26.048  1.00  0.00    -0.237 OA
ATOM     72  O   UNL A   1      50.064  27.242  26.355  1.00  0.00    -0.237 OA
ATOM     73  O   UNL A   1      48.166  28.210  25.128  1.00  0.00    -0.744 OA
ENDBRANCH  67  70
ENDBRANCH  49  63
BRANCH  50  74
ATOM     74  C   UNL A   1      37.052  32.249  30.397  1.00  0.00     0.023 A 
ATOM     75  C   UNL A   1      36.466  31.996  31.652  1.00  0.00     0.012 A 
ATOM     76  C   UNL A   1      36.298  32.910  29.409  1.00  0.00     0.148 A 
ATOM     77  C   UNL A   1      35.136  32.341  31.900  1.00  0.00     0.002 A 
ATOM     78  C   UNL A   1      34.995  33.307  29.683  1.00  0.00     0.091 A 
ATOM     79  F   UNL A   1      36.869  33.137  28.218  1.00  0.00    -0.205 F 
ATOM     80  C   UNL A   1      34.403  33.002  30.918  1.00  0.00     0.022 A 
BRANCH  78  81
ATOM     81  S   UNL A   1      34.026  34.279  28.525  1.00  0.00     0.127 S 
ATOM     82  O   UNL A   1      34.913  35.409  28.267  1.00  0.00    -0.237 OA
ATOM     83  O   UNL A   1      33.869  33.349  27.406  1.00  0.00    -0.237 OA
ATOM     84  O   UNL A   1      32.784  34.591  29.220  1.00  0.00    -0.744 OA
ENDBRANCH  78  81
ENDBRANCH  50  74
BRANCH  62  85
ATOM     85  C   UNL A   1      43.284  35.316  31.044  1.00  0.00     0.023 A 
ATOM     86  C   UNL A   1      43.550  36.276  30.048  1.00  0.00     0.012 A 
ATOM     87  C   UNL A   1      43.351  35.688  32.402  1.00  0.00     0.148 A 
ATOM     88  C   UNL A   1      43.924  37.573  30.400  1.00  0.00     0.002 A 
ATOM     89  C   UNL A   1      43.666  36.997  32.742  1.00  0.00     0.091 A 
ATOM     90  F   UNL A   1      43.112  34.756  33.335  1.00  0.00    -0.205 F 
ATOM     91  C   UNL A   1      43.970  37.936  31.743  1.00  0.00     0.022 A 
BRANCH  89  92
ATOM     92  S   UNL A   1      43.644  37.577  34.442  1.00  0.00     0.127 S 
ATOM     93  O   UNL A   1      42.262  37.299  34.832  1.00  0.00    -0.237 OA
ATOM     94  O   UNL A   1      44.642  36.716  35.076  1.00  0.00    -0.237 OA
ATOM     95  O   UNL A   1      44.009  38.986  34.390  1.00  0.00    -0.744 OA
ENDBRANCH  89  92
ENDBRANCH  62  85
ENDBRANCH  36  37
ENDBRANCH  28  31
ENDBRANCH  26  27
ENDBRANCH   1  26
TORSDOF 16
ENDMDL
