MODEL 1
REMARK VINA RESULT:     -11.9      0.000      0.000
REMARK SMILES C[C@@H]1[C@H](C(=O)NCCCNC(=O)c2ccc(-c3c4nc(c(-c5cccc(S(=O)(=O)[O-])c5F)c5ccc([nH]5)c(-c5cccc(S(=O)(=O)[O-])c5F)c5nc(c(-c6cccc(S(=O)(=O)[O-])c6F)c6ccc3[nH]6)C=C5)C=C4)cc2)CCN1C(=O)COc1ccccc1O
REMARK SMILES IDX 7 1 6 2 4 3 5 4 3 6 1 7 2 8 78 9 76 10 77 11 79 12 80 13
REMARK SMILES IDX 81 14 82 15 83 16 84 17 88 18 85 19 87 20 86 21 89 22 8 24
REMARK SMILES IDX 9 25 10 26 11 27 12 29 13 30 14 31 75 32 15 33 74 34 16 35
REMARK SMILES IDX 17 36 18 37 68 38 19 39 73 40 67 41 69 42 20 43 72 44 66 45
REMARK SMILES IDX 65 46 21 48 53 49 33 50 52 51 34 52 37 53 51 54 70 55 35 56
REMARK SMILES IDX 36 57 50 59 71 60 38 61 22 62 23 63 31 64 24 65 26 66 32 67
REMARK SMILES IDX 25 68 27 69 28 70 29 71 30 72 54 73 55 74 63 75 56 76 58 77
REMARK SMILES IDX 64 78 57 79 59 80 60 81 61 82 62 83 39 84 40 85 48 86 41 87
REMARK SMILES IDX 43 88 49 89 42 90 44 91 45 92 46 93 47 94
REMARK H PARENT 6 5 89 23 10 28 69 47 37 58
REMARK Flexibility Score: inf
ROOT
ATOM      1  C   UNL A   1      33.889  29.547  27.236  1.00  0.00     0.117 C 
ENDROOT
BRANCH   1   2
ATOM      2  N   UNL A   1      32.817  28.629  27.593  1.00  0.00    -0.356 N 
ATOM      3  C   UNL A   1      31.976  27.869  26.848  1.00  0.00     0.225 C 
ATOM      4  O   UNL A   1      31.129  27.213  27.463  1.00  0.00    -0.275 OA
ATOM      5  H   UNL A   1      32.676  28.542  28.563  1.00  0.00     0.163 HD
BRANCH   3   6
ATOM      6  C   UNL A   1      32.032  27.791  25.335  1.00  0.00     0.102 C 
ATOM      7  C   UNL A   1      33.977  26.050  25.551  1.00  0.00     0.032 C 
ATOM      8  C   UNL A   1      33.213  27.047  24.692  1.00  0.00     0.094 C 
ATOM      9  N   UNL A   1      32.641  26.407  23.496  1.00  0.00    -0.336 N 
ATOM     10  C   UNL A   1      30.753  27.320  24.650  1.00  0.00     0.037 C 
ATOM     11  C   UNL A   1      31.192  26.466  23.476  1.00  0.00     0.121 C 
BRANCH   9  12
ATOM     12  C   UNL A   1      33.290  25.689  22.496  1.00  0.00     0.260 C 
ATOM     13  O   UNL A   1      33.678  26.252  21.468  1.00  0.00    -0.271 OA
BRANCH  12  14
ATOM     14  C   UNL A   1      33.572  24.195  22.714  1.00  0.00     0.329 C 
BRANCH  14  15
ATOM     15  O   UNL A   1      32.535  23.292  22.353  1.00  0.00    -0.480 OA
BRANCH  15  16
ATOM     16  C   UNL A   1      32.582  22.057  22.932  1.00  0.00     0.161 A 
ATOM     17  C   UNL A   1      33.369  21.965  24.082  1.00  0.00     0.050 A 
ATOM     18  C   UNL A   1      32.026  20.893  22.398  1.00  0.00     0.157 A 
ATOM     19  C   UNL A   1      33.551  20.735  24.716  1.00  0.00     0.004 A 
ATOM     20  C   UNL A   1      32.174  19.670  23.047  1.00  0.00     0.050 A 
ATOM     21  C   UNL A   1      32.943  19.589  24.206  1.00  0.00     0.004 A 
BRANCH  18  22
ATOM     22  O   UNL A   1      31.392  20.842  21.191  1.00  0.00    -0.504 OA
ATOM     23  H   UNL A   1      30.902  21.581  20.888  1.00  0.00     0.293 HD
ENDBRANCH  18  22
ENDBRANCH  15  16
ENDBRANCH  14  15
ENDBRANCH  12  14
ENDBRANCH   9  12
ENDBRANCH   3   6
ENDBRANCH   1   2
BRANCH   1  24
ATOM     24  C   UNL A   1      33.372  30.822  26.579  1.00  0.00     0.042 C 
BRANCH  24  25
ATOM     25  C   UNL A   1      32.381  31.610  27.421  1.00  0.00     0.118 C 
BRANCH  25  26
ATOM     26  N   UNL A   1      32.631  33.039  27.374  1.00  0.00    -0.352 N 
ATOM     27  C   UNL A   1      33.616  33.778  27.986  1.00  0.00     0.251 C 
ATOM     28  H   UNL A   1      32.002  33.557  26.820  1.00  0.00     0.163 HD
ATOM     29  O   UNL A   1      33.520  35.003  28.004  1.00  0.00    -0.269 OA
BRANCH  27  30
ATOM     30  C   UNL A   1      34.773  33.116  28.636  1.00  0.00     0.039 A 
ATOM     31  C   UNL A   1      34.547  32.290  29.742  1.00  0.00     0.014 A 
ATOM     32  C   UNL A   1      36.080  33.330  28.192  1.00  0.00     0.014 A 
ATOM     33  C   UNL A   1      35.622  31.647  30.365  1.00  0.00     0.010 A 
ATOM     34  C   UNL A   1      37.135  32.610  28.747  1.00  0.00     0.010 A 
ATOM     35  C   UNL A   1      36.924  31.779  29.856  1.00  0.00    -0.014 A 
BRANCH  35  36
ATOM     36  C   UNL A   1      38.082  31.089  30.485  1.00  0.00     0.031 A 
ATOM     37  C   UNL A   1      38.498  31.437  31.892  1.00  0.00     0.074 A 
ATOM     38  C   UNL A   1      38.811  30.208  29.769  1.00  0.00     0.049 A 
ATOM     39  N   UNL A   1      39.515  30.996  32.586  1.00  0.00    -0.248 NA
ATOM     40  C   UNL A   1      37.682  32.437  32.602  1.00  0.00     0.031 C 
ATOM     41  C   UNL A   1      38.564  29.842  28.373  1.00  0.00     0.029 A 
ATOM     42  N   UNL A   1      39.924  29.481  30.111  1.00  0.00    -0.354 N 
ATOM     43  C   UNL A   1      39.487  31.691  33.789  1.00  0.00     0.074 A 
ATOM     44  C   UNL A   1      38.375  32.612  33.718  1.00  0.00     0.031 C 
ATOM     45  C   UNL A   1      39.492  28.953  27.980  1.00  0.00     0.029 A 
ATOM     46  C   UNL A   1      40.415  28.706  29.084  1.00  0.00     0.049 A 
ATOM     47  H   UNL A   1      40.333  29.509  31.006  1.00  0.00     0.167 HD
ATOM     48  C   UNL A   1      40.288  31.553  34.873  1.00  0.00     0.034 A 
ATOM     49  C   UNL A   1      41.487  27.892  29.036  1.00  0.00     0.034 A 
ATOM     50  C   UNL A   1      41.353  30.592  34.968  1.00  0.00     0.049 A 
ATOM     51  C   UNL A   1      42.329  27.714  30.273  1.00  0.00     0.074 A 
ATOM     52  C   UNL A   1      42.160  30.309  36.055  1.00  0.00     0.029 A 
ATOM     53  N   UNL A   1      41.758  29.757  33.939  1.00  0.00    -0.354 N 
ATOM     54  N   UNL A   1      42.188  28.268  31.452  1.00  0.00    -0.248 NA
ATOM     55  C   UNL A   1      43.454  26.772  30.181  1.00  0.00     0.031 C 
ATOM     56  C   UNL A   1      43.065  29.311  35.679  1.00  0.00     0.029 A 
ATOM     57  C   UNL A   1      42.806  28.960  34.363  1.00  0.00     0.049 A 
ATOM     58  H   UNL A   1      41.358  29.734  33.040  1.00  0.00     0.167 HD
ATOM     59  C   UNL A   1      43.180  27.714  32.253  1.00  0.00     0.074 A 
ATOM     60  C   UNL A   1      43.902  26.767  31.430  1.00  0.00     0.031 C 
ATOM     61  C   UNL A   1      43.478  27.978  33.550  1.00  0.00     0.034 A 
BRANCH  48  62
ATOM     62  C   UNL A   1      39.999  32.419  36.072  1.00  0.00     0.023 A 
ATOM     63  C   UNL A   1      40.712  33.624  36.244  1.00  0.00     0.012 A 
ATOM     64  C   UNL A   1      38.993  32.075  36.996  1.00  0.00     0.148 A 
ATOM     65  C   UNL A   1      40.454  34.454  37.334  1.00  0.00     0.002 A 
ATOM     66  C   UNL A   1      38.710  32.930  38.055  1.00  0.00     0.091 A 
ATOM     67  F   UNL A   1      38.340  30.916  36.829  1.00  0.00    -0.205 F 
ATOM     68  C   UNL A   1      39.447  34.114  38.232  1.00  0.00     0.022 A 
BRANCH  66  69
ATOM     69  S   UNL A   1      37.380  32.621  39.222  1.00  0.00     0.127 S 
ATOM     70  O   UNL A   1      36.200  32.780  38.374  1.00  0.00    -0.237 OA
ATOM     71  O   UNL A   1      37.649  31.245  39.640  1.00  0.00    -0.237 OA
ATOM     72  O   UNL A   1      37.532  33.615  40.276  1.00  0.00    -0.744 OA
ENDBRANCH  66  69
ENDBRANCH  48  62
BRANCH  49  73
ATOM     73  C   UNL A   1      41.781  27.122  27.795  1.00  0.00     0.023 A 
ATOM     74  C   UNL A   1      42.324  27.792  26.680  1.00  0.00     0.012 A 
ATOM     75  C   UNL A   1      41.559  25.733  27.719  1.00  0.00     0.148 A 
ATOM     76  C   UNL A   1      42.611  27.099  25.504  1.00  0.00     0.002 A 
ATOM     77  C   UNL A   1      41.898  25.040  26.563  1.00  0.00     0.091 A 
ATOM     78  F   UNL A   1      41.028  25.116  28.785  1.00  0.00    -0.205 F 
ATOM     79  C   UNL A   1      42.408  25.723  25.448  1.00  0.00     0.022 A 
BRANCH  77  80
ATOM     80  S   UNL A   1      41.793  23.250  26.451  1.00  0.00     0.127 S 
ATOM     81  O   UNL A   1      42.476  22.987  25.188  1.00  0.00    -0.237 OA
ATOM     82  O   UNL A   1      42.524  22.828  27.648  1.00  0.00    -0.237 OA
ATOM     83  O   UNL A   1      40.370  22.940  26.482  1.00  0.00    -0.744 OA
ENDBRANCH  77  80
ENDBRANCH  49  73
BRANCH  61  84
ATOM     84  C   UNL A   1      44.610  27.211  34.180  1.00  0.00     0.023 A 
ATOM     85  C   UNL A   1      45.930  27.689  34.059  1.00  0.00     0.012 A 
ATOM     86  C   UNL A   1      44.357  26.064  34.957  1.00  0.00     0.148 A 
ATOM     87  C   UNL A   1      46.985  27.019  34.678  1.00  0.00     0.002 A 
ATOM     88  C   UNL A   1      45.406  25.429  35.610  1.00  0.00     0.091 A 
ATOM     89  F   UNL A   1      43.096  25.615  35.044  1.00  0.00    -0.205 F 
ATOM     90  C   UNL A   1      46.722  25.898  35.463  1.00  0.00     0.022 A 
BRANCH  88  91
ATOM     91  S   UNL A   1      45.149  24.038  36.718  1.00  0.00     0.127 S 
ATOM     92  O   UNL A   1      44.325  24.639  37.764  1.00  0.00    -0.237 OA
ATOM     93  O   UNL A   1      44.447  23.083  35.861  1.00  0.00    -0.237 OA
ATOM     94  O   UNL A   1      46.478  23.610  37.136  1.00  0.00    -0.744 OA
ENDBRANCH  88  91
ENDBRANCH  61  84
ENDBRANCH  35  36
ENDBRANCH  27  30
ENDBRANCH  25  26
ENDBRANCH  24  25
ENDBRANCH   1  24
TORSDOF 18
ENDMDL
MODEL 2
REMARK VINA RESULT:     -11.8      2.660      3.834
REMARK SMILES C[C@@H]1[C@H](C(=O)NCCCNC(=O)c2ccc(-c3c4nc(c(-c5cccc(S(=O)(=O)[O-])c5F)c5ccc([nH]5)c(-c5cccc(S(=O)(=O)[O-])c5F)c5nc(c(-c6cccc(S(=O)(=O)[O-])c6F)c6ccc3[nH]6)C=C5)C=C4)cc2)CCN1C(=O)COc1ccccc1O
REMARK SMILES IDX 7 1 6 2 4 3 5 4 3 6 1 7 2 8 78 9 76 10 77 11 79 12 80 13
REMARK SMILES IDX 81 14 82 15 83 16 84 17 88 18 85 19 87 20 86 21 89 22 8 24
REMARK SMILES IDX 9 25 10 26 11 27 12 29 13 30 14 31 75 32 15 33 74 34 16 35
REMARK SMILES IDX 17 36 18 37 68 38 19 39 73 40 67 41 69 42 20 43 72 44 66 45
REMARK SMILES IDX 65 46 21 48 53 49 33 50 52 51 34 52 37 53 51 54 70 55 35 56
REMARK SMILES IDX 36 57 50 59 71 60 38 61 22 62 23 63 31 64 24 65 26 66 32 67
REMARK SMILES IDX 25 68 27 69 28 70 29 71 30 72 54 73 55 74 63 75 56 76 58 77
REMARK SMILES IDX 64 78 57 79 59 80 60 81 61 82 62 83 39 84 40 85 48 86 41 87
REMARK SMILES IDX 43 88 49 89 42 90 44 91 45 92 46 93 47 94
REMARK H PARENT 6 5 89 23 10 28 69 47 37 58
REMARK Flexibility Score: inf
ROOT
ATOM      1  C   UNL A   1      32.843  28.100  24.599  1.00  0.00     0.117 C 
ENDROOT
BRANCH   1   2
ATOM      2  N   UNL A   1      31.538  27.573  24.969  1.00  0.00    -0.356 N 
ATOM      3  C   UNL A   1      30.992  26.335  24.883  1.00  0.00     0.225 C 
ATOM      4  O   UNL A   1      29.819  26.218  25.253  1.00  0.00    -0.275 OA
ATOM      5  H   UNL A   1      30.934  28.247  25.358  1.00  0.00     0.163 HD
BRANCH   3   6
ATOM      6  C   UNL A   1      31.740  25.121  24.369  1.00  0.00     0.102 C 
ATOM      7  C   UNL A   1      31.629  24.099  26.778  1.00  0.00     0.032 C 
ATOM      8  C   UNL A   1      32.266  24.106  25.396  1.00  0.00     0.094 C 
ATOM      9  N   UNL A   1      32.131  22.800  24.730  1.00  0.00    -0.336 N 
ATOM     10  C   UNL A   1      31.050  24.342  23.253  1.00  0.00     0.037 C 
ATOM     11  C   UNL A   1      31.347  22.878  23.513  1.00  0.00     0.121 C 
BRANCH   9  12
ATOM     12  C   UNL A   1      32.549  21.549  25.172  1.00  0.00     0.260 C 
ATOM     13  O   UNL A   1      31.777  20.586  25.155  1.00  0.00    -0.271 OA
BRANCH  12  14
ATOM     14  C   UNL A   1      34.005  21.366  25.627  1.00  0.00     0.329 C 
BRANCH  14  15
ATOM     15  O   UNL A   1      35.014  21.705  24.684  1.00  0.00    -0.480 OA
BRANCH  15  16
ATOM     16  C   UNL A   1      36.215  22.095  25.202  1.00  0.00     0.161 A 
ATOM     17  C   UNL A   1      36.291  23.434  25.594  1.00  0.00     0.050 A 
ATOM     18  C   UNL A   1      37.370  21.312  25.241  1.00  0.00     0.157 A 
ATOM     19  C   UNL A   1      37.492  23.963  26.068  1.00  0.00     0.004 A 
ATOM     20  C   UNL A   1      38.561  21.825  25.748  1.00  0.00     0.050 A 
ATOM     21  C   UNL A   1      38.624  23.154  26.158  1.00  0.00     0.004 A 
BRANCH  18  22
ATOM     22  O   UNL A   1      37.449  20.054  24.720  1.00  0.00    -0.504 OA
ATOM     23  H   UNL A   1      36.815  19.766  24.093  1.00  0.00     0.293 HD
ENDBRANCH  18  22
ENDBRANCH  15  16
ENDBRANCH  14  15
ENDBRANCH  12  14
ENDBRANCH   9  12
ENDBRANCH   3   6
ENDBRANCH   1   2
BRANCH   1  24
ATOM     24  C   UNL A   1      33.881  27.919  25.701  1.00  0.00     0.042 C 
BRANCH  24  25
ATOM     25  C   UNL A   1      33.455  28.444  27.063  1.00  0.00     0.118 C 
BRANCH  25  26
ATOM     26  N   UNL A   1      33.508  29.893  27.136  1.00  0.00    -0.352 N 
ATOM     27  C   UNL A   1      34.446  30.707  27.726  1.00  0.00     0.251 C 
ATOM     28  H   UNL A   1      32.762  30.363  26.697  1.00  0.00     0.163 HD
ATOM     29  O   UNL A   1      34.193  31.901  27.875  1.00  0.00    -0.269 OA
BRANCH  27  30
ATOM     30  C   UNL A   1      35.742  30.160  28.198  1.00  0.00     0.039 A 
ATOM     31  C   UNL A   1      36.844  30.193  27.339  1.00  0.00     0.014 A 
ATOM     32  C   UNL A   1      35.871  29.581  29.463  1.00  0.00     0.014 A 
ATOM     33  C   UNL A   1      38.078  29.691  27.766  1.00  0.00     0.010 A 
ATOM     34  C   UNL A   1      37.122  29.177  29.923  1.00  0.00     0.010 A 
ATOM     35  C   UNL A   1      38.235  29.203  29.074  1.00  0.00    -0.014 A 
BRANCH  35  36
ATOM     36  C   UNL A   1      39.542  28.686  29.562  1.00  0.00     0.031 A 
ATOM     37  C   UNL A   1      40.275  29.403  30.668  1.00  0.00     0.074 A 
ATOM     38  C   UNL A   1      40.112  27.621  28.961  1.00  0.00     0.049 A 
ATOM     39  N   UNL A   1      41.450  29.146  31.182  1.00  0.00    -0.248 NA
ATOM     40  C   UNL A   1      39.615  30.583  31.252  1.00  0.00     0.031 C 
ATOM     41  C   UNL A   1      39.546  26.885  27.828  1.00  0.00     0.029 A 
ATOM     42  N   UNL A   1      41.306  26.988  29.204  1.00  0.00    -0.354 N 
ATOM     43  C   UNL A   1      41.687  30.151  32.112  1.00  0.00     0.074 A 
ATOM     44  C   UNL A   1      40.552  31.045  32.066  1.00  0.00     0.031 C 
ATOM     45  C   UNL A   1      40.387  25.897  27.481  1.00  0.00     0.029 A 
ATOM     46  C   UNL A   1      41.564  25.945  28.345  1.00  0.00     0.049 A 
ATOM     47  H   UNL A   1      41.920  27.256  29.925  1.00  0.00     0.167 HD
ATOM     48  C   UNL A   1      42.735  30.301  32.958  1.00  0.00     0.034 A 
ATOM     49  C   UNL A   1      42.627  25.121  28.260  1.00  0.00     0.034 A 
ATOM     50  C   UNL A   1      43.833  29.377  33.048  1.00  0.00     0.049 A 
ATOM     51  C   UNL A   1      43.753  25.274  29.248  1.00  0.00     0.074 A 
ATOM     52  C   UNL A   1      44.894  29.387  33.935  1.00  0.00     0.029 A 
ATOM     53  N   UNL A   1      44.010  28.276  32.225  1.00  0.00    -0.354 N 
ATOM     54  N   UNL A   1      43.882  26.139  30.224  1.00  0.00    -0.248 NA
ATOM     55  C   UNL A   1      44.862  24.314  29.145  1.00  0.00     0.031 C 
ATOM     56  C   UNL A   1      45.723  28.300  33.639  1.00  0.00     0.029 A 
ATOM     57  C   UNL A   1      45.165  27.602  32.579  1.00  0.00     0.049 A 
ATOM     58  H   UNL A   1      43.403  28.013  31.496  1.00  0.00     0.167 HD
ATOM     59  C   UNL A   1      45.064  25.806  30.875  1.00  0.00     0.074 A 
ATOM     60  C   UNL A   1      45.603  24.647  30.194  1.00  0.00     0.031 C 
ATOM     61  C   UNL A   1      45.659  26.414  31.931  1.00  0.00     0.034 A 
BRANCH  48  62
ATOM     62  C   UNL A   1      42.712  31.475  33.902  1.00  0.00     0.023 A 
ATOM     63  C   UNL A   1      43.243  32.712  33.481  1.00  0.00     0.012 A 
ATOM     64  C   UNL A   1      42.119  31.376  35.176  1.00  0.00     0.148 A 
ATOM     65  C   UNL A   1      43.219  33.821  34.327  1.00  0.00     0.002 A 
ATOM     66  C   UNL A   1      42.058  32.498  35.995  1.00  0.00     0.091 A 
ATOM     67  F   UNL A   1      41.638  30.188  35.567  1.00  0.00    -0.205 F 
ATOM     68  C   UNL A   1      42.618  33.717  35.577  1.00  0.00     0.022 A 
BRANCH  66  69
ATOM     69  S   UNL A   1      41.235  32.488  37.592  1.00  0.00     0.127 S 
ATOM     70  O   UNL A   1      42.090  31.583  38.359  1.00  0.00    -0.237 OA
ATOM     71  O   UNL A   1      41.321  33.892  37.992  1.00  0.00    -0.237 OA
ATOM     72  O   UNL A   1      39.882  32.009  37.343  1.00  0.00    -0.744 OA
ENDBRANCH  66  69
ENDBRANCH  48  62
BRANCH  49  73
ATOM     73  C   UNL A   1      42.640  24.026  27.249  1.00  0.00     0.023 A 
ATOM     74  C   UNL A   1      43.224  24.260  25.988  1.00  0.00     0.012 A 
ATOM     75  C   UNL A   1      42.113  22.753  27.535  1.00  0.00     0.148 A 
ATOM     76  C   UNL A   1      43.253  23.256  25.020  1.00  0.00     0.002 A 
ATOM     77  C   UNL A   1      42.195  21.740  26.585  1.00  0.00     0.091 A 
ATOM     78  F   UNL A   1      41.549  22.554  28.735  1.00  0.00    -0.205 F 
ATOM     79  C   UNL A   1      42.749  21.994  25.321  1.00  0.00     0.022 A 
BRANCH  77  80
ATOM     80  S   UNL A   1      41.690  20.052  26.935  1.00  0.00     0.127 S 
ATOM     81  O   UNL A   1      40.624  20.253  27.912  1.00  0.00    -0.237 OA
ATOM     82  O   UNL A   1      41.245  19.589  25.619  1.00  0.00    -0.237 OA
ATOM     83  O   UNL A   1      42.887  19.382  27.429  1.00  0.00    -0.744 OA
ENDBRANCH  77  80
ENDBRANCH  49  73
BRANCH  61  84
ATOM     84  C   UNL A   1      46.944  25.824  32.447  1.00  0.00     0.023 A 
ATOM     85  C   UNL A   1      48.177  26.290  31.949  1.00  0.00     0.012 A 
ATOM     86  C   UNL A   1      46.932  24.868  33.481  1.00  0.00     0.148 A 
ATOM     87  C   UNL A   1      49.378  25.790  32.451  1.00  0.00     0.002 A 
ATOM     88  C   UNL A   1      48.133  24.410  34.011  1.00  0.00     0.091 A 
ATOM     89  F   UNL A   1      45.748  24.424  33.929  1.00  0.00    -0.205 F 
ATOM     90  C   UNL A   1      49.357  24.861  33.489  1.00  0.00     0.022 A 
BRANCH  88  91
ATOM     91  S   UNL A   1      48.200  23.288  35.412  1.00  0.00     0.127 S 
ATOM     92  O   UNL A   1      49.641  23.109  35.581  1.00  0.00    -0.237 OA
ATOM     93  O   UNL A   1      47.555  24.068  36.468  1.00  0.00    -0.237 OA
ATOM     94  O   UNL A   1      47.464  22.098  35.006  1.00  0.00    -0.744 OA
ENDBRANCH  88  91
ENDBRANCH  61  84
ENDBRANCH  35  36
ENDBRANCH  27  30
ENDBRANCH  25  26
ENDBRANCH  24  25
ENDBRANCH   1  24
TORSDOF 18
ENDMDL
MODEL 3
REMARK VINA RESULT:     -11.8      1.608      2.390
REMARK SMILES C[C@@H]1[C@H](C(=O)NCCCNC(=O)c2ccc(-c3c4nc(c(-c5cccc(S(=O)(=O)[O-])c5F)c5ccc([nH]5)c(-c5cccc(S(=O)(=O)[O-])c5F)c5nc(c(-c6cccc(S(=O)(=O)[O-])c6F)c6ccc3[nH]6)C=C5)C=C4)cc2)CCN1C(=O)COc1ccccc1O
REMARK SMILES IDX 7 1 6 2 4 3 5 4 3 6 1 7 2 8 78 9 76 10 77 11 79 12 80 13
REMARK SMILES IDX 81 14 82 15 83 16 84 17 88 18 85 19 87 20 86 21 89 22 8 24
REMARK SMILES IDX 9 25 10 26 11 27 12 29 13 30 14 31 75 32 15 33 74 34 16 35
REMARK SMILES IDX 17 36 18 37 68 38 19 39 73 40 67 41 69 42 20 43 72 44 66 45
REMARK SMILES IDX 65 46 21 48 53 49 33 50 52 51 34 52 37 53 51 54 70 55 35 56
REMARK SMILES IDX 36 57 50 59 71 60 38 61 22 62 23 63 31 64 24 65 26 66 32 67
REMARK SMILES IDX 25 68 27 69 28 70 29 71 30 72 54 73 55 74 63 75 56 76 58 77
REMARK SMILES IDX 64 78 57 79 59 80 60 81 61 82 62 83 39 84 40 85 48 86 41 87
REMARK SMILES IDX 43 88 49 89 42 90 44 91 45 92 46 93 47 94
REMARK H PARENT 6 5 89 23 10 28 69 47 37 58
REMARK Flexibility Score: inf
ROOT
ATOM      1  C   UNL A   1      31.106  29.507  24.962  1.00  0.00     0.117 C 
ENDROOT
BRANCH   1   2
ATOM      2  N   UNL A   1      31.978  29.187  23.843  1.00  0.00    -0.356 N 
ATOM      3  C   UNL A   1      32.234  28.031  23.182  1.00  0.00     0.225 C 
ATOM      4  O   UNL A   1      33.077  28.081  22.280  1.00  0.00    -0.275 OA
ATOM      5  H   UNL A   1      32.480  29.961  23.497  1.00  0.00     0.163 HD
BRANCH   3   6
ATOM      6  C   UNL A   1      31.547  26.716  23.494  1.00  0.00     0.102 C 
ATOM      7  C   UNL A   1      33.455  26.189  25.209  1.00  0.00     0.032 C 
ATOM      8  C   UNL A   1      32.307  25.686  24.345  1.00  0.00     0.094 C 
ATOM      9  N   UNL A   1      31.265  25.032  25.154  1.00  0.00    -0.336 N 
ATOM     10  C   UNL A   1      30.130  26.824  24.045  1.00  0.00     0.037 C 
ATOM     11  C   UNL A   1      29.992  25.721  25.077  1.00  0.00     0.121 C 
BRANCH   9  12
ATOM     12  C   UNL A   1      31.387  23.956  26.027  1.00  0.00     0.260 C 
ATOM     13  O   UNL A   1      31.373  24.132  27.249  1.00  0.00    -0.271 OA
BRANCH  12  14
ATOM     14  C   UNL A   1      31.478  22.535  25.451  1.00  0.00     0.329 C 
BRANCH  14  15
ATOM     15  O   UNL A   1      32.667  21.808  25.734  1.00  0.00    -0.480 OA
BRANCH  15  16
ATOM     16  C   UNL A   1      33.840  22.414  25.386  1.00  0.00     0.161 A 
ATOM     17  C   UNL A   1      34.081  22.507  24.014  1.00  0.00     0.050 A 
ATOM     18  C   UNL A   1      34.838  22.812  26.278  1.00  0.00     0.157 A 
ATOM     19  C   UNL A   1      35.282  23.040  23.543  1.00  0.00     0.004 A 
ATOM     20  C   UNL A   1      36.022  23.378  25.813  1.00  0.00     0.050 A 
ATOM     21  C   UNL A   1      36.248  23.488  24.443  1.00  0.00     0.004 A 
BRANCH  18  22
ATOM     22  O   UNL A   1      34.777  22.603  27.624  1.00  0.00    -0.504 OA
ATOM     23  H   UNL A   1      34.055  22.135  27.993  1.00  0.00     0.293 HD
ENDBRANCH  18  22
ENDBRANCH  15  16
ENDBRANCH  14  15
ENDBRANCH  12  14
ENDBRANCH   9  12
ENDBRANCH   3   6
ENDBRANCH   1   2
BRANCH   1  24
ATOM     24  C   UNL A   1      31.796  29.331  26.311  1.00  0.00     0.042 C 
BRANCH  24  25
ATOM     25  C   UNL A   1      33.181  29.950  26.398  1.00  0.00     0.118 C 
BRANCH  25  26
ATOM     26  N   UNL A   1      33.133  31.365  26.718  1.00  0.00    -0.352 N 
ATOM     27  C   UNL A   1      33.878  32.086  27.622  1.00  0.00     0.251 C 
ATOM     28  H   UNL A   1      32.468  31.888  26.213  1.00  0.00     0.163 HD
ATOM     29  O   UNL A   1      33.529  33.229  27.908  1.00  0.00    -0.269 OA
BRANCH  27  30
ATOM     30  C   UNL A   1      35.077  31.494  28.265  1.00  0.00     0.039 A 
ATOM     31  C   UNL A   1      36.302  32.157  28.153  1.00  0.00     0.014 A 
ATOM     32  C   UNL A   1      35.012  30.274  28.943  1.00  0.00     0.014 A 
ATOM     33  C   UNL A   1      37.444  31.622  28.759  1.00  0.00     0.010 A 
ATOM     34  C   UNL A   1      36.125  29.797  29.632  1.00  0.00     0.010 A 
ATOM     35  C   UNL A   1      37.360  30.450  29.528  1.00  0.00    -0.014 A 
BRANCH  35  36
ATOM     36  C   UNL A   1      38.554  29.872  30.203  1.00  0.00     0.031 A 
ATOM     37  C   UNL A   1      38.940  30.335  31.586  1.00  0.00     0.074 A 
ATOM     38  C   UNL A   1      39.339  28.993  29.547  1.00  0.00     0.049 A 
ATOM     39  N   UNL A   1      39.978  30.001  32.309  1.00  0.00    -0.248 NA
ATOM     40  C   UNL A   1      38.062  31.328  32.228  1.00  0.00     0.031 C 
ATOM     41  C   UNL A   1      39.122  28.522  28.178  1.00  0.00     0.029 A 
ATOM     42  N   UNL A   1      40.491  28.357  29.938  1.00  0.00    -0.354 N 
ATOM     43  C   UNL A   1      39.901  30.770  33.464  1.00  0.00     0.074 A 
ATOM     44  C   UNL A   1      38.736  31.616  33.331  1.00  0.00     0.031 C 
ATOM     45  C   UNL A   1      40.103  27.667  27.845  1.00  0.00     0.029 A 
ATOM     46  C   UNL A   1      41.033  27.548  28.965  1.00  0.00     0.049 A 
ATOM     47  H   UNL A   1      40.892  28.468  30.830  1.00  0.00     0.167 HD
ATOM     48  C   UNL A   1      40.702  30.751  34.556  1.00  0.00     0.034 A 
ATOM     49  C   UNL A   1      42.153  26.798  28.971  1.00  0.00     0.034 A 
ATOM     50  C   UNL A   1      41.823  29.864  34.715  1.00  0.00     0.049 A 
ATOM     51  C   UNL A   1      42.996  26.752  30.219  1.00  0.00     0.074 A 
ATOM     52  C   UNL A   1      42.639  29.701  35.820  1.00  0.00     0.029 A 
ATOM     53  N   UNL A   1      42.283  28.990  33.744  1.00  0.00    -0.354 N 
ATOM     54  N   UNL A   1      42.815  27.371  31.360  1.00  0.00    -0.248 NA
ATOM     55  C   UNL A   1      44.176  25.875  30.191  1.00  0.00     0.031 C 
ATOM     56  C   UNL A   1      43.604  28.736  35.511  1.00  0.00     0.029 A 
ATOM     57  C   UNL A   1      43.375  28.286  34.220  1.00  0.00     0.049 A 
ATOM     58  H   UNL A   1      41.890  28.885  32.847  1.00  0.00     0.167 HD
ATOM     59  C   UNL A   1      43.834  26.931  32.197  1.00  0.00     0.074 A 
ATOM     60  C   UNL A   1      44.616  25.978  31.438  1.00  0.00     0.031 C 
ATOM     61  C   UNL A   1      44.108  27.296  33.474  1.00  0.00     0.034 A 
BRANCH  48  62
ATOM     62  C   UNL A   1      40.356  31.674  35.696  1.00  0.00     0.023 A 
ATOM     63  C   UNL A   1      41.160  32.807  35.939  1.00  0.00     0.012 A 
ATOM     64  C   UNL A   1      39.212  31.457  36.489  1.00  0.00     0.148 A 
ATOM     65  C   UNL A   1      40.854  33.688  36.975  1.00  0.00     0.002 A 
ATOM     66  C   UNL A   1      38.888  32.365  37.491  1.00  0.00     0.091 A 
ATOM     67  F   UNL A   1      38.471  30.365  36.258  1.00  0.00    -0.205 F 
ATOM     68  C   UNL A   1      39.713  33.474  37.743  1.00  0.00     0.022 A 
BRANCH  66  69
ATOM     69  S   UNL A   1      37.398  32.221  38.484  1.00  0.00     0.127 S 
ATOM     70  O   UNL A   1      36.462  33.059  37.736  1.00  0.00    -0.237 OA
ATOM     71  O   UNL A   1      37.119  30.787  38.416  1.00  0.00    -0.237 OA
ATOM     72  O   UNL A   1      37.752  32.708  39.811  1.00  0.00    -0.744 OA
ENDBRANCH  66  69
ENDBRANCH  48  62
BRANCH  49  73
ATOM     73  C   UNL A   1      42.499  25.968  27.784  1.00  0.00     0.023 A 
ATOM     74  C   UNL A   1      43.267  26.535  26.747  1.00  0.00     0.012 A 
ATOM     75  C   UNL A   1      42.104  24.621  27.686  1.00  0.00     0.148 A 
ATOM     76  C   UNL A   1      43.608  25.784  25.622  1.00  0.00     0.002 A 
ATOM     77  C   UNL A   1      42.494  23.862  26.588  1.00  0.00     0.091 A 
ATOM     78  F   UNL A   1      41.361  24.103  28.675  1.00  0.00    -0.205 F 
ATOM     79  C   UNL A   1      43.232  24.446  25.546  1.00  0.00     0.022 A 
BRANCH  77  80
ATOM     80  S   UNL A   1      42.166  22.100  26.472  1.00  0.00     0.127 S 
ATOM     81  O   UNL A   1      42.648  21.618  27.762  1.00  0.00    -0.237 OA
ATOM     82  O   UNL A   1      40.711  22.073  26.306  1.00  0.00    -0.237 OA
ATOM     83  O   UNL A   1      42.907  21.641  25.304  1.00  0.00    -0.744 OA
ENDBRANCH  77  80
ENDBRANCH  49  73
BRANCH  61  84
ATOM     84  C   UNL A   1      45.280  26.641  34.154  1.00  0.00     0.023 A 
ATOM     85  C   UNL A   1      46.561  27.220  34.052  1.00  0.00     0.012 A 
ATOM     86  C   UNL A   1      45.099  25.499  34.959  1.00  0.00     0.148 A 
ATOM     87  C   UNL A   1      47.649  26.654  34.717  1.00  0.00     0.002 A 
ATOM     88  C   UNL A   1      46.177  24.969  35.657  1.00  0.00     0.091 A 
ATOM     89  F   UNL A   1      43.876  24.952  35.028  1.00  0.00    -0.205 F 
ATOM     90  C   UNL A   1      47.455  25.538  35.528  1.00  0.00     0.022 A 
BRANCH  88  91
ATOM     91  S   UNL A   1      46.002  23.594  36.799  1.00  0.00     0.127 S 
ATOM     92  O   UNL A   1      47.358  23.472  37.330  1.00  0.00    -0.237 OA
ATOM     93  O   UNL A   1      45.017  24.103  37.752  1.00  0.00    -0.237 OA
ATOM     94  O   UNL A   1      45.540  22.467  35.999  1.00  0.00    -0.744 OA
ENDBRANCH  88  91
ENDBRANCH  61  84
ENDBRANCH  35  36
ENDBRANCH  27  30
ENDBRANCH  25  26
ENDBRANCH  24  25
ENDBRANCH   1  24
TORSDOF 18
ENDMDL
