MODEL 1
REMARK VINA RESULT:     -11.4      0.000      0.000
REMARK SMILES C[NH2+][C@]1(C(=O)NCCCNC(=O)c2ccc(-c3c4nc(c(-c5cccc(S(=O)(=O)[O-])c5F)c5ccc([nH]5)c(-c5cccc(S(=O)(=O)[O-])c5F)c5nc(c(-c6cccc(S(=O)(=O)[O-])c6F)c6ccc3[nH]6)C=C5)C=C4)cc2)CCC[C@@H]1CCOC[C@@H]1CCCO1
REMARK SMILES IDX 7 1 6 2 4 3 5 4 3 6 76 7 79 8 77 9 78 10 2 11 1 12 80 15
REMARK SMILES IDX 81 16 82 17 83 18 84 19 85 20 88 21 86 22 87 23 8 24 9 25
REMARK SMILES IDX 10 26 11 27 12 29 13 30 14 31 75 32 15 33 74 34 16 35 17 36
REMARK SMILES IDX 18 37 68 38 19 39 73 40 67 41 69 42 20 43 72 44 66 45 65 46
REMARK SMILES IDX 21 48 53 49 33 50 52 51 34 52 37 53 51 54 70 55 35 56 36 57
REMARK SMILES IDX 50 59 71 60 38 61 22 62 23 63 31 64 24 65 26 66 32 67 25 68
REMARK SMILES IDX 27 69 28 70 29 71 30 72 54 73 55 74 63 75 56 76 58 77 64 78
REMARK SMILES IDX 57 79 59 80 60 81 61 82 62 83 39 84 40 85 48 86 41 87 43 88
REMARK SMILES IDX 49 89 42 90 44 91 45 92 46 93 47 94
REMARK H PARENT 6 5 2 13 2 14 10 28 69 47 37 58
REMARK Flexibility Score: inf
ROOT
ATOM      1  C   UNL A   1      32.216  27.661  26.862  1.00  0.00     0.118 C 
ENDROOT
BRANCH   1   2
ATOM      2  N   UNL A   1      31.015  26.848  26.815  1.00  0.00    -0.351 N 
ATOM      3  C   UNL A   1      30.637  25.726  26.143  1.00  0.00     0.281 C 
ATOM      4  O   UNL A   1      29.528  25.310  26.497  1.00  0.00    -0.268 OA
ATOM      5  H   UNL A   1      30.307  27.187  27.410  1.00  0.00     0.163 HD
BRANCH   3   6
ATOM      6  C   UNL A   1      31.537  25.005  25.077  1.00  0.00     0.178 C 
ATOM      7  C   UNL A   1      31.154  23.519  24.886  1.00  0.00     0.079 C 
ATOM      8  C   UNL A   1      31.296  25.572  23.644  1.00  0.00     0.063 C 
ATOM      9  C   UNL A   1      31.481  23.170  23.427  1.00  0.00     0.008 C 
ATOM     10  C   UNL A   1      31.888  24.477  22.741  1.00  0.00     0.011 C 
BRANCH   6  11
ATOM     11  N   UNL A   1      33.011  24.965  25.353  1.00  0.00    -0.336 N 
ATOM     12  C   UNL A   1      33.561  23.900  26.163  1.00  0.00     0.331 C 
ATOM     13  H   UNL A   1      33.480  24.919  24.448  1.00  0.00     0.346 HD
ATOM     14  H   UNL A   1      33.169  25.798  25.918  1.00  0.00     0.346 HD
ENDBRANCH   6  11
BRANCH   8  15
ATOM     15  C   UNL A   1      31.815  26.999  23.395  1.00  0.00     0.039 C 
BRANCH  15  16
ATOM     16  C   UNL A   1      30.971  27.835  22.418  1.00  0.00     0.161 C 
BRANCH  16  17
ATOM     17  O   UNL A   1      29.747  28.327  22.944  1.00  0.00    -0.379 OA
BRANCH  17  18
ATOM     18  C   UNL A   1      29.676  29.635  23.503  1.00  0.00     0.192 C 
BRANCH  18  19
ATOM     19  C   UNL A   1      28.581  30.593  22.994  1.00  0.00     0.144 C 
ATOM     20  C   UNL A   1      28.470  30.725  21.485  1.00  0.00     0.037 C 
ATOM     21  O   UNL A   1      28.744  31.917  23.529  1.00  0.00    -0.376 OA
ATOM     22  C   UNL A   1      28.059  32.156  21.278  1.00  0.00     0.031 C 
ATOM     23  C   UNL A   1      28.716  32.853  22.447  1.00  0.00     0.160 C 
ENDBRANCH  18  19
ENDBRANCH  17  18
ENDBRANCH  16  17
ENDBRANCH  15  16
ENDBRANCH   8  15
ENDBRANCH   3   6
ENDBRANCH   1   2
BRANCH   1  24
ATOM     24  C   UNL A   1      31.928  29.142  27.020  1.00  0.00     0.042 C 
BRANCH  24  25
ATOM     25  C   UNL A   1      32.954  30.042  26.348  1.00  0.00     0.118 C 
BRANCH  25  26
ATOM     26  N   UNL A   1      32.883  31.433  26.784  1.00  0.00    -0.352 N 
ATOM     27  C   UNL A   1      33.710  32.143  27.628  1.00  0.00     0.251 C 
ATOM     28  H   UNL A   1      32.126  31.945  26.420  1.00  0.00     0.163 HD
ATOM     29  O   UNL A   1      33.392  33.264  27.994  1.00  0.00    -0.269 OA
BRANCH  27  30
ATOM     30  C   UNL A   1      34.968  31.527  28.108  1.00  0.00     0.039 A 
ATOM     31  C   UNL A   1      36.125  32.305  28.185  1.00  0.00     0.014 A 
ATOM     32  C   UNL A   1      34.994  30.191  28.507  1.00  0.00     0.014 A 
ATOM     33  C   UNL A   1      37.283  31.763  28.748  1.00  0.00     0.010 A 
ATOM     34  C   UNL A   1      36.104  29.695  29.175  1.00  0.00     0.010 A 
ATOM     35  C   UNL A   1      37.268  30.468  29.292  1.00  0.00    -0.014 A 
BRANCH  35  36
ATOM     36  C   UNL A   1      38.451  29.889  29.976  1.00  0.00     0.031 A 
ATOM     37  C   UNL A   1      38.833  30.372  31.351  1.00  0.00     0.074 A 
ATOM     38  C   UNL A   1      39.241  29.012  29.324  1.00  0.00     0.049 A 
ATOM     39  N   UNL A   1      39.877  30.062  32.074  1.00  0.00    -0.248 NA
ATOM     40  C   UNL A   1      37.945  31.366  31.982  1.00  0.00     0.031 C 
ATOM     41  C   UNL A   1      39.028  28.533  27.955  1.00  0.00     0.029 A 
ATOM     42  N   UNL A   1      40.399  28.388  29.715  1.00  0.00    -0.354 N 
ATOM     43  C   UNL A   1      39.798  30.854  33.213  1.00  0.00     0.074 A 
ATOM     44  C   UNL A   1      38.628  31.690  33.068  1.00  0.00     0.031 C 
ATOM     45  C   UNL A   1      40.016  27.685  27.626  1.00  0.00     0.029 A 
ATOM     46  C   UNL A   1      40.950  27.585  28.743  1.00  0.00     0.049 A 
ATOM     47  H   UNL A   1      40.798  28.506  30.607  1.00  0.00     0.167 HD
ATOM     48  C   UNL A   1      40.604  30.863  34.300  1.00  0.00     0.034 A 
ATOM     49  C   UNL A   1      42.083  26.855  28.748  1.00  0.00     0.034 A 
ATOM     50  C   UNL A   1      41.732  29.988  34.466  1.00  0.00     0.049 A 
ATOM     51  C   UNL A   1      42.932  26.839  29.991  1.00  0.00     0.074 A 
ATOM     52  C   UNL A   1      42.552  29.842  35.569  1.00  0.00     0.029 A 
ATOM     53  N   UNL A   1      42.200  29.113  33.498  1.00  0.00    -0.354 N 
ATOM     54  N   UNL A   1      42.749  27.474  31.123  1.00  0.00    -0.248 NA
ATOM     55  C   UNL A   1      44.122  25.977  29.972  1.00  0.00     0.031 C 
ATOM     56  C   UNL A   1      43.536  28.897  35.259  1.00  0.00     0.029 A 
ATOM     57  C   UNL A   1      43.305  28.430  33.974  1.00  0.00     0.049 A 
ATOM     58  H   UNL A   1      41.805  28.994  32.604  1.00  0.00     0.167 HD
ATOM     59  C   UNL A   1      43.775  27.058  31.964  1.00  0.00     0.074 A 
ATOM     60  C   UNL A   1      44.565  26.102  31.215  1.00  0.00     0.031 C 
ATOM     61  C   UNL A   1      44.046  27.439  33.236  1.00  0.00     0.034 A 
BRANCH  48  62
ATOM     62  C   UNL A   1      40.263  31.813  35.420  1.00  0.00     0.023 A 
ATOM     63  C   UNL A   1      41.018  32.992  35.590  1.00  0.00     0.012 A 
ATOM     64  C   UNL A   1      39.167  31.566  36.268  1.00  0.00     0.148 A 
ATOM     65  C   UNL A   1      40.716  33.888  36.615  1.00  0.00     0.002 A 
ATOM     66  C   UNL A   1      38.840  32.490  37.255  1.00  0.00     0.091 A 
ATOM     67  F   UNL A   1      38.473  30.431  36.106  1.00  0.00    -0.205 F 
ATOM     68  C   UNL A   1      39.622  33.643  37.439  1.00  0.00     0.022 A 
BRANCH  66  69
ATOM     69  S   UNL A   1      37.400  32.309  38.313  1.00  0.00     0.127 S 
ATOM     70  O   UNL A   1      36.393  33.067  37.573  1.00  0.00    -0.237 OA
ATOM     71  O   UNL A   1      37.198  30.860  38.309  1.00  0.00    -0.237 OA
ATOM     72  O   UNL A   1      37.777  32.865  39.605  1.00  0.00    -0.744 OA
ENDBRANCH  66  69
ENDBRANCH  48  62
BRANCH  49  73
ATOM     73  C   UNL A   1      42.443  26.024  27.564  1.00  0.00     0.023 A 
ATOM     74  C   UNL A   1      43.235  26.584  26.543  1.00  0.00     0.012 A 
ATOM     75  C   UNL A   1      42.030  24.683  27.453  1.00  0.00     0.148 A 
ATOM     76  C   UNL A   1      43.578  25.837  25.415  1.00  0.00     0.002 A 
ATOM     77  C   UNL A   1      42.422  23.926  26.355  1.00  0.00     0.091 A 
ATOM     78  F   UNL A   1      41.270  24.170  28.432  1.00  0.00    -0.205 F 
ATOM     79  C   UNL A   1      43.179  24.506  25.326  1.00  0.00     0.022 A 
BRANCH  77  80
ATOM     80  S   UNL A   1      42.069  22.170  26.219  1.00  0.00     0.127 S 
ATOM     81  O   UNL A   1      42.796  21.812  25.004  1.00  0.00    -0.237 OA
ATOM     82  O   UNL A   1      42.647  21.649  27.459  1.00  0.00    -0.237 OA
ATOM     83  O   UNL A   1      40.618  22.065  26.143  1.00  0.00    -0.744 OA
ENDBRANCH  77  80
ENDBRANCH  49  73
BRANCH  61  84
ATOM     84  C   UNL A   1      45.216  26.791  33.929  1.00  0.00     0.023 A 
ATOM     85  C   UNL A   1      46.488  27.396  33.880  1.00  0.00     0.012 A 
ATOM     86  C   UNL A   1      45.033  25.623  34.694  1.00  0.00     0.148 A 
ATOM     87  C   UNL A   1      47.567  26.827  34.555  1.00  0.00     0.002 A 
ATOM     88  C   UNL A   1      46.101  25.092  35.407  1.00  0.00     0.091 A 
ATOM     89  F   UNL A   1      43.819  25.054  34.712  1.00  0.00    -0.205 F 
ATOM     90  C   UNL A   1      47.371  25.685  35.328  1.00  0.00     0.022 A 
BRANCH  88  91
ATOM     91  S   UNL A   1      45.918  23.684  36.507  1.00  0.00     0.127 S 
ATOM     92  O   UNL A   1      47.281  23.519  37.008  1.00  0.00    -0.237 OA
ATOM     93  O   UNL A   1      44.960  24.187  37.494  1.00  0.00    -0.237 OA
ATOM     94  O   UNL A   1      45.417  22.592  35.683  1.00  0.00    -0.744 OA
ENDBRANCH  88  91
ENDBRANCH  61  84
ENDBRANCH  35  36
ENDBRANCH  27  30
ENDBRANCH  25  26
ENDBRANCH  24  25
ENDBRANCH   1  24
TORSDOF 19
ENDMDL
MODEL 2
REMARK VINA RESULT:     -11.3      1.155      7.675
REMARK SMILES C[NH2+][C@]1(C(=O)NCCCNC(=O)c2ccc(-c3c4nc(c(-c5cccc(S(=O)(=O)[O-])c5F)c5ccc([nH]5)c(-c5cccc(S(=O)(=O)[O-])c5F)c5nc(c(-c6cccc(S(=O)(=O)[O-])c6F)c6ccc3[nH]6)C=C5)C=C4)cc2)CCC[C@@H]1CCOC[C@@H]1CCCO1
REMARK SMILES IDX 7 1 6 2 4 3 5 4 3 6 76 7 79 8 77 9 78 10 2 11 1 12 80 15
REMARK SMILES IDX 81 16 82 17 83 18 84 19 85 20 88 21 86 22 87 23 8 24 9 25
REMARK SMILES IDX 10 26 11 27 12 29 13 30 14 31 75 32 15 33 74 34 16 35 17 36
REMARK SMILES IDX 18 37 68 38 19 39 73 40 67 41 69 42 20 43 72 44 66 45 65 46
REMARK SMILES IDX 21 48 53 49 33 50 52 51 34 52 37 53 51 54 70 55 35 56 36 57
REMARK SMILES IDX 50 59 71 60 38 61 22 62 23 63 31 64 24 65 26 66 32 67 25 68
REMARK SMILES IDX 27 69 28 70 29 71 30 72 54 73 55 74 63 75 56 76 58 77 64 78
REMARK SMILES IDX 57 79 59 80 60 81 61 82 62 83 39 84 40 85 48 86 41 87 43 88
REMARK SMILES IDX 49 89 42 90 44 91 45 92 46 93 47 94
REMARK H PARENT 6 5 2 13 2 14 10 28 69 47 37 58
REMARK Flexibility Score: inf
ROOT
ATOM      1  C   UNL A   1      32.439  27.009  25.774  1.00  0.00     0.118 C 
ENDROOT
BRANCH   1   2
ATOM      2  N   UNL A   1      31.813  25.917  26.497  1.00  0.00    -0.351 N 
ATOM      3  C   UNL A   1      31.692  24.576  26.300  1.00  0.00     0.281 C 
ATOM      4  O   UNL A   1      31.147  24.002  27.250  1.00  0.00    -0.268 OA
ATOM      5  H   UNL A   1      31.373  26.217  27.325  1.00  0.00     0.163 HD
BRANCH   3   6
ATOM      6  C   UNL A   1      32.237  23.830  25.030  1.00  0.00     0.178 C 
ATOM      7  C   UNL A   1      32.513  22.332  25.296  1.00  0.00     0.079 C 
ATOM      8  C   UNL A   1      31.160  23.750  23.905  1.00  0.00     0.063 C 
ATOM      9  C   UNL A   1      32.273  21.602  23.967  1.00  0.00     0.008 C 
ATOM     10  C   UNL A   1      31.705  22.637  22.992  1.00  0.00     0.011 C 
BRANCH   6  11
ATOM     11  N   UNL A   1      33.524  24.336  24.450  1.00  0.00    -0.336 N 
ATOM     12  C   UNL A   1      34.765  24.134  25.167  1.00  0.00     0.331 C 
ATOM     13  H   UNL A   1      33.634  23.887  23.540  1.00  0.00     0.346 HD
ATOM     14  H   UNL A   1      33.407  25.348  24.460  1.00  0.00     0.346 HD
ENDBRANCH   6  11
BRANCH   8  15
ATOM     15  C   UNL A   1      30.820  25.079  23.210  1.00  0.00     0.039 C 
BRANCH  15  16
ATOM     16  C   UNL A   1      29.526  25.753  23.697  1.00  0.00     0.161 C 
BRANCH  16  17
ATOM     17  O   UNL A   1      29.451  27.153  23.471  1.00  0.00    -0.379 OA
BRANCH  17  18
ATOM     18  C   UNL A   1      30.410  27.803  22.643  1.00  0.00     0.192 C 
BRANCH  18  19
ATOM     19  C   UNL A   1      30.296  29.328  22.443  1.00  0.00     0.144 C 
ATOM     20  C   UNL A   1      29.697  30.102  23.605  1.00  0.00     0.037 C 
ATOM     21  O   UNL A   1      29.530  29.653  21.271  1.00  0.00    -0.376 OA
ATOM     22  C   UNL A   1      28.946  31.222  22.942  1.00  0.00     0.031 C 
ATOM     23  C   UNL A   1      28.516  30.594  21.636  1.00  0.00     0.160 C 
ENDBRANCH  18  19
ENDBRANCH  17  18
ENDBRANCH  16  17
ENDBRANCH  15  16
ENDBRANCH   8  15
ENDBRANCH   3   6
ENDBRANCH   1   2
BRANCH   1  24
ATOM     24  C   UNL A   1      32.011  28.376  26.271  1.00  0.00     0.042 C 
BRANCH  24  25
ATOM     25  C   UNL A   1      32.867  29.518  25.742  1.00  0.00     0.118 C 
BRANCH  25  26
ATOM     26  N   UNL A   1      32.459  30.829  26.235  1.00  0.00    -0.352 N 
ATOM     27  C   UNL A   1      33.040  31.641  27.185  1.00  0.00     0.251 C 
ATOM     28  H   UNL A   1      31.641  31.191  25.825  1.00  0.00     0.163 HD
ATOM     29  O   UNL A   1      32.456  32.641  27.573  1.00  0.00    -0.269 OA
BRANCH  27  30
ATOM     30  C   UNL A   1      34.358  31.276  27.751  1.00  0.00     0.039 A 
ATOM     31  C   UNL A   1      35.345  32.257  27.876  1.00  0.00     0.014 A 
ATOM     32  C   UNL A   1      34.607  29.974  28.183  1.00  0.00     0.014 A 
ATOM     33  C   UNL A   1      36.546  31.948  28.517  1.00  0.00     0.010 A 
ATOM     34  C   UNL A   1      35.747  29.702  28.926  1.00  0.00     0.010 A 
ATOM     35  C   UNL A   1      36.738  30.680  29.090  1.00  0.00    -0.014 A 
BRANCH  35  36
ATOM     36  C   UNL A   1      37.964  30.340  29.855  1.00  0.00     0.031 A 
ATOM     37  C   UNL A   1      38.972  29.385  29.271  1.00  0.00     0.074 A 
ATOM     38  C   UNL A   1      38.120  30.801  31.113  1.00  0.00     0.049 A 
ATOM     39  N   UNL A   1      40.052  28.890  29.815  1.00  0.00    -0.248 NA
ATOM     40  C   UNL A   1      38.710  28.887  27.908  1.00  0.00     0.031 C 
ATOM     41  C   UNL A   1      37.170  31.660  31.826  1.00  0.00     0.029 A 
ATOM     42  N   UNL A   1      39.121  30.586  32.027  1.00  0.00    -0.354 N 
ATOM     43  C   UNL A   1      40.568  27.993  28.887  1.00  0.00     0.074 A 
ATOM     44  C   UNL A   1      39.660  27.976  27.763  1.00  0.00     0.031 C 
ATOM     45  C   UNL A   1      37.640  31.908  33.059  1.00  0.00     0.029 A 
ATOM     46  C   UNL A   1      38.903  31.198  33.240  1.00  0.00     0.049 A 
ATOM     47  H   UNL A   1      39.919  30.044  31.833  1.00  0.00     0.167 HD
ATOM     48  C   UNL A   1      41.711  27.271  28.946  1.00  0.00     0.034 A 
ATOM     49  C   UNL A   1      39.633  31.185  34.372  1.00  0.00     0.034 A 
ATOM     50  C   UNL A   1      42.641  27.336  30.040  1.00  0.00     0.049 A 
ATOM     51  C   UNL A   1      40.929  30.420  34.392  1.00  0.00     0.074 A 
ATOM     52  C   UNL A   1      43.877  26.727  30.154  1.00  0.00     0.029 A 
ATOM     53  N   UNL A   1      42.434  28.049  31.211  1.00  0.00    -0.354 N 
ATOM     54  N   UNL A   1      41.481  29.706  33.441  1.00  0.00    -0.248 NA
ATOM     55  C   UNL A   1      41.724  30.490  35.627  1.00  0.00     0.031 C 
ATOM     56  C   UNL A   1      44.407  27.050  31.408  1.00  0.00     0.029 A 
ATOM     57  C   UNL A   1      43.515  27.888  32.059  1.00  0.00     0.049 A 
ATOM     58  H   UNL A   1      41.636  28.590  31.410  1.00  0.00     0.167 HD
ATOM     59  C   UNL A   1      42.703  29.276  33.945  1.00  0.00     0.074 A 
ATOM     60  C   UNL A   1      42.819  29.826  35.280  1.00  0.00     0.031 C 
ATOM     61  C   UNL A   1      43.640  28.489  33.362  1.00  0.00     0.034 A 
BRANCH  48  62
ATOM     62  C   UNL A   1      42.047  26.390  27.770  1.00  0.00     0.023 A 
ATOM     63  C   UNL A   1      42.808  26.910  26.702  1.00  0.00     0.012 A 
ATOM     64  C   UNL A   1      41.654  25.038  27.744  1.00  0.00     0.148 A 
ATOM     65  C   UNL A   1      43.135  26.111  25.607  1.00  0.00     0.002 A 
ATOM     66  C   UNL A   1      42.028  24.234  26.673  1.00  0.00     0.091 A 
ATOM     67  F   UNL A   1      40.913  24.568  28.757  1.00  0.00    -0.205 F 
ATOM     68  C   UNL A   1      42.755  24.772  25.599  1.00  0.00     0.022 A 
BRANCH  66  69
ATOM     69  S   UNL A   1      41.661  22.478  26.607  1.00  0.00     0.127 S 
ATOM     70  O   UNL A   1      42.282  22.094  25.340  1.00  0.00    -0.237 OA
ATOM     71  O   UNL A   1      42.345  21.977  27.799  1.00  0.00    -0.237 OA
ATOM     72  O   UNL A   1      40.209  22.368  26.649  1.00  0.00    -0.744 OA
ENDBRANCH  66  69
ENDBRANCH  48  62
BRANCH  49  73
ATOM     73  C   UNL A   1      39.194  31.977  35.556  1.00  0.00     0.023 A 
ATOM     74  C   UNL A   1      39.487  33.354  35.614  1.00  0.00     0.012 A 
ATOM     75  C   UNL A   1      38.470  31.386  36.609  1.00  0.00     0.148 A 
ATOM     76  C   UNL A   1      39.102  34.119  36.715  1.00  0.00     0.002 A 
ATOM     77  C   UNL A   1      38.039  32.165  37.676  1.00  0.00     0.091 A 
ATOM     78  F   UNL A   1      38.206  30.073  36.539  1.00  0.00    -0.205 F 
ATOM     79  C   UNL A   1      38.370  33.528  37.741  1.00  0.00     0.022 A 
BRANCH  77  80
ATOM     80  S   UNL A   1      36.979  31.521  38.975  1.00  0.00     0.127 S 
ATOM     81  O   UNL A   1      35.847  32.443  38.924  1.00  0.00    -0.237 OA
ATOM     82  O   UNL A   1      36.695  30.169  38.490  1.00  0.00    -0.237 OA
ATOM     83  O   UNL A   1      37.777  31.565  40.193  1.00  0.00    -0.744 OA
ENDBRANCH  77  80
ENDBRANCH  49  73
BRANCH  61  84
ATOM     84  C   UNL A   1      44.901  28.209  34.136  1.00  0.00     0.023 A 
ATOM     85  C   UNL A   1      46.033  29.030  33.962  1.00  0.00     0.012 A 
ATOM     86  C   UNL A   1      44.934  27.177  35.095  1.00  0.00     0.148 A 
ATOM     87  C   UNL A   1      47.189  28.806  34.708  1.00  0.00     0.002 A 
ATOM     88  C   UNL A   1      46.072  26.994  35.871  1.00  0.00     0.091 A 
ATOM     89  F   UNL A   1      43.852  26.397  35.232  1.00  0.00    -0.205 F 
ATOM     90  C   UNL A   1      47.205  27.799  35.669  1.00  0.00     0.022 A 
BRANCH  88  91
ATOM     91  S   UNL A   1      46.144  25.790  37.201  1.00  0.00     0.127 S 
ATOM     92  O   UNL A   1      45.023  26.206  38.041  1.00  0.00    -0.237 OA
ATOM     93  O   UNL A   1      45.938  24.528  36.487  1.00  0.00    -0.237 OA
ATOM     94  O   UNL A   1      47.463  25.933  37.802  1.00  0.00    -0.744 OA
ENDBRANCH  88  91
ENDBRANCH  61  84
ENDBRANCH  35  36
ENDBRANCH  27  30
ENDBRANCH  25  26
ENDBRANCH  24  25
ENDBRANCH   1  24
TORSDOF 19
ENDMDL
MODEL 3
REMARK VINA RESULT:     -11.2      2.074      3.897
REMARK SMILES C[NH2+][C@]1(C(=O)NCCCNC(=O)c2ccc(-c3c4nc(c(-c5cccc(S(=O)(=O)[O-])c5F)c5ccc([nH]5)c(-c5cccc(S(=O)(=O)[O-])c5F)c5nc(c(-c6cccc(S(=O)(=O)[O-])c6F)c6ccc3[nH]6)C=C5)C=C4)cc2)CCC[C@@H]1CCOC[C@@H]1CCCO1
REMARK SMILES IDX 7 1 6 2 4 3 5 4 3 6 76 7 79 8 77 9 78 10 2 11 1 12 80 15
REMARK SMILES IDX 81 16 82 17 83 18 84 19 85 20 88 21 86 22 87 23 8 24 9 25
REMARK SMILES IDX 10 26 11 27 12 29 13 30 14 31 75 32 15 33 74 34 16 35 17 36
REMARK SMILES IDX 18 37 68 38 19 39 73 40 67 41 69 42 20 43 72 44 66 45 65 46
REMARK SMILES IDX 21 48 53 49 33 50 52 51 34 52 37 53 51 54 70 55 35 56 36 57
REMARK SMILES IDX 50 59 71 60 38 61 22 62 23 63 31 64 24 65 26 66 32 67 25 68
REMARK SMILES IDX 27 69 28 70 29 71 30 72 54 73 55 74 63 75 56 76 58 77 64 78
REMARK SMILES IDX 57 79 59 80 60 81 61 82 62 83 39 84 40 85 48 86 41 87 43 88
REMARK SMILES IDX 49 89 42 90 44 91 45 92 46 93 47 94
REMARK H PARENT 6 5 2 13 2 14 10 28 69 47 37 58
REMARK Flexibility Score: inf
ROOT
ATOM      1  C   UNL A   1      32.286  27.703  26.929  1.00  0.00     0.118 C 
ENDROOT
BRANCH   1   2
ATOM      2  N   UNL A   1      31.282  26.656  26.959  1.00  0.00    -0.351 N 
ATOM      3  C   UNL A   1      31.018  25.554  26.205  1.00  0.00     0.281 C 
ATOM      4  O   UNL A   1      30.096  24.871  26.667  1.00  0.00    -0.268 OA
ATOM      5  H   UNL A   1      30.641  26.769  27.698  1.00  0.00     0.163 HD
BRANCH   3   6
ATOM      6  C   UNL A   1      31.834  25.160  24.922  1.00  0.00     0.178 C 
ATOM      7  C   UNL A   1      31.662  26.183  23.775  1.00  0.00     0.079 C 
ATOM      8  C   UNL A   1      33.370  25.234  25.174  1.00  0.00     0.063 C 
ATOM      9  C   UNL A   1      32.974  26.164  22.976  1.00  0.00     0.008 C 
ATOM     10  C   UNL A   1      33.947  25.269  23.749  1.00  0.00     0.011 C 
BRANCH   6  11
ATOM     11  N   UNL A   1      31.498  23.844  24.285  1.00  0.00    -0.336 N 
ATOM     12  C   UNL A   1      30.595  23.802  23.155  1.00  0.00     0.331 C 
ATOM     13  H   UNL A   1      32.378  23.433  23.974  1.00  0.00     0.346 HD
ATOM     14  H   UNL A   1      30.985  23.351  25.016  1.00  0.00     0.346 HD
ENDBRANCH   6  11
BRANCH   8  15
ATOM     15  C   UNL A   1      33.947  24.153  26.103  1.00  0.00     0.039 C 
BRANCH  15  16
ATOM     16  C   UNL A   1      35.225  23.468  25.588  1.00  0.00     0.161 C 
BRANCH  16  17
ATOM     17  O   UNL A   1      35.029  22.199  24.982  1.00  0.00    -0.379 OA
BRANCH  17  18
ATOM     18  C   UNL A   1      34.600  21.085  25.760  1.00  0.00     0.192 C 
BRANCH  18  19
ATOM     19  C   UNL A   1      33.374  20.282  25.281  1.00  0.00     0.144 C 
ATOM     20  C   UNL A   1      33.679  18.967  24.585  1.00  0.00     0.037 C 
ATOM     21  O   UNL A   1      32.548  21.055  24.394  1.00  0.00    -0.376 OA
ATOM     22  C   UNL A   1      32.590  18.844  23.556  1.00  0.00     0.031 C 
ATOM     23  C   UNL A   1      32.308  20.287  23.211  1.00  0.00     0.160 C 
ENDBRANCH  18  19
ENDBRANCH  17  18
ENDBRANCH  16  17
ENDBRANCH  15  16
ENDBRANCH   8  15
ENDBRANCH   3   6
ENDBRANCH   1   2
BRANCH   1  24
ATOM     24  C   UNL A   1      31.710  29.074  26.629  1.00  0.00     0.042 C 
BRANCH  24  25
ATOM     25  C   UNL A   1      32.708  30.035  25.999  1.00  0.00     0.118 C 
BRANCH  25  26
ATOM     26  N   UNL A   1      32.539  31.418  26.434  1.00  0.00    -0.352 N 
ATOM     27  C   UNL A   1      33.286  32.170  27.314  1.00  0.00     0.251 C 
ATOM     28  H   UNL A   1      31.771  31.887  26.036  1.00  0.00     0.163 HD
ATOM     29  O   UNL A   1      32.889  33.270  27.668  1.00  0.00    -0.269 OA
BRANCH  27  30
ATOM     30  C   UNL A   1      34.554  31.624  27.848  1.00  0.00     0.039 A 
ATOM     31  C   UNL A   1      35.643  32.479  28.033  1.00  0.00     0.014 A 
ATOM     32  C   UNL A   1      34.656  30.276  28.191  1.00  0.00     0.014 A 
ATOM     33  C   UNL A   1      36.801  31.996  28.647  1.00  0.00     0.010 A 
ATOM     34  C   UNL A   1      35.756  29.831  28.909  1.00  0.00     0.010 A 
ATOM     35  C   UNL A   1      36.849  30.679  29.133  1.00  0.00    -0.014 A 
BRANCH  35  36
ATOM     36  C   UNL A   1      38.028  30.155  29.868  1.00  0.00     0.031 A 
ATOM     37  C   UNL A   1      38.300  30.617  31.276  1.00  0.00     0.074 A 
ATOM     38  C   UNL A   1      38.908  29.351  29.238  1.00  0.00     0.049 A 
ATOM     39  N   UNL A   1      39.321  30.352  32.048  1.00  0.00    -0.248 NA
ATOM     40  C   UNL A   1      37.316  31.532  31.882  1.00  0.00     0.031 C 
ATOM     41  C   UNL A   1      38.804  28.904  27.846  1.00  0.00     0.029 A 
ATOM     42  N   UNL A   1      40.082  28.791  29.678  1.00  0.00    -0.354 N 
ATOM     43  C   UNL A   1      39.127  31.101  33.203  1.00  0.00     0.074 A 
ATOM     44  C   UNL A   1      37.915  31.865  33.014  1.00  0.00     0.031 C 
ATOM     45  C   UNL A   1      39.862  28.131  27.552  1.00  0.00     0.029 A 
ATOM     46  C   UNL A   1      40.737  28.056  28.717  1.00  0.00     0.049 A 
ATOM     47  H   UNL A   1      40.422  28.905  30.594  1.00  0.00     0.167 HD
ATOM     48  C   UNL A   1      39.869  31.127  34.335  1.00  0.00     0.034 A 
ATOM     49  C   UNL A   1      41.913  27.400  28.766  1.00  0.00     0.034 A 
ATOM     50  C   UNL A   1      41.041  30.320  34.540  1.00  0.00     0.049 A 
ATOM     51  C   UNL A   1      42.691  27.398  30.055  1.00  0.00     0.074 A 
ATOM     52  C   UNL A   1      41.806  30.193  35.685  1.00  0.00     0.029 A 
ATOM     53  N   UNL A   1      41.618  29.508  33.577  1.00  0.00    -0.354 N 
ATOM     54  N   UNL A   1      42.405  27.984  31.192  1.00  0.00    -0.248 NA
ATOM     55  C   UNL A   1      43.934  26.615  30.080  1.00  0.00     0.031 C 
ATOM     56  C   UNL A   1      42.865  29.323  35.405  1.00  0.00     0.029 A 
ATOM     57  C   UNL A   1      42.737  28.882  34.096  1.00  0.00     0.049 A 
ATOM     58  H   UNL A   1      41.282  29.393  32.659  1.00  0.00     0.167 HD
ATOM     59  C   UNL A   1      43.407  27.608  32.079  1.00  0.00     0.074 A 
ATOM     60  C   UNL A   1      44.299  26.728  31.351  1.00  0.00     0.031 C 
ATOM     61  C   UNL A   1      43.581  27.965  33.375  1.00  0.00     0.034 A 
BRANCH  48  62
ATOM     62  C   UNL A   1      39.405  32.018  35.459  1.00  0.00     0.023 A 
ATOM     63  C   UNL A   1      38.508  31.515  36.424  1.00  0.00     0.012 A 
ATOM     64  C   UNL A   1      39.893  33.332  35.587  1.00  0.00     0.148 A 
ATOM     65  C   UNL A   1      38.070  32.320  37.475  1.00  0.00     0.002 A 
ATOM     66  C   UNL A   1      39.492  34.111  36.667  1.00  0.00     0.091 A 
ATOM     67  F   UNL A   1      40.727  33.801  34.649  1.00  0.00    -0.205 F 
ATOM     68  C   UNL A   1      38.571  33.612  37.603  1.00  0.00     0.022 A 
BRANCH  66  69
ATOM     69  S   UNL A   1      40.142  35.758  36.968  1.00  0.00     0.127 S 
ATOM     70  O   UNL A   1      39.469  36.118  38.215  1.00  0.00    -0.237 OA
ATOM     71  O   UNL A   1      41.576  35.501  37.101  1.00  0.00    -0.237 OA
ATOM     72  O   UNL A   1      39.773  36.555  35.806  1.00  0.00    -0.744 OA
ENDBRANCH  66  69
ENDBRANCH  48  62
BRANCH  49  73
ATOM     73  C   UNL A   1      42.392  26.631  27.582  1.00  0.00     0.023 A 
ATOM     74  C   UNL A   1      43.167  27.283  26.603  1.00  0.00     0.012 A 
ATOM     75  C   UNL A   1      42.109  25.260  27.431  1.00  0.00     0.148 A 
ATOM     76  C   UNL A   1      43.619  26.596  25.477  1.00  0.00     0.002 A 
ATOM     77  C   UNL A   1      42.609  24.567  26.335  1.00  0.00     0.091 A 
ATOM     78  F   UNL A   1      41.363  24.659  28.369  1.00  0.00    -0.205 F 
ATOM     79  C   UNL A   1      43.348  25.236  25.347  1.00  0.00     0.022 A 
BRANCH  77  80
ATOM     80  S   UNL A   1      42.425  22.789  26.153  1.00  0.00     0.127 S 
ATOM     81  O   UNL A   1      40.977  22.627  26.256  1.00  0.00    -0.237 OA
ATOM     82  O   UNL A   1      42.977  22.564  24.816  1.00  0.00    -0.237 OA
ATOM     83  O   UNL A   1      43.206  22.200  27.231  1.00  0.00    -0.744 OA
ENDBRANCH  77  80
ENDBRANCH  49  73
BRANCH  61  84
ATOM     84  C   UNL A   1      44.751  27.371  34.115  1.00  0.00     0.023 A 
ATOM     85  C   UNL A   1      45.983  28.054  34.151  1.00  0.00     0.012 A 
ATOM     86  C   UNL A   1      44.601  26.173  34.840  1.00  0.00     0.148 A 
ATOM     87  C   UNL A   1      47.058  27.535  34.871  1.00  0.00     0.002 A 
ATOM     88  C   UNL A   1      45.661  25.689  35.598  1.00  0.00     0.091 A 
ATOM     89  F   UNL A   1      43.426  25.530  34.777  1.00  0.00    -0.205 F 
ATOM     90  C   UNL A   1      46.894  26.362  35.604  1.00  0.00     0.022 A 
BRANCH  88  91
ATOM     91  S   UNL A   1      45.508  24.243  36.651  1.00  0.00     0.127 S 
ATOM     92  O   UNL A   1      44.570  24.714  37.669  1.00  0.00    -0.237 OA
ATOM     93  O   UNL A   1      44.958  23.246  35.730  1.00  0.00    -0.237 OA
ATOM     94  O   UNL A   1      46.852  23.948  37.127  1.00  0.00    -0.744 OA
ENDBRANCH  88  91
ENDBRANCH  61  84
ENDBRANCH  35  36
ENDBRANCH  27  30
ENDBRANCH  25  26
ENDBRANCH  24  25
ENDBRANCH   1  24
TORSDOF 19
ENDMDL
