MODEL 1
REMARK VINA RESULT:     -10.2      0.000      0.000
REMARK SMILES COC[C@@H](C)CC(=O)N1CC(CC(=O)NCCCNC(=O)c2ccc(-c3c4nc(c(-c5cccc(S(=O)(=O)[O-])c5F)c5ccc([nH]5)c(-c5cccc(S(=O)(=O)[O-])c5F)c5nc(c(-c6cccc(S(=O)(=O)[O-])c6F)c6ccc3[nH]6)C=C5)C=C4)cc2)C1
REMARK SMILES IDX 16 1 15 2 13 3 14 4 12 6 11 7 7 8 8 9 9 10 10 11 85 12 6 13
REMARK SMILES IDX 4 14 5 15 3 16 2 17 1 18 17 19 18 20 19 21 20 22 21 24 22 25
REMARK SMILES IDX 23 26 84 27 24 28 83 29 25 30 26 31 27 32 77 33 28 34 82 35
REMARK SMILES IDX 76 36 78 37 29 38 81 39 75 40 74 41 30 43 62 44 42 45 61 46
REMARK SMILES IDX 43 47 46 48 60 49 79 50 44 51 45 52 59 54 80 55 47 56 31 57
REMARK SMILES IDX 32 58 40 59 33 60 35 61 41 62 34 63 36 64 37 65 38 66 39 67
REMARK SMILES IDX 63 68 64 69 72 70 65 71 67 72 73 73 66 74 68 75 69 76 70 77
REMARK SMILES IDX 71 78 48 79 49 80 57 81 50 82 52 83 58 84 51 85 53 86 54 87
REMARK SMILES IDX 55 88 56 89
REMARK H PARENT 15 5 19 23 78 42 46 53
REMARK Flexibility Score: inf
ROOT
ATOM      1  C   UNL A   1      33.200  34.837  29.082  1.00  0.00     0.117 C 
ENDROOT
BRANCH   1   2
ATOM      2  N   UNL A   1      33.162  36.158  29.688  1.00  0.00    -0.356 N 
ATOM      3  C   UNL A   1      33.000  36.548  30.984  1.00  0.00     0.220 C 
ATOM      4  O   UNL A   1      32.964  37.758  31.220  1.00  0.00    -0.275 OA
ATOM      5  H   UNL A   1      33.273  36.900  29.052  1.00  0.00     0.163 HD
BRANCH   3   6
ATOM      6  C   UNL A   1      32.849  35.542  32.113  1.00  0.00     0.107 C 
BRANCH   6   7
ATOM      7  C   UNL A   1      34.017  34.562  32.198  1.00  0.00     0.037 C 
ATOM      8  C   UNL A   1      36.482  33.354  34.071  1.00  0.00     0.222 C 
ATOM      9  O   UNL A   1      36.643  32.172  33.769  1.00  0.00    -0.275 OA
ATOM     10  N   UNL A   1      35.330  34.033  33.739  1.00  0.00    -0.342 N 
ATOM     11  C   UNL A   1      34.052  33.479  33.288  1.00  0.00     0.125 C 
ATOM     12  C   UNL A   1      35.257  35.162  32.840  1.00  0.00     0.125 C 
BRANCH   8  13
ATOM     13  C   UNL A   1      37.423  34.078  35.045  1.00  0.00     0.106 C 
BRANCH  13  14
ATOM     14  C   UNL A   1      38.955  34.068  34.847  1.00  0.00     0.021 C 
ATOM     15  C   UNL A   1      39.540  35.371  35.418  1.00  0.00     0.010 C 
BRANCH  14  16
ATOM     16  C   UNL A   1      39.369  33.911  33.377  1.00  0.00     0.163 C 
BRANCH  16  17
ATOM     17  O   UNL A   1      38.754  34.841  32.493  1.00  0.00    -0.384 OA
ATOM     18  C   UNL A   1      38.842  34.495  31.120  1.00  0.00     0.194 C 
ENDBRANCH  16  17
ENDBRANCH  14  16
ENDBRANCH  13  14
ENDBRANCH   8  13
ENDBRANCH   6   7
ENDBRANCH   3   6
ENDBRANCH   1   2
BRANCH   1  19
ATOM     19  C   UNL A   1      34.384  34.675  28.133  1.00  0.00     0.042 C 
BRANCH  19  20
ATOM     20  C   UNL A   1      35.109  33.338  28.179  1.00  0.00     0.118 C 
BRANCH  20  21
ATOM     21  N   UNL A   1      34.255  32.225  27.802  1.00  0.00    -0.352 N 
ATOM     22  C   UNL A   1      34.516  30.876  27.736  1.00  0.00     0.251 C 
ATOM     23  H   UNL A   1      33.338  32.478  27.552  1.00  0.00     0.163 HD
ATOM     24  O   UNL A   1      33.675  30.149  27.208  1.00  0.00    -0.269 OA
BRANCH  22  25
ATOM     25  C   UNL A   1      35.780  30.281  28.249  1.00  0.00     0.039 A 
ATOM     26  C   UNL A   1      36.900  30.276  27.404  1.00  0.00     0.014 A 
ATOM     27  C   UNL A   1      35.881  29.694  29.511  1.00  0.00     0.014 A 
ATOM     28  C   UNL A   1      38.118  29.748  27.845  1.00  0.00     0.010 A 
ATOM     29  C   UNL A   1      37.115  29.238  29.980  1.00  0.00     0.010 A 
ATOM     30  C   UNL A   1      38.244  29.246  29.148  1.00  0.00    -0.014 A 
BRANCH  30  31
ATOM     31  C   UNL A   1      39.539  28.706  29.642  1.00  0.00     0.031 A 
ATOM     32  C   UNL A   1      40.276  29.393  30.759  1.00  0.00     0.074 A 
ATOM     33  C   UNL A   1      40.094  27.634  29.040  1.00  0.00     0.049 A 
ATOM     34  N   UNL A   1      41.422  29.081  31.308  1.00  0.00    -0.248 NA
ATOM     35  C   UNL A   1      39.657  30.607  31.314  1.00  0.00     0.031 C 
ATOM     36  C   UNL A   1      39.528  26.928  27.891  1.00  0.00     0.029 A 
ATOM     37  N   UNL A   1      41.272  26.975  29.291  1.00  0.00    -0.354 N 
ATOM     38  C   UNL A   1      41.682  30.077  32.241  1.00  0.00     0.074 A 
ATOM     39  C   UNL A   1      40.586  31.020  32.163  1.00  0.00     0.031 C 
ATOM     40  C   UNL A   1      40.360  25.938  27.531  1.00  0.00     0.029 A 
ATOM     41  C   UNL A   1      41.533  25.958  28.403  1.00  0.00     0.049 A 
ATOM     42  H   UNL A   1      41.873  27.209  30.034  1.00  0.00     0.167 HD
ATOM     43  C   UNL A   1      42.724  30.191  33.099  1.00  0.00     0.034 A 
ATOM     44  C   UNL A   1      42.602  25.144  28.287  1.00  0.00     0.034 A 
ATOM     45  C   UNL A   1      43.799  29.241  33.194  1.00  0.00     0.049 A 
ATOM     46  C   UNL A   1      43.730  25.261  29.276  1.00  0.00     0.074 A 
ATOM     47  C   UNL A   1      44.842  29.209  34.103  1.00  0.00     0.029 A 
ATOM     48  N   UNL A   1      43.989  28.171  32.332  1.00  0.00    -0.354 N 
ATOM     49  N   UNL A   1      43.869  26.100  30.274  1.00  0.00    -0.248 NA
ATOM     50  C   UNL A   1      44.832  24.296  29.147  1.00  0.00     0.031 C 
ATOM     51  C   UNL A   1      45.686  28.146  33.764  1.00  0.00     0.029 A 
ATOM     52  C   UNL A   1      45.145  27.488  32.671  1.00  0.00     0.049 A 
ATOM     53  H   UNL A   1      43.390  27.933  31.588  1.00  0.00     0.167 HD
ATOM     54  C   UNL A   1      45.055  25.749  30.909  1.00  0.00     0.074 A 
ATOM     55  C   UNL A   1      45.586  24.606  30.195  1.00  0.00     0.031 C 
ATOM     56  C   UNL A   1      45.652  26.328  31.980  1.00  0.00     0.034 A 
BRANCH  43  57
ATOM     57  C   UNL A   1      42.736  31.383  34.023  1.00  0.00     0.023 A 
ATOM     58  C   UNL A   1      43.330  32.593  33.602  1.00  0.00     0.012 A 
ATOM     59  C   UNL A   1      42.138  31.316  35.295  1.00  0.00     0.148 A 
ATOM     60  C   UNL A   1      43.373  33.697  34.453  1.00  0.00     0.002 A 
ATOM     61  C   UNL A   1      42.140  32.437  36.118  1.00  0.00     0.091 A 
ATOM     62  F   UNL A   1      41.597  30.154  35.689  1.00  0.00    -0.205 F 
ATOM     63  C   UNL A   1      42.771  33.622  35.706  1.00  0.00     0.022 A 
BRANCH  61  64
ATOM     64  S   UNL A   1      41.317  32.464  37.714  1.00  0.00     0.127 S 
ATOM     65  O   UNL A   1      39.999  31.930  37.375  1.00  0.00    -0.237 OA
ATOM     66  O   UNL A   1      42.155  31.562  38.506  1.00  0.00    -0.237 OA
ATOM     67  O   UNL A   1      41.340  33.852  38.153  1.00  0.00    -0.744 OA
ENDBRANCH  61  64
ENDBRANCH  43  57
BRANCH  44  68
ATOM     68  C   UNL A   1      42.625  24.115  27.210  1.00  0.00     0.023 A 
ATOM     69  C   UNL A   1      43.329  24.367  26.016  1.00  0.00     0.012 A 
ATOM     70  C   UNL A   1      42.004  22.864  27.392  1.00  0.00     0.148 A 
ATOM     71  C   UNL A   1      43.394  23.399  25.013  1.00  0.00     0.002 A 
ATOM     72  C   UNL A   1      42.125  21.884  26.415  1.00  0.00     0.091 A 
ATOM     73  F   UNL A   1      41.333  22.650  28.531  1.00  0.00    -0.205 F 
ATOM     74  C   UNL A   1      42.804  22.155  25.217  1.00  0.00     0.022 A 
BRANCH  72  75
ATOM     75  S   UNL A   1      41.525  20.206  26.645  1.00  0.00     0.127 S 
ATOM     76  O   UNL A   1      41.975  19.556  25.418  1.00  0.00    -0.237 OA
ATOM     77  O   UNL A   1      42.236  19.801  27.857  1.00  0.00    -0.237 OA
ATOM     78  O   UNL A   1      40.080  20.320  26.801  1.00  0.00    -0.744 OA
ENDBRANCH  72  75
ENDBRANCH  44  68
BRANCH  56  79
ATOM     79  C   UNL A   1      46.941  25.723  32.480  1.00  0.00     0.023 A 
ATOM     80  C   UNL A   1      48.175  26.153  31.951  1.00  0.00     0.012 A 
ATOM     81  C   UNL A   1      46.931  24.783  33.530  1.00  0.00     0.148 A 
ATOM     82  C   UNL A   1      49.374  25.633  32.437  1.00  0.00     0.002 A 
ATOM     83  C   UNL A   1      48.131  24.308  34.044  1.00  0.00     0.091 A 
ATOM     84  F   UNL A   1      45.747  24.372  34.008  1.00  0.00    -0.205 F 
ATOM     85  C   UNL A   1      49.353  24.721  33.490  1.00  0.00     0.022 A 
BRANCH  83  86
ATOM     86  S   UNL A   1      48.206  23.209  35.463  1.00  0.00     0.127 S 
ATOM     87  O   UNL A   1      47.609  21.988  34.926  1.00  0.00    -0.237 OA
ATOM     88  O   UNL A   1      49.644  23.125  35.716  1.00  0.00    -0.237 OA
ATOM     89  O   UNL A   1      47.443  23.864  36.519  1.00  0.00    -0.744 OA
ENDBRANCH  83  86
ENDBRANCH  56  79
ENDBRANCH  30  31
ENDBRANCH  22  25
ENDBRANCH  20  21
ENDBRANCH  19  20
ENDBRANCH   1  19
TORSDOF 18
ENDMDL
MODEL 2
REMARK VINA RESULT:      -9.9      4.319     10.592
REMARK SMILES COC[C@@H](C)CC(=O)N1CC(CC(=O)NCCCNC(=O)c2ccc(-c3c4nc(c(-c5cccc(S(=O)(=O)[O-])c5F)c5ccc([nH]5)c(-c5cccc(S(=O)(=O)[O-])c5F)c5nc(c(-c6cccc(S(=O)(=O)[O-])c6F)c6ccc3[nH]6)C=C5)C=C4)cc2)C1
REMARK SMILES IDX 16 1 15 2 13 3 14 4 12 6 11 7 7 8 8 9 9 10 10 11 85 12 6 13
REMARK SMILES IDX 4 14 5 15 3 16 2 17 1 18 17 19 18 20 19 21 20 22 21 24 22 25
REMARK SMILES IDX 23 26 84 27 24 28 83 29 25 30 26 31 27 32 77 33 28 34 82 35
REMARK SMILES IDX 76 36 78 37 29 38 81 39 75 40 74 41 30 43 62 44 42 45 61 46
REMARK SMILES IDX 43 47 46 48 60 49 79 50 44 51 45 52 59 54 80 55 47 56 31 57
REMARK SMILES IDX 32 58 40 59 33 60 35 61 41 62 34 63 36 64 37 65 38 66 39 67
REMARK SMILES IDX 63 68 64 69 72 70 65 71 67 72 73 73 66 74 68 75 69 76 70 77
REMARK SMILES IDX 71 78 48 79 49 80 57 81 50 82 52 83 58 84 51 85 53 86 54 87
REMARK SMILES IDX 55 88 56 89
REMARK H PARENT 15 5 19 23 78 42 46 53
REMARK Flexibility Score: inf
ROOT
ATOM      1  C   UNL A   1      31.418  30.486  26.326  1.00  0.00     0.117 C 
ENDROOT
BRANCH   1   2
ATOM      2  N   UNL A   1      32.377  30.018  25.338  1.00  0.00    -0.356 N 
ATOM      3  C   UNL A   1      32.287  29.046  24.387  1.00  0.00     0.220 C 
ATOM      4  O   UNL A   1      33.284  28.822  23.697  1.00  0.00    -0.275 OA
ATOM      5  H   UNL A   1      33.243  30.485  25.359  1.00  0.00     0.163 HD
BRANCH   3   6
ATOM      6  C   UNL A   1      31.015  28.241  24.180  1.00  0.00     0.107 C 
BRANCH   6   7
ATOM      7  C   UNL A   1      30.808  27.168  25.246  1.00  0.00     0.037 C 
ATOM      8  C   UNL A   1      31.368  24.017  26.144  1.00  0.00     0.222 C 
ATOM      9  O   UNL A   1      31.470  23.985  27.369  1.00  0.00    -0.275 OA
ATOM     10  N   UNL A   1      31.484  25.197  25.441  1.00  0.00    -0.342 N 
ATOM     11  C   UNL A   1      32.012  26.479  25.908  1.00  0.00     0.125 C 
ATOM     12  C   UNL A   1      30.430  25.814  24.667  1.00  0.00     0.125 C 
BRANCH   8  13
ATOM     13  C   UNL A   1      31.360  22.737  25.296  1.00  0.00     0.106 C 
BRANCH  13  14
ATOM     14  C   UNL A   1      32.481  21.681  25.416  1.00  0.00     0.021 C 
ATOM     15  C   UNL A   1      33.819  22.327  25.021  1.00  0.00     0.010 C 
BRANCH  14  16
ATOM     16  C   UNL A   1      32.228  20.437  24.554  1.00  0.00     0.163 C 
BRANCH  16  17
ATOM     17  O   UNL A   1      32.832  19.248  25.050  1.00  0.00    -0.384 OA
ATOM     18  C   UNL A   1      33.236  18.329  24.047  1.00  0.00     0.194 C 
ENDBRANCH  16  17
ENDBRANCH  14  16
ENDBRANCH  13  14
ENDBRANCH   8  13
ENDBRANCH   6   7
ENDBRANCH   3   6
ENDBRANCH   1   2
BRANCH   1  19
ATOM     19  C   UNL A   1      31.464  32.002  26.497  1.00  0.00     0.042 C 
BRANCH  19  20
ATOM     20  C   UNL A   1      32.728  32.572  27.124  1.00  0.00     0.118 C 
BRANCH  20  21
ATOM     21  N   UNL A   1      32.545  33.924  27.622  1.00  0.00    -0.352 N 
ATOM     22  C   UNL A   1      33.173  34.597  28.645  1.00  0.00     0.251 C 
ATOM     23  H   UNL A   1      31.857  34.445  27.150  1.00  0.00     0.163 HD
ATOM     24  O   UNL A   1      32.710  35.682  28.994  1.00  0.00    -0.269 OA
BRANCH  22  25
ATOM     25  C   UNL A   1      34.362  34.046  29.350  1.00  0.00     0.039 A 
ATOM     26  C   UNL A   1      34.151  33.093  30.358  1.00  0.00     0.014 A 
ATOM     27  C   UNL A   1      35.664  34.470  29.080  1.00  0.00     0.014 A 
ATOM     28  C   UNL A   1      35.235  32.528  31.037  1.00  0.00     0.010 A 
ATOM     29  C   UNL A   1      36.751  33.850  29.704  1.00  0.00     0.010 A 
ATOM     30  C   UNL A   1      36.549  32.883  30.699  1.00  0.00    -0.014 A 
BRANCH  30  31
ATOM     31  C   UNL A   1      37.714  32.272  31.394  1.00  0.00     0.031 A 
ATOM     32  C   UNL A   1      38.474  31.141  30.757  1.00  0.00     0.074 A 
ATOM     33  C   UNL A   1      38.050  32.685  32.633  1.00  0.00     0.049 A 
ATOM     34  N   UNL A   1      39.501  30.474  31.217  1.00  0.00    -0.248 NA
ATOM     35  C   UNL A   1      38.002  30.683  29.441  1.00  0.00     0.031 C 
ATOM     36  C   UNL A   1      37.343  33.710  33.399  1.00  0.00     0.029 A 
ATOM     37  N   UNL A   1      39.050  32.267  33.476  1.00  0.00    -0.354 N 
ATOM     38  C   UNL A   1      39.771  29.492  30.271  1.00  0.00     0.074 A 
ATOM     39  C   UNL A   1      38.782  29.634  29.224  1.00  0.00     0.031 C 
ATOM     40  C   UNL A   1      37.925  33.839  34.601  1.00  0.00     0.029 A 
ATOM     41  C   UNL A   1      39.027  32.885  34.704  1.00  0.00     0.049 A 
ATOM     42  H   UNL A   1      39.719  31.590  33.226  1.00  0.00     0.167 HD
ATOM     43  C   UNL A   1      40.763  28.568  30.261  1.00  0.00     0.034 A 
ATOM     44  C   UNL A   1      39.792  32.695  35.798  1.00  0.00     0.034 A 
ATOM     45  C   UNL A   1      41.760  28.443  31.289  1.00  0.00     0.049 A 
ATOM     46  C   UNL A   1      40.913  31.693  35.751  1.00  0.00     0.074 A 
ATOM     47  C   UNL A   1      42.868  27.614  31.317  1.00  0.00     0.029 A 
ATOM     48  N   UNL A   1      41.758  29.145  32.484  1.00  0.00    -0.354 N 
ATOM     49  N   UNL A   1      41.270  30.899  34.770  1.00  0.00    -0.248 NA
ATOM     50  C   UNL A   1      41.762  31.585  36.947  1.00  0.00     0.031 C 
ATOM     51  C   UNL A   1      43.510  27.783  32.548  1.00  0.00     0.029 A 
ATOM     52  C   UNL A   1      42.828  28.751  33.269  1.00  0.00     0.049 A 
ATOM     53  H   UNL A   1      41.092  29.825  32.738  1.00  0.00     0.167 HD
ATOM     54  C   UNL A   1      42.397  30.219  35.217  1.00  0.00     0.074 A 
ATOM     55  C   UNL A   1      42.678  30.710  36.550  1.00  0.00     0.031 C 
ATOM     56  C   UNL A   1      43.126  29.268  34.582  1.00  0.00     0.034 A 
BRANCH  43  57
ATOM     57  C   UNL A   1      40.826  27.630  29.082  1.00  0.00     0.023 A 
ATOM     58  C   UNL A   1      39.997  26.488  29.047  1.00  0.00     0.012 A 
ATOM     59  C   UNL A   1      41.683  27.892  27.996  1.00  0.00     0.148 A 
ATOM     60  C   UNL A   1      40.062  25.595  27.977  1.00  0.00     0.002 A 
ATOM     61  C   UNL A   1      41.704  27.025  26.910  1.00  0.00     0.091 A 
ATOM     62  F   UNL A   1      42.479  28.969  28.054  1.00  0.00    -0.205 F 
ATOM     63  C   UNL A   1      40.907  25.869  26.905  1.00  0.00     0.022 A 
BRANCH  61  64
ATOM     64  S   UNL A   1      42.698  27.336  25.446  1.00  0.00     0.127 S 
ATOM     65  O   UNL A   1      44.025  27.533  26.028  1.00  0.00    -0.237 OA
ATOM     66  O   UNL A   1      42.540  26.088  24.697  1.00  0.00    -0.237 OA
ATOM     67  O   UNL A   1      42.112  28.504  24.805  1.00  0.00    -0.744 OA
ENDBRANCH  61  64
ENDBRANCH  43  57
BRANCH  44  68
ATOM     68  C   UNL A   1      39.541  33.514  37.018  1.00  0.00     0.023 A 
ATOM     69  C   UNL A   1      39.985  34.850  37.067  1.00  0.00     0.012 A 
ATOM     70  C   UNL A   1      38.811  32.990  38.103  1.00  0.00     0.148 A 
ATOM     71  C   UNL A   1      39.723  35.643  38.185  1.00  0.00     0.002 A 
ATOM     72  C   UNL A   1      38.503  33.805  39.185  1.00  0.00     0.091 A 
ATOM     73  F   UNL A   1      38.408  31.714  38.038  1.00  0.00    -0.205 F 
ATOM     74  C   UNL A   1      38.973  35.125  39.237  1.00  0.00     0.022 A 
BRANCH  72  75
ATOM     75  S   UNL A   1      37.423  33.275  40.519  1.00  0.00     0.127 S 
ATOM     76  O   UNL A   1      38.192  32.186  41.113  1.00  0.00    -0.237 OA
ATOM     77  O   UNL A   1      37.338  34.488  41.332  1.00  0.00    -0.237 OA
ATOM     78  O   UNL A   1      36.170  32.885  39.884  1.00  0.00    -0.744 OA
ENDBRANCH  72  75
ENDBRANCH  44  68
BRANCH  56  79
ATOM     79  C   UNL A   1      44.328  28.705  35.300  1.00  0.00     0.023 A 
ATOM     80  C   UNL A   1      45.607  29.249  35.072  1.00  0.00     0.012 A 
ATOM     81  C   UNL A   1      44.174  27.684  36.260  1.00  0.00     0.148 A 
ATOM     82  C   UNL A   1      46.718  28.765  35.763  1.00  0.00     0.002 A 
ATOM     83  C   UNL A   1      45.276  27.243  36.983  1.00  0.00     0.091 A 
ATOM     84  F   UNL A   1      42.952  27.165  36.451  1.00  0.00    -0.205 F 
ATOM     85  C   UNL A   1      46.551  27.773  36.726  1.00  0.00     0.022 A 
BRANCH  83  86
ATOM     86  S   UNL A   1      45.142  26.041  38.310  1.00  0.00     0.127 S 
ATOM     87  O   UNL A   1      44.188  26.691  39.206  1.00  0.00    -0.237 OA
ATOM     88  O   UNL A   1      44.620  24.865  37.613  1.00  0.00    -0.237 OA
ATOM     89  O   UNL A   1      46.488  25.879  38.844  1.00  0.00    -0.744 OA
ENDBRANCH  83  86
ENDBRANCH  56  79
ENDBRANCH  30  31
ENDBRANCH  22  25
ENDBRANCH  20  21
ENDBRANCH  19  20
ENDBRANCH   1  19
TORSDOF 18
ENDMDL
MODEL 3
REMARK VINA RESULT:      -9.8      3.833      7.262
REMARK SMILES COC[C@@H](C)CC(=O)N1CC(CC(=O)NCCCNC(=O)c2ccc(-c3c4nc(c(-c5cccc(S(=O)(=O)[O-])c5F)c5ccc([nH]5)c(-c5cccc(S(=O)(=O)[O-])c5F)c5nc(c(-c6cccc(S(=O)(=O)[O-])c6F)c6ccc3[nH]6)C=C5)C=C4)cc2)C1
REMARK SMILES IDX 16 1 15 2 13 3 14 4 12 6 11 7 7 8 8 9 9 10 10 11 85 12 6 13
REMARK SMILES IDX 4 14 5 15 3 16 2 17 1 18 17 19 18 20 19 21 20 22 21 24 22 25
REMARK SMILES IDX 23 26 84 27 24 28 83 29 25 30 26 31 27 32 77 33 28 34 82 35
REMARK SMILES IDX 76 36 78 37 29 38 81 39 75 40 74 41 30 43 62 44 42 45 61 46
REMARK SMILES IDX 43 47 46 48 60 49 79 50 44 51 45 52 59 54 80 55 47 56 31 57
REMARK SMILES IDX 32 58 40 59 33 60 35 61 41 62 34 63 36 64 37 65 38 66 39 67
REMARK SMILES IDX 63 68 64 69 72 70 65 71 67 72 73 73 66 74 68 75 69 76 70 77
REMARK SMILES IDX 71 78 48 79 49 80 57 81 50 82 52 83 58 84 51 85 53 86 54 87
REMARK SMILES IDX 55 88 56 89
REMARK H PARENT 15 5 19 23 78 42 46 53
REMARK Flexibility Score: inf
ROOT
ATOM      1  C   UNL A   1      32.160  27.158  26.348  1.00  0.00     0.117 C 
ENDROOT
BRANCH   1   2
ATOM      2  N   UNL A   1      32.156  27.397  24.913  1.00  0.00    -0.356 N 
ATOM      3  C   UNL A   1      32.758  26.728  23.888  1.00  0.00     0.220 C 
ATOM      4  O   UNL A   1      32.621  27.179  22.749  1.00  0.00    -0.275 OA
ATOM      5  H   UNL A   1      31.626  28.176  24.633  1.00  0.00     0.163 HD
BRANCH   3   6
ATOM      6  C   UNL A   1      33.588  25.478  24.124  1.00  0.00     0.107 C 
BRANCH   6   7
ATOM      7  C   UNL A   1      32.745  24.207  24.197  1.00  0.00     0.037 C 
ATOM      8  C   UNL A   1      32.659  20.990  25.027  1.00  0.00     0.222 C 
ATOM      9  O   UNL A   1      31.521  20.729  25.413  1.00  0.00    -0.275 OA
ATOM     10  N   UNL A   1      33.114  22.288  24.948  1.00  0.00    -0.342 N 
ATOM     11  C   UNL A   1      32.524  23.490  25.539  1.00  0.00     0.125 C 
ATOM     12  C   UNL A   1      33.489  22.967  23.727  1.00  0.00     0.125 C 
BRANCH   8  13
ATOM     13  C   UNL A   1      33.728  19.900  24.853  1.00  0.00     0.106 C 
BRANCH  13  14
ATOM     14  C   UNL A   1      33.361  18.479  24.370  1.00  0.00     0.021 C 
ATOM     15  C   UNL A   1      32.461  18.591  23.129  1.00  0.00     0.010 C 
BRANCH  14  16
ATOM     16  C   UNL A   1      32.661  17.641  25.448  1.00  0.00     0.163 C 
BRANCH  16  17
ATOM     17  O   UNL A   1      33.356  16.454  25.811  1.00  0.00    -0.384 OA
ATOM     18  C   UNL A   1      32.671  15.252  25.499  1.00  0.00     0.194 C 
ENDBRANCH  16  17
ENDBRANCH  14  16
ENDBRANCH  13  14
ENDBRANCH   8  13
ENDBRANCH   6   7
ENDBRANCH   3   6
ENDBRANCH   1   2
BRANCH   1  19
ATOM     19  C   UNL A   1      33.223  27.987  27.064  1.00  0.00     0.042 C 
BRANCH  19  20
ATOM     20  C   UNL A   1      33.931  29.043  26.229  1.00  0.00     0.118 C 
BRANCH  20  21
ATOM     21  N   UNL A   1      33.781  30.381  26.773  1.00  0.00    -0.352 N 
ATOM     22  C   UNL A   1      34.537  31.065  27.698  1.00  0.00     0.251 C 
ATOM     23  H   UNL A   1      33.010  30.882  26.423  1.00  0.00     0.163 HD
ATOM     24  O   UNL A   1      34.096  32.128  28.133  1.00  0.00    -0.269 OA
BRANCH  22  25
ATOM     25  C   UNL A   1      35.839  30.550  28.201  1.00  0.00     0.039 A 
ATOM     26  C   UNL A   1      35.831  29.724  29.334  1.00  0.00     0.014 A 
ATOM     27  C   UNL A   1      37.062  30.891  27.619  1.00  0.00     0.014 A 
ATOM     28  C   UNL A   1      37.026  29.197  29.835  1.00  0.00     0.010 A 
ATOM     29  C   UNL A   1      38.246  30.303  28.072  1.00  0.00     0.010 A 
ATOM     30  C   UNL A   1      38.244  29.461  29.193  1.00  0.00    -0.014 A 
BRANCH  30  31
ATOM     31  C   UNL A   1      39.520  28.887  29.698  1.00  0.00     0.031 A 
ATOM     32  C   UNL A   1      40.256  29.544  30.833  1.00  0.00     0.074 A 
ATOM     33  C   UNL A   1      40.059  27.810  29.090  1.00  0.00     0.049 A 
ATOM     34  N   UNL A   1      41.387  29.200  31.393  1.00  0.00    -0.248 NA
ATOM     35  C   UNL A   1      39.656  30.765  31.394  1.00  0.00     0.031 C 
ATOM     36  C   UNL A   1      39.494  27.130  27.926  1.00  0.00     0.029 A 
ATOM     37  N   UNL A   1      41.220  27.123  29.349  1.00  0.00    -0.354 N 
ATOM     38  C   UNL A   1      41.656  30.180  32.342  1.00  0.00     0.074 A 
ATOM     39  C   UNL A   1      40.582  31.148  32.261  1.00  0.00     0.031 C 
ATOM     40  C   UNL A   1      40.310  26.127  27.565  1.00  0.00     0.029 A 
ATOM     41  C   UNL A   1      41.470  26.111  28.452  1.00  0.00     0.049 A 
ATOM     42  H   UNL A   1      41.815  27.334  30.104  1.00  0.00     0.167 HD
ATOM     43  C   UNL A   1      42.688  30.261  33.216  1.00  0.00     0.034 A 
ATOM     44  C   UNL A   1      42.523  25.275  28.342  1.00  0.00     0.034 A 
ATOM     45  C   UNL A   1      43.741  29.286  33.313  1.00  0.00     0.049 A 
ATOM     46  C   UNL A   1      43.640  25.356  29.347  1.00  0.00     0.074 A 
ATOM     47  C   UNL A   1      44.770  29.220  34.236  1.00  0.00     0.029 A 
ATOM     48  N   UNL A   1      43.920  28.223  32.442  1.00  0.00    -0.354 N 
ATOM     49  N   UNL A   1      43.783  26.179  30.357  1.00  0.00    -0.248 NA
ATOM     50  C   UNL A   1      44.722  24.369  29.221  1.00  0.00     0.031 C 
ATOM     51  C   UNL A   1      45.595  28.143  33.896  1.00  0.00     0.029 A 
ATOM     52  C   UNL A   1      45.055  27.510  32.788  1.00  0.00     0.049 A 
ATOM     53  H   UNL A   1      43.326  28.006  31.686  1.00  0.00     0.167 HD
ATOM     54  C   UNL A   1      44.952  25.795  31.003  1.00  0.00     0.074 A 
ATOM     55  C   UNL A   1      45.468  24.649  30.283  1.00  0.00     0.031 C 
ATOM     56  C   UNL A   1      45.547  26.348  32.090  1.00  0.00     0.034 A 
BRANCH  43  57
ATOM     57  C   UNL A   1      42.714  31.441  34.154  1.00  0.00     0.023 A 
ATOM     58  C   UNL A   1      43.396  32.620  33.783  1.00  0.00     0.012 A 
ATOM     59  C   UNL A   1      42.040  31.396  35.389  1.00  0.00     0.148 A 
ATOM     60  C   UNL A   1      43.452  33.711  34.649  1.00  0.00     0.002 A 
ATOM     61  C   UNL A   1      42.058  32.506  36.225  1.00  0.00     0.091 A 
ATOM     62  F   UNL A   1      41.415  30.261  35.736  1.00  0.00    -0.205 F 
ATOM     63  C   UNL A   1      42.776  33.658  35.865  1.00  0.00     0.022 A 
BRANCH  61  64
ATOM     64  S   UNL A   1      41.148  32.563  37.773  1.00  0.00     0.127 S 
ATOM     65  O   UNL A   1      39.849  32.027  37.371  1.00  0.00    -0.237 OA
ATOM     66  O   UNL A   1      41.937  31.674  38.626  1.00  0.00    -0.237 OA
ATOM     67  O   UNL A   1      41.151  33.959  38.187  1.00  0.00    -0.744 OA
ENDBRANCH  61  64
ENDBRANCH  43  57
BRANCH  44  68
ATOM     68  C   UNL A   1      42.539  24.258  27.252  1.00  0.00     0.023 A 
ATOM     69  C   UNL A   1      43.204  24.539  26.043  1.00  0.00     0.012 A 
ATOM     70  C   UNL A   1      41.950  22.992  27.436  1.00  0.00     0.148 A 
ATOM     71  C   UNL A   1      43.263  23.584  25.027  1.00  0.00     0.002 A 
ATOM     72  C   UNL A   1      42.065  22.026  26.445  1.00  0.00     0.091 A 
ATOM     73  F   UNL A   1      41.315  22.751  28.591  1.00  0.00    -0.205 F 
ATOM     74  C   UNL A   1      42.705  22.325  25.233  1.00  0.00     0.022 A 
BRANCH  72  75
ATOM     75  S   UNL A   1      41.508  20.333  26.673  1.00  0.00     0.127 S 
ATOM     76  O   UNL A   1      40.066  20.509  26.810  1.00  0.00    -0.237 OA
ATOM     77  O   UNL A   1      41.940  19.708  25.424  1.00  0.00    -0.237 OA
ATOM     78  O   UNL A   1      42.197  19.845  27.862  1.00  0.00    -0.744 OA
ENDBRANCH  72  75
ENDBRANCH  44  68
BRANCH  56  79
ATOM     79  C   UNL A   1      46.815  25.710  32.600  1.00  0.00     0.023 A 
ATOM     80  C   UNL A   1      48.067  26.134  32.109  1.00  0.00     0.012 A 
ATOM     81  C   UNL A   1      46.768  24.741  33.622  1.00  0.00     0.148 A 
ATOM     82  C   UNL A   1      49.247  25.581  32.605  1.00  0.00     0.002 A 
ATOM     83  C   UNL A   1      47.949  24.232  34.148  1.00  0.00     0.091 A 
ATOM     84  F   UNL A   1      45.568  24.335  34.063  1.00  0.00    -0.205 F 
ATOM     85  C   UNL A   1      49.189  24.642  33.632  1.00  0.00     0.022 A 
BRANCH  83  86
ATOM     86  S   UNL A   1      47.977  23.094  35.537  1.00  0.00     0.127 S 
ATOM     87  O   UNL A   1      47.198  23.823  36.536  1.00  0.00    -0.237 OA
ATOM     88  O   UNL A   1      47.309  21.914  34.985  1.00  0.00    -0.237 OA
ATOM     89  O   UNL A   1      49.383  22.894  35.866  1.00  0.00    -0.744 OA
ENDBRANCH  83  86
ENDBRANCH  56  79
ENDBRANCH  30  31
ENDBRANCH  22  25
ENDBRANCH  20  21
ENDBRANCH  19  20
ENDBRANCH   1  19
TORSDOF 18
ENDMDL
