MODEL 1
REMARK VINA RESULT:     -10.6      0.000      0.000
REMARK SMILES CCCCCCC(=O)N1C[C@@H](O)C[C@@H]1C(=O)NCCCNC(=O)c1ccc(-c2c3nc(c(-c4cccc(S(=O)(=O)[O-])c4F)c4ccc([nH]4)c(-c4cccc(S(=O)(=O)[O-])c4F)c4nc(c(-c5cccc(S(=O)(=O)[O-])c5F)c5ccc2[nH]5)C=C4)C=C3)cc1
REMARK SMILES IDX 15 1 16 2 17 3 14 5 9 6 10 7 11 8 13 9 7 10 8 11 6 12 5 13
REMARK SMILES IDX 4 14 3 15 2 16 1 17 12 18 18 20 19 21 20 22 21 23 22 24
REMARK SMILES IDX 23 26 24 27 25 28 86 29 26 30 85 31 27 32 28 33 29 34 79 35
REMARK SMILES IDX 30 36 84 37 78 38 80 39 31 40 83 41 77 42 76 43 32 45 64 46
REMARK SMILES IDX 44 47 63 48 45 49 48 50 62 51 81 52 46 53 47 54 61 56 82 57
REMARK SMILES IDX 49 58 33 59 34 60 42 61 35 62 37 63 43 64 36 65 38 66 39 67
REMARK SMILES IDX 40 68 41 69 65 70 66 71 74 72 67 73 69 74 75 75 68 76 70 77
REMARK SMILES IDX 71 78 72 79 73 80 50 81 51 82 59 83 52 84 54 85 60 86 53 87
REMARK SMILES IDX 55 88 56 89 57 90 58 91
REMARK H PARENT 17 4 12 19 21 25 80 44 48 55
REMARK Flexibility Score: inf
ROOT
ATOM      1  C   UNL A   1      31.739  28.179  26.977  1.00  0.00     0.242 C 
ATOM      2  O   UNL A   1      31.447  27.574  28.016  1.00  0.00    -0.273 OA
ATOM      3  N   UNL A   1      31.608  29.528  27.025  1.00  0.00    -0.354 N 
ATOM      4  H   UNL A   1      31.269  29.864  27.886  1.00  0.00     0.163 HD
ENDROOT
BRANCH   1   5
ATOM      5  C   UNL A   1      32.342  27.411  25.787  1.00  0.00     0.177 C 
ATOM      6  N   UNL A   1      31.566  26.206  25.474  1.00  0.00    -0.328 N 
ATOM      7  C   UNL A   1      32.485  25.213  24.960  1.00  0.00     0.152 C 
ATOM      8  C   UNL A   1      33.775  25.451  25.721  1.00  0.00     0.136 C 
ATOM      9  C   UNL A   1      33.814  26.975  25.848  1.00  0.00     0.069 C 
BRANCH   6  10
ATOM     10  C   UNL A   1      30.352  26.360  24.817  1.00  0.00     0.223 C 
ATOM     11  O   UNL A   1      29.284  25.987  25.293  1.00  0.00    -0.275 OA
BRANCH  10  12
ATOM     12  C   UNL A   1      30.454  27.034  23.459  1.00  0.00     0.100 C 
BRANCH  12  13
ATOM     13  C   UNL A   1      29.889  28.457  23.411  1.00  0.00     0.010 C 
BRANCH  13  14
ATOM     14  C   UNL A   1      28.407  28.612  23.053  1.00  0.00     0.001 C 
BRANCH  14  15
ATOM     15  C   UNL A   1      28.005  29.961  22.438  1.00  0.00    -0.000 C 
BRANCH  15  16
ATOM     16  C   UNL A   1      27.794  31.072  23.462  1.00  0.00    -0.003 C 
ATOM     17  C   UNL A   1      28.313  32.411  22.958  1.00  0.00     0.004 C 
ENDBRANCH  15  16
ENDBRANCH  14  15
ENDBRANCH  13  14
ENDBRANCH  12  13
ENDBRANCH  10  12
ENDBRANCH   6  10
BRANCH   8  18
ATOM     18  O   UNL A   1      34.914  24.918  25.073  1.00  0.00    -0.391 OA
ATOM     19  H   UNL A   1      35.434  25.641  24.687  1.00  0.00     0.211 HD
ENDBRANCH   8  18
ENDBRANCH   1   5
BRANCH   3  20
ATOM     20  C   UNL A   1      31.868  30.569  26.055  1.00  0.00     0.117 C 
BRANCH  20  21
ATOM     21  C   UNL A   1      31.589  31.956  26.619  1.00  0.00     0.042 C 
BRANCH  21  22
ATOM     22  C   UNL A   1      32.780  32.574  27.343  1.00  0.00     0.118 C 
BRANCH  22  23
ATOM     23  N   UNL A   1      32.557  33.969  27.702  1.00  0.00    -0.352 N 
ATOM     24  C   UNL A   1      33.135  34.720  28.694  1.00  0.00     0.251 C 
ATOM     25  H   UNL A   1      31.894  34.443  27.151  1.00  0.00     0.163 HD
ATOM     26  O   UNL A   1      32.683  35.836  28.952  1.00  0.00    -0.269 OA
BRANCH  24  27
ATOM     27  C   UNL A   1      34.279  34.186  29.464  1.00  0.00     0.039 A 
ATOM     28  C   UNL A   1      34.029  33.377  30.574  1.00  0.00     0.014 A 
ATOM     29  C   UNL A   1      35.593  34.476  29.088  1.00  0.00     0.014 A 
ATOM     30  C   UNL A   1      35.098  32.804  31.266  1.00  0.00     0.010 A 
ATOM     31  C   UNL A   1      36.651  33.829  29.718  1.00  0.00     0.010 A 
ATOM     32  C   UNL A   1      36.417  32.992  30.820  1.00  0.00    -0.014 A 
BRANCH  32  33
ATOM     33  C   UNL A   1      37.562  32.316  31.482  1.00  0.00     0.031 A 
ATOM     34  C   UNL A   1      38.082  32.818  32.802  1.00  0.00     0.074 A 
ATOM     35  C   UNL A   1      38.192  31.305  30.851  1.00  0.00     0.049 A 
ATOM     36  N   UNL A   1      39.101  32.393  33.503  1.00  0.00    -0.248 NA
ATOM     37  C   UNL A   1      37.382  33.967  33.403  1.00  0.00     0.031 C 
ATOM     38  C   UNL A   1      37.838  30.781  29.530  1.00  0.00     0.029 A 
ATOM     39  N   UNL A   1      39.280  30.556  31.225  1.00  0.00    -0.354 N 
ATOM     40  C   UNL A   1      39.190  33.241  34.599  1.00  0.00     0.074 A 
ATOM     41  C   UNL A   1      38.144  34.230  34.454  1.00  0.00     0.031 C 
ATOM     42  C   UNL A   1      38.685  29.791  29.208  1.00  0.00     0.029 A 
ATOM     43  C   UNL A   1      39.665  29.635  30.278  1.00  0.00     0.049 A 
ATOM     44  H   UNL A   1      39.741  30.668  32.087  1.00  0.00     0.167 HD
ATOM     45  C   UNL A   1      40.045  33.187  35.649  1.00  0.00     0.034 A 
ATOM     46  C   UNL A   1      40.698  28.769  30.266  1.00  0.00     0.034 A 
ATOM     47  C   UNL A   1      41.062  32.182  35.806  1.00  0.00     0.049 A 
ATOM     48  C   UNL A   1      41.616  28.708  31.456  1.00  0.00     0.074 A 
ATOM     49  C   UNL A   1      41.917  31.986  36.875  1.00  0.00     0.029 A 
ATOM     50  N   UNL A   1      41.373  31.216  34.862  1.00  0.00    -0.354 N 
ATOM     51  N   UNL A   1      41.583  29.415  32.560  1.00  0.00    -0.248 NA
ATOM     52  C   UNL A   1      42.690  27.705  31.417  1.00  0.00     0.031 C 
ATOM     53  C   UNL A   1      42.772  30.924  36.562  1.00  0.00     0.029 A 
ATOM     54  C   UNL A   1      42.419  30.430  35.315  1.00  0.00     0.049 A 
ATOM     55  H   UNL A   1      40.918  31.105  33.997  1.00  0.00     0.167 HD
ATOM     56  C   UNL A   1      42.606  28.920  33.360  1.00  0.00     0.074 A 
ATOM     57  C   UNL A   1      43.227  27.839  32.621  1.00  0.00     0.031 C 
ATOM     58  C   UNL A   1      43.001  29.330  34.591  1.00  0.00     0.034 A 
BRANCH  45  59
ATOM     59  C   UNL A   1      39.891  34.227  36.730  1.00  0.00     0.023 A 
ATOM     60  C   UNL A   1      40.196  35.576  36.451  1.00  0.00     0.012 A 
ATOM     61  C   UNL A   1      39.401  33.880  38.003  1.00  0.00     0.148 A 
ATOM     62  C   UNL A   1      40.059  36.554  37.436  1.00  0.00     0.002 A 
ATOM     63  C   UNL A   1      39.218  34.869  38.963  1.00  0.00     0.091 A 
ATOM     64  F   UNL A   1      39.135  32.591  38.257  1.00  0.00    -0.205 F 
ATOM     65  C   UNL A   1      39.561  36.202  38.687  1.00  0.00     0.022 A 
BRANCH  63  66
ATOM     66  S   UNL A   1      38.503  34.532  40.576  1.00  0.00     0.127 S 
ATOM     67  O   UNL A   1      37.372  33.676  40.224  1.00  0.00    -0.237 OA
ATOM     68  O   UNL A   1      39.598  33.844  41.260  1.00  0.00    -0.237 OA
ATOM     69  O   UNL A   1      38.155  35.830  41.140  1.00  0.00    -0.744 OA
ENDBRANCH  63  66
ENDBRANCH  45  59
BRANCH  46  70
ATOM     70  C   UNL A   1      40.883  27.852  29.107  1.00  0.00     0.023 A 
ATOM     71  C   UNL A   1      40.177  26.634  29.066  1.00  0.00     0.012 A 
ATOM     72  C   UNL A   1      41.724  28.195  28.030  1.00  0.00     0.148 A 
ATOM     73  C   UNL A   1      40.329  25.759  27.989  1.00  0.00     0.002 A 
ATOM     74  C   UNL A   1      41.827  27.347  26.935  1.00  0.00     0.091 A 
ATOM     75  F   UNL A   1      42.392  29.355  28.093  1.00  0.00    -0.205 F 
ATOM     76  C   UNL A   1      41.146  26.120  26.920  1.00  0.00     0.022 A 
BRANCH  74  77
ATOM     77  S   UNL A   1      42.747  27.787  25.456  1.00  0.00     0.127 S 
ATOM     78  O   UNL A   1      42.554  26.604  24.621  1.00  0.00    -0.237 OA
ATOM     79  O   UNL A   1      42.035  28.984  25.006  1.00  0.00    -0.237 OA
ATOM     80  O   UNL A   1      44.113  28.030  25.899  1.00  0.00    -0.744 OA
ENDBRANCH  74  77
ENDBRANCH  46  70
BRANCH  58  81
ATOM     81  C   UNL A   1      44.135  28.584  35.247  1.00  0.00     0.023 A 
ATOM     82  C   UNL A   1      45.469  28.964  34.999  1.00  0.00     0.012 A 
ATOM     83  C   UNL A   1      43.870  27.550  36.168  1.00  0.00     0.148 A 
ATOM     84  C   UNL A   1      46.522  28.304  35.631  1.00  0.00     0.002 A 
ATOM     85  C   UNL A   1      44.923  26.934  36.833  1.00  0.00     0.091 A 
ATOM     86  F   UNL A   1      42.596  27.191  36.377  1.00  0.00    -0.205 F 
ATOM     87  C   UNL A   1      46.250  27.299  36.556  1.00  0.00     0.022 A 
BRANCH  85  88
ATOM     88  S   UNL A   1      44.663  25.701  38.113  1.00  0.00     0.127 S 
ATOM     89  O   UNL A   1      43.659  24.836  37.494  1.00  0.00    -0.237 OA
ATOM     90  O   UNL A   1      45.991  25.100  38.238  1.00  0.00    -0.237 OA
ATOM     91  O   UNL A   1      44.215  26.430  39.292  1.00  0.00    -0.744 OA
ENDBRANCH  85  88
ENDBRANCH  58  81
ENDBRANCH  32  33
ENDBRANCH  24  27
ENDBRANCH  22  23
ENDBRANCH  21  22
ENDBRANCH  20  21
ENDBRANCH   3  20
TORSDOF 20
ENDMDL
MODEL 2
REMARK VINA RESULT:     -10.6      2.951      8.911
REMARK SMILES CCCCCCC(=O)N1C[C@@H](O)C[C@@H]1C(=O)NCCCNC(=O)c1ccc(-c2c3nc(c(-c4cccc(S(=O)(=O)[O-])c4F)c4ccc([nH]4)c(-c4cccc(S(=O)(=O)[O-])c4F)c4nc(c(-c5cccc(S(=O)(=O)[O-])c5F)c5ccc2[nH]5)C=C4)C=C3)cc1
REMARK SMILES IDX 15 1 16 2 17 3 14 5 9 6 10 7 11 8 13 9 7 10 8 11 6 12 5 13
REMARK SMILES IDX 4 14 3 15 2 16 1 17 12 18 18 20 19 21 20 22 21 23 22 24
REMARK SMILES IDX 23 26 24 27 25 28 86 29 26 30 85 31 27 32 28 33 29 34 79 35
REMARK SMILES IDX 30 36 84 37 78 38 80 39 31 40 83 41 77 42 76 43 32 45 64 46
REMARK SMILES IDX 44 47 63 48 45 49 48 50 62 51 81 52 46 53 47 54 61 56 82 57
REMARK SMILES IDX 49 58 33 59 34 60 42 61 35 62 37 63 43 64 36 65 38 66 39 67
REMARK SMILES IDX 40 68 41 69 65 70 66 71 74 72 67 73 69 74 75 75 68 76 70 77
REMARK SMILES IDX 71 78 72 79 73 80 50 81 51 82 59 83 52 84 54 85 60 86 53 87
REMARK SMILES IDX 55 88 56 89 57 90 58 91
REMARK H PARENT 17 4 12 19 21 25 80 44 48 55
REMARK Flexibility Score: inf
ROOT
ATOM      1  C   UNL A   1      31.090  24.634  26.294  1.00  0.00     0.242 C 
ATOM      2  O   UNL A   1      30.424  24.018  27.135  1.00  0.00    -0.273 OA
ATOM      3  N   UNL A   1      31.756  25.723  26.752  1.00  0.00    -0.354 N 
ATOM      4  H   UNL A   1      31.606  25.906  27.708  1.00  0.00     0.163 HD
ENDROOT
BRANCH   1   5
ATOM      5  C   UNL A   1      31.232  24.071  24.868  1.00  0.00     0.177 C 
ATOM      6  N   UNL A   1      32.611  23.655  24.587  1.00  0.00    -0.328 N 
ATOM      7  C   UNL A   1      32.854  23.864  23.176  1.00  0.00     0.152 C 
ATOM      8  C   UNL A   1      32.049  25.101  22.826  1.00  0.00     0.136 C 
ATOM      9  C   UNL A   1      30.789  24.934  23.676  1.00  0.00     0.069 C 
BRANCH   6  10
ATOM     10  C   UNL A   1      33.064  22.468  25.149  1.00  0.00     0.223 C 
ATOM     11  O   UNL A   1      34.148  22.370  25.716  1.00  0.00    -0.275 OA
BRANCH  10  12
ATOM     12  C   UNL A   1      32.104  21.299  25.006  1.00  0.00     0.100 C 
BRANCH  12  13
ATOM     13  C   UNL A   1      32.750  20.001  24.511  1.00  0.00     0.010 C 
BRANCH  13  14
ATOM     14  C   UNL A   1      32.902  18.861  25.524  1.00  0.00     0.001 C 
BRANCH  14  15
ATOM     15  C   UNL A   1      32.873  17.440  24.941  1.00  0.00    -0.000 C 
BRANCH  15  16
ATOM     16  C   UNL A   1      33.145  17.380  23.440  1.00  0.00    -0.003 C 
ATOM     17  C   UNL A   1      34.394  16.568  23.125  1.00  0.00     0.004 C 
ENDBRANCH  15  16
ENDBRANCH  14  15
ENDBRANCH  13  14
ENDBRANCH  12  13
ENDBRANCH  10  12
ENDBRANCH   6  10
BRANCH   8  18
ATOM     18  O   UNL A   1      31.775  25.218  21.443  1.00  0.00    -0.391 OA
ATOM     19  H   UNL A   1      32.028  26.103  21.137  1.00  0.00     0.211 HD
ENDBRANCH   8  18
ENDBRANCH   1   5
BRANCH   3  20
ATOM     20  C   UNL A   1      32.642  26.668  26.109  1.00  0.00     0.117 C 
BRANCH  20  21
ATOM     21  C   UNL A   1      31.927  27.963  25.746  1.00  0.00     0.042 C 
BRANCH  21  22
ATOM     22  C   UNL A   1      32.870  29.102  25.381  1.00  0.00     0.118 C 
BRANCH  22  23
ATOM     23  N   UNL A   1      32.406  30.395  25.869  1.00  0.00    -0.352 N 
ATOM     24  C   UNL A   1      32.922  31.194  26.858  1.00  0.00     0.251 C 
ATOM     25  H   UNL A   1      31.603  30.748  25.423  1.00  0.00     0.163 HD
ATOM     26  O   UNL A   1      32.281  32.172  27.245  1.00  0.00    -0.269 OA
BRANCH  24  27
ATOM     27  C   UNL A   1      34.228  30.873  27.471  1.00  0.00     0.039 A 
ATOM     28  C   UNL A   1      35.171  31.892  27.630  1.00  0.00     0.014 A 
ATOM     29  C   UNL A   1      34.521  29.575  27.894  1.00  0.00     0.014 A 
ATOM     30  C   UNL A   1      36.379  31.621  28.275  1.00  0.00     0.010 A 
ATOM     31  C   UNL A   1      35.683  29.330  28.620  1.00  0.00     0.010 A 
ATOM     32  C   UNL A   1      36.629  30.347  28.811  1.00  0.00    -0.014 A 
BRANCH  32  33
ATOM     33  C   UNL A   1      37.865  30.062  29.584  1.00  0.00     0.031 A 
ATOM     34  C   UNL A   1      38.896  29.106  29.044  1.00  0.00     0.074 A 
ATOM     35  C   UNL A   1      38.019  30.594  30.813  1.00  0.00     0.049 A 
ATOM     36  N   UNL A   1      40.007  28.694  29.597  1.00  0.00    -0.248 NA
ATOM     37  C   UNL A   1      38.632  28.515  27.721  1.00  0.00     0.031 C 
ATOM     38  C   UNL A   1      37.053  31.467  31.483  1.00  0.00     0.029 A 
ATOM     39  N   UNL A   1      39.032  30.454  31.729  1.00  0.00    -0.354 N 
ATOM     40  C   UNL A   1      40.551  27.769  28.715  1.00  0.00     0.074 A 
ATOM     41  C   UNL A   1      39.630  27.653  27.605  1.00  0.00     0.031 C 
ATOM     42  C   UNL A   1      37.523  31.793  32.697  1.00  0.00     0.029 A 
ATOM     43  C   UNL A   1      38.802  31.123  32.909  1.00  0.00     0.049 A 
ATOM     44  H   UNL A   1      39.844  29.926  31.558  1.00  0.00     0.167 HD
ATOM     45  C   UNL A   1      41.725  27.099  28.802  1.00  0.00     0.034 A 
ATOM     46  C   UNL A   1      39.532  31.182  34.040  1.00  0.00     0.034 A 
ATOM     47  C   UNL A   1      42.653  27.242  29.891  1.00  0.00     0.049 A 
ATOM     48  C   UNL A   1      40.846  30.453  34.102  1.00  0.00     0.074 A 
ATOM     49  C   UNL A   1      43.908  26.679  30.030  1.00  0.00     0.029 A 
ATOM     50  N   UNL A   1      42.422  27.990  31.035  1.00  0.00    -0.354 N 
ATOM     51  N   UNL A   1      41.420  29.710  33.187  1.00  0.00    -0.248 NA
ATOM     52  C   UNL A   1      41.631  30.599  35.336  1.00  0.00     0.031 C 
ATOM     53  C   UNL A   1      44.421  27.055  31.275  1.00  0.00     0.029 A 
ATOM     54  C   UNL A   1      43.503  27.889  31.894  1.00  0.00     0.049 A 
ATOM     55  H   UNL A   1      41.609  28.516  31.211  1.00  0.00     0.167 HD
ATOM     56  C   UNL A   1      42.647  29.329  33.719  1.00  0.00     0.074 A 
ATOM     57  C   UNL A   1      42.741  29.942  35.029  1.00  0.00     0.031 C 
ATOM     58  C   UNL A   1      43.605  28.537  33.176  1.00  0.00     0.034 A 
BRANCH  45  59
ATOM     59  C   UNL A   1      42.087  26.173  27.668  1.00  0.00     0.023 A 
ATOM     60  C   UNL A   1      42.842  26.660  26.581  1.00  0.00     0.012 A 
ATOM     61  C   UNL A   1      41.723  24.813  27.701  1.00  0.00     0.148 A 
ATOM     62  C   UNL A   1      43.190  25.820  25.523  1.00  0.00     0.002 A 
ATOM     63  C   UNL A   1      42.118  23.970  26.667  1.00  0.00     0.091 A 
ATOM     64  F   UNL A   1      40.988  24.371  28.731  1.00  0.00    -0.205 F 
ATOM     65  C   UNL A   1      42.837  24.474  25.573  1.00  0.00     0.022 A 
BRANCH  63  66
ATOM     66  S   UNL A   1      41.786  22.205  26.677  1.00  0.00     0.127 S 
ATOM     67  O   UNL A   1      42.318  21.798  25.378  1.00  0.00    -0.237 OA
ATOM     68  O   UNL A   1      42.570  21.752  27.826  1.00  0.00    -0.237 OA
ATOM     69  O   UNL A   1      40.344  22.068  26.833  1.00  0.00    -0.744 OA
ENDBRANCH  63  66
ENDBRANCH  45  59
BRANCH  46  70
ATOM     70  C   UNL A   1      39.059  32.009  35.186  1.00  0.00     0.023 A 
ATOM     71  C   UNL A   1      39.173  33.411  35.123  1.00  0.00     0.012 A 
ATOM     72  C   UNL A   1      38.466  31.417  36.318  1.00  0.00     0.148 A 
ATOM     73  C   UNL A   1      38.733  34.208  36.181  1.00  0.00     0.002 A 
ATOM     74  C   UNL A   1      37.979  32.219  37.342  1.00  0.00     0.091 A 
ATOM     75  F   UNL A   1      38.375  30.081  36.359  1.00  0.00    -0.205 F 
ATOM     76  C   UNL A   1      38.127  33.613  37.285  1.00  0.00     0.022 A 
BRANCH  74  77
ATOM     77  S   UNL A   1      37.066  31.553  38.738  1.00  0.00     0.127 S 
ATOM     78  O   UNL A   1      35.832  32.334  38.690  1.00  0.00    -0.237 OA
ATOM     79  O   UNL A   1      36.923  30.147  38.359  1.00  0.00    -0.237 OA
ATOM     80  O   UNL A   1      37.909  31.778  39.905  1.00  0.00    -0.744 OA
ENDBRANCH  74  77
ENDBRANCH  46  70
BRANCH  58  81
ATOM     81  C   UNL A   1      44.865  28.315  33.974  1.00  0.00     0.023 A 
ATOM     82  C   UNL A   1      45.938  29.220  33.868  1.00  0.00     0.012 A 
ATOM     83  C   UNL A   1      44.950  27.244  34.886  1.00  0.00     0.148 A 
ATOM     84  C   UNL A   1      47.092  29.042  34.630  1.00  0.00     0.002 A 
ATOM     85  C   UNL A   1      46.081  27.105  35.681  1.00  0.00     0.091 A 
ATOM     86  F   UNL A   1      43.925  26.383  34.960  1.00  0.00    -0.205 F 
ATOM     87  C   UNL A   1      47.159  27.994  35.545  1.00  0.00     0.022 A 
BRANCH  85  88
ATOM     88  S   UNL A   1      46.214  25.846  36.956  1.00  0.00     0.127 S 
ATOM     89  O   UNL A   1      45.070  26.165  37.809  1.00  0.00    -0.237 OA
ATOM     90  O   UNL A   1      46.075  24.610  36.185  1.00  0.00    -0.237 OA
ATOM     91  O   UNL A   1      47.521  26.031  37.572  1.00  0.00    -0.744 OA
ENDBRANCH  85  88
ENDBRANCH  58  81
ENDBRANCH  32  33
ENDBRANCH  24  27
ENDBRANCH  22  23
ENDBRANCH  21  22
ENDBRANCH  20  21
ENDBRANCH   3  20
TORSDOF 20
ENDMDL
MODEL 3
REMARK VINA RESULT:     -10.6      2.881      4.523
REMARK SMILES CCCCCCC(=O)N1C[C@@H](O)C[C@@H]1C(=O)NCCCNC(=O)c1ccc(-c2c3nc(c(-c4cccc(S(=O)(=O)[O-])c4F)c4ccc([nH]4)c(-c4cccc(S(=O)(=O)[O-])c4F)c4nc(c(-c5cccc(S(=O)(=O)[O-])c5F)c5ccc2[nH]5)C=C4)C=C3)cc1
REMARK SMILES IDX 15 1 16 2 17 3 14 5 9 6 10 7 11 8 13 9 7 10 8 11 6 12 5 13
REMARK SMILES IDX 4 14 3 15 2 16 1 17 12 18 18 20 19 21 20 22 21 23 22 24
REMARK SMILES IDX 23 26 24 27 25 28 86 29 26 30 85 31 27 32 28 33 29 34 79 35
REMARK SMILES IDX 30 36 84 37 78 38 80 39 31 40 83 41 77 42 76 43 32 45 64 46
REMARK SMILES IDX 44 47 63 48 45 49 48 50 62 51 81 52 46 53 47 54 61 56 82 57
REMARK SMILES IDX 49 58 33 59 34 60 42 61 35 62 37 63 43 64 36 65 38 66 39 67
REMARK SMILES IDX 40 68 41 69 65 70 66 71 74 72 67 73 69 74 75 75 68 76 70 77
REMARK SMILES IDX 71 78 72 79 73 80 50 81 51 82 59 83 52 84 54 85 60 86 53 87
REMARK SMILES IDX 55 88 56 89 57 90 58 91
REMARK H PARENT 17 4 12 19 21 25 80 44 48 55
REMARK Flexibility Score: inf
ROOT
ATOM      1  C   UNL A   1      30.597  25.323  26.031  1.00  0.00     0.242 C 
ATOM      2  O   UNL A   1      29.800  24.672  26.718  1.00  0.00    -0.273 OA
ATOM      3  N   UNL A   1      31.335  26.244  26.700  1.00  0.00    -0.354 N 
ATOM      4  H   UNL A   1      31.126  26.299  27.661  1.00  0.00     0.163 HD
ENDROOT
BRANCH   1   5
ATOM      5  C   UNL A   1      30.798  24.968  24.547  1.00  0.00     0.177 C 
ATOM      6  N   UNL A   1      32.200  24.647  24.254  1.00  0.00    -0.328 N 
ATOM      7  C   UNL A   1      32.469  25.057  22.892  1.00  0.00     0.152 C 
ATOM      8  C   UNL A   1      31.622  26.298  22.690  1.00  0.00     0.136 C 
ATOM      9  C   UNL A   1      30.349  25.969  23.471  1.00  0.00     0.069 C 
BRANCH   6  10
ATOM     10  C   UNL A   1      32.688  23.412  24.663  1.00  0.00     0.223 C 
ATOM     11  O   UNL A   1      33.091  23.198  25.802  1.00  0.00    -0.275 OA
BRANCH  10  12
ATOM     12  C   UNL A   1      32.679  22.344  23.581  1.00  0.00     0.100 C 
BRANCH  12  13
ATOM     13  C   UNL A   1      32.083  21.002  24.017  1.00  0.00     0.010 C 
BRANCH  13  14
ATOM     14  C   UNL A   1      33.032  19.800  24.081  1.00  0.00     0.001 C 
BRANCH  14  15
ATOM     15  C   UNL A   1      32.445  18.459  23.616  1.00  0.00    -0.000 C 
BRANCH  15  16
ATOM     16  C   UNL A   1      33.452  17.552  22.915  1.00  0.00    -0.003 C 
ATOM     17  C   UNL A   1      33.907  16.411  23.816  1.00  0.00     0.004 C 
ENDBRANCH  15  16
ENDBRANCH  14  15
ENDBRANCH  13  14
ENDBRANCH  12  13
ENDBRANCH  10  12
ENDBRANCH   6  10
BRANCH   8  18
ATOM     18  O   UNL A   1      31.378  26.594  21.328  1.00  0.00    -0.391 OA
ATOM     19  H   UNL A   1      30.478  26.944  21.230  1.00  0.00     0.211 HD
ENDBRANCH   8  18
ENDBRANCH   1   5
BRANCH   3  20
ATOM     20  C   UNL A   1      32.368  27.163  26.275  1.00  0.00     0.117 C 
BRANCH  20  21
ATOM     21  C   UNL A   1      31.840  28.583  26.120  1.00  0.00     0.042 C 
BRANCH  21  22
ATOM     22  C   UNL A   1      32.901  29.588  25.690  1.00  0.00     0.118 C 
BRANCH  22  23
ATOM     23  N   UNL A   1      32.614  30.941  26.152  1.00  0.00    -0.352 N 
ATOM     24  C   UNL A   1      33.238  31.686  27.120  1.00  0.00     0.251 C 
ATOM     25  H   UNL A   1      31.861  31.387  25.701  1.00  0.00     0.163 HD
ATOM     26  O   UNL A   1      32.734  32.748  27.488  1.00  0.00    -0.269 OA
BRANCH  24  27
ATOM     27  C   UNL A   1      34.495  31.210  27.733  1.00  0.00     0.039 A 
ATOM     28  C   UNL A   1      35.526  32.124  27.963  1.00  0.00     0.014 A 
ATOM     29  C   UNL A   1      34.656  29.868  28.088  1.00  0.00     0.014 A 
ATOM     30  C   UNL A   1      36.691  31.704  28.609  1.00  0.00     0.010 A 
ATOM     31  C   UNL A   1      35.775  29.474  28.815  1.00  0.00     0.010 A 
ATOM     32  C   UNL A   1      36.809  30.385  29.077  1.00  0.00    -0.014 A 
BRANCH  32  33
ATOM     33  C   UNL A   1      37.997  29.942  29.851  1.00  0.00     0.031 A 
ATOM     34  C   UNL A   1      38.250  30.483  31.232  1.00  0.00     0.074 A 
ATOM     35  C   UNL A   1      38.896  29.120  29.275  1.00  0.00     0.049 A 
ATOM     36  N   UNL A   1      39.257  30.255  32.035  1.00  0.00    -0.248 NA
ATOM     37  C   UNL A   1      37.256  31.425  31.774  1.00  0.00     0.031 C 
ATOM     38  C   UNL A   1      38.809  28.593  27.911  1.00  0.00     0.029 A 
ATOM     39  N   UNL A   1      40.076  28.607  29.753  1.00  0.00    -0.354 N 
ATOM     40  C   UNL A   1      39.041  31.051  33.152  1.00  0.00     0.074 A 
ATOM     41  C   UNL A   1      37.825  31.797  32.911  1.00  0.00     0.031 C 
ATOM     42  C   UNL A   1      39.882  27.825  27.666  1.00  0.00     0.029 A 
ATOM     43  C   UNL A   1      40.752  27.834  28.837  1.00  0.00     0.049 A 
ATOM     44  H   UNL A   1      40.407  28.776  30.664  1.00  0.00     0.167 HD
ATOM     45  C   UNL A   1      39.770  31.135  34.291  1.00  0.00     0.034 A 
ATOM     46  C   UNL A   1      41.946  27.213  28.923  1.00  0.00     0.034 A 
ATOM     47  C   UNL A   1      40.960  30.367  34.541  1.00  0.00     0.049 A 
ATOM     48  C   UNL A   1      42.722  27.296  30.209  1.00  0.00     0.074 A 
ATOM     49  C   UNL A   1      41.719  30.311  35.696  1.00  0.00     0.029 A 
ATOM     50  N   UNL A   1      41.574  29.535  33.618  1.00  0.00    -0.354 N 
ATOM     51  N   UNL A   1      42.417  27.929  31.316  1.00  0.00    -0.248 NA
ATOM     52  C   UNL A   1      43.988  26.552  30.271  1.00  0.00     0.031 C 
ATOM     53  C   UNL A   1      42.814  29.473  35.459  1.00  0.00     0.029 A 
ATOM     54  C   UNL A   1      42.713  28.973  34.171  1.00  0.00     0.049 A 
ATOM     55  H   UNL A   1      41.249  29.367  32.705  1.00  0.00     0.167 HD
ATOM     56  C   UNL A   1      43.433  27.630  32.217  1.00  0.00     0.074 A 
ATOM     57  C   UNL A   1      44.351  26.743  31.531  1.00  0.00     0.031 C 
ATOM     58  C   UNL A   1      43.596  28.058  33.494  1.00  0.00     0.034 A 
BRANCH  45  59
ATOM     59  C   UNL A   1      39.278  32.067  35.370  1.00  0.00     0.023 A 
ATOM     60  C   UNL A   1      38.348  31.604  36.323  1.00  0.00     0.012 A 
ATOM     61  C   UNL A   1      39.771  33.382  35.469  1.00  0.00     0.148 A 
ATOM     62  C   UNL A   1      37.882  32.449  37.330  1.00  0.00     0.002 A 
ATOM     63  C   UNL A   1      39.340  34.202  36.505  1.00  0.00     0.091 A 
ATOM     64  F   UNL A   1      40.640  33.812  34.542  1.00  0.00    -0.205 F 
ATOM     65  C   UNL A   1      38.386  33.743  37.427  1.00  0.00     0.022 A 
BRANCH  63  66
ATOM     66  S   UNL A   1      39.992  35.856  36.767  1.00  0.00     0.127 S 
ATOM     67  O   UNL A   1      41.409  35.581  36.994  1.00  0.00    -0.237 OA
ATOM     68  O   UNL A   1      39.694  36.508  35.492  1.00  0.00    -0.237 OA
ATOM     69  O   UNL A   1      39.268  36.396  37.910  1.00  0.00    -0.744 OA
ENDBRANCH  63  66
ENDBRANCH  45  59
BRANCH  46  70
ATOM     70  C   UNL A   1      42.449  26.411  27.774  1.00  0.00     0.023 A 
ATOM     71  C   UNL A   1      43.347  26.994  26.860  1.00  0.00     0.012 A 
ATOM     72  C   UNL A   1      42.071  25.065  27.602  1.00  0.00     0.148 A 
ATOM     73  C   UNL A   1      43.836  26.262  25.777  1.00  0.00     0.002 A 
ATOM     74  C   UNL A   1      42.606  24.325  26.556  1.00  0.00     0.091 A 
ATOM     75  F   UNL A   1      41.209  24.532  28.479  1.00  0.00    -0.205 F 
ATOM     76  C   UNL A   1      43.474  24.925  25.631  1.00  0.00     0.022 A 
BRANCH  74  77
ATOM     77  S   UNL A   1      42.303  22.564  26.364  1.00  0.00     0.127 S 
ATOM     78  O   UNL A   1      42.853  22.029  27.607  1.00  0.00    -0.237 OA
ATOM     79  O   UNL A   1      40.843  22.521  26.264  1.00  0.00    -0.237 OA
ATOM     80  O   UNL A   1      43.001  22.173  25.146  1.00  0.00    -0.744 OA
ENDBRANCH  74  77
ENDBRANCH  46  70
BRANCH  58  81
ATOM     81  C   UNL A   1      44.790  27.544  34.259  1.00  0.00     0.023 A 
ATOM     82  C   UNL A   1      45.993  28.276  34.265  1.00  0.00     0.012 A 
ATOM     83  C   UNL A   1      44.689  26.370  35.031  1.00  0.00     0.148 A 
ATOM     84  C   UNL A   1      47.090  27.828  35.000  1.00  0.00     0.002 A 
ATOM     85  C   UNL A   1      45.769  25.959  35.803  1.00  0.00     0.091 A 
ATOM     86  F   UNL A   1      43.542  25.678  34.997  1.00  0.00    -0.205 F 
ATOM     87  C   UNL A   1      46.975  26.678  35.778  1.00  0.00     0.022 A 
BRANCH  85  88
ATOM     88  S   UNL A   1      45.680  24.548  36.911  1.00  0.00     0.127 S 
ATOM     89  O   UNL A   1      44.568  24.925  37.783  1.00  0.00    -0.237 OA
ATOM     90  O   UNL A   1      45.388  23.449  35.990  1.00  0.00    -0.237 OA
ATOM     91  O   UNL A   1      46.979  24.462  37.562  1.00  0.00    -0.744 OA
ENDBRANCH  85  88
ENDBRANCH  58  81
ENDBRANCH  32  33
ENDBRANCH  24  27
ENDBRANCH  22  23
ENDBRANCH  21  22
ENDBRANCH  20  21
ENDBRANCH   3  20
TORSDOF 20
ENDMDL
