MODEL 1
REMARK VINA RESULT:     -11.2      0.000      0.000
REMARK SMILES O=C(NCCCNC(=O)[C@H]1CC[C@@H](CNc2ncccn2)O1)c1ccc(-c2c3nc(c(-c4cccc(S(=O)(=O)[O-])c4F)c4ccc([nH]4)c(-c4cccc(S(=O)(=O)[O-])c4F)c4nc(c(-c5cccc(S(=O)(=O)[O-])c5F)c5ccc2[nH]5)C=C4)C=C3)cc1
REMARK SMILES IDX 5 1 4 2 3 3 1 4 2 5 23 7 24 8 85 9 25 10 84 11 26 12 27 13
REMARK SMILES IDX 28 14 78 15 29 16 83 17 77 18 79 19 30 20 82 21 76 22 75 23
REMARK SMILES IDX 31 25 63 26 43 27 62 28 44 29 47 30 61 31 80 32 45 33 46 34
REMARK SMILES IDX 60 36 81 37 48 38 32 39 33 40 41 41 34 42 36 43 42 44 35 45
REMARK SMILES IDX 37 46 38 47 39 48 40 49 64 50 65 51 73 52 66 53 68 54 74 55
REMARK SMILES IDX 67 56 69 57 70 58 71 59 72 60 49 61 50 62 58 63 51 64 53 65
REMARK SMILES IDX 59 66 52 67 54 68 55 69 56 70 57 71 6 72 7 73 8 74 9 76
REMARK SMILES IDX 10 77 11 78 22 79 12 80 13 81 14 82 15 83 16 85 17 86 21 87
REMARK SMILES IDX 18 88 20 89 19 90
REMARK H PARENT 3 6 79 24 47 35 7 75 15 84
REMARK Flexibility Score: inf
ROOT
ATOM      1  C   UNL A   1      31.640  32.295  26.884  1.00  0.00     0.042 C 
ENDROOT
BRANCH   1   2
ATOM      2  C   UNL A   1      32.888  33.112  27.172  1.00  0.00     0.118 C 
BRANCH   2   3
ATOM      3  N   UNL A   1      32.578  34.323  27.920  1.00  0.00    -0.352 N 
ATOM      4  O   UNL A   1      32.607  35.790  29.622  1.00  0.00    -0.269 OA
ATOM      5  C   UNL A   1      33.120  34.819  29.080  1.00  0.00     0.251 C 
ATOM      6  H   UNL A   1      31.862  34.876  27.531  1.00  0.00     0.163 HD
BRANCH   5   7
ATOM      7  C   UNL A   1      34.296  34.156  29.685  1.00  0.00     0.039 A 
ATOM      8  C   UNL A   1      34.148  33.225  30.715  1.00  0.00     0.014 A 
ATOM      9  C   UNL A   1      35.570  34.476  29.206  1.00  0.00     0.014 A 
ATOM     10  C   UNL A   1      35.271  32.725  31.364  1.00  0.00     0.010 A 
ATOM     11  C   UNL A   1      36.696  33.902  29.800  1.00  0.00     0.010 A 
ATOM     12  C   UNL A   1      36.556  33.048  30.904  1.00  0.00    -0.014 A 
BRANCH  12  13
ATOM     13  C   UNL A   1      37.747  32.430  31.536  1.00  0.00     0.031 A 
ATOM     14  C   UNL A   1      38.476  31.300  30.868  1.00  0.00     0.074 A 
ATOM     15  C   UNL A   1      38.134  32.870  32.749  1.00  0.00     0.049 A 
ATOM     16  N   UNL A   1      39.478  30.589  31.316  1.00  0.00    -0.248 NA
ATOM     17  C   UNL A   1      38.015  30.907  29.527  1.00  0.00     0.031 C 
ATOM     18  C   UNL A   1      37.473  33.936  33.505  1.00  0.00     0.029 A 
ATOM     19  N   UNL A   1      39.153  32.461  33.570  1.00  0.00    -0.354 N 
ATOM     20  C   UNL A   1      39.733  29.632  30.342  1.00  0.00     0.074 A 
ATOM     21  C   UNL A   1      38.782  29.855  29.273  1.00  0.00     0.031 C 
ATOM     22  C   UNL A   1      38.099  34.096  34.678  1.00  0.00     0.029 A 
ATOM     23  C   UNL A   1      39.165  33.107  34.784  1.00  0.00     0.049 A 
ATOM     24  H   UNL A   1      39.811  31.775  33.316  1.00  0.00     0.167 HD
ATOM     25  C   UNL A   1      40.681  28.664  30.336  1.00  0.00     0.034 A 
ATOM     26  C   UNL A   1      39.923  32.906  35.878  1.00  0.00     0.034 A 
ATOM     27  C   UNL A   1      41.647  28.482  31.387  1.00  0.00     0.049 A 
ATOM     28  C   UNL A   1      40.988  31.849  35.835  1.00  0.00     0.074 A 
ATOM     29  C   UNL A   1      42.696  27.581  31.444  1.00  0.00     0.029 A 
ATOM     30  N   UNL A   1      41.680  29.211  32.567  1.00  0.00    -0.354 N 
ATOM     31  N   UNL A   1      41.293  31.033  34.856  1.00  0.00    -0.248 NA
ATOM     32  C   UNL A   1      41.830  31.702  37.028  1.00  0.00     0.031 C 
ATOM     33  C   UNL A   1      43.353  27.756  32.667  1.00  0.00     0.029 A 
ATOM     34  C   UNL A   1      42.726  28.777  33.363  1.00  0.00     0.049 A 
ATOM     35  H   UNL A   1      41.052  29.932  32.802  1.00  0.00     0.167 HD
ATOM     36  C   UNL A   1      42.378  30.292  35.301  1.00  0.00     0.074 A 
ATOM     37  C   UNL A   1      42.687  30.768  36.636  1.00  0.00     0.031 C 
ATOM     38  C   UNL A   1      43.050  29.300  34.666  1.00  0.00     0.034 A 
BRANCH  25  39
ATOM     39  C   UNL A   1      40.740  27.748  29.141  1.00  0.00     0.023 A 
ATOM     40  C   UNL A   1      39.884  26.631  29.076  1.00  0.00     0.012 A 
ATOM     41  C   UNL A   1      41.606  28.017  28.063  1.00  0.00     0.148 A 
ATOM     42  C   UNL A   1      39.913  25.777  27.974  1.00  0.00     0.002 A 
ATOM     43  C   UNL A   1      41.602  27.182  26.950  1.00  0.00     0.091 A 
ATOM     44  F   UNL A   1      42.434  29.070  28.149  1.00  0.00    -0.205 F 
ATOM     45  C   UNL A   1      40.764  26.057  26.908  1.00  0.00     0.022 A 
BRANCH  43  46
ATOM     46  S   UNL A   1      42.617  27.516  25.505  1.00  0.00     0.127 S 
ATOM     47  O   UNL A   1      43.963  27.477  26.073  1.00  0.00    -0.237 OA
ATOM     48  O   UNL A   1      42.296  26.391  24.626  1.00  0.00    -0.237 OA
ATOM     49  O   UNL A   1      42.174  28.811  25.007  1.00  0.00    -0.744 OA
ENDBRANCH  43  46
ENDBRANCH  25  39
BRANCH  26  50
ATOM     50  C   UNL A   1      39.706  33.766  37.072  1.00  0.00     0.023 A 
ATOM     51  C   UNL A   1      40.064  35.125  37.022  1.00  0.00     0.012 A 
ATOM     52  C   UNL A   1      39.040  33.269  38.212  1.00  0.00     0.148 A 
ATOM     53  C   UNL A   1      39.766  35.977  38.087  1.00  0.00     0.002 A 
ATOM     54  C   UNL A   1      38.694  34.134  39.242  1.00  0.00     0.091 A 
ATOM     55  F   UNL A   1      38.716  31.969  38.241  1.00  0.00    -0.205 F 
ATOM     56  C   UNL A   1      39.068  35.486  39.188  1.00  0.00     0.022 A 
BRANCH  54  57
ATOM     57  S   UNL A   1      37.661  33.625  40.622  1.00  0.00     0.127 S 
ATOM     58  O   UNL A   1      38.528  32.671  41.307  1.00  0.00    -0.237 OA
ATOM     59  O   UNL A   1      37.458  34.891  41.329  1.00  0.00    -0.237 OA
ATOM     60  O   UNL A   1      36.454  33.071  40.027  1.00  0.00    -0.744 OA
ENDBRANCH  54  57
ENDBRANCH  26  50
BRANCH  38  61
ATOM     61  C   UNL A   1      44.213  28.675  35.387  1.00  0.00     0.023 A 
ATOM     62  C   UNL A   1      45.510  29.185  35.190  1.00  0.00     0.012 A 
ATOM     63  C   UNL A   1      44.002  27.655  36.335  1.00  0.00     0.148 A 
ATOM     64  C   UNL A   1      46.587  28.677  35.916  1.00  0.00     0.002 A 
ATOM     65  C   UNL A   1      45.072  27.184  37.085  1.00  0.00     0.091 A 
ATOM     66  F   UNL A   1      42.761  27.173  36.489  1.00  0.00    -0.205 F 
ATOM     67  C   UNL A   1      46.365  27.687  36.872  1.00  0.00     0.022 A 
BRANCH  65  68
ATOM     68  S   UNL A   1      44.866  25.977  38.400  1.00  0.00     0.127 S 
ATOM     69  O   UNL A   1      46.244  25.790  38.851  1.00  0.00    -0.237 OA
ATOM     70  O   UNL A   1      44.005  26.691  39.344  1.00  0.00    -0.237 OA
ATOM     71  O   UNL A   1      44.248  24.812  37.783  1.00  0.00    -0.744 OA
ENDBRANCH  65  68
ENDBRANCH  38  61
ENDBRANCH  12  13
ENDBRANCH   5   7
ENDBRANCH   2   3
ENDBRANCH   1   2
BRANCH   1  72
ATOM     72  C   UNL A   1      31.938  30.803  26.818  1.00  0.00     0.117 C 
BRANCH  72  73
ATOM     73  N   UNL A   1      33.302  30.507  27.194  1.00  0.00    -0.354 N 
ATOM     74  C   UNL A   1      33.999  29.349  27.013  1.00  0.00     0.249 C 
ATOM     75  H   UNL A   1      33.792  31.237  27.637  1.00  0.00     0.163 HD
ATOM     76  O   UNL A   1      35.183  29.327  27.364  1.00  0.00    -0.272 OA
BRANCH  74  77
ATOM     77  C   UNL A   1      33.331  28.103  26.401  1.00  0.00     0.207 C 
ATOM     78  C   UNL A   1      32.220  27.483  27.243  1.00  0.00     0.045 C 
ATOM     79  O   UNL A   1      32.801  28.349  25.096  1.00  0.00    -0.363 OA
ATOM     80  C   UNL A   1      31.046  27.313  26.295  1.00  0.00     0.037 C 
ATOM     81  C   UNL A   1      31.653  27.512  24.914  1.00  0.00     0.138 C 
BRANCH  81  82
ATOM     82  C   UNL A   1      30.705  28.079  23.837  1.00  0.00     0.148 C 
BRANCH  82  83
ATOM     83  N   UNL A   1      30.615  29.522  23.862  1.00  0.00    -0.352 N 
ATOM     84  H   UNL A   1      31.245  30.016  24.435  1.00  0.00     0.163 HD
BRANCH  83  85
ATOM     85  C   UNL A   1      29.708  30.242  23.135  1.00  0.00     0.222 A 
ATOM     86  N   UNL A   1      29.102  31.238  23.801  1.00  0.00    -0.222 NA
ATOM     87  N   UNL A   1      29.444  29.937  21.858  1.00  0.00    -0.222 NA
ATOM     88  C   UNL A   1      28.173  31.953  23.134  1.00  0.00     0.117 A 
ATOM     89  C   UNL A   1      28.515  30.684  21.230  1.00  0.00     0.117 A 
ATOM     90  C   UNL A   1      27.839  31.719  21.826  1.00  0.00     0.040 A 
ENDBRANCH  83  85
ENDBRANCH  82  83
ENDBRANCH  81  82
ENDBRANCH  74  77
ENDBRANCH  72  73
ENDBRANCH   1  72
TORSDOF 16
ENDMDL
MODEL 2
REMARK VINA RESULT:     -11.2      4.944      9.899
REMARK SMILES O=C(NCCCNC(=O)[C@H]1CC[C@@H](CNc2ncccn2)O1)c1ccc(-c2c3nc(c(-c4cccc(S(=O)(=O)[O-])c4F)c4ccc([nH]4)c(-c4cccc(S(=O)(=O)[O-])c4F)c4nc(c(-c5cccc(S(=O)(=O)[O-])c5F)c5ccc2[nH]5)C=C4)C=C3)cc1
REMARK SMILES IDX 5 1 4 2 3 3 1 4 2 5 23 7 24 8 85 9 25 10 84 11 26 12 27 13
REMARK SMILES IDX 28 14 78 15 29 16 83 17 77 18 79 19 30 20 82 21 76 22 75 23
REMARK SMILES IDX 31 25 63 26 43 27 62 28 44 29 47 30 61 31 80 32 45 33 46 34
REMARK SMILES IDX 60 36 81 37 48 38 32 39 33 40 41 41 34 42 36 43 42 44 35 45
REMARK SMILES IDX 37 46 38 47 39 48 40 49 64 50 65 51 73 52 66 53 68 54 74 55
REMARK SMILES IDX 67 56 69 57 70 58 71 59 72 60 49 61 50 62 58 63 51 64 53 65
REMARK SMILES IDX 59 66 52 67 54 68 55 69 56 70 57 71 6 72 7 73 8 74 9 76
REMARK SMILES IDX 10 77 11 78 22 79 12 80 13 81 14 82 15 83 16 85 17 86 21 87
REMARK SMILES IDX 18 88 20 89 19 90
REMARK H PARENT 3 6 79 24 47 35 7 75 15 84
REMARK Flexibility Score: inf
ROOT
ATOM      1  C   UNL A   1      32.028  27.962  27.217  1.00  0.00     0.042 C 
ENDROOT
BRANCH   1   2
ATOM      2  C   UNL A   1      33.429  28.505  26.993  1.00  0.00     0.118 C 
BRANCH   2   3
ATOM      3  N   UNL A   1      33.465  29.959  27.087  1.00  0.00    -0.352 N 
ATOM      4  O   UNL A   1      34.164  31.991  27.743  1.00  0.00    -0.269 OA
ATOM      5  C   UNL A   1      34.403  30.794  27.643  1.00  0.00     0.251 C 
ATOM      6  H   UNL A   1      32.690  30.417  26.688  1.00  0.00     0.163 HD
BRANCH   5   7
ATOM      7  C   UNL A   1      35.678  30.238  28.147  1.00  0.00     0.039 A 
ATOM      8  C   UNL A   1      35.767  29.691  29.429  1.00  0.00     0.014 A 
ATOM      9  C   UNL A   1      36.801  30.265  27.314  1.00  0.00     0.014 A 
ATOM     10  C   UNL A   1      37.005  29.308  29.933  1.00  0.00     0.010 A 
ATOM     11  C   UNL A   1      38.026  29.794  27.792  1.00  0.00     0.010 A 
ATOM     12  C   UNL A   1      38.143  29.343  29.115  1.00  0.00    -0.014 A 
BRANCH  12  13
ATOM     13  C   UNL A   1      39.440  28.836  29.626  1.00  0.00     0.031 A 
ATOM     14  C   UNL A   1      40.160  29.541  30.739  1.00  0.00     0.074 A 
ATOM     15  C   UNL A   1      39.988  27.755  29.035  1.00  0.00     0.049 A 
ATOM     16  N   UNL A   1      41.338  29.288  31.247  1.00  0.00    -0.248 NA
ATOM     17  C   UNL A   1      39.475  30.688  31.357  1.00  0.00     0.031 C 
ATOM     18  C   UNL A   1      39.393  27.018  27.920  1.00  0.00     0.029 A 
ATOM     19  N   UNL A   1      41.174  27.109  29.268  1.00  0.00    -0.354 N 
ATOM     20  C   UNL A   1      41.561  30.271  32.203  1.00  0.00     0.074 A 
ATOM     21  C   UNL A   1      40.393  31.126  32.208  1.00  0.00     0.031 C 
ATOM     22  C   UNL A   1      40.215  26.022  27.562  1.00  0.00     0.029 A 
ATOM     23  C   UNL A   1      41.420  26.088  28.381  1.00  0.00     0.049 A 
ATOM     24  H   UNL A   1      41.788  27.350  29.998  1.00  0.00     0.167 HD
ATOM     25  C   UNL A   1      42.638  30.437  33.009  1.00  0.00     0.034 A 
ATOM     26  C   UNL A   1      42.506  25.310  28.216  1.00  0.00     0.034 A 
ATOM     27  C   UNL A   1      43.773  29.553  33.022  1.00  0.00     0.049 A 
ATOM     28  C   UNL A   1      43.672  25.492  29.142  1.00  0.00     0.074 A 
ATOM     29  C   UNL A   1      44.881  29.588  33.850  1.00  0.00     0.029 A 
ATOM     30  N   UNL A   1      43.949  28.478  32.163  1.00  0.00    -0.354 N 
ATOM     31  N   UNL A   1      43.814  26.352  30.121  1.00  0.00    -0.248 NA
ATOM     32  C   UNL A   1      44.813  24.585  28.964  1.00  0.00     0.031 C 
ATOM     33  C   UNL A   1      45.734  28.543  33.480  1.00  0.00     0.029 A 
ATOM     34  C   UNL A   1      45.150  27.845  32.435  1.00  0.00     0.049 A 
ATOM     35  H   UNL A   1      43.313  28.205  31.463  1.00  0.00     0.167 HD
ATOM     36  C   UNL A   1      45.047  26.075  30.695  1.00  0.00     0.074 A 
ATOM     37  C   UNL A   1      45.606  24.956  29.961  1.00  0.00     0.031 C 
ATOM     38  C   UNL A   1      45.664  26.699  31.728  1.00  0.00     0.034 A 
BRANCH  25  39
ATOM     39  C   UNL A   1      42.623  31.599  33.967  1.00  0.00     0.023 A 
ATOM     40  C   UNL A   1      43.118  32.851  33.551  1.00  0.00     0.012 A 
ATOM     41  C   UNL A   1      42.078  31.468  35.259  1.00  0.00     0.148 A 
ATOM     42  C   UNL A   1      43.102  33.945  34.417  1.00  0.00     0.002 A 
ATOM     43  C   UNL A   1      42.032  32.573  36.104  1.00  0.00     0.091 A 
ATOM     44  F   UNL A   1      41.634  30.265  35.651  1.00  0.00    -0.205 F 
ATOM     45  C   UNL A   1      42.552  33.808  35.688  1.00  0.00     0.022 A 
BRANCH  43  46
ATOM     46  S   UNL A   1      41.272  32.497  37.730  1.00  0.00     0.127 S 
ATOM     47  O   UNL A   1      39.935  32.001  37.411  1.00  0.00    -0.237 OA
ATOM     48  O   UNL A   1      42.125  31.538  38.434  1.00  0.00    -0.237 OA
ATOM     49  O   UNL A   1      41.338  33.855  38.256  1.00  0.00    -0.744 OA
ENDBRANCH  43  46
ENDBRANCH  25  39
BRANCH  26  50
ATOM     50  C   UNL A   1      42.493  24.272  27.150  1.00  0.00     0.023 A 
ATOM     51  C   UNL A   1      43.205  24.495  25.957  1.00  0.00     0.012 A 
ATOM     52  C   UNL A   1      41.879  23.020  27.363  1.00  0.00     0.148 A 
ATOM     53  C   UNL A   1      43.303  23.492  24.992  1.00  0.00     0.002 A 
ATOM     54  C   UNL A   1      42.030  22.007  26.425  1.00  0.00     0.091 A 
ATOM     55  F   UNL A   1      41.200  22.834  28.504  1.00  0.00    -0.205 F 
ATOM     56  C   UNL A   1      42.730  22.245  25.232  1.00  0.00     0.022 A 
BRANCH  54  57
ATOM     57  S   UNL A   1      41.463  20.328  26.721  1.00  0.00     0.127 S 
ATOM     58  O   UNL A   1      40.014  20.505  26.761  1.00  0.00    -0.237 OA
ATOM     59  O   UNL A   1      41.966  19.627  25.538  1.00  0.00    -0.237 OA
ATOM     60  O   UNL A   1      42.085  19.917  27.971  1.00  0.00    -0.744 OA
ENDBRANCH  54  57
ENDBRANCH  26  50
BRANCH  38  61
ATOM     61  C   UNL A   1      47.005  26.173  32.159  1.00  0.00     0.023 A 
ATOM     62  C   UNL A   1      47.085  25.267  33.235  1.00  0.00     0.012 A 
ATOM     63  C   UNL A   1      48.167  26.494  31.432  1.00  0.00     0.148 A 
ATOM     64  C   UNL A   1      48.308  24.699  33.590  1.00  0.00     0.002 A 
ATOM     65  C   UNL A   1      49.374  25.892  31.765  1.00  0.00     0.091 A 
ATOM     66  F   UNL A   1      48.068  27.374  30.425  1.00  0.00    -0.205 F 
ATOM     67  C   UNL A   1      49.448  25.001  32.848  1.00  0.00     0.022 A 
BRANCH  65  68
ATOM     68  S   UNL A   1      50.873  26.150  30.809  1.00  0.00     0.127 S 
ATOM     69  O   UNL A   1      51.170  27.553  31.093  1.00  0.00    -0.237 OA
ATOM     70  O   UNL A   1      51.799  25.194  31.419  1.00  0.00    -0.237 OA
ATOM     71  O   UNL A   1      50.524  25.854  29.426  1.00  0.00    -0.744 OA
ENDBRANCH  65  68
ENDBRANCH  38  61
ENDBRANCH  12  13
ENDBRANCH   5   7
ENDBRANCH   2   3
ENDBRANCH   1   2
BRANCH   1  72
ATOM     72  C   UNL A   1      31.676  26.864  26.224  1.00  0.00     0.117 C 
BRANCH  72  73
ATOM     73  N   UNL A   1      31.360  25.617  26.885  1.00  0.00    -0.354 N 
ATOM     74  C   UNL A   1      31.882  24.379  26.652  1.00  0.00     0.249 C 
ATOM     75  H   UNL A   1      30.682  25.669  27.596  1.00  0.00     0.163 HD
ATOM     76  O   UNL A   1      31.508  23.450  27.375  1.00  0.00    -0.272 OA
BRANCH  74  77
ATOM     77  C   UNL A   1      32.898  24.140  25.519  1.00  0.00     0.207 C 
ATOM     78  C   UNL A   1      34.212  24.903  25.653  1.00  0.00     0.045 C 
ATOM     79  O   UNL A   1      33.214  22.757  25.348  1.00  0.00    -0.363 OA
ATOM     80  C   UNL A   1      35.301  23.863  25.458  1.00  0.00     0.037 C 
ATOM     81  C   UNL A   1      34.566  22.660  24.884  1.00  0.00     0.138 C 
BRANCH  81  82
ATOM     82  C   UNL A   1      35.177  21.281  25.205  1.00  0.00     0.148 C 
BRANCH  82  83
ATOM     83  N   UNL A   1      34.184  20.279  25.524  1.00  0.00    -0.352 N 
ATOM     84  H   UNL A   1      33.819  20.263  26.438  1.00  0.00     0.163 HD
BRANCH  83  85
ATOM     85  C   UNL A   1      33.722  19.353  24.631  1.00  0.00     0.222 A 
ATOM     86  N   UNL A   1      34.466  18.240  24.526  1.00  0.00    -0.222 NA
ATOM     87  N   UNL A   1      32.618  19.576  23.908  1.00  0.00    -0.222 NA
ATOM     88  C   UNL A   1      34.068  17.312  23.631  1.00  0.00     0.117 A 
ATOM     89  C   UNL A   1      32.255  18.618  23.033  1.00  0.00     0.117 A 
ATOM     90  C   UNL A   1      32.951  17.449  22.850  1.00  0.00     0.040 A 
ENDBRANCH  83  85
ENDBRANCH  82  83
ENDBRANCH  81  82
ENDBRANCH  74  77
ENDBRANCH  72  73
ENDBRANCH   1  72
TORSDOF 16
ENDMDL
MODEL 3
REMARK VINA RESULT:     -11.1      4.034      5.299
REMARK SMILES O=C(NCCCNC(=O)[C@H]1CC[C@@H](CNc2ncccn2)O1)c1ccc(-c2c3nc(c(-c4cccc(S(=O)(=O)[O-])c4F)c4ccc([nH]4)c(-c4cccc(S(=O)(=O)[O-])c4F)c4nc(c(-c5cccc(S(=O)(=O)[O-])c5F)c5ccc2[nH]5)C=C4)C=C3)cc1
REMARK SMILES IDX 5 1 4 2 3 3 1 4 2 5 23 7 24 8 85 9 25 10 84 11 26 12 27 13
REMARK SMILES IDX 28 14 78 15 29 16 83 17 77 18 79 19 30 20 82 21 76 22 75 23
REMARK SMILES IDX 31 25 63 26 43 27 62 28 44 29 47 30 61 31 80 32 45 33 46 34
REMARK SMILES IDX 60 36 81 37 48 38 32 39 33 40 41 41 34 42 36 43 42 44 35 45
REMARK SMILES IDX 37 46 38 47 39 48 40 49 64 50 65 51 73 52 66 53 68 54 74 55
REMARK SMILES IDX 67 56 69 57 70 58 71 59 72 60 49 61 50 62 58 63 51 64 53 65
REMARK SMILES IDX 59 66 52 67 54 68 55 69 56 70 57 71 6 72 7 73 8 74 9 76
REMARK SMILES IDX 10 77 11 78 22 79 12 80 13 81 14 82 15 83 16 85 17 86 21 87
REMARK SMILES IDX 18 88 20 89 19 90
REMARK H PARENT 3 6 79 24 47 35 7 75 15 84
REMARK Flexibility Score: inf
ROOT
ATOM      1  C   UNL A   1      32.061  28.132  26.902  1.00  0.00     0.042 C 
ENDROOT
BRANCH   1   2
ATOM      2  C   UNL A   1      32.966  29.073  26.125  1.00  0.00     0.118 C 
BRANCH   2   3
ATOM      3  N   UNL A   1      32.650  30.469  26.395  1.00  0.00    -0.352 N 
ATOM      4  O   UNL A   1      32.779  32.486  27.377  1.00  0.00    -0.269 OA
ATOM      5  C   UNL A   1      33.301  31.399  27.168  1.00  0.00     0.251 C 
ATOM      6  H   UNL A   1      31.836  30.801  25.951  1.00  0.00     0.163 HD
BRANCH   5   7
ATOM      7  C   UNL A   1      34.611  31.066  27.773  1.00  0.00     0.039 A 
ATOM      8  C   UNL A   1      34.851  29.804  28.319  1.00  0.00     0.014 A 
ATOM      9  C   UNL A   1      35.613  32.041  27.786  1.00  0.00     0.014 A 
ATOM     10  C   UNL A   1      36.034  29.562  29.008  1.00  0.00     0.010 A 
ATOM     11  C   UNL A   1      36.837  31.764  28.400  1.00  0.00     0.010 A 
ATOM     12  C   UNL A   1      37.044  30.535  29.043  1.00  0.00    -0.014 A 
BRANCH  12  13
ATOM     13  C   UNL A   1      38.344  30.233  29.691  1.00  0.00     0.031 A 
ATOM     14  C   UNL A   1      39.319  29.282  29.060  1.00  0.00     0.074 A 
ATOM     15  C   UNL A   1      38.612  30.790  30.889  1.00  0.00     0.049 A 
ATOM     16  N   UNL A   1      40.456  28.839  29.528  1.00  0.00    -0.248 NA
ATOM     17  C   UNL A   1      38.968  28.748  27.734  1.00  0.00     0.031 C 
ATOM     18  C   UNL A   1      37.717  31.698  31.610  1.00  0.00     0.029 A 
ATOM     19  N   UNL A   1      39.694  30.657  31.719  1.00  0.00    -0.354 N 
ATOM     20  C   UNL A   1      40.931  27.936  28.586  1.00  0.00     0.074 A 
ATOM     21  C   UNL A   1      39.960  27.896  27.513  1.00  0.00     0.031 C 
ATOM     22  C   UNL A   1      38.283  32.038  32.776  1.00  0.00     0.029 A 
ATOM     23  C   UNL A   1      39.550  31.328  32.911  1.00  0.00     0.049 A 
ATOM     24  H   UNL A   1      40.495  30.135  31.487  1.00  0.00     0.167 HD
ATOM     25  C   UNL A   1      42.079  27.215  28.609  1.00  0.00     0.034 A 
ATOM     26  C   UNL A   1      40.328  31.345  34.009  1.00  0.00     0.034 A 
ATOM     27  C   UNL A   1      43.056  27.298  29.663  1.00  0.00     0.049 A 
ATOM     28  C   UNL A   1      41.610  30.565  33.998  1.00  0.00     0.074 A 
ATOM     29  C   UNL A   1      44.285  26.669  29.747  1.00  0.00     0.029 A 
ATOM     30  N   UNL A   1      42.913  28.053  30.817  1.00  0.00    -0.354 N 
ATOM     31  N   UNL A   1      42.101  29.810  33.045  1.00  0.00    -0.248 NA
ATOM     32  C   UNL A   1      42.457  30.657  35.193  1.00  0.00     0.031 C 
ATOM     33  C   UNL A   1      44.877  27.032  30.961  1.00  0.00     0.029 A 
ATOM     34  C   UNL A   1      44.026  27.902  31.625  1.00  0.00     0.049 A 
ATOM     35  H   UNL A   1      42.133  28.616  31.031  1.00  0.00     0.167 HD
ATOM     36  C   UNL A   1      43.327  29.358  33.512  1.00  0.00     0.074 A 
ATOM     37  C   UNL A   1      43.510  29.936  34.830  1.00  0.00     0.031 C 
ATOM     38  C   UNL A   1      44.214  28.529  32.909  1.00  0.00     0.034 A 
BRANCH  25  39
ATOM     39  C   UNL A   1      42.356  26.299  27.445  1.00  0.00     0.023 A 
ATOM     40  C   UNL A   1      43.037  26.794  26.316  1.00  0.00     0.012 A 
ATOM     41  C   UNL A   1      41.986  24.941  27.487  1.00  0.00     0.148 A 
ATOM     42  C   UNL A   1      43.315  25.961  25.232  1.00  0.00     0.002 A 
ATOM     43  C   UNL A   1      42.300  24.107  26.419  1.00  0.00     0.091 A 
ATOM     44  F   UNL A   1      41.316  24.489  28.558  1.00  0.00    -0.205 F 
ATOM     45  C   UNL A   1      42.955  24.618  25.287  1.00  0.00     0.022 A 
BRANCH  43  46
ATOM     46  S   UNL A   1      41.936  22.348  26.444  1.00  0.00     0.127 S 
ATOM     47  O   UNL A   1      42.534  21.904  25.186  1.00  0.00    -0.237 OA
ATOM     48  O   UNL A   1      42.640  21.895  27.645  1.00  0.00    -0.237 OA
ATOM     49  O   UNL A   1      40.485  22.250  26.528  1.00  0.00    -0.744 OA
ENDBRANCH  43  46
ENDBRANCH  25  39
BRANCH  26  50
ATOM     50  C   UNL A   1      39.911  32.170  35.175  1.00  0.00     0.023 A 
ATOM     51  C   UNL A   1      40.209  33.545  35.193  1.00  0.00     0.012 A 
ATOM     52  C   UNL A   1      39.119  31.622  36.205  1.00  0.00     0.148 A 
ATOM     53  C   UNL A   1      39.730  34.361  36.219  1.00  0.00     0.002 A 
ATOM     54  C   UNL A   1      38.597  32.450  37.190  1.00  0.00     0.091 A 
ATOM     55  F   UNL A   1      38.855  30.308  36.170  1.00  0.00    -0.205 F 
ATOM     56  C   UNL A   1      38.913  33.817  37.207  1.00  0.00     0.022 A 
BRANCH  54  57
ATOM     57  S   UNL A   1      37.411  31.868  38.409  1.00  0.00     0.127 S 
ATOM     58  O   UNL A   1      38.146  32.059  39.655  1.00  0.00    -0.237 OA
ATOM     59  O   UNL A   1      36.293  32.791  38.205  1.00  0.00    -0.237 OA
ATOM     60  O   UNL A   1      37.121  30.488  38.048  1.00  0.00    -0.744 OA
ENDBRANCH  54  57
ENDBRANCH  26  50
BRANCH  38  61
ATOM     61  C   UNL A   1      45.487  28.215  33.646  1.00  0.00     0.023 A 
ATOM     62  C   UNL A   1      46.608  29.053  33.488  1.00  0.00     0.012 A 
ATOM     63  C   UNL A   1      45.535  27.156  34.572  1.00  0.00     0.148 A 
ATOM     64  C   UNL A   1      47.766  28.830  34.231  1.00  0.00     0.002 A 
ATOM     65  C   UNL A   1      46.677  26.966  35.340  1.00  0.00     0.091 A 
ATOM     66  F   UNL A   1      44.461  26.361  34.690  1.00  0.00    -0.205 F 
ATOM     67  C   UNL A   1      47.796  27.796  35.166  1.00  0.00     0.022 A 
BRANCH  65  68
ATOM     68  S   UNL A   1      46.771  25.719  36.631  1.00  0.00     0.127 S 
ATOM     69  O   UNL A   1      46.401  24.508  35.902  1.00  0.00    -0.237 OA
ATOM     70  O   UNL A   1      48.179  25.788  37.025  1.00  0.00    -0.237 OA
ATOM     71  O   UNL A   1      45.834  26.138  37.663  1.00  0.00    -0.744 OA
ENDBRANCH  65  68
ENDBRANCH  38  61
ENDBRANCH  12  13
ENDBRANCH   5   7
ENDBRANCH   2   3
ENDBRANCH   1   2
BRANCH   1  72
ATOM     72  C   UNL A   1      31.450  27.061  26.009  1.00  0.00     0.117 C 
BRANCH  72  73
ATOM     73  N   UNL A   1      31.102  25.871  26.753  1.00  0.00    -0.354 N 
ATOM     74  C   UNL A   1      31.483  24.583  26.518  1.00  0.00     0.249 C 
ATOM     75  H   UNL A   1      30.515  26.009  27.531  1.00  0.00     0.163 HD
ATOM     76  O   UNL A   1      31.111  23.717  27.316  1.00  0.00    -0.272 OA
BRANCH  74  77
ATOM     77  C   UNL A   1      32.340  24.215  25.291  1.00  0.00     0.207 C 
ATOM     78  C   UNL A   1      33.811  23.943  25.586  1.00  0.00     0.045 C 
ATOM     79  O   UNL A   1      31.823  23.087  24.581  1.00  0.00    -0.363 OA
ATOM     80  C   UNL A   1      34.117  22.617  24.913  1.00  0.00     0.037 C 
ATOM     81  C   UNL A   1      32.926  22.384  23.994  1.00  0.00     0.138 C 
BRANCH  81  82
ATOM     82  C   UNL A   1      32.571  20.910  23.712  1.00  0.00     0.148 C 
BRANCH  82  83
ATOM     83  N   UNL A   1      32.606  20.079  24.896  1.00  0.00    -0.352 N 
ATOM     84  H   UNL A   1      32.273  20.462  25.740  1.00  0.00     0.163 HD
BRANCH  83  85
ATOM     85  C   UNL A   1      33.074  18.795  24.913  1.00  0.00     0.222 A 
ATOM     86  N   UNL A   1      32.257  17.896  25.483  1.00  0.00    -0.222 NA
ATOM     87  N   UNL A   1      34.277  18.489  24.410  1.00  0.00    -0.222 NA
ATOM     88  C   UNL A   1      32.692  16.621  25.553  1.00  0.00     0.117 A 
ATOM     89  C   UNL A   1      34.666  17.201  24.496  1.00  0.00     0.117 A 
ATOM     90  C   UNL A   1      33.904  16.211  25.064  1.00  0.00     0.040 A 
ENDBRANCH  83  85
ENDBRANCH  82  83
ENDBRANCH  81  82
ENDBRANCH  74  77
ENDBRANCH  72  73
ENDBRANCH   1  72
TORSDOF 16
ENDMDL
