MODEL 1
REMARK VINA RESULT:     -11.6      0.000      0.000
REMARK SMILES CCC[C@H](C)[C@@H](Nc1ccc(Cl)c(Br)c1)C(=O)NCCCNC(=O)c1ccc(-c2c3nc(c(-c4cccc(S(=O)(=O)[O-])c4F)c4ccc([nH]4)c(-c4cccc(S(=O)(=O)[O-])c4F)c4nc(c(-c5cccc(S(=O)(=O)[O-])c5F)c5ccc2[nH]5)C=C4)C=C3)cc1
REMARK SMILES IDX 20 1 19 2 18 3 16 4 17 5 6 7 4 8 5 9 3 10 2 11 1 12 7 13
REMARK SMILES IDX 8 15 9 16 15 17 10 18 13 19 11 20 14 21 12 22 21 23 22 24
REMARK SMILES IDX 23 25 24 27 25 28 26 29 87 30 27 31 86 32 28 33 29 34 30 35
REMARK SMILES IDX 80 36 31 37 85 38 79 39 81 40 32 41 84 42 78 43 77 44 33 46
REMARK SMILES IDX 65 47 45 48 64 49 46 50 49 51 63 52 82 53 47 54 48 55 62 57
REMARK SMILES IDX 83 58 50 59 34 60 35 61 43 62 36 63 38 64 44 65 37 66 39 67
REMARK SMILES IDX 40 68 41 69 42 70 66 71 67 72 75 73 68 74 70 75 76 76 69 77
REMARK SMILES IDX 71 78 72 79 73 80 74 81 51 82 52 83 60 84 53 85 55 86 61 87
REMARK SMILES IDX 54 88 56 89 57 90 58 91 59 92
REMARK H PARENT 18 6 7 14 22 26 81 45 49 56
REMARK Flexibility Score: inf
ROOT
ATOM      1  C   UNL A   1      35.609  21.784  26.142  1.00  0.00     0.042 C 
ENDROOT
BRANCH   1   2
ATOM      2  C   UNL A   1      35.015  23.116  26.545  1.00  0.00     0.117 C 
BRANCH   2   3
ATOM      3  N   UNL A   1      33.737  22.985  27.222  1.00  0.00    -0.354 N 
ATOM      4  C   UNL A   1      32.493  23.336  26.779  1.00  0.00     0.242 C 
ATOM      5  O   UNL A   1      31.522  22.966  27.449  1.00  0.00    -0.273 OA
ATOM      6  H   UNL A   1      33.772  22.588  28.122  1.00  0.00     0.163 HD
BRANCH   4   7
ATOM      7  C   UNL A   1      32.292  24.210  25.509  1.00  0.00     0.171 C 
BRANCH   7   8
ATOM      8  C   UNL A   1      32.752  23.433  24.224  1.00  0.00     0.018 C 
ATOM      9  C   UNL A   1      31.549  22.920  23.419  1.00  0.00     0.010 C 
BRANCH   8  10
ATOM     10  C   UNL A   1      33.681  24.299  23.326  1.00  0.00     0.006 C 
BRANCH  10  11
ATOM     11  C   UNL A   1      33.000  25.091  22.201  1.00  0.00    -0.003 C 
ATOM     12  C   UNL A   1      33.305  26.581  22.185  1.00  0.00     0.004 C 
ENDBRANCH  10  11
ENDBRANCH   8  10
ENDBRANCH   7   8
BRANCH   7  13
ATOM     13  N   UNL A   1      30.901  24.717  25.350  1.00  0.00    -0.373 N 
ATOM     14  H   UNL A   1      30.177  24.093  25.585  1.00  0.00     0.161 HD
BRANCH  13  15
ATOM     15  C   UNL A   1      30.517  25.971  24.909  1.00  0.00     0.036 A 
ATOM     16  C   UNL A   1      29.547  26.188  23.929  1.00  0.00     0.027 A 
ATOM     17  C   UNL A   1      31.278  27.074  25.334  1.00  0.00     0.043 A 
ATOM     18  C   UNL A   1      29.396  27.445  23.331  1.00  0.00     0.024 A 
ATOM     19  C   UNL A   1      31.145  28.331  24.731  1.00  0.00     0.038 A 
ATOM     20  C   UNL A   1      30.210  28.513  23.713  1.00  0.00     0.055 A 
ATOM     21  Br  UNL A   1      32.334  29.699  25.296  1.00  0.00    -0.049 Br
ATOM     22  Cl  UNL A   1      30.025  30.007  22.868  1.00  0.00    -0.083 Cl
ENDBRANCH  13  15
ENDBRANCH   7  13
ENDBRANCH   4   7
ENDBRANCH   2   3
ENDBRANCH   1   2
BRANCH   1  23
ATOM     23  C   UNL A   1      36.745  21.913  25.142  1.00  0.00     0.118 C 
BRANCH  23  24
ATOM     24  N   UNL A   1      37.744  20.854  25.257  1.00  0.00    -0.352 N 
ATOM     25  C   UNL A   1      38.998  20.897  25.827  1.00  0.00     0.251 C 
ATOM     26  H   UNL A   1      37.485  19.985  24.872  1.00  0.00     0.163 HD
ATOM     27  O   UNL A   1      39.754  19.940  25.729  1.00  0.00    -0.269 OA
BRANCH  25  28
ATOM     28  C   UNL A   1      39.429  22.133  26.516  1.00  0.00     0.039 A 
ATOM     29  C   UNL A   1      38.921  23.368  26.116  1.00  0.00     0.014 A 
ATOM     30  C   UNL A   1      40.416  22.061  27.503  1.00  0.00     0.014 A 
ATOM     31  C   UNL A   1      39.555  24.530  26.530  1.00  0.00     0.010 A 
ATOM     32  C   UNL A   1      40.974  23.241  28.004  1.00  0.00     0.010 A 
ATOM     33  C   UNL A   1      40.598  24.482  27.470  1.00  0.00    -0.014 A 
BRANCH  33  34
ATOM     34  C   UNL A   1      41.279  25.749  27.852  1.00  0.00     0.031 A 
ATOM     35  C   UNL A   1      42.659  26.076  27.338  1.00  0.00     0.074 A 
ATOM     36  C   UNL A   1      40.608  26.647  28.601  1.00  0.00     0.049 A 
ATOM     37  N   UNL A   1      43.364  27.162  27.528  1.00  0.00    -0.248 NA
ATOM     38  C   UNL A   1      43.340  25.065  26.511  1.00  0.00     0.031 C 
ATOM     39  C   UNL A   1      39.271  26.440  29.166  1.00  0.00     0.029 A 
ATOM     40  N   UNL A   1      40.935  27.922  28.985  1.00  0.00    -0.354 N 
ATOM     41  C   UNL A   1      44.581  26.947  26.892  1.00  0.00     0.074 A 
ATOM     42  C   UNL A   1      44.524  25.627  26.305  1.00  0.00     0.031 C 
ATOM     43  C   UNL A   1      38.863  27.572  29.756  1.00  0.00     0.029 A 
ATOM     44  C   UNL A   1      39.929  28.563  29.669  1.00  0.00     0.049 A 
ATOM     45  H   UNL A   1      41.806  28.338  28.791  1.00  0.00     0.167 HD
ATOM     46  C   UNL A   1      45.641  27.782  26.787  1.00  0.00     0.034 A 
ATOM     47  C   UNL A   1      39.865  29.811  30.171  1.00  0.00     0.034 A 
ATOM     48  C   UNL A   1      45.670  29.123  27.302  1.00  0.00     0.049 A 
ATOM     49  C   UNL A   1      41.045  30.723  30.015  1.00  0.00     0.074 A 
ATOM     50  C   UNL A   1      46.687  30.056  27.204  1.00  0.00     0.029 A 
ATOM     51  N   UNL A   1      44.634  29.727  27.995  1.00  0.00    -0.354 N 
ATOM     52  N   UNL A   1      42.160  30.515  29.360  1.00  0.00    -0.248 NA
ATOM     53  C   UNL A   1      40.960  32.039  30.663  1.00  0.00     0.031 C 
ATOM     54  C   UNL A   1      46.265  31.229  27.835  1.00  0.00     0.029 A 
ATOM     55  C   UNL A   1      44.986  31.023  28.328  1.00  0.00     0.049 A 
ATOM     56  H   UNL A   1      43.776  29.299  28.217  1.00  0.00     0.167 HD
ATOM     57  C   UNL A   1      42.911  31.673  29.515  1.00  0.00     0.074 A 
ATOM     58  C   UNL A   1      42.111  32.591  30.301  1.00  0.00     0.031 C 
ATOM     59  C   UNL A   1      44.160  31.939  29.068  1.00  0.00     0.034 A 
BRANCH  46  60
ATOM     60  C   UNL A   1      46.851  27.308  26.032  1.00  0.00     0.023 A 
ATOM     61  C   UNL A   1      47.700  26.357  26.629  1.00  0.00     0.012 A 
ATOM     62  C   UNL A   1      47.075  27.702  24.698  1.00  0.00     0.148 A 
ATOM     63  C   UNL A   1      48.760  25.805  25.910  1.00  0.00     0.002 A 
ATOM     64  C   UNL A   1      48.119  27.129  23.980  1.00  0.00     0.091 A 
ATOM     65  F   UNL A   1      46.255  28.614  24.157  1.00  0.00    -0.205 F 
ATOM     66  C   UNL A   1      48.963  26.183  24.586  1.00  0.00     0.022 A 
BRANCH  64  67
ATOM     67  S   UNL A   1      48.439  27.505  22.252  1.00  0.00     0.127 S 
ATOM     68  O   UNL A   1      49.642  28.334  22.351  1.00  0.00    -0.237 OA
ATOM     69  O   UNL A   1      48.661  26.176  21.687  1.00  0.00    -0.237 OA
ATOM     70  O   UNL A   1      47.255  28.195  21.762  1.00  0.00    -0.744 OA
ENDBRANCH  64  67
ENDBRANCH  46  60
BRANCH  47  71
ATOM     71  C   UNL A   1      38.609  30.275  30.819  1.00  0.00     0.023 A 
ATOM     72  C   UNL A   1      38.453  30.112  32.208  1.00  0.00     0.012 A 
ATOM     73  C   UNL A   1      37.609  30.941  30.084  1.00  0.00     0.148 A 
ATOM     74  C   UNL A   1      37.320  30.603  32.855  1.00  0.00     0.002 A 
ATOM     75  C   UNL A   1      36.505  31.468  30.742  1.00  0.00     0.091 A 
ATOM     76  F   UNL A   1      37.774  31.069  28.759  1.00  0.00    -0.205 F 
ATOM     77  C   UNL A   1      36.353  31.292  32.126  1.00  0.00     0.022 A 
BRANCH  75  78
ATOM     78  S   UNL A   1      35.279  32.476  29.902  1.00  0.00     0.127 S 
ATOM     79  O   UNL A   1      34.341  32.766  30.984  1.00  0.00    -0.237 OA
ATOM     80  O   UNL A   1      36.078  33.618  29.455  1.00  0.00    -0.237 OA
ATOM     81  O   UNL A   1      34.764  31.646  28.822  1.00  0.00    -0.744 OA
ENDBRANCH  75  78
ENDBRANCH  47  71
BRANCH  59  82
ATOM     82  C   UNL A   1      44.763  33.269  29.415  1.00  0.00     0.023 A 
ATOM     83  C   UNL A   1      45.529  33.382  30.591  1.00  0.00     0.012 A 
ATOM     84  C   UNL A   1      44.682  34.354  28.524  1.00  0.00     0.148 A 
ATOM     85  C   UNL A   1      46.208  34.565  30.878  1.00  0.00     0.002 A 
ATOM     86  C   UNL A   1      45.385  35.520  28.801  1.00  0.00     0.091 A 
ATOM     87  F   UNL A   1      43.939  34.218  27.417  1.00  0.00    -0.205 F 
ATOM     88  C   UNL A   1      46.146  35.628  29.978  1.00  0.00     0.022 A 
BRANCH  86  89
ATOM     89  S   UNL A   1      45.428  36.918  27.674  1.00  0.00     0.127 S 
ATOM     90  O   UNL A   1      45.925  36.296  26.448  1.00  0.00    -0.237 OA
ATOM     91  O   UNL A   1      44.022  37.320  27.629  1.00  0.00    -0.237 OA
ATOM     92  O   UNL A   1      46.322  37.897  28.278  1.00  0.00    -0.744 OA
ENDBRANCH  86  89
ENDBRANCH  59  82
ENDBRANCH  33  34
ENDBRANCH  25  28
ENDBRANCH  23  24
ENDBRANCH   1  23
TORSDOF 18
ENDMDL
MODEL 2
REMARK VINA RESULT:     -11.4      5.175      9.906
REMARK SMILES CCC[C@H](C)[C@@H](Nc1ccc(Cl)c(Br)c1)C(=O)NCCCNC(=O)c1ccc(-c2c3nc(c(-c4cccc(S(=O)(=O)[O-])c4F)c4ccc([nH]4)c(-c4cccc(S(=O)(=O)[O-])c4F)c4nc(c(-c5cccc(S(=O)(=O)[O-])c5F)c5ccc2[nH]5)C=C4)C=C3)cc1
REMARK SMILES IDX 20 1 19 2 18 3 16 4 17 5 6 7 4 8 5 9 3 10 2 11 1 12 7 13
REMARK SMILES IDX 8 15 9 16 15 17 10 18 13 19 11 20 14 21 12 22 21 23 22 24
REMARK SMILES IDX 23 25 24 27 25 28 26 29 87 30 27 31 86 32 28 33 29 34 30 35
REMARK SMILES IDX 80 36 31 37 85 38 79 39 81 40 32 41 84 42 78 43 77 44 33 46
REMARK SMILES IDX 65 47 45 48 64 49 46 50 49 51 63 52 82 53 47 54 48 55 62 57
REMARK SMILES IDX 83 58 50 59 34 60 35 61 43 62 36 63 38 64 44 65 37 66 39 67
REMARK SMILES IDX 40 68 41 69 42 70 66 71 67 72 75 73 68 74 70 75 76 76 69 77
REMARK SMILES IDX 71 78 72 79 73 80 74 81 51 82 52 83 60 84 53 85 55 86 61 87
REMARK SMILES IDX 54 88 56 89 57 90 58 91 59 92
REMARK H PARENT 18 6 7 14 22 26 81 45 49 56
REMARK Flexibility Score: inf
ROOT
ATOM      1  C   UNL A   1      31.777  29.002  26.867  1.00  0.00     0.042 C 
ENDROOT
BRANCH   1   2
ATOM      2  C   UNL A   1      32.300  27.595  26.676  1.00  0.00     0.117 C 
BRANCH   2   3
ATOM      3  N   UNL A   1      31.266  26.584  26.810  1.00  0.00    -0.354 N 
ATOM      4  C   UNL A   1      31.104  25.425  26.103  1.00  0.00     0.242 C 
ATOM      5  O   UNL A   1      30.256  24.622  26.508  1.00  0.00    -0.273 OA
ATOM      6  H   UNL A   1      30.591  26.757  27.504  1.00  0.00     0.163 HD
BRANCH   4   7
ATOM      7  C   UNL A   1      31.914  25.135  24.808  1.00  0.00     0.171 C 
BRANCH   7   8
ATOM      8  C   UNL A   1      32.368  23.632  24.764  1.00  0.00     0.018 C 
ATOM      9  C   UNL A   1      31.641  22.859  23.655  1.00  0.00     0.010 C 
BRANCH   8  10
ATOM     10  C   UNL A   1      33.910  23.498  24.603  1.00  0.00     0.006 C 
BRANCH  10  11
ATOM     11  C   UNL A   1      34.768  24.512  25.372  1.00  0.00    -0.003 C 
ATOM     12  C   UNL A   1      36.145  24.014  25.781  1.00  0.00     0.004 C 
ENDBRANCH  10  11
ENDBRANCH   8  10
ENDBRANCH   7   8
BRANCH   7  13
ATOM     13  N   UNL A   1      31.193  25.506  23.559  1.00  0.00    -0.373 N 
ATOM     14  H   UNL A   1      31.005  24.774  22.928  1.00  0.00     0.161 HD
BRANCH  13  15
ATOM     15  C   UNL A   1      30.759  26.766  23.191  1.00  0.00     0.036 A 
ATOM     16  C   UNL A   1      31.611  27.846  22.958  1.00  0.00     0.027 A 
ATOM     17  C   UNL A   1      29.377  27.020  23.239  1.00  0.00     0.043 A 
ATOM     18  C   UNL A   1      31.112  29.151  22.860  1.00  0.00     0.024 A 
ATOM     19  C   UNL A   1      28.869  28.323  23.157  1.00  0.00     0.038 A 
ATOM     20  C   UNL A   1      29.743  29.396  22.982  1.00  0.00     0.055 A 
ATOM     21  Br  UNL A   1      26.997  28.544  23.382  1.00  0.00    -0.049 Br
ATOM     22  Cl  UNL A   1      29.213  31.037  22.938  1.00  0.00    -0.083 Cl
ENDBRANCH  13  15
ENDBRANCH   7  13
ENDBRANCH   4   7
ENDBRANCH   2   3
ENDBRANCH   1   2
BRANCH   1  23
ATOM     23  C   UNL A   1      32.574  30.046  26.105  1.00  0.00     0.118 C 
BRANCH  23  24
ATOM     24  N   UNL A   1      32.323  31.412  26.555  1.00  0.00    -0.352 N 
ATOM     25  C   UNL A   1      33.122  32.240  27.314  1.00  0.00     0.251 C 
ATOM     26  H   UNL A   1      31.460  31.797  26.277  1.00  0.00     0.163 HD
ATOM     27  O   UNL A   1      32.700  33.322  27.701  1.00  0.00    -0.269 OA
BRANCH  25  28
ATOM     28  C   UNL A   1      34.476  31.779  27.692  1.00  0.00     0.039 A 
ATOM     29  C   UNL A   1      34.702  30.432  27.971  1.00  0.00     0.014 A 
ATOM     30  C   UNL A   1      35.500  32.716  27.857  1.00  0.00     0.014 A 
ATOM     31  C   UNL A   1      35.865  30.060  28.628  1.00  0.00     0.010 A 
ATOM     32  C   UNL A   1      36.718  32.313  28.414  1.00  0.00     0.010 A 
ATOM     33  C   UNL A   1      36.884  30.997  28.870  1.00  0.00    -0.014 A 
BRANCH  33  34
ATOM     34  C   UNL A   1      38.096  30.564  29.616  1.00  0.00     0.031 A 
ATOM     35  C   UNL A   1      38.304  30.958  31.057  1.00  0.00     0.074 A 
ATOM     36  C   UNL A   1      38.972  29.738  29.011  1.00  0.00     0.049 A 
ATOM     37  N   UNL A   1      39.274  30.614  31.866  1.00  0.00    -0.248 NA
ATOM     38  C   UNL A   1      37.308  31.851  31.674  1.00  0.00     0.031 C 
ATOM     39  C   UNL A   1      38.883  29.294  27.616  1.00  0.00     0.029 A 
ATOM     40  N   UNL A   1      40.082  29.093  29.491  1.00  0.00    -0.354 N 
ATOM     41  C   UNL A   1      39.034  31.282  33.060  1.00  0.00     0.074 A 
ATOM     42  C   UNL A   1      37.825  32.053  32.880  1.00  0.00     0.031 C 
ATOM     43  C   UNL A   1      39.848  28.395  27.378  1.00  0.00     0.029 A 
ATOM     44  C   UNL A   1      40.662  28.243  28.579  1.00  0.00     0.049 A 
ATOM     45  H   UNL A   1      40.431  29.226  30.403  1.00  0.00     0.167 HD
ATOM     46  C   UNL A   1      39.745  31.239  34.212  1.00  0.00     0.034 A 
ATOM     47  C   UNL A   1      41.729  27.430  28.690  1.00  0.00     0.034 A 
ATOM     48  C   UNL A   1      40.902  30.413  34.419  1.00  0.00     0.049 A 
ATOM     49  C   UNL A   1      42.479  27.382  29.988  1.00  0.00     0.074 A 
ATOM     50  C   UNL A   1      41.660  30.274  35.568  1.00  0.00     0.029 A 
ATOM     51  N   UNL A   1      41.459  29.577  33.465  1.00  0.00    -0.354 N 
ATOM     52  N   UNL A   1      42.198  27.980  31.119  1.00  0.00    -0.248 NA
ATOM     53  C   UNL A   1      43.691  26.551  30.026  1.00  0.00     0.031 C 
ATOM     54  C   UNL A   1      42.675  29.348  35.312  1.00  0.00     0.029 A 
ATOM     55  C   UNL A   1      42.549  28.915  34.002  1.00  0.00     0.049 A 
ATOM     56  H   UNL A   1      41.129  29.469  32.545  1.00  0.00     0.167 HD
ATOM     57  C   UNL A   1      43.195  27.597  32.006  1.00  0.00     0.074 A 
ATOM     58  C   UNL A   1      44.072  26.692  31.289  1.00  0.00     0.031 C 
ATOM     59  C   UNL A   1      43.382  27.982  33.290  1.00  0.00     0.034 A 
BRANCH  46  60
ATOM     60  C   UNL A   1      39.266  32.059  35.377  1.00  0.00     0.023 A 
ATOM     61  C   UNL A   1      38.387  31.474  36.309  1.00  0.00     0.012 A 
ATOM     62  C   UNL A   1      39.780  33.348  35.618  1.00  0.00     0.148 A 
ATOM     63  C   UNL A   1      38.022  32.164  37.466  1.00  0.00     0.002 A 
ATOM     64  C   UNL A   1      39.431  34.019  36.784  1.00  0.00     0.091 A 
ATOM     65  F   UNL A   1      40.610  33.883  34.710  1.00  0.00    -0.205 F 
ATOM     66  C   UNL A   1      38.551  33.429  37.707  1.00  0.00     0.022 A 
BRANCH  64  67
ATOM     67  S   UNL A   1      40.093  35.631  37.221  1.00  0.00     0.127 S 
ATOM     68  O   UNL A   1      39.619  36.454  36.107  1.00  0.00    -0.237 OA
ATOM     69  O   UNL A   1      39.433  35.896  38.498  1.00  0.00    -0.237 OA
ATOM     70  O   UNL A   1      41.538  35.469  37.295  1.00  0.00    -0.744 OA
ENDBRANCH  64  67
ENDBRANCH  46  60
BRANCH  47  71
ATOM     71  C   UNL A   1      42.105  26.557  27.546  1.00  0.00     0.023 A 
ATOM     72  C   UNL A   1      42.891  27.088  26.508  1.00  0.00     0.012 A 
ATOM     73  C   UNL A   1      41.755  25.193  27.521  1.00  0.00     0.148 A 
ATOM     74  C   UNL A   1      43.322  26.276  25.459  1.00  0.00     0.002 A 
ATOM     75  C   UNL A   1      42.227  24.379  26.498  1.00  0.00     0.091 A 
ATOM     76  F   UNL A   1      40.992  24.714  28.514  1.00  0.00    -0.205 F 
ATOM     77  C   UNL A   1      43.001  24.920  25.461  1.00  0.00     0.022 A 
BRANCH  75  78
ATOM     78  S   UNL A   1      41.968  22.602  26.490  1.00  0.00     0.127 S 
ATOM     79  O   UNL A   1      42.475  22.234  25.170  1.00  0.00    -0.237 OA
ATOM     80  O   UNL A   1      42.800  22.168  27.613  1.00  0.00    -0.237 OA
ATOM     81  O   UNL A   1      40.539  22.414  26.695  1.00  0.00    -0.744 OA
ENDBRANCH  75  78
ENDBRANCH  47  71
BRANCH  59  82
ATOM     82  C   UNL A   1      44.578  27.445  34.019  1.00  0.00     0.023 A 
ATOM     83  C   UNL A   1      45.773  28.190  34.006  1.00  0.00     0.012 A 
ATOM     84  C   UNL A   1      44.481  26.289  34.814  1.00  0.00     0.148 A 
ATOM     85  C   UNL A   1      46.862  27.787  34.776  1.00  0.00     0.002 A 
ATOM     86  C   UNL A   1      45.561  25.909  35.602  1.00  0.00     0.091 A 
ATOM     87  F   UNL A   1      43.333  25.598  34.800  1.00  0.00    -0.205 F 
ATOM     88  C   UNL A   1      46.752  26.655  35.582  1.00  0.00     0.022 A 
BRANCH  86  89
ATOM     89  S   UNL A   1      45.496  24.510  36.727  1.00  0.00     0.127 S 
ATOM     90  O   UNL A   1      46.782  24.623  37.416  1.00  0.00    -0.237 OA
ATOM     91  O   UNL A   1      44.332  24.832  37.551  1.00  0.00    -0.237 OA
ATOM     92  O   UNL A   1      45.343  23.326  35.893  1.00  0.00    -0.744 OA
ENDBRANCH  86  89
ENDBRANCH  59  82
ENDBRANCH  33  34
ENDBRANCH  25  28
ENDBRANCH  23  24
ENDBRANCH   1  23
TORSDOF 18
ENDMDL
MODEL 3
REMARK VINA RESULT:     -11.3      1.760      2.221
REMARK SMILES CCC[C@H](C)[C@@H](Nc1ccc(Cl)c(Br)c1)C(=O)NCCCNC(=O)c1ccc(-c2c3nc(c(-c4cccc(S(=O)(=O)[O-])c4F)c4ccc([nH]4)c(-c4cccc(S(=O)(=O)[O-])c4F)c4nc(c(-c5cccc(S(=O)(=O)[O-])c5F)c5ccc2[nH]5)C=C4)C=C3)cc1
REMARK SMILES IDX 20 1 19 2 18 3 16 4 17 5 6 7 4 8 5 9 3 10 2 11 1 12 7 13
REMARK SMILES IDX 8 15 9 16 15 17 10 18 13 19 11 20 14 21 12 22 21 23 22 24
REMARK SMILES IDX 23 25 24 27 25 28 26 29 87 30 27 31 86 32 28 33 29 34 30 35
REMARK SMILES IDX 80 36 31 37 85 38 79 39 81 40 32 41 84 42 78 43 77 44 33 46
REMARK SMILES IDX 65 47 45 48 64 49 46 50 49 51 63 52 82 53 47 54 48 55 62 57
REMARK SMILES IDX 83 58 50 59 34 60 35 61 43 62 36 63 38 64 44 65 37 66 39 67
REMARK SMILES IDX 40 68 41 69 42 70 66 71 67 72 75 73 68 74 70 75 76 76 69 77
REMARK SMILES IDX 71 78 72 79 73 80 74 81 51 82 52 83 60 84 53 85 55 86 61 87
REMARK SMILES IDX 54 88 56 89 57 90 58 91 59 92
REMARK H PARENT 18 6 7 14 22 26 81 45 49 56
REMARK Flexibility Score: inf
ROOT
ATOM      1  C   UNL A   1      35.608  21.856  25.431  1.00  0.00     0.042 C 
ENDROOT
BRANCH   1   2
ATOM      2  C   UNL A   1      34.466  22.013  24.452  1.00  0.00     0.117 C 
BRANCH   2   3
ATOM      3  N   UNL A   1      34.681  23.087  23.498  1.00  0.00    -0.354 N 
ATOM      4  C   UNL A   1      33.912  24.192  23.264  1.00  0.00     0.242 C 
ATOM      5  O   UNL A   1      34.381  25.070  22.531  1.00  0.00    -0.273 OA
ATOM      6  H   UNL A   1      35.491  23.007  22.945  1.00  0.00     0.163 HD
BRANCH   4   7
ATOM      7  C   UNL A   1      32.480  24.333  23.851  1.00  0.00     0.171 C 
BRANCH   7   8
ATOM      8  C   UNL A   1      32.519  25.082  25.232  1.00  0.00     0.018 C 
ATOM      9  C   UNL A   1      32.270  24.118  26.400  1.00  0.00     0.010 C 
BRANCH   8  10
ATOM     10  C   UNL A   1      33.855  25.853  25.434  1.00  0.00     0.006 C 
BRANCH  10  11
ATOM     11  C   UNL A   1      33.739  27.339  25.798  1.00  0.00    -0.003 C 
ATOM     12  C   UNL A   1      32.327  27.826  26.085  1.00  0.00     0.004 C 
ENDBRANCH  10  11
ENDBRANCH   8  10
ENDBRANCH   7   8
BRANCH   7  13
ATOM     13  N   UNL A   1      31.517  24.987  22.922  1.00  0.00    -0.373 N 
ATOM     14  H   UNL A   1      31.565  24.713  21.977  1.00  0.00     0.161 HD
BRANCH  13  15
ATOM     15  C   UNL A   1      30.565  25.936  23.243  1.00  0.00     0.036 A 
ATOM     16  C   UNL A   1      29.356  25.644  23.876  1.00  0.00     0.027 A 
ATOM     17  C   UNL A   1      30.741  27.235  22.736  1.00  0.00     0.043 A 
ATOM     18  C   UNL A   1      28.323  26.588  23.929  1.00  0.00     0.024 A 
ATOM     19  C   UNL A   1      29.709  28.181  22.770  1.00  0.00     0.038 A 
ATOM     20  C   UNL A   1      28.487  27.850  23.356  1.00  0.00     0.055 A 
ATOM     21  Br  UNL A   1      30.026  29.849  21.921  1.00  0.00    -0.049 Br
ATOM     22  Cl  UNL A   1      27.139  28.927  23.382  1.00  0.00    -0.083 Cl
ENDBRANCH  13  15
ENDBRANCH   7  13
ENDBRANCH   4   7
ENDBRANCH   2   3
ENDBRANCH   1   2
BRANCH   1  23
ATOM     23  C   UNL A   1      36.976  21.959  24.779  1.00  0.00     0.118 C 
BRANCH  23  24
ATOM     24  N   UNL A   1      37.852  20.831  25.084  1.00  0.00    -0.352 N 
ATOM     25  C   UNL A   1      39.008  20.804  25.834  1.00  0.00     0.251 C 
ATOM     26  H   UNL A   1      37.578  19.967  24.698  1.00  0.00     0.163 HD
ATOM     27  O   UNL A   1      39.685  19.786  25.887  1.00  0.00    -0.269 OA
BRANCH  25  28
ATOM     28  C   UNL A   1      39.438  22.035  26.531  1.00  0.00     0.039 A 
ATOM     29  C   UNL A   1      38.900  23.267  26.166  1.00  0.00     0.014 A 
ATOM     30  C   UNL A   1      40.453  21.963  27.489  1.00  0.00     0.014 A 
ATOM     31  C   UNL A   1      39.527  24.433  26.582  1.00  0.00     0.010 A 
ATOM     32  C   UNL A   1      41.007  23.144  27.995  1.00  0.00     0.010 A 
ATOM     33  C   UNL A   1      40.597  24.387  27.492  1.00  0.00    -0.014 A 
BRANCH  33  34
ATOM     34  C   UNL A   1      41.267  25.658  27.876  1.00  0.00     0.031 A 
ATOM     35  C   UNL A   1      42.656  25.984  27.387  1.00  0.00     0.074 A 
ATOM     36  C   UNL A   1      40.581  26.561  28.605  1.00  0.00     0.049 A 
ATOM     37  N   UNL A   1      43.356  27.073  27.581  1.00  0.00    -0.248 NA
ATOM     38  C   UNL A   1      43.355  24.967  26.582  1.00  0.00     0.031 C 
ATOM     39  C   UNL A   1      39.234  26.356  29.145  1.00  0.00     0.029 A 
ATOM     40  N   UNL A   1      40.897  27.840  28.985  1.00  0.00    -0.354 N 
ATOM     41  C   UNL A   1      44.585  26.854  26.970  1.00  0.00     0.074 A 
ATOM     42  C   UNL A   1      44.542  25.529  26.394  1.00  0.00     0.031 C 
ATOM     43  C   UNL A   1      38.812  27.492  29.718  1.00  0.00     0.029 A 
ATOM     44  C   UNL A   1      39.877  28.485  29.643  1.00  0.00     0.049 A 
ATOM     45  H   UNL A   1      41.772  28.256  28.803  1.00  0.00     0.167 HD
ATOM     46  C   UNL A   1      45.646  27.690  26.878  1.00  0.00     0.034 A 
ATOM     47  C   UNL A   1      39.802  29.737  30.134  1.00  0.00     0.034 A 
ATOM     48  C   UNL A   1      45.662  29.036  27.383  1.00  0.00     0.049 A 
ATOM     49  C   UNL A   1      40.983  30.650  29.992  1.00  0.00     0.074 A 
ATOM     50  C   UNL A   1      46.679  29.970  27.297  1.00  0.00     0.029 A 
ATOM     51  N   UNL A   1      44.612  29.644  28.051  1.00  0.00    -0.354 N 
ATOM     52  N   UNL A   1      42.111  30.438  29.361  1.00  0.00    -0.248 NA
ATOM     53  C   UNL A   1      40.883  31.971  30.628  1.00  0.00     0.031 C 
ATOM     54  C   UNL A   1      46.243  31.148  27.909  1.00  0.00     0.029 A 
ATOM     55  C   UNL A   1      44.955  30.943  28.379  1.00  0.00     0.049 A 
ATOM     56  H   UNL A   1      43.750  29.216  28.260  1.00  0.00     0.167 HD
ATOM     57  C   UNL A   1      42.856  31.599  29.521  1.00  0.00     0.074 A 
ATOM     58  C   UNL A   1      42.040  32.522  30.283  1.00  0.00     0.031 C 
ATOM     59  C   UNL A   1      44.114  31.864  29.096  1.00  0.00     0.034 A 
BRANCH  46  60
ATOM     60  C   UNL A   1      46.871  27.213  26.151  1.00  0.00     0.023 A 
ATOM     61  C   UNL A   1      47.017  27.519  24.785  1.00  0.00     0.012 A 
ATOM     62  C   UNL A   1      47.924  26.580  26.840  1.00  0.00     0.148 A 
ATOM     63  C   UNL A   1      48.196  27.199  24.110  1.00  0.00     0.002 A 
ATOM     64  C   UNL A   1      49.105  26.287  26.167  1.00  0.00     0.091 A 
ATOM     65  F   UNL A   1      47.755  26.294  28.139  1.00  0.00    -0.205 F 
ATOM     66  C   UNL A   1      49.241  26.593  24.802  1.00  0.00     0.022 A 
BRANCH  64  67
ATOM     67  S   UNL A   1      50.533  25.553  26.974  1.00  0.00     0.127 S 
ATOM     68  O   UNL A   1      49.958  24.330  27.534  1.00  0.00    -0.237 OA
ATOM     69  O   UNL A   1      51.442  25.339  25.849  1.00  0.00    -0.237 OA
ATOM     70  O   UNL A   1      50.987  26.526  27.957  1.00  0.00    -0.744 OA
ENDBRANCH  64  67
ENDBRANCH  46  60
BRANCH  47  71
ATOM     71  C   UNL A   1      38.532  30.203  30.753  1.00  0.00     0.023 A 
ATOM     72  C   UNL A   1      38.335  30.018  32.134  1.00  0.00     0.012 A 
ATOM     73  C   UNL A   1      37.562  30.894  30.002  1.00  0.00     0.148 A 
ATOM     74  C   UNL A   1      37.188  30.510  32.757  1.00  0.00     0.002 A 
ATOM     75  C   UNL A   1      36.445  31.423  30.637  1.00  0.00     0.091 A 
ATOM     76  F   UNL A   1      37.767  31.044  28.685  1.00  0.00    -0.205 F 
ATOM     77  C   UNL A   1      36.251  31.223  32.013  1.00  0.00     0.022 A 
BRANCH  75  78
ATOM     78  S   UNL A   1      35.256  32.460  29.782  1.00  0.00     0.127 S 
ATOM     79  O   UNL A   1      36.106  33.533  29.274  1.00  0.00    -0.237 OA
ATOM     80  O   UNL A   1      34.737  31.549  28.760  1.00  0.00    -0.237 OA
ATOM     81  O   UNL A   1      34.279  32.847  30.789  1.00  0.00    -0.744 OA
ENDBRANCH  75  78
ENDBRANCH  47  71
BRANCH  59  82
ATOM     82  C   UNL A   1      44.707  33.198  29.443  1.00  0.00     0.023 A 
ATOM     83  C   UNL A   1      45.449  33.323  30.633  1.00  0.00     0.012 A 
ATOM     84  C   UNL A   1      44.642  34.275  28.541  1.00  0.00     0.148 A 
ATOM     85  C   UNL A   1      46.120  34.509  30.923  1.00  0.00     0.002 A 
ATOM     86  C   UNL A   1      45.338  35.444  28.822  1.00  0.00     0.091 A 
ATOM     87  F   UNL A   1      43.922  34.127  27.420  1.00  0.00    -0.205 F 
ATOM     88  C   UNL A   1      46.075  35.564  30.013  1.00  0.00     0.022 A 
BRANCH  86  89
ATOM     89  S   UNL A   1      45.402  36.833  27.684  1.00  0.00     0.127 S 
ATOM     90  O   UNL A   1      44.041  37.360  27.783  1.00  0.00    -0.237 OA
ATOM     91  O   UNL A   1      46.430  37.679  28.288  1.00  0.00    -0.237 OA
ATOM     92  O   UNL A   1      45.756  36.275  26.386  1.00  0.00    -0.744 OA
ENDBRANCH  86  89
ENDBRANCH  59  82
ENDBRANCH  33  34
ENDBRANCH  25  28
ENDBRANCH  23  24
ENDBRANCH   1  23
TORSDOF 18
ENDMDL
