MODEL 1
REMARK VINA RESULT:     -11.9      0.000      0.000
REMARK SMILES Cc1cc(C(=O)N2CCO[C@H](C)C2)sc1/C=C/C(=O)NCCCNC(=O)c1ccc(-c2c3nc(c(-c4cccc(S(=O)(=O)[O-])c4F)c4ccc([nH]4)c(-c4cccc(S(=O)(=O)[O-])c4F)c4nc(c(-c5cccc(S(=O)(=O)[O-])c5F)c5ccc2[nH]5)C=C4)C=C3)cc1
REMARK SMILES IDX 22 1 21 2 20 3 18 4 19 5 17 7 16 8 15 9 1 10 2 11 3 12 4 13
REMARK SMILES IDX 14 14 5 15 6 16 7 17 8 18 13 19 9 20 11 21 10 22 12 23 23 24
REMARK SMILES IDX 24 25 25 26 26 28 27 29 28 30 89 31 29 32 88 33 30 34 31 35
REMARK SMILES IDX 32 36 82 37 33 38 87 39 81 40 83 41 34 42 86 43 80 44 79 45
REMARK SMILES IDX 35 47 67 48 47 49 66 50 48 51 51 52 65 53 84 54 49 55 50 56
REMARK SMILES IDX 64 58 85 59 52 60 36 61 37 62 45 63 38 64 40 65 46 66 39 67
REMARK SMILES IDX 41 68 42 69 43 70 44 71 68 72 69 73 77 74 70 75 72 76 78 77
REMARK SMILES IDX 71 78 73 79 74 80 75 81 76 82 53 83 54 84 62 85 55 86 57 87
REMARK SMILES IDX 63 88 56 89 58 90 59 91 60 92 61 93
REMARK H PARENT 20 6 24 27 83 46 51 57
REMARK Flexibility Score: inf
ROOT
ATOM      1  C   UNL A   1      31.380  31.913  26.667  1.00  0.00     0.042 C 
ENDROOT
BRANCH   1   2
ATOM      2  C   UNL A   1      31.579  30.698  25.768  1.00  0.00     0.118 C 
BRANCH   2   3
ATOM      3  N   UNL A   1      30.650  30.700  24.650  1.00  0.00    -0.352 N 
ATOM      4  C   UNL A   1      30.349  29.716  23.761  1.00  0.00     0.244 C 
ATOM      5  O   UNL A   1      29.428  29.867  22.964  1.00  0.00    -0.270 OA
ATOM      6  H   UNL A   1      30.164  31.545  24.515  1.00  0.00     0.163 HD
BRANCH   4   7
ATOM      7  C   UNL A   1      31.052  28.420  23.823  1.00  0.00     0.072 C 
ATOM      8  C   UNL A   1      32.169  28.142  23.133  1.00  0.00     0.025 C 
BRANCH   8   9
ATOM      9  C   UNL A   1      32.825  26.878  23.218  1.00  0.00     0.031 A 
ATOM     10  C   UNL A   1      32.401  25.945  20.855  1.00  0.00     0.046 C 
ATOM     11  C   UNL A   1      32.912  25.873  22.261  1.00  0.00    -0.032 A 
ATOM     12  C   UNL A   1      33.609  24.722  22.771  1.00  0.00     0.029 A 
ATOM     13  C   UNL A   1      34.067  24.880  24.064  1.00  0.00     0.093 A 
ATOM     14  S   UNL A   1      33.652  26.423  24.650  1.00  0.00    -0.130 S 
BRANCH  13  15
ATOM     15  C   UNL A   1      34.966  23.979  24.780  1.00  0.00     0.264 C 
ATOM     16  O   UNL A   1      35.593  24.377  25.766  1.00  0.00    -0.268 OA
BRANCH  15  17
ATOM     17  N   UNL A   1      35.042  22.635  24.426  1.00  0.00    -0.333 N 
ATOM     18  C   UNL A   1      36.348  22.054  24.138  1.00  0.00     0.148 C 
ATOM     19  C   UNL A   1      33.932  21.688  24.272  1.00  0.00     0.151 C 
ATOM     20  C   UNL A   1      36.538  20.812  25.016  1.00  0.00     0.182 C 
ATOM     21  C   UNL A   1      34.195  20.412  25.099  1.00  0.00     0.134 C 
ATOM     22  O   UNL A   1      35.490  19.855  24.781  1.00  0.00    -0.375 OA
ATOM     23  C   UNL A   1      33.152  19.342  24.810  1.00  0.00     0.040 C 
ENDBRANCH  15  17
ENDBRANCH  13  15
ENDBRANCH   8   9
ENDBRANCH   4   7
ENDBRANCH   2   3
ENDBRANCH   1   2
BRANCH   1  24
ATOM     24  C   UNL A   1      32.686  32.484  27.213  1.00  0.00     0.118 C 
BRANCH  24  25
ATOM     25  N   UNL A   1      32.548  33.879  27.607  1.00  0.00    -0.352 N 
ATOM     26  C   UNL A   1      33.159  34.576  28.618  1.00  0.00     0.251 C 
ATOM     27  H   UNL A   1      31.918  34.404  27.062  1.00  0.00     0.163 HD
ATOM     28  O   UNL A   1      32.732  35.686  28.923  1.00  0.00    -0.269 OA
BRANCH  26  29
ATOM     29  C   UNL A   1      34.317  34.004  29.342  1.00  0.00     0.039 A 
ATOM     30  C   UNL A   1      34.081  33.078  30.363  1.00  0.00     0.014 A 
ATOM     31  C   UNL A   1      35.624  34.412  29.061  1.00  0.00     0.014 A 
ATOM     32  C   UNL A   1      35.154  32.528  31.068  1.00  0.00     0.010 A 
ATOM     33  C   UNL A   1      36.697  33.812  29.716  1.00  0.00     0.010 A 
ATOM     34  C   UNL A   1      36.473  32.874  30.735  1.00  0.00    -0.014 A 
BRANCH  34  35
ATOM     35  C   UNL A   1      37.632  32.262  31.435  1.00  0.00     0.031 A 
ATOM     36  C   UNL A   1      38.387  31.124  30.803  1.00  0.00     0.074 A 
ATOM     37  C   UNL A   1      37.949  32.676  32.678  1.00  0.00     0.049 A 
ATOM     38  N   UNL A   1      39.382  30.426  31.289  1.00  0.00    -0.248 NA
ATOM     39  C   UNL A   1      37.952  30.694  29.464  1.00  0.00     0.031 C 
ATOM     40  C   UNL A   1      37.241  33.714  33.429  1.00  0.00     0.029 A 
ATOM     41  N   UNL A   1      38.928  32.251  33.540  1.00  0.00    -0.354 N 
ATOM     42  C   UNL A   1      39.667  29.455  30.336  1.00  0.00     0.074 A 
ATOM     43  C   UNL A   1      38.719  29.634  29.257  1.00  0.00     0.031 C 
ATOM     44  C   UNL A   1      37.807  33.845  34.639  1.00  0.00     0.029 A 
ATOM     45  C   UNL A   1      38.901  32.886  34.760  1.00  0.00     0.049 A 
ATOM     46  H   UNL A   1      39.587  31.558  33.309  1.00  0.00     0.167 HD
ATOM     47  C   UNL A   1      40.646  28.518  30.342  1.00  0.00     0.034 A 
ATOM     48  C   UNL A   1      39.667  32.713  35.856  1.00  0.00     0.034 A 
ATOM     49  C   UNL A   1      41.618  28.377  31.393  1.00  0.00     0.049 A 
ATOM     50  C   UNL A   1      40.784  31.708  35.814  1.00  0.00     0.074 A 
ATOM     51  C   UNL A   1      42.703  27.521  31.452  1.00  0.00     0.029 A 
ATOM     52  N   UNL A   1      41.622  29.110  32.569  1.00  0.00    -0.354 N 
ATOM     53  N   UNL A   1      41.137  30.907  34.836  1.00  0.00    -0.248 NA
ATOM     54  C   UNL A   1      41.634  31.607  37.009  1.00  0.00     0.031 C 
ATOM     55  C   UNL A   1      43.356  27.728  32.672  1.00  0.00     0.029 A 
ATOM     56  C   UNL A   1      42.689  28.725  33.364  1.00  0.00     0.049 A 
ATOM     57  H   UNL A   1      40.963  29.803  32.806  1.00  0.00     0.167 HD
ATOM     58  C   UNL A   1      42.268  30.234  35.285  1.00  0.00     0.074 A 
ATOM     59  C   UNL A   1      42.554  30.738  36.613  1.00  0.00     0.031 C 
ATOM     60  C   UNL A   1      42.993  29.274  34.661  1.00  0.00     0.034 A 
BRANCH  47  61
ATOM     61  C   UNL A   1      40.757  27.614  29.142  1.00  0.00     0.023 A 
ATOM     62  C   UNL A   1      39.943  26.464  29.066  1.00  0.00     0.012 A 
ATOM     63  C   UNL A   1      41.616  27.923  28.071  1.00  0.00     0.148 A 
ATOM     64  C   UNL A   1      40.008  25.619  27.959  1.00  0.00     0.002 A 
ATOM     65  C   UNL A   1      41.644  27.098  26.951  1.00  0.00     0.091 A 
ATOM     66  F   UNL A   1      42.398  29.007  28.169  1.00  0.00    -0.205 F 
ATOM     67  C   UNL A   1      40.849  25.941  26.899  1.00  0.00     0.022 A 
BRANCH  65  68
ATOM     68  S   UNL A   1      42.639  27.467  25.501  1.00  0.00     0.127 S 
ATOM     69  O   UNL A   1      43.988  27.474  26.062  1.00  0.00    -0.237 OA
ATOM     70  O   UNL A   1      42.348  26.329  24.629  1.00  0.00    -0.237 OA
ATOM     71  O   UNL A   1      42.159  28.749  25.003  1.00  0.00    -0.744 OA
ENDBRANCH  65  68
ENDBRANCH  47  61
BRANCH  48  72
ATOM     72  C   UNL A   1      39.446  33.570  37.055  1.00  0.00     0.023 A 
ATOM     73  C   UNL A   1      39.902  34.902  37.041  1.00  0.00     0.012 A 
ATOM     74  C   UNL A   1      38.751  33.093  38.182  1.00  0.00     0.148 A 
ATOM     75  C   UNL A   1      39.695  35.735  38.142  1.00  0.00     0.002 A 
ATOM     76  C   UNL A   1      38.500  33.944  39.252  1.00  0.00     0.091 A 
ATOM     77  F   UNL A   1      38.335  31.818  38.180  1.00  0.00    -0.205 F 
ATOM     78  C   UNL A   1      38.985  35.261  39.241  1.00  0.00     0.022 A 
BRANCH  76  79
ATOM     79  S   UNL A   1      37.475  33.459  40.645  1.00  0.00     0.127 S 
ATOM     80  O   UNL A   1      38.275  32.399  41.251  1.00  0.00    -0.237 OA
ATOM     81  O   UNL A   1      37.406  34.700  41.418  1.00  0.00    -0.237 OA
ATOM     82  O   UNL A   1      36.203  33.045  40.069  1.00  0.00    -0.744 OA
ENDBRANCH  76  79
ENDBRANCH  48  72
BRANCH  60  83
ATOM     83  C   UNL A   1      44.188  28.717  35.389  1.00  0.00     0.023 A 
ATOM     84  C   UNL A   1      45.461  29.280  35.173  1.00  0.00     0.012 A 
ATOM     85  C   UNL A   1      44.037  27.691  36.342  1.00  0.00     0.148 A 
ATOM     86  C   UNL A   1      46.572  28.809  35.871  1.00  0.00     0.002 A 
ATOM     87  C   UNL A   1      45.141  27.257  37.067  1.00  0.00     0.091 A 
ATOM     88  F   UNL A   1      42.821  27.154  36.518  1.00  0.00    -0.205 F 
ATOM     89  C   UNL A   1      46.410  27.808  36.826  1.00  0.00     0.022 A 
BRANCH  87  90
ATOM     90  S   UNL A   1      45.007  26.038  38.380  1.00  0.00     0.127 S 
ATOM     91  O   UNL A   1      44.098  26.702  39.312  1.00  0.00    -0.237 OA
ATOM     92  O   UNL A   1      44.432  24.889  37.681  1.00  0.00    -0.237 OA
ATOM     93  O   UNL A   1      46.364  25.828  38.868  1.00  0.00    -0.744 OA
ENDBRANCH  87  90
ENDBRANCH  60  83
ENDBRANCH  34  35
ENDBRANCH  26  29
ENDBRANCH  24  25
ENDBRANCH   1  24
TORSDOF 16
ENDMDL
MODEL 2
REMARK VINA RESULT:     -11.9      6.230     11.752
REMARK SMILES Cc1cc(C(=O)N2CCO[C@H](C)C2)sc1/C=C/C(=O)NCCCNC(=O)c1ccc(-c2c3nc(c(-c4cccc(S(=O)(=O)[O-])c4F)c4ccc([nH]4)c(-c4cccc(S(=O)(=O)[O-])c4F)c4nc(c(-c5cccc(S(=O)(=O)[O-])c5F)c5ccc2[nH]5)C=C4)C=C3)cc1
REMARK SMILES IDX 22 1 21 2 20 3 18 4 19 5 17 7 16 8 15 9 1 10 2 11 3 12 4 13
REMARK SMILES IDX 14 14 5 15 6 16 7 17 8 18 13 19 9 20 11 21 10 22 12 23 23 24
REMARK SMILES IDX 24 25 25 26 26 28 27 29 28 30 89 31 29 32 88 33 30 34 31 35
REMARK SMILES IDX 32 36 82 37 33 38 87 39 81 40 83 41 34 42 86 43 80 44 79 45
REMARK SMILES IDX 35 47 67 48 47 49 66 50 48 51 51 52 65 53 84 54 49 55 50 56
REMARK SMILES IDX 64 58 85 59 52 60 36 61 37 62 45 63 38 64 40 65 46 66 39 67
REMARK SMILES IDX 41 68 42 69 43 70 44 71 68 72 69 73 77 74 70 75 72 76 78 77
REMARK SMILES IDX 71 78 73 79 74 80 75 81 76 82 53 83 54 84 62 85 55 86 57 87
REMARK SMILES IDX 63 88 56 89 58 90 59 91 60 92 61 93
REMARK H PARENT 20 6 24 27 83 46 51 57
REMARK Flexibility Score: inf
ROOT
ATOM      1  C   UNL A   1      37.462  19.628  24.822  1.00  0.00     0.042 C 
ENDROOT
BRANCH   1   2
ATOM      2  C   UNL A   1      36.132  20.300  25.148  1.00  0.00     0.118 C 
BRANCH   2   3
ATOM      3  N   UNL A   1      35.014  19.387  24.977  1.00  0.00    -0.352 N 
ATOM      4  C   UNL A   1      33.689  19.647  24.818  1.00  0.00     0.244 C 
ATOM      5  O   UNL A   1      32.910  18.737  24.549  1.00  0.00    -0.270 OA
ATOM      6  H   UNL A   1      35.253  18.433  24.977  1.00  0.00     0.163 HD
BRANCH   4   7
ATOM      7  C   UNL A   1      33.196  21.038  24.857  1.00  0.00     0.072 C 
ATOM      8  C   UNL A   1      32.716  21.629  25.962  1.00  0.00     0.025 C 
BRANCH   8   9
ATOM      9  C   UNL A   1      32.249  22.978  25.965  1.00  0.00     0.031 A 
ATOM     10  C   UNL A   1      29.872  22.672  26.908  1.00  0.00     0.046 C 
ATOM     11  C   UNL A   1      31.000  23.468  26.329  1.00  0.00    -0.032 A 
ATOM     12  C   UNL A   1      30.915  24.889  26.121  1.00  0.00     0.029 A 
ATOM     13  C   UNL A   1      32.085  25.453  25.652  1.00  0.00     0.093 A 
ATOM     14  S   UNL A   1      33.281  24.255  25.470  1.00  0.00    -0.130 S 
BRANCH  13  15
ATOM     15  C   UNL A   1      32.372  26.879  25.529  1.00  0.00     0.264 C 
ATOM     16  O   UNL A   1      33.061  27.452  26.377  1.00  0.00    -0.268 OA
BRANCH  15  17
ATOM     17  N   UNL A   1      31.964  27.583  24.399  1.00  0.00    -0.333 N 
ATOM     18  C   UNL A   1      32.396  27.121  23.086  1.00  0.00     0.148 C 
ATOM     19  C   UNL A   1      31.143  28.798  24.352  1.00  0.00     0.151 C 
ATOM     20  C   UNL A   1      31.159  26.933  22.200  1.00  0.00     0.182 C 
ATOM     21  C   UNL A   1      29.956  28.608  23.385  1.00  0.00     0.134 C 
ATOM     22  O   UNL A   1      30.418  28.161  22.091  1.00  0.00    -0.375 OA
ATOM     23  C   UNL A   1      29.199  29.911  23.177  1.00  0.00     0.040 C 
ENDBRANCH  15  17
ENDBRANCH  13  15
ENDBRANCH   8   9
ENDBRANCH   4   7
ENDBRANCH   2   3
ENDBRANCH   1   2
BRANCH   1  24
ATOM     24  C   UNL A   1      38.659  20.302  25.485  1.00  0.00     0.118 C 
BRANCH  24  25
ATOM     25  N   UNL A   1      39.703  19.345  25.826  1.00  0.00    -0.352 N 
ATOM     26  C   UNL A   1      41.018  19.553  26.159  1.00  0.00     0.251 C 
ATOM     27  H   UNL A   1      39.421  18.401  25.815  1.00  0.00     0.163 HD
ATOM     28  O   UNL A   1      41.786  18.595  26.187  1.00  0.00    -0.269 OA
BRANCH  26  29
ATOM     29  C   UNL A   1      41.515  20.911  26.477  1.00  0.00     0.039 A 
ATOM     30  C   UNL A   1      41.818  21.779  25.424  1.00  0.00     0.014 A 
ATOM     31  C   UNL A   1      41.733  21.313  27.797  1.00  0.00     0.014 A 
ATOM     32  C   UNL A   1      42.296  23.064  25.696  1.00  0.00     0.010 A 
ATOM     33  C   UNL A   1      42.143  22.617  28.069  1.00  0.00     0.010 A 
ATOM     34  C   UNL A   1      42.441  23.501  27.022  1.00  0.00    -0.014 A 
BRANCH  34  35
ATOM     35  C   UNL A   1      42.897  24.880  27.334  1.00  0.00     0.031 A 
ATOM     36  C   UNL A   1      41.958  25.863  27.980  1.00  0.00     0.074 A 
ATOM     37  C   UNL A   1      44.130  25.272  26.957  1.00  0.00     0.049 A 
ATOM     38  N   UNL A   1      42.157  27.123  28.271  1.00  0.00    -0.248 NA
ATOM     39  C   UNL A   1      40.610  25.377  28.319  1.00  0.00     0.031 C 
ATOM     40  C   UNL A   1      45.102  24.436  26.250  1.00  0.00     0.029 A 
ATOM     41  N   UNL A   1      44.764  26.482  27.086  1.00  0.00    -0.354 N 
ATOM     42  C   UNL A   1      40.955  27.589  28.790  1.00  0.00     0.074 A 
ATOM     43  C   UNL A   1      40.022  26.484  28.747  1.00  0.00     0.031 C 
ATOM     44  C   UNL A   1      46.208  25.157  26.008  1.00  0.00     0.029 A 
ATOM     45  C   UNL A   1      46.016  26.512  26.518  1.00  0.00     0.049 A 
ATOM     46  H   UNL A   1      44.361  27.255  27.542  1.00  0.00     0.167 HD
ATOM     47  C   UNL A   1      40.661  28.815  29.286  1.00  0.00     0.034 A 
ATOM     48  C   UNL A   1      46.908  27.517  26.415  1.00  0.00     0.034 A 
ATOM     49  C   UNL A   1      41.607  29.895  29.375  1.00  0.00     0.049 A 
ATOM     50  C   UNL A   1      46.580  28.850  27.026  1.00  0.00     0.074 A 
ATOM     51  C   UNL A   1      41.435  31.145  29.942  1.00  0.00     0.029 A 
ATOM     52  N   UNL A   1      42.902  29.855  28.882  1.00  0.00    -0.354 N 
ATOM     53  N   UNL A   1      45.492  29.222  27.658  1.00  0.00    -0.248 NA
ATOM     54  C   UNL A   1      47.614  29.891  26.949  1.00  0.00     0.031 C 
ATOM     55  C   UNL A   1      42.624  31.866  29.781  1.00  0.00     0.029 A 
ATOM     56  C   UNL A   1      43.542  31.058  29.129  1.00  0.00     0.049 A 
ATOM     57  H   UNL A   1      43.308  29.083  28.424  1.00  0.00     0.167 HD
ATOM     58  C   UNL A   1      45.724  30.526  28.081  1.00  0.00     0.074 A 
ATOM     59  C   UNL A   1      47.064  30.871  27.653  1.00  0.00     0.031 C 
ATOM     60  C   UNL A   1      44.896  31.368  28.747  1.00  0.00     0.034 A 
BRANCH  47  61
ATOM     61  C   UNL A   1      39.275  29.034  29.835  1.00  0.00     0.023 A 
ATOM     62  C   UNL A   1      38.979  28.617  31.150  1.00  0.00     0.012 A 
ATOM     63  C   UNL A   1      38.288  29.698  29.083  1.00  0.00     0.148 A 
ATOM     64  C   UNL A   1      37.712  28.825  31.694  1.00  0.00     0.002 A 
ATOM     65  C   UNL A   1      37.040  29.940  29.647  1.00  0.00     0.091 A 
ATOM     66  F   UNL A   1      38.580  30.068  27.828  1.00  0.00    -0.205 F 
ATOM     67  C   UNL A   1      36.748  29.495  30.947  1.00  0.00     0.022 A 
BRANCH  65  68
ATOM     68  S   UNL A   1      35.754  30.862  28.795  1.00  0.00     0.127 S 
ATOM     69  O   UNL A   1      34.996  31.416  29.916  1.00  0.00    -0.237 OA
ATOM     70  O   UNL A   1      36.528  31.845  28.038  1.00  0.00    -0.237 OA
ATOM     71  O   UNL A   1      35.042  29.890  27.975  1.00  0.00    -0.744 OA
ENDBRANCH  65  68
ENDBRANCH  47  61
BRANCH  48  72
ATOM     72  C   UNL A   1      48.228  27.270  25.770  1.00  0.00     0.023 A 
ATOM     73  C   UNL A   1      49.300  26.799  26.553  1.00  0.00     0.012 A 
ATOM     74  C   UNL A   1      48.417  27.451  24.387  1.00  0.00     0.148 A 
ATOM     75  C   UNL A   1      50.544  26.541  25.976  1.00  0.00     0.002 A 
ATOM     76  C   UNL A   1      49.642  27.140  23.808  1.00  0.00     0.091 A 
ATOM     77  F   UNL A   1      47.388  27.911  23.659  1.00  0.00    -0.205 F 
ATOM     78  C   UNL A   1      50.712  26.700  24.603  1.00  0.00     0.022 A 
BRANCH  76  79
ATOM     79  S   UNL A   1      49.904  27.182  22.031  1.00  0.00     0.127 S 
ATOM     80  O   UNL A   1      48.862  26.279  21.552  1.00  0.00    -0.237 OA
ATOM     81  O   UNL A   1      49.683  28.597  21.726  1.00  0.00    -0.237 OA
ATOM     82  O   UNL A   1      51.276  26.736  21.828  1.00  0.00    -0.744 OA
ENDBRANCH  76  79
ENDBRANCH  48  72
BRANCH  60  83
ATOM     83  C   UNL A   1      45.418  32.739  29.085  1.00  0.00     0.023 A 
ATOM     84  C   UNL A   1      46.086  32.949  30.307  1.00  0.00     0.012 A 
ATOM     85  C   UNL A   1      45.314  33.798  28.161  1.00  0.00     0.148 A 
ATOM     86  C   UNL A   1      46.616  34.199  30.619  1.00  0.00     0.002 A 
ATOM     87  C   UNL A   1      45.885  35.030  28.459  1.00  0.00     0.091 A 
ATOM     88  F   UNL A   1      44.656  33.584  27.013  1.00  0.00    -0.205 F 
ATOM     89  C   UNL A   1      46.527  35.235  29.692  1.00  0.00     0.022 A 
BRANCH  87  90
ATOM     90  S   UNL A   1      45.898  36.390  27.286  1.00  0.00     0.127 S 
ATOM     91  O   UNL A   1      46.833  37.319  27.916  1.00  0.00    -0.237 OA
ATOM     92  O   UNL A   1      46.401  35.748  26.071  1.00  0.00    -0.237 OA
ATOM     93  O   UNL A   1      44.519  36.850  27.196  1.00  0.00    -0.744 OA
ENDBRANCH  87  90
ENDBRANCH  60  83
ENDBRANCH  34  35
ENDBRANCH  26  29
ENDBRANCH  24  25
ENDBRANCH   1  24
TORSDOF 16
ENDMDL
MODEL 3
REMARK VINA RESULT:     -11.8      2.763      8.777
REMARK SMILES Cc1cc(C(=O)N2CCO[C@H](C)C2)sc1/C=C/C(=O)NCCCNC(=O)c1ccc(-c2c3nc(c(-c4cccc(S(=O)(=O)[O-])c4F)c4ccc([nH]4)c(-c4cccc(S(=O)(=O)[O-])c4F)c4nc(c(-c5cccc(S(=O)(=O)[O-])c5F)c5ccc2[nH]5)C=C4)C=C3)cc1
REMARK SMILES IDX 22 1 21 2 20 3 18 4 19 5 17 7 16 8 15 9 1 10 2 11 3 12 4 13
REMARK SMILES IDX 14 14 5 15 6 16 7 17 8 18 13 19 9 20 11 21 10 22 12 23 23 24
REMARK SMILES IDX 24 25 25 26 26 28 27 29 28 30 89 31 29 32 88 33 30 34 31 35
REMARK SMILES IDX 32 36 82 37 33 38 87 39 81 40 83 41 34 42 86 43 80 44 79 45
REMARK SMILES IDX 35 47 67 48 47 49 66 50 48 51 51 52 65 53 84 54 49 55 50 56
REMARK SMILES IDX 64 58 85 59 52 60 36 61 37 62 45 63 38 64 40 65 46 66 39 67
REMARK SMILES IDX 41 68 42 69 43 70 44 71 68 72 69 73 77 74 70 75 72 76 78 77
REMARK SMILES IDX 71 78 73 79 74 80 75 81 76 82 53 83 54 84 62 85 55 86 57 87
REMARK SMILES IDX 63 88 56 89 58 90 59 91 60 92 61 93
REMARK H PARENT 20 6 24 27 83 46 51 57
REMARK Flexibility Score: inf
ROOT
ATOM      1  C   UNL A   1      33.291  36.551  28.758  1.00  0.00     0.042 C 
ENDROOT
BRANCH   1   2
ATOM      2  C   UNL A   1      33.845  35.185  28.368  1.00  0.00     0.118 C 
BRANCH   2   3
ATOM      3  N   UNL A   1      35.182  34.977  28.899  1.00  0.00    -0.352 N 
ATOM      4  C   UNL A   1      36.022  33.916  28.763  1.00  0.00     0.244 C 
ATOM      5  O   UNL A   1      37.175  33.987  29.177  1.00  0.00    -0.270 OA
ATOM      6  H   UNL A   1      35.533  35.718  29.442  1.00  0.00     0.163 HD
BRANCH   4   7
ATOM      7  C   UNL A   1      35.589  32.717  28.019  1.00  0.00     0.072 C 
ATOM      8  C   UNL A   1      34.825  31.748  28.544  1.00  0.00     0.025 C 
BRANCH   8   9
ATOM      9  C   UNL A   1      34.422  30.602  27.795  1.00  0.00     0.031 A 
ATOM     10  C   UNL A   1      36.569  29.181  27.878  1.00  0.00     0.046 C 
ATOM     11  C   UNL A   1      35.167  29.481  27.445  1.00  0.00    -0.032 A 
ATOM     12  C   UNL A   1      34.404  28.581  26.622  1.00  0.00     0.029 A 
ATOM     13  C   UNL A   1      33.107  29.000  26.396  1.00  0.00     0.093 A 
ATOM     14  S   UNL A   1      32.823  30.480  27.187  1.00  0.00    -0.130 S 
BRANCH  13  15
ATOM     15  C   UNL A   1      32.041  28.221  25.772  1.00  0.00     0.264 C 
ATOM     16  O   UNL A   1      31.389  27.412  26.437  1.00  0.00    -0.268 OA
BRANCH  15  17
ATOM     17  N   UNL A   1      31.676  28.463  24.450  1.00  0.00    -0.333 N 
ATOM     18  C   UNL A   1      32.370  27.749  23.385  1.00  0.00     0.148 C 
ATOM     19  C   UNL A   1      30.660  29.401  23.962  1.00  0.00     0.151 C 
ATOM     20  C   UNL A   1      31.329  27.048  22.505  1.00  0.00     0.182 C 
ATOM     21  C   UNL A   1      29.679  28.684  23.010  1.00  0.00     0.134 C 
ATOM     22  O   UNL A   1      30.397  27.998  21.960  1.00  0.00    -0.375 OA
ATOM     23  C   UNL A   1      28.731  29.673  22.346  1.00  0.00     0.040 C 
ENDBRANCH  15  17
ENDBRANCH  13  15
ENDBRANCH   8   9
ENDBRANCH   4   7
ENDBRANCH   2   3
ENDBRANCH   1   2
BRANCH   1  24
ATOM     24  C   UNL A   1      33.644  36.963  30.184  1.00  0.00     0.118 C 
BRANCH  24  25
ATOM     25  N   UNL A   1      32.591  36.617  31.128  1.00  0.00    -0.352 N 
ATOM     26  C   UNL A   1      32.541  35.620  32.070  1.00  0.00     0.251 C 
ATOM     27  H   UNL A   1      31.789  37.187  31.084  1.00  0.00     0.163 HD
ATOM     28  O   UNL A   1      31.469  35.357  32.607  1.00  0.00    -0.269 OA
BRANCH  26  29
ATOM     29  C   UNL A   1      33.759  34.862  32.438  1.00  0.00     0.039 A 
ATOM     30  C   UNL A   1      35.007  35.464  32.249  1.00  0.00     0.014 A 
ATOM     31  C   UNL A   1      33.683  33.552  32.916  1.00  0.00     0.014 A 
ATOM     32  C   UNL A   1      36.173  34.769  32.580  1.00  0.00     0.010 A 
ATOM     33  C   UNL A   1      34.841  32.886  33.311  1.00  0.00     0.010 A 
ATOM     34  C   UNL A   1      36.099  33.482  33.136  1.00  0.00    -0.014 A 
BRANCH  34  35
ATOM     35  C   UNL A   1      37.322  32.746  33.545  1.00  0.00     0.031 A 
ATOM     36  C   UNL A   1      38.112  33.192  34.747  1.00  0.00     0.074 A 
ATOM     37  C   UNL A   1      37.770  31.729  32.783  1.00  0.00     0.049 A 
ATOM     38  N   UNL A   1      39.234  32.714  35.218  1.00  0.00    -0.248 NA
ATOM     39  C   UNL A   1      37.587  34.342  35.502  1.00  0.00     0.031 C 
ATOM     40  C   UNL A   1      37.138  31.256  31.550  1.00  0.00     0.029 A 
ATOM     41  N   UNL A   1      38.878  30.931  32.916  1.00  0.00    -0.354 N 
ATOM     42  C   UNL A   1      39.570  33.523  36.297  1.00  0.00     0.074 A 
ATOM     43  C   UNL A   1      38.547  34.542  36.393  1.00  0.00     0.031 C 
ATOM     44  C   UNL A   1      37.867  30.252  31.039  1.00  0.00     0.029 A 
ATOM     45  C   UNL A   1      39.030  30.025  31.892  1.00  0.00     0.049 A 
ATOM     46  H   UNL A   1      39.504  30.999  33.672  1.00  0.00     0.167 HD
ATOM     47  C   UNL A   1      40.616  33.412  37.151  1.00  0.00     0.034 A 
ATOM     48  C   UNL A   1      39.999  29.117  31.662  1.00  0.00     0.034 A 
ATOM     49  C   UNL A   1      41.602  32.367  37.084  1.00  0.00     0.049 A 
ATOM     50  C   UNL A   1      41.118  28.975  32.657  1.00  0.00     0.074 A 
ATOM     51  C   UNL A   1      42.648  32.114  37.952  1.00  0.00     0.029 A 
ATOM     52  N   UNL A   1      41.665  31.402  36.090  1.00  0.00    -0.354 N 
ATOM     53  N   UNL A   1      41.328  29.649  33.762  1.00  0.00    -0.248 NA
ATOM     54  C   UNL A   1      42.110  27.923  32.397  1.00  0.00     0.031 C 
ATOM     55  C   UNL A   1      43.352  31.002  37.477  1.00  0.00     0.029 A 
ATOM     56  C   UNL A   1      42.734  30.552  36.321  1.00  0.00     0.049 A 
ATOM     57  H   UNL A   1      41.042  31.332  35.331  1.00  0.00     0.167 HD
ATOM     58  C   UNL A   1      42.456  29.081  34.346  1.00  0.00     0.074 A 
ATOM     59  C   UNL A   1      42.869  27.994  33.483  1.00  0.00     0.031 C 
ATOM     60  C   UNL A   1      43.100  29.439  35.483  1.00  0.00     0.034 A 
BRANCH  47  61
ATOM     61  C   UNL A   1      40.712  34.411  38.275  1.00  0.00     0.023 A 
ATOM     62  C   UNL A   1      41.516  35.558  38.114  1.00  0.00     0.012 A 
ATOM     63  C   UNL A   1      39.970  34.249  39.461  1.00  0.00     0.148 A 
ATOM     64  C   UNL A   1      41.609  36.511  39.128  1.00  0.00     0.002 A 
ATOM     65  C   UNL A   1      40.034  35.225  40.450  1.00  0.00     0.091 A 
ATOM     66  F   UNL A   1      39.228  33.143  39.606  1.00  0.00    -0.205 F 
ATOM     67  C   UNL A   1      40.860  36.349  40.290  1.00  0.00     0.022 A 
BRANCH  65  68
ATOM     68  S   UNL A   1      39.050  35.147  41.952  1.00  0.00     0.127 S 
ATOM     69  O   UNL A   1      39.816  34.197  42.757  1.00  0.00    -0.237 OA
ATOM     70  O   UNL A   1      39.102  36.529  42.428  1.00  0.00    -0.237 OA
ATOM     71  O   UNL A   1      37.727  34.698  41.540  1.00  0.00    -0.744 OA
ENDBRANCH  65  68
ENDBRANCH  47  61
BRANCH  48  72
ATOM     72  C   UNL A   1      39.906  28.220  30.476  1.00  0.00     0.023 A 
ATOM     73  C   UNL A   1      38.976  27.162  30.484  1.00  0.00     0.012 A 
ATOM     74  C   UNL A   1      40.692  28.434  29.328  1.00  0.00     0.148 A 
ATOM     75  C   UNL A   1      38.852  26.316  29.382  1.00  0.00     0.002 A 
ATOM     76  C   UNL A   1      40.525  27.622  28.212  1.00  0.00     0.091 A 
ATOM     77  F   UNL A   1      41.580  29.440  29.344  1.00  0.00    -0.205 F 
ATOM     78  C   UNL A   1      39.617  26.552  28.243  1.00  0.00     0.022 A 
BRANCH  76  79
ATOM     79  S   UNL A   1      41.366  27.941  26.657  1.00  0.00     0.127 S 
ATOM     80  O   UNL A   1      42.764  27.982  27.076  1.00  0.00    -0.237 OA
ATOM     81  O   UNL A   1      40.993  26.768  25.865  1.00  0.00    -0.237 OA
ATOM     82  O   UNL A   1      40.813  29.195  26.163  1.00  0.00    -0.744 OA
ENDBRANCH  76  79
ENDBRANCH  48  72
BRANCH  60  83
ATOM     83  C   UNL A   1      44.308  28.634  35.885  1.00  0.00     0.023 A 
ATOM     84  C   UNL A   1      45.583  29.012  35.420  1.00  0.00     0.012 A 
ATOM     85  C   UNL A   1      44.189  27.553  36.780  1.00  0.00     0.148 A 
ATOM     86  C   UNL A   1      46.718  28.307  35.816  1.00  0.00     0.002 A 
ATOM     87  C   UNL A   1      45.330  26.884  37.207  1.00  0.00     0.091 A 
ATOM     88  F   UNL A   1      42.964  27.196  37.194  1.00  0.00    -0.205 F 
ATOM     89  C   UNL A   1      46.594  27.252  36.718  1.00  0.00     0.022 A 
BRANCH  87  90
ATOM     90  S   UNL A   1      45.270  25.575  38.437  1.00  0.00     0.127 S 
ATOM     91  O   UNL A   1      44.516  24.540  37.734  1.00  0.00    -0.237 OA
ATOM     92  O   UNL A   1      46.687  25.270  38.636  1.00  0.00    -0.237 OA
ATOM     93  O   UNL A   1      44.611  26.153  39.600  1.00  0.00    -0.744 OA
ENDBRANCH  87  90
ENDBRANCH  60  83
ENDBRANCH  34  35
ENDBRANCH  26  29
ENDBRANCH  24  25
ENDBRANCH   1  24
TORSDOF 16
ENDMDL
