MODEL 1
REMARK VINA RESULT:     -11.5      0.000      0.000
REMARK SMILES CC[C@@H](C)[C@H](C(=O)NCCCNC(=O)c1ccc(-c2c3nc(c(-c4cccc(S(=O)(=O)[O-])c4F)c4ccc([nH]4)c(-c4cccc(S(=O)(=O)[O-])c4F)c4nc(c(-c5cccc(S(=O)(=O)[O-])c5F)c5ccc2[nH]5)C=C4)C=C3)cc1)S(=O)(=O)c1cccc(OC)c1
REMARK SMILES IDX 10 1 9 2 8 3 6 4 7 5 5 7 3 8 4 9 2 10 1 11 78 12 79 13 80 14
REMARK SMILES IDX 81 15 82 16 88 17 83 18 85 19 84 20 86 21 87 22 11 23 12 24
REMARK SMILES IDX 13 25 14 27 15 28 16 29 77 30 17 31 76 32 18 33 19 34 20 35
REMARK SMILES IDX 70 36 21 37 75 38 69 39 71 40 22 41 74 42 68 43 67 44 23 46
REMARK SMILES IDX 55 47 35 48 54 49 36 50 39 51 53 52 72 53 37 54 38 55 52 57
REMARK SMILES IDX 73 58 40 59 24 60 25 61 33 62 26 63 28 64 34 65 27 66 29 67
REMARK SMILES IDX 30 68 31 69 32 70 56 71 57 72 65 73 58 74 60 75 66 76 59 77
REMARK SMILES IDX 61 78 62 79 63 80 64 81 41 82 42 83 50 84 43 85 45 86 51 87
REMARK SMILES IDX 44 88 46 89 47 90 48 91 49 92
REMARK H PARENT 8 6 12 26 71 45 39 56
REMARK Flexibility Score: inf
ROOT
ATOM      1  C   UNL A   1      31.779  29.224  26.986  1.00  0.00     0.042 C 
ENDROOT
BRANCH   1   2
ATOM      2  C   UNL A   1      32.153  27.758  27.105  1.00  0.00     0.117 C 
BRANCH   2   3
ATOM      3  N   UNL A   1      31.017  26.881  26.887  1.00  0.00    -0.355 N 
ATOM      4  C   UNL A   1      30.878  25.636  26.375  1.00  0.00     0.239 C 
ATOM      5  O   UNL A   1      29.716  25.211  26.399  1.00  0.00    -0.274 OA
ATOM      6  H   UNL A   1      30.163  27.278  27.173  1.00  0.00     0.163 HD
BRANCH   4   7
ATOM      7  C   UNL A   1      31.989  24.762  25.819  1.00  0.00     0.205 C 
BRANCH   7   8
ATOM      8  C   UNL A   1      32.441  23.444  26.511  1.00  0.00     0.014 C 
ATOM      9  C   UNL A   1      33.962  23.253  26.625  1.00  0.00     0.009 C 
BRANCH   8  10
ATOM     10  C   UNL A   1      31.593  22.236  26.006  1.00  0.00     0.002 C 
ATOM     11  C   UNL A   1      32.317  21.131  25.251  1.00  0.00     0.004 C 
ENDBRANCH   8  10
ENDBRANCH   7   8
BRANCH   7  12
ATOM     12  S   UNL A   1      31.919  24.743  24.030  1.00  0.00     0.190 S 
ATOM     13  O   UNL A   1      33.137  24.175  23.484  1.00  0.00    -0.223 OA
ATOM     14  O   UNL A   1      30.647  24.137  23.660  1.00  0.00    -0.223 OA
BRANCH  12  15
ATOM     15  C   UNL A   1      31.869  26.423  23.424  1.00  0.00     0.071 A 
ATOM     16  C   UNL A   1      33.029  27.202  23.497  1.00  0.00     0.020 A 
ATOM     17  C   UNL A   1      30.671  26.977  22.955  1.00  0.00     0.066 A 
ATOM     18  C   UNL A   1      33.005  28.519  23.045  1.00  0.00     0.005 A 
ATOM     19  C   UNL A   1      30.664  28.278  22.447  1.00  0.00     0.120 A 
ATOM     20  C   UNL A   1      31.833  29.043  22.503  1.00  0.00     0.046 A 
BRANCH  19  21
ATOM     21  O   UNL A   1      29.601  28.917  21.874  1.00  0.00    -0.497 OA
ATOM     22  C   UNL A   1      29.530  30.331  22.002  1.00  0.00     0.278 C 
ENDBRANCH  19  21
ENDBRANCH  12  15
ENDBRANCH   7  12
ENDBRANCH   4   7
ENDBRANCH   2   3
ENDBRANCH   1   2
BRANCH   1  23
ATOM     23  C   UNL A   1      32.862  30.061  26.329  1.00  0.00     0.118 C 
BRANCH  23  24
ATOM     24  N   UNL A   1      32.829  31.456  26.755  1.00  0.00    -0.352 N 
ATOM     25  C   UNL A   1      33.676  32.165  27.573  1.00  0.00     0.251 C 
ATOM     26  H   UNL A   1      32.075  31.977  26.396  1.00  0.00     0.163 HD
ATOM     27  O   UNL A   1      33.361  33.300  27.924  1.00  0.00    -0.269 OA
BRANCH  25  28
ATOM     28  C   UNL A   1      34.931  31.559  28.064  1.00  0.00     0.039 A 
ATOM     29  C   UNL A   1      36.075  32.354  28.169  1.00  0.00     0.014 A 
ATOM     30  C   UNL A   1      34.981  30.217  28.436  1.00  0.00     0.014 A 
ATOM     31  C   UNL A   1      37.238  31.822  28.731  1.00  0.00     0.010 A 
ATOM     32  C   UNL A   1      36.090  29.731  29.115  1.00  0.00     0.010 A 
ATOM     33  C   UNL A   1      37.240  30.520  29.255  1.00  0.00    -0.014 A 
BRANCH  33  34
ATOM     34  C   UNL A   1      38.430  29.944  29.933  1.00  0.00     0.031 A 
ATOM     35  C   UNL A   1      38.795  30.405  31.321  1.00  0.00     0.074 A 
ATOM     36  C   UNL A   1      39.242  29.101  29.263  1.00  0.00     0.049 A 
ATOM     37  N   UNL A   1      39.856  30.125  32.031  1.00  0.00    -0.248 NA
ATOM     38  C   UNL A   1      37.872  31.348  31.977  1.00  0.00     0.031 C 
ATOM     39  C   UNL A   1      39.053  28.661  27.879  1.00  0.00     0.029 A 
ATOM     40  N   UNL A   1      40.405  28.484  29.649  1.00  0.00    -0.354 N 
ATOM     41  C   UNL A   1      39.758  30.902  33.180  1.00  0.00     0.074 A 
ATOM     42  C   UNL A   1      38.560  31.700  33.054  1.00  0.00     0.031 C 
ATOM     43  C   UNL A   1      40.053  27.830  27.539  1.00  0.00     0.029 A 
ATOM     44  C   UNL A   1      40.967  27.700  28.667  1.00  0.00     0.049 A 
ATOM     45  H   UNL A   1      40.799  28.591  30.544  1.00  0.00     0.167 HD
ATOM     46  C   UNL A   1      40.568  30.922  34.264  1.00  0.00     0.034 A 
ATOM     47  C   UNL A   1      42.090  26.956  28.681  1.00  0.00     0.034 A 
ATOM     48  C   UNL A   1      41.699  30.051  34.428  1.00  0.00     0.049 A 
ATOM     49  C   UNL A   1      42.906  26.901  29.944  1.00  0.00     0.074 A 
ATOM     50  C   UNL A   1      42.519  29.903  35.532  1.00  0.00     0.029 A 
ATOM     51  N   UNL A   1      42.154  29.164  33.466  1.00  0.00    -0.354 N 
ATOM     52  N   UNL A   1      42.709  27.527  31.079  1.00  0.00    -0.248 NA
ATOM     53  C   UNL A   1      44.075  26.008  29.945  1.00  0.00     0.031 C 
ATOM     54  C   UNL A   1      43.470  28.920  35.236  1.00  0.00     0.029 A 
ATOM     55  C   UNL A   1      43.237  28.456  33.950  1.00  0.00     0.049 A 
ATOM     56  H   UNL A   1      41.764  29.055  32.568  1.00  0.00     0.167 HD
ATOM     57  C   UNL A   1      43.705  27.078  31.939  1.00  0.00     0.074 A 
ATOM     58  C   UNL A   1      44.491  26.112  31.200  1.00  0.00     0.031 C 
ATOM     59  C   UNL A   1      43.961  27.448  33.219  1.00  0.00     0.034 A 
BRANCH  46  60
ATOM     60  C   UNL A   1      40.206  31.855  35.389  1.00  0.00     0.023 A 
ATOM     61  C   UNL A   1      40.914  33.066  35.540  1.00  0.00     0.012 A 
ATOM     62  C   UNL A   1      39.153  31.559  36.274  1.00  0.00     0.148 A 
ATOM     63  C   UNL A   1      40.611  33.945  36.577  1.00  0.00     0.002 A 
ATOM     64  C   UNL A   1      38.826  32.463  37.281  1.00  0.00     0.091 A 
ATOM     65  F   UNL A   1      38.503  30.394  36.133  1.00  0.00    -0.205 F 
ATOM     66  C   UNL A   1      39.561  33.648  37.441  1.00  0.00     0.022 A 
BRANCH  64  67
ATOM     67  S   UNL A   1      37.442  32.206  38.398  1.00  0.00     0.127 S 
ATOM     68  O   UNL A   1      37.950  32.796  39.636  1.00  0.00    -0.237 OA
ATOM     69  O   UNL A   1      36.375  32.972  37.751  1.00  0.00    -0.237 OA
ATOM     70  O   UNL A   1      37.218  30.768  38.432  1.00  0.00    -0.744 OA
ENDBRANCH  64  67
ENDBRANCH  46  60
BRANCH  47  71
ATOM     71  C   UNL A   1      42.447  26.125  27.495  1.00  0.00     0.023 A 
ATOM     72  C   UNL A   1      43.214  26.701  26.463  1.00  0.00     0.012 A 
ATOM     73  C   UNL A   1      42.076  24.770  27.398  1.00  0.00     0.148 A 
ATOM     74  C   UNL A   1      43.578  25.953  25.342  1.00  0.00     0.002 A 
ATOM     75  C   UNL A   1      42.487  24.017  26.304  1.00  0.00     0.091 A 
ATOM     76  F   UNL A   1      41.336  24.241  28.384  1.00  0.00    -0.205 F 
ATOM     77  C   UNL A   1      43.224  24.610  25.268  1.00  0.00     0.022 A 
BRANCH  75  78
ATOM     78  S   UNL A   1      42.190  22.247  26.197  1.00  0.00     0.127 S 
ATOM     79  O   UNL A   1      42.725  21.775  27.470  1.00  0.00    -0.237 OA
ATOM     80  O   UNL A   1      40.734  22.186  26.079  1.00  0.00    -0.237 OA
ATOM     81  O   UNL A   1      42.901  21.810  25.003  1.00  0.00    -0.744 OA
ENDBRANCH  75  78
ENDBRANCH  47  71
BRANCH  59  82
ATOM     82  C   UNL A   1      45.114  26.785  33.919  1.00  0.00     0.023 A 
ATOM     83  C   UNL A   1      46.390  27.377  33.868  1.00  0.00     0.012 A 
ATOM     84  C   UNL A   1      44.912  25.633  34.704  1.00  0.00     0.148 A 
ATOM     85  C   UNL A   1      47.457  26.819  34.571  1.00  0.00     0.002 A 
ATOM     86  C   UNL A   1      45.969  25.107  35.436  1.00  0.00     0.091 A 
ATOM     87  F   UNL A   1      43.693  25.074  34.721  1.00  0.00    -0.205 F 
ATOM     88  C   UNL A   1      47.244  25.693  35.363  1.00  0.00     0.022 A 
BRANCH  86  89
ATOM     89  S   UNL A   1      45.758  23.718  36.556  1.00  0.00     0.127 S 
ATOM     90  O   UNL A   1      44.950  24.313  37.619  1.00  0.00    -0.237 OA
ATOM     91  O   UNL A   1      45.049  22.747  35.722  1.00  0.00    -0.237 OA
ATOM     92  O   UNL A   1      47.103  23.311  36.938  1.00  0.00    -0.744 OA
ENDBRANCH  86  89
ENDBRANCH  59  82
ENDBRANCH  33  34
ENDBRANCH  25  28
ENDBRANCH  23  24
ENDBRANCH   1  23
TORSDOF 18
ENDMDL
MODEL 2
REMARK VINA RESULT:     -11.4      2.488      8.329
REMARK SMILES CC[C@@H](C)[C@H](C(=O)NCCCNC(=O)c1ccc(-c2c3nc(c(-c4cccc(S(=O)(=O)[O-])c4F)c4ccc([nH]4)c(-c4cccc(S(=O)(=O)[O-])c4F)c4nc(c(-c5cccc(S(=O)(=O)[O-])c5F)c5ccc2[nH]5)C=C4)C=C3)cc1)S(=O)(=O)c1cccc(OC)c1
REMARK SMILES IDX 10 1 9 2 8 3 6 4 7 5 5 7 3 8 4 9 2 10 1 11 78 12 79 13 80 14
REMARK SMILES IDX 81 15 82 16 88 17 83 18 85 19 84 20 86 21 87 22 11 23 12 24
REMARK SMILES IDX 13 25 14 27 15 28 16 29 77 30 17 31 76 32 18 33 19 34 20 35
REMARK SMILES IDX 70 36 21 37 75 38 69 39 71 40 22 41 74 42 68 43 67 44 23 46
REMARK SMILES IDX 55 47 35 48 54 49 36 50 39 51 53 52 72 53 37 54 38 55 52 57
REMARK SMILES IDX 73 58 40 59 24 60 25 61 33 62 26 63 28 64 34 65 27 66 29 67
REMARK SMILES IDX 30 68 31 69 32 70 56 71 57 72 65 73 58 74 60 75 66 76 59 77
REMARK SMILES IDX 61 78 62 79 63 80 64 81 41 82 42 83 50 84 43 85 45 86 51 87
REMARK SMILES IDX 44 88 46 89 47 90 48 91 49 92
REMARK H PARENT 8 6 12 26 71 45 39 56
REMARK Flexibility Score: inf
ROOT
ATOM      1  C   UNL A   1      31.460  32.019  26.841  1.00  0.00     0.042 C 
ENDROOT
BRANCH   1   2
ATOM      2  C   UNL A   1      31.766  30.727  26.105  1.00  0.00     0.117 C 
BRANCH   2   3
ATOM      3  N   UNL A   1      33.109  30.246  26.374  1.00  0.00    -0.355 N 
ATOM      4  C   UNL A   1      33.744  29.069  26.162  1.00  0.00     0.239 C 
ATOM      5  O   UNL A   1      34.933  29.072  26.506  1.00  0.00    -0.274 OA
ATOM      6  H   UNL A   1      33.683  30.922  26.802  1.00  0.00     0.163 HD
BRANCH   4   7
ATOM      7  C   UNL A   1      33.139  27.818  25.548  1.00  0.00     0.205 C 
BRANCH   7   8
ATOM      8  C   UNL A   1      32.116  26.926  26.310  1.00  0.00     0.014 C 
ATOM      9  C   UNL A   1      31.466  27.581  27.540  1.00  0.00     0.009 C 
BRANCH   8  10
ATOM     10  C   UNL A   1      32.659  25.471  26.463  1.00  0.00     0.002 C 
ATOM     11  C   UNL A   1      31.643  24.352  26.631  1.00  0.00     0.004 C 
ENDBRANCH   8  10
ENDBRANCH   7   8
BRANCH   7  12
ATOM     12  S   UNL A   1      32.834  28.075  23.803  1.00  0.00     0.190 S 
ATOM     13  O   UNL A   1      33.362  29.359  23.383  1.00  0.00    -0.223 OA
ATOM     14  O   UNL A   1      33.293  26.879  23.110  1.00  0.00    -0.223 OA
BRANCH  12  15
ATOM     15  C   UNL A   1      31.073  28.174  23.520  1.00  0.00     0.071 A 
ATOM     16  C   UNL A   1      30.286  27.043  23.760  1.00  0.00     0.020 A 
ATOM     17  C   UNL A   1      30.499  29.339  22.992  1.00  0.00     0.066 A 
ATOM     18  C   UNL A   1      28.914  27.095  23.529  1.00  0.00     0.005 A 
ATOM     19  C   UNL A   1      29.115  29.408  22.818  1.00  0.00     0.120 A 
ATOM     20  C   UNL A   1      28.332  28.280  23.082  1.00  0.00     0.046 A 
BRANCH  19  21
ATOM     21  O   UNL A   1      28.406  30.500  22.404  1.00  0.00    -0.497 OA
ATOM     22  C   UNL A   1      27.907  31.383  23.401  1.00  0.00     0.278 C 
ENDBRANCH  19  21
ENDBRANCH  12  15
ENDBRANCH   7  12
ENDBRANCH   4   7
ENDBRANCH   2   3
ENDBRANCH   1   2
BRANCH   1  23
ATOM     23  C   UNL A   1      32.703  32.702  27.381  1.00  0.00     0.118 C 
BRANCH  23  24
ATOM     24  N   UNL A   1      32.481  34.112  27.687  1.00  0.00    -0.352 N 
ATOM     25  C   UNL A   1      33.067  34.930  28.623  1.00  0.00     0.251 C 
ATOM     26  H   UNL A   1      31.798  34.550  27.129  1.00  0.00     0.163 HD
ATOM     27  O   UNL A   1      32.605  36.054  28.811  1.00  0.00    -0.269 OA
BRANCH  25  28
ATOM     28  C   UNL A   1      34.211  34.455  29.428  1.00  0.00     0.039 A 
ATOM     29  C   UNL A   1      33.965  33.759  30.614  1.00  0.00     0.014 A 
ATOM     30  C   UNL A   1      35.523  34.677  29.011  1.00  0.00     0.014 A 
ATOM     31  C   UNL A   1      35.033  33.211  31.329  1.00  0.00     0.010 A 
ATOM     32  C   UNL A   1      36.567  34.021  29.647  1.00  0.00     0.010 A 
ATOM     33  C   UNL A   1      36.341  33.295  30.824  1.00  0.00    -0.014 A 
BRANCH  33  34
ATOM     34  C   UNL A   1      37.494  32.658  31.511  1.00  0.00     0.031 A 
ATOM     35  C   UNL A   1      38.236  31.533  30.837  1.00  0.00     0.074 A 
ATOM     36  C   UNL A   1      37.797  33.008  32.778  1.00  0.00     0.049 A 
ATOM     37  N   UNL A   1      39.181  30.765  31.313  1.00  0.00    -0.248 NA
ATOM     38  C   UNL A   1      37.828  31.190  29.462  1.00  0.00     0.031 C 
ATOM     39  C   UNL A   1      37.087  34.009  33.576  1.00  0.00     0.029 A 
ATOM     40  N   UNL A   1      38.769  32.540  33.626  1.00  0.00    -0.354 N 
ATOM     41  C   UNL A   1      39.429  29.816  30.328  1.00  0.00     0.074 A 
ATOM     42  C   UNL A   1      38.508  30.074  29.245  1.00  0.00     0.031 C 
ATOM     43  C   UNL A   1      37.658  34.094  34.789  1.00  0.00     0.029 A 
ATOM     44  C   UNL A   1      38.754  33.137  34.866  1.00  0.00     0.049 A 
ATOM     45  H   UNL A   1      39.416  31.843  33.371  1.00  0.00     0.167 HD
ATOM     46  C   UNL A   1      40.369  28.842  30.303  1.00  0.00     0.034 A 
ATOM     47  C   UNL A   1      39.543  32.937  35.940  1.00  0.00     0.034 A 
ATOM     48  C   UNL A   1      41.349  28.658  31.337  1.00  0.00     0.049 A 
ATOM     49  C   UNL A   1      40.659  31.932  35.841  1.00  0.00     0.074 A 
ATOM     50  C   UNL A   1      42.418  27.780  31.363  1.00  0.00     0.029 A 
ATOM     51  N   UNL A   1      41.392  29.380  32.518  1.00  0.00    -0.354 N 
ATOM     52  N   UNL A   1      40.977  31.150  34.837  1.00  0.00    -0.248 NA
ATOM     53  C   UNL A   1      41.551  31.809  37.004  1.00  0.00     0.031 C 
ATOM     54  C   UNL A   1      43.111  27.977  32.563  1.00  0.00     0.029 A 
ATOM     55  C   UNL A   1      42.474  28.979  33.279  1.00  0.00     0.049 A 
ATOM     56  H   UNL A   1      40.746  30.076  32.779  1.00  0.00     0.167 HD
ATOM     57  C   UNL A   1      42.123  30.469  35.233  1.00  0.00     0.074 A 
ATOM     58  C   UNL A   1      42.455  30.947  36.559  1.00  0.00     0.031 C 
ATOM     59  C   UNL A   1      42.825  29.519  34.568  1.00  0.00     0.034 A 
BRANCH  46  60
ATOM     60  C   UNL A   1      40.431  27.962  29.083  1.00  0.00     0.023 A 
ATOM     61  C   UNL A   1      39.494  26.918  28.935  1.00  0.00     0.012 A 
ATOM     62  C   UNL A   1      41.385  28.180  28.072  1.00  0.00     0.148 A 
ATOM     63  C   UNL A   1      39.532  26.079  27.823  1.00  0.00     0.002 A 
ATOM     64  C   UNL A   1      41.389  27.367  26.943  1.00  0.00     0.091 A 
ATOM     65  F   UNL A   1      42.283  29.162  28.238  1.00  0.00    -0.205 F 
ATOM     66  C   UNL A   1      40.473  26.310  26.823  1.00  0.00     0.022 A 
BRANCH  64  67
ATOM     67  S   UNL A   1      42.513  27.630  25.566  1.00  0.00     0.127 S 
ATOM     68  O   UNL A   1      41.993  28.871  24.995  1.00  0.00    -0.237 OA
ATOM     69  O   UNL A   1      43.804  27.764  26.242  1.00  0.00    -0.237 OA
ATOM     70  O   UNL A   1      42.392  26.450  24.722  1.00  0.00    -0.744 OA
ENDBRANCH  64  67
ENDBRANCH  46  60
BRANCH  47  71
ATOM     71  C   UNL A   1      39.369  33.779  37.158  1.00  0.00     0.023 A 
ATOM     72  C   UNL A   1      39.824  35.113  37.137  1.00  0.00     0.012 A 
ATOM     73  C   UNL A   1      38.725  33.293  38.312  1.00  0.00     0.148 A 
ATOM     74  C   UNL A   1      39.669  35.937  38.253  1.00  0.00     0.002 A 
ATOM     75  C   UNL A   1      38.527  34.135  39.401  1.00  0.00     0.091 A 
ATOM     76  F   UNL A   1      38.309  32.018  38.319  1.00  0.00    -0.205 F 
ATOM     77  C   UNL A   1      39.012  35.452  39.379  1.00  0.00     0.022 A 
BRANCH  75  78
ATOM     78  S   UNL A   1      37.570  33.632  40.836  1.00  0.00     0.127 S 
ATOM     79  O   UNL A   1      38.489  32.712  41.501  1.00  0.00    -0.237 OA
ATOM     80  O   UNL A   1      37.363  34.904  41.529  1.00  0.00    -0.237 OA
ATOM     81  O   UNL A   1      36.351  33.042  40.300  1.00  0.00    -0.744 OA
ENDBRANCH  75  78
ENDBRANCH  47  71
BRANCH  59  82
ATOM     82  C   UNL A   1      44.043  28.953  35.241  1.00  0.00     0.023 A 
ATOM     83  C   UNL A   1      45.304  29.534  34.999  1.00  0.00     0.012 A 
ATOM     84  C   UNL A   1      43.926  27.913  36.184  1.00  0.00     0.148 A 
ATOM     85  C   UNL A   1      46.435  29.071  35.669  1.00  0.00     0.002 A 
ATOM     86  C   UNL A   1      45.050  27.487  36.879  1.00  0.00     0.091 A 
ATOM     87  F   UNL A   1      42.720  27.361  36.383  1.00  0.00    -0.205 F 
ATOM     88  C   UNL A   1      46.306  28.058  36.617  1.00  0.00     0.022 A 
BRANCH  86  89
ATOM     89  S   UNL A   1      44.956  26.256  38.185  1.00  0.00     0.127 S 
ATOM     90  O   UNL A   1      44.510  25.074  37.448  1.00  0.00    -0.237 OA
ATOM     91  O   UNL A   1      46.339  26.194  38.659  1.00  0.00    -0.237 OA
ATOM     92  O   UNL A   1      44.011  26.785  39.159  1.00  0.00    -0.744 OA
ENDBRANCH  86  89
ENDBRANCH  59  82
ENDBRANCH  33  34
ENDBRANCH  25  28
ENDBRANCH  23  24
ENDBRANCH   1  23
TORSDOF 18
ENDMDL
MODEL 3
REMARK VINA RESULT:     -11.3      1.032      3.082
REMARK SMILES CC[C@@H](C)[C@H](C(=O)NCCCNC(=O)c1ccc(-c2c3nc(c(-c4cccc(S(=O)(=O)[O-])c4F)c4ccc([nH]4)c(-c4cccc(S(=O)(=O)[O-])c4F)c4nc(c(-c5cccc(S(=O)(=O)[O-])c5F)c5ccc2[nH]5)C=C4)C=C3)cc1)S(=O)(=O)c1cccc(OC)c1
REMARK SMILES IDX 10 1 9 2 8 3 6 4 7 5 5 7 3 8 4 9 2 10 1 11 78 12 79 13 80 14
REMARK SMILES IDX 81 15 82 16 88 17 83 18 85 19 84 20 86 21 87 22 11 23 12 24
REMARK SMILES IDX 13 25 14 27 15 28 16 29 77 30 17 31 76 32 18 33 19 34 20 35
REMARK SMILES IDX 70 36 21 37 75 38 69 39 71 40 22 41 74 42 68 43 67 44 23 46
REMARK SMILES IDX 55 47 35 48 54 49 36 50 39 51 53 52 72 53 37 54 38 55 52 57
REMARK SMILES IDX 73 58 40 59 24 60 25 61 33 62 26 63 28 64 34 65 27 66 29 67
REMARK SMILES IDX 30 68 31 69 32 70 56 71 57 72 65 73 58 74 60 75 66 76 59 77
REMARK SMILES IDX 61 78 62 79 63 80 64 81 41 82 42 83 50 84 43 85 45 86 51 87
REMARK SMILES IDX 44 88 46 89 47 90 48 91 49 92
REMARK H PARENT 8 6 12 26 71 45 39 56
REMARK Flexibility Score: inf
ROOT
ATOM      1  C   UNL A   1      31.875  28.870  26.579  1.00  0.00     0.042 C 
ENDROOT
BRANCH   1   2
ATOM      2  C   UNL A   1      32.375  27.467  26.869  1.00  0.00     0.117 C 
BRANCH   2   3
ATOM      3  N   UNL A   1      31.299  26.492  26.887  1.00  0.00    -0.355 N 
ATOM      4  C   UNL A   1      30.978  25.433  26.106  1.00  0.00     0.239 C 
ATOM      5  O   UNL A   1      29.977  24.814  26.488  1.00  0.00    -0.274 OA
ATOM      6  H   UNL A   1      30.665  26.630  27.628  1.00  0.00     0.163 HD
BRANCH   4   7
ATOM      7  C   UNL A   1      31.729  24.966  24.871  1.00  0.00     0.205 C 
BRANCH   7   8
ATOM      8  C   UNL A   1      31.982  25.894  23.647  1.00  0.00     0.014 C 
ATOM      9  C   UNL A   1      33.254  26.755  23.733  1.00  0.00     0.009 C 
BRANCH   8  10
ATOM     10  C   UNL A   1      30.661  26.592  23.201  1.00  0.00     0.002 C 
ATOM     11  C   UNL A   1      30.703  28.093  22.954  1.00  0.00     0.004 C 
ENDBRANCH   8  10
ENDBRANCH   7   8
BRANCH   7  12
ATOM     12  S   UNL A   1      33.070  23.878  25.342  1.00  0.00     0.190 S 
ATOM     13  O   UNL A   1      34.314  24.322  24.743  1.00  0.00    -0.223 OA
ATOM     14  O   UNL A   1      33.013  23.735  26.790  1.00  0.00    -0.223 OA
BRANCH  12  15
ATOM     15  C   UNL A   1      32.775  22.251  24.666  1.00  0.00     0.071 A 
ATOM     16  C   UNL A   1      32.378  22.137  23.329  1.00  0.00     0.020 A 
ATOM     17  C   UNL A   1      32.864  21.113  25.479  1.00  0.00     0.066 A 
ATOM     18  C   UNL A   1      32.127  20.878  22.789  1.00  0.00     0.005 A 
ATOM     19  C   UNL A   1      32.671  19.848  24.919  1.00  0.00     0.120 A 
ATOM     20  C   UNL A   1      32.296  19.741  23.577  1.00  0.00     0.046 A 
BRANCH  19  21
ATOM     21  O   UNL A   1      32.814  18.650  25.561  1.00  0.00    -0.497 OA
ATOM     22  C   UNL A   1      33.078  17.501  24.766  1.00  0.00     0.278 C 
ENDBRANCH  19  21
ENDBRANCH  12  15
ENDBRANCH   7  12
ENDBRANCH   4   7
ENDBRANCH   2   3
ENDBRANCH   1   2
BRANCH   1  23
ATOM     23  C   UNL A   1      32.951  29.777  26.010  1.00  0.00     0.118 C 
BRANCH  23  24
ATOM     24  N   UNL A   1      32.836  31.151  26.485  1.00  0.00    -0.352 N 
ATOM     25  C   UNL A   1      33.613  31.865  27.366  1.00  0.00     0.251 C 
ATOM     26  H   UNL A   1      32.075  31.652  26.111  1.00  0.00     0.163 HD
ATOM     27  O   UNL A   1      33.231  32.971  27.743  1.00  0.00    -0.269 OA
BRANCH  25  28
ATOM     28  C   UNL A   1      34.871  31.297  27.890  1.00  0.00     0.039 A 
ATOM     29  C   UNL A   1      35.983  32.130  28.041  1.00  0.00     0.014 A 
ATOM     30  C   UNL A   1      34.956  29.953  28.250  1.00  0.00     0.014 A 
ATOM     31  C   UNL A   1      37.146  31.632  28.634  1.00  0.00     0.010 A 
ATOM     32  C   UNL A   1      36.059  29.498  28.959  1.00  0.00     0.010 A 
ATOM     33  C   UNL A   1      37.176  30.324  29.145  1.00  0.00    -0.014 A 
BRANCH  33  34
ATOM     34  C   UNL A   1      38.363  29.782  29.854  1.00  0.00     0.031 A 
ATOM     35  C   UNL A   1      38.696  30.277  31.238  1.00  0.00     0.074 A 
ATOM     36  C   UNL A   1      39.200  28.940  29.215  1.00  0.00     0.049 A 
ATOM     37  N   UNL A   1      39.748  30.028  31.973  1.00  0.00    -0.248 NA
ATOM     38  C   UNL A   1      37.746  31.217  31.860  1.00  0.00     0.031 C 
ATOM     39  C   UNL A   1      39.044  28.469  27.837  1.00  0.00     0.029 A 
ATOM     40  N   UNL A   1      40.366  28.349  29.634  1.00  0.00    -0.354 N 
ATOM     41  C   UNL A   1      39.618  30.826  33.104  1.00  0.00     0.074 A 
ATOM     42  C   UNL A   1      38.409  31.601  32.941  1.00  0.00     0.031 C 
ATOM     43  C   UNL A   1      40.063  27.649  27.531  1.00  0.00     0.029 A 
ATOM     44  C   UNL A   1      40.958  27.557  28.678  1.00  0.00     0.049 A 
ATOM     45  H   UNL A   1      40.743  28.481  30.534  1.00  0.00     0.167 HD
ATOM     46  C   UNL A   1      40.408  30.881  34.201  1.00  0.00     0.034 A 
ATOM     47  C   UNL A   1      42.093  26.831  28.726  1.00  0.00     0.034 A 
ATOM     48  C   UNL A   1      41.550  30.032  34.402  1.00  0.00     0.049 A 
ATOM     49  C   UNL A   1      42.888  26.815  30.004  1.00  0.00     0.074 A 
ATOM     50  C   UNL A   1      42.353  29.920  35.523  1.00  0.00     0.029 A 
ATOM     51  N   UNL A   1      42.036  29.135  33.466  1.00  0.00    -0.354 N 
ATOM     52  N   UNL A   1      42.660  27.460  31.123  1.00  0.00    -0.248 NA
ATOM     53  C   UNL A   1      44.071  25.942  30.043  1.00  0.00     0.031 C 
ATOM     54  C   UNL A   1      43.325  28.948  35.263  1.00  0.00     0.029 A 
ATOM     55  C   UNL A   1      43.122  28.454  33.983  1.00  0.00     0.049 A 
ATOM     56  H   UNL A   1      41.664  29.001  32.564  1.00  0.00     0.167 HD
ATOM     57  C   UNL A   1      43.648  27.045  32.009  1.00  0.00     0.074 A 
ATOM     58  C   UNL A   1      44.463  26.078  31.303  1.00  0.00     0.031 C 
ATOM     59  C   UNL A   1      43.875  27.444  33.285  1.00  0.00     0.034 A 
BRANCH  46  60
ATOM     60  C   UNL A   1      40.011  31.830  35.301  1.00  0.00     0.023 A 
ATOM     61  C   UNL A   1      40.592  33.114  35.351  1.00  0.00     0.012 A 
ATOM     62  C   UNL A   1      39.046  31.473  36.262  1.00  0.00     0.148 A 
ATOM     63  C   UNL A   1      40.254  34.012  36.361  1.00  0.00     0.002 A 
ATOM     64  C   UNL A   1      38.680  32.390  37.243  1.00  0.00     0.091 A 
ATOM     65  F   UNL A   1      38.519  30.241  36.215  1.00  0.00    -0.205 F 
ATOM     66  C   UNL A   1      39.292  33.653  37.301  1.00  0.00     0.022 A 
BRANCH  64  67
ATOM     67  S   UNL A   1      37.397  32.051  38.453  1.00  0.00     0.127 S 
ATOM     68  O   UNL A   1      36.339  32.965  38.025  1.00  0.00    -0.237 OA
ATOM     69  O   UNL A   1      37.112  30.635  38.213  1.00  0.00    -0.237 OA
ATOM     70  O   UNL A   1      37.988  32.336  39.752  1.00  0.00    -0.744 OA
ENDBRANCH  64  67
ENDBRANCH  46  60
BRANCH  47  71
ATOM     71  C   UNL A   1      42.484  25.983  27.564  1.00  0.00     0.023 A 
ATOM     72  C   UNL A   1      43.356  26.515  26.592  1.00  0.00     0.012 A 
ATOM     73  C   UNL A   1      42.043  24.653  27.432  1.00  0.00     0.148 A 
ATOM     74  C   UNL A   1      43.755  25.750  25.496  1.00  0.00     0.002 A 
ATOM     75  C   UNL A   1      42.486  23.878  26.366  1.00  0.00     0.091 A 
ATOM     76  F   UNL A   1      41.205  24.166  28.359  1.00  0.00    -0.205 F 
ATOM     77  C   UNL A   1      43.329  24.430  25.388  1.00  0.00     0.022 A 
BRANCH  75  78
ATOM     78  S   UNL A   1      42.095  22.130  26.226  1.00  0.00     0.127 S 
ATOM     79  O   UNL A   1      42.826  21.754  25.020  1.00  0.00    -0.237 OA
ATOM     80  O   UNL A   1      42.643  21.592  27.471  1.00  0.00    -0.237 OA
ATOM     81  O   UNL A   1      40.643  22.066  26.140  1.00  0.00    -0.744 OA
ENDBRANCH  75  78
ENDBRANCH  47  71
BRANCH  59  82
ATOM     82  C   UNL A   1      45.026  26.815  34.018  1.00  0.00     0.023 A 
ATOM     83  C   UNL A   1      46.304  27.400  33.937  1.00  0.00     0.012 A 
ATOM     84  C   UNL A   1      44.822  25.705  34.861  1.00  0.00     0.148 A 
ATOM     85  C   UNL A   1      47.370  26.875  34.667  1.00  0.00     0.002 A 
ATOM     86  C   UNL A   1      45.877  25.214  35.619  1.00  0.00     0.091 A 
ATOM     87  F   UNL A   1      43.601  25.151  34.906  1.00  0.00    -0.205 F 
ATOM     88  C   UNL A   1      47.153  25.792  35.517  1.00  0.00     0.022 A 
BRANCH  86  89
ATOM     89  S   UNL A   1      45.662  23.885  36.809  1.00  0.00     0.127 S 
ATOM     90  O   UNL A   1      45.241  22.780  35.948  1.00  0.00    -0.237 OA
ATOM     91  O   UNL A   1      47.006  23.744  37.369  1.00  0.00    -0.237 OA
ATOM     92  O   UNL A   1      44.663  24.361  37.757  1.00  0.00    -0.744 OA
ENDBRANCH  86  89
ENDBRANCH  59  82
ENDBRANCH  33  34
ENDBRANCH  25  28
ENDBRANCH  23  24
ENDBRANCH   1  23
TORSDOF 18
ENDMDL
