MODEL 1
REMARK VINA RESULT:     -11.6      0.000      0.000
REMARK SMILES Cc1n[nH]c(C(=O)N2CCCC[C@H]2CCC(=O)NCCCNC(=O)c2ccc(-c3c4nc(c(-c5cccc(S(=O)(=O)[O-])c5F)c5ccc([nH]5)c(-c5cccc(S(=O)(=O)[O-])c5F)c5nc(c(-c6cccc(S(=O)(=O)[O-])c6F)c6ccc3[nH]6)C=C5)C=C4)cc2)n1
REMARK SMILES IDX 19 1 18 2 16 3 17 4 15 6 14 7 13 8 8 9 9 10 10 11 12 12
REMARK SMILES IDX 11 13 6 14 7 15 5 16 1 17 2 18 3 19 88 20 4 21 20 23 21 24
REMARK SMILES IDX 22 25 23 26 24 28 25 29 26 30 87 31 27 32 86 33 28 34 29 35
REMARK SMILES IDX 30 36 80 37 31 38 85 39 79 40 81 41 32 42 84 43 78 44 77 45
REMARK SMILES IDX 33 47 65 48 45 49 64 50 46 51 49 52 63 53 82 54 47 55 48 56
REMARK SMILES IDX 62 58 83 59 50 60 34 61 35 62 43 63 36 64 38 65 44 66 37 67
REMARK SMILES IDX 39 68 40 69 41 70 42 71 66 72 67 73 75 74 68 75 70 76 76 77
REMARK SMILES IDX 69 78 71 79 72 80 73 81 74 82 51 83 52 84 60 85 53 86 55 87
REMARK SMILES IDX 61 88 54 89 56 90 57 91 58 92 59 93
REMARK H PARENT 18 5 4 22 22 27 81 46 49 57
REMARK Flexibility Score: inf
ROOT
ATOM      1  C   UNL A   1      37.843  21.035  25.264  1.00  0.00     0.117 C 
ENDROOT
BRANCH   1   2
ATOM      2  N   UNL A   1      37.041  21.597  24.176  1.00  0.00    -0.356 N 
ATOM      3  C   UNL A   1      36.402  22.795  24.021  1.00  0.00     0.220 C 
ATOM      4  O   UNL A   1      36.001  23.097  22.896  1.00  0.00    -0.275 OA
ATOM      5  H   UNL A   1      36.941  20.993  23.404  1.00  0.00     0.163 HD
BRANCH   3   6
ATOM      6  C   UNL A   1      36.125  23.711  25.202  1.00  0.00     0.102 C 
BRANCH   6   7
ATOM      7  C   UNL A   1      34.939  24.690  25.006  1.00  0.00     0.035 C 
BRANCH   7   8
ATOM      8  C   UNL A   1      33.583  23.970  25.084  1.00  0.00     0.086 C 
ATOM      9  N   UNL A   1      32.915  23.935  26.401  1.00  0.00    -0.333 N 
ATOM     10  C   UNL A   1      31.766  24.823  26.561  1.00  0.00     0.120 C 
ATOM     11  C   UNL A   1      30.741  24.602  25.457  1.00  0.00     0.022 C 
ATOM     12  C   UNL A   1      32.677  24.363  23.879  1.00  0.00     0.025 C 
ATOM     13  C   UNL A   1      31.353  25.058  24.154  1.00  0.00     0.004 C 
BRANCH   9  14
ATOM     14  C   UNL A   1      32.772  22.691  27.072  1.00  0.00     0.291 C 
ATOM     15  O   UNL A   1      32.721  22.654  28.301  1.00  0.00    -0.265 OA
BRANCH  14  16
ATOM     16  C   UNL A   1      32.786  21.477  26.272  1.00  0.00     0.214 A 
ATOM     17  C   UNL A   1      34.443  18.871  24.538  1.00  0.00     0.092 C 
ATOM     18  C   UNL A   1      33.483  19.818  25.143  1.00  0.00     0.148 A 
ATOM     19  N   UNL A   1      32.213  19.934  24.741  1.00  0.00    -0.159 NA
ATOM     20  N   UNL A   1      33.853  20.708  26.111  1.00  0.00    -0.207 NA
ATOM     21  N   UNL A   1      31.808  21.004  25.450  1.00  0.00    -0.255 N 
ATOM     22  H   UNL A   1      30.910  21.401  25.383  1.00  0.00     0.192 HD
ENDBRANCH  14  16
ENDBRANCH   9  14
ENDBRANCH   7   8
ENDBRANCH   6   7
ENDBRANCH   3   6
ENDBRANCH   1   2
BRANCH   1  23
ATOM     23  C   UNL A   1      38.800  19.880  24.904  1.00  0.00     0.042 C 
BRANCH  23  24
ATOM     24  C   UNL A   1      39.520  19.251  26.082  1.00  0.00     0.118 C 
BRANCH  24  25
ATOM     25  N   UNL A   1      40.856  18.790  25.750  1.00  0.00    -0.352 N 
ATOM     26  C   UNL A   1      42.021  19.532  25.716  1.00  0.00     0.251 C 
ATOM     27  H   UNL A   1      40.943  17.836  25.523  1.00  0.00     0.163 HD
ATOM     28  O   UNL A   1      42.982  19.113  25.088  1.00  0.00    -0.269 OA
BRANCH  26  29
ATOM     29  C   UNL A   1      42.104  20.821  26.445  1.00  0.00     0.039 A 
ATOM     30  C   UNL A   1      41.700  20.893  27.782  1.00  0.00     0.014 A 
ATOM     31  C   UNL A   1      42.521  21.975  25.783  1.00  0.00     0.014 A 
ATOM     32  C   UNL A   1      41.726  22.123  28.434  1.00  0.00     0.010 A 
ATOM     33  C   UNL A   1      42.684  23.155  26.463  1.00  0.00     0.010 A 
ATOM     34  C   UNL A   1      42.211  23.253  27.761  1.00  0.00    -0.014 A 
BRANCH  34  35
ATOM     35  C   UNL A   1      42.317  24.537  28.440  1.00  0.00     0.031 A 
ATOM     36  C   UNL A   1      41.183  25.455  28.167  1.00  0.00     0.074 A 
ATOM     37  C   UNL A   1      43.244  24.799  29.390  1.00  0.00     0.049 A 
ATOM     38  N   UNL A   1      41.210  26.561  27.502  1.00  0.00    -0.248 NA
ATOM     39  C   UNL A   1      39.832  25.009  28.542  1.00  0.00     0.031 C 
ATOM     40  C   UNL A   1      44.213  23.868  29.985  1.00  0.00     0.029 A 
ATOM     41  N   UNL A   1      43.417  25.924  30.136  1.00  0.00    -0.354 N 
ATOM     42  C   UNL A   1      39.922  27.079  27.607  1.00  0.00     0.074 A 
ATOM     43  C   UNL A   1      39.083  25.997  28.049  1.00  0.00     0.031 C 
ATOM     44  C   UNL A   1      44.669  24.377  31.150  1.00  0.00     0.029 A 
ATOM     45  C   UNL A   1      44.171  25.730  31.291  1.00  0.00     0.049 A 
ATOM     46  H   UNL A   1      43.042  26.799  29.881  1.00  0.00     0.167 HD
ATOM     47  C   UNL A   1      39.706  28.422  27.606  1.00  0.00     0.034 A 
ATOM     48  C   UNL A   1      44.333  26.606  32.312  1.00  0.00     0.034 A 
ATOM     49  C   UNL A   1      40.850  29.145  27.109  1.00  0.00     0.049 A 
ATOM     50  C   UNL A   1      43.997  27.948  31.791  1.00  0.00     0.074 A 
ATOM     51  C   UNL A   1      41.591  29.124  25.944  1.00  0.00     0.029 A 
ATOM     52  N   UNL A   1      41.633  29.777  28.044  1.00  0.00    -0.354 N 
ATOM     53  N   UNL A   1      44.701  28.570  30.888  1.00  0.00    -0.248 NA
ATOM     54  C   UNL A   1      42.643  28.435  31.977  1.00  0.00     0.031 C 
ATOM     55  C   UNL A   1      42.941  29.312  26.364  1.00  0.00     0.029 A 
ATOM     56  C   UNL A   1      42.943  29.507  27.747  1.00  0.00     0.049 A 
ATOM     57  H   UNL A   1      41.311  30.326  28.793  1.00  0.00     0.167 HD
ATOM     58  C   UNL A   1      43.753  29.184  30.081  1.00  0.00     0.074 A 
ATOM     59  C   UNL A   1      42.525  29.179  30.873  1.00  0.00     0.031 C 
ATOM     60  C   UNL A   1      43.982  29.368  28.746  1.00  0.00     0.034 A 
BRANCH  47  61
ATOM     61  C   UNL A   1      38.625  29.104  28.413  1.00  0.00     0.023 A 
ATOM     62  C   UNL A   1      37.758  29.986  27.732  1.00  0.00     0.012 A 
ATOM     63  C   UNL A   1      38.583  29.132  29.827  1.00  0.00     0.148 A 
ATOM     64  C   UNL A   1      36.920  30.869  28.422  1.00  0.00     0.002 A 
ATOM     65  C   UNL A   1      37.681  29.941  30.506  1.00  0.00     0.091 A 
ATOM     66  F   UNL A   1      39.512  28.489  30.540  1.00  0.00    -0.205 F 
ATOM     67  C   UNL A   1      36.869  30.837  29.810  1.00  0.00     0.022 A 
BRANCH  65  68
ATOM     68  S   UNL A   1      37.533  29.878  32.296  1.00  0.00     0.127 S 
ATOM     69  O   UNL A   1      38.832  30.391  32.716  1.00  0.00    -0.237 OA
ATOM     70  O   UNL A   1      36.402  30.776  32.536  1.00  0.00    -0.237 OA
ATOM     71  O   UNL A   1      37.257  28.481  32.613  1.00  0.00    -0.744 OA
ENDBRANCH  65  68
ENDBRANCH  47  61
BRANCH  48  72
ATOM     72  C   UNL A   1      44.532  26.366  33.759  1.00  0.00     0.023 A 
ATOM     73  C   UNL A   1      45.805  26.579  34.328  1.00  0.00     0.012 A 
ATOM     74  C   UNL A   1      43.428  26.227  34.628  1.00  0.00     0.148 A 
ATOM     75  C   UNL A   1      45.966  26.697  35.713  1.00  0.00     0.002 A 
ATOM     76  C   UNL A   1      43.592  26.344  36.005  1.00  0.00     0.091 A 
ATOM     77  F   UNL A   1      42.207  26.078  34.097  1.00  0.00    -0.205 F 
ATOM     78  C   UNL A   1      44.859  26.592  36.551  1.00  0.00     0.022 A 
BRANCH  76  79
ATOM     79  S   UNL A   1      42.209  26.255  37.151  1.00  0.00     0.127 S 
ATOM     80  O   UNL A   1      42.883  26.335  38.447  1.00  0.00    -0.237 OA
ATOM     81  O   UNL A   1      41.440  27.442  36.787  1.00  0.00    -0.237 OA
ATOM     82  O   UNL A   1      41.559  24.978  36.890  1.00  0.00    -0.744 OA
ENDBRANCH  76  79
ENDBRANCH  48  72
BRANCH  60  83
ATOM     83  C   UNL A   1      45.389  29.167  28.234  1.00  0.00     0.023 A 
ATOM     84  C   UNL A   1      45.861  27.922  27.764  1.00  0.00     0.012 A 
ATOM     85  C   UNL A   1      46.214  30.296  28.095  1.00  0.00     0.148 A 
ATOM     86  C   UNL A   1      47.137  27.802  27.201  1.00  0.00     0.002 A 
ATOM     87  C   UNL A   1      47.461  30.183  27.492  1.00  0.00     0.091 A 
ATOM     88  F   UNL A   1      45.756  31.475  28.544  1.00  0.00    -0.205 F 
ATOM     89  C   UNL A   1      47.933  28.937  27.054  1.00  0.00     0.022 A 
BRANCH  87  90
ATOM     90  S   UNL A   1      48.476  31.628  27.172  1.00  0.00     0.127 S 
ATOM     91  O   UNL A   1      48.640  32.189  28.510  1.00  0.00    -0.237 OA
ATOM     92  O   UNL A   1      49.691  31.042  26.601  1.00  0.00    -0.237 OA
ATOM     93  O   UNL A   1      47.718  32.446  26.232  1.00  0.00    -0.744 OA
ENDBRANCH  87  90
ENDBRANCH  60  83
ENDBRANCH  34  35
ENDBRANCH  26  29
ENDBRANCH  24  25
ENDBRANCH  23  24
ENDBRANCH   1  23
TORSDOF 17
ENDMDL
MODEL 2
REMARK VINA RESULT:     -11.3      4.315      9.669
REMARK SMILES Cc1n[nH]c(C(=O)N2CCCC[C@H]2CCC(=O)NCCCNC(=O)c2ccc(-c3c4nc(c(-c5cccc(S(=O)(=O)[O-])c5F)c5ccc([nH]5)c(-c5cccc(S(=O)(=O)[O-])c5F)c5nc(c(-c6cccc(S(=O)(=O)[O-])c6F)c6ccc3[nH]6)C=C5)C=C4)cc2)n1
REMARK SMILES IDX 19 1 18 2 16 3 17 4 15 6 14 7 13 8 8 9 9 10 10 11 12 12
REMARK SMILES IDX 11 13 6 14 7 15 5 16 1 17 2 18 3 19 88 20 4 21 20 23 21 24
REMARK SMILES IDX 22 25 23 26 24 28 25 29 26 30 87 31 27 32 86 33 28 34 29 35
REMARK SMILES IDX 30 36 80 37 31 38 85 39 79 40 81 41 32 42 84 43 78 44 77 45
REMARK SMILES IDX 33 47 65 48 45 49 64 50 46 51 49 52 63 53 82 54 47 55 48 56
REMARK SMILES IDX 62 58 83 59 50 60 34 61 35 62 43 63 36 64 38 65 44 66 37 67
REMARK SMILES IDX 39 68 40 69 41 70 42 71 66 72 67 73 75 74 68 75 70 76 76 77
REMARK SMILES IDX 69 78 71 79 72 80 73 81 74 82 51 83 52 84 60 85 53 86 55 87
REMARK SMILES IDX 61 88 54 89 56 90 57 91 58 92 59 93
REMARK H PARENT 18 5 4 22 22 27 81 46 49 57
REMARK Flexibility Score: inf
ROOT
ATOM      1  C   UNL A   1      31.734  30.768  26.580  1.00  0.00     0.117 C 
ENDROOT
BRANCH   1   2
ATOM      2  N   UNL A   1      32.820  30.203  27.382  1.00  0.00    -0.356 N 
ATOM      3  C   UNL A   1      33.810  29.305  27.097  1.00  0.00     0.220 C 
ATOM      4  O   UNL A   1      34.739  29.193  27.898  1.00  0.00    -0.275 OA
ATOM      5  H   UNL A   1      32.840  30.532  28.310  1.00  0.00     0.163 HD
BRANCH   3   6
ATOM      6  C   UNL A   1      33.752  28.415  25.865  1.00  0.00     0.102 C 
BRANCH   6   7
ATOM      7  C   UNL A   1      33.624  26.899  26.161  1.00  0.00     0.035 C 
BRANCH   7   8
ATOM      8  C   UNL A   1      32.882  26.157  25.036  1.00  0.00     0.086 C 
ATOM      9  N   UNL A   1      32.388  26.970  23.907  1.00  0.00    -0.333 N 
ATOM     10  C   UNL A   1      33.139  26.858  22.658  1.00  0.00     0.120 C 
ATOM     11  C   UNL A   1      33.275  25.404  22.227  1.00  0.00     0.022 C 
ATOM     12  C   UNL A   1      33.634  24.848  24.647  1.00  0.00     0.025 C 
ATOM     13  C   UNL A   1      34.161  24.701  23.229  1.00  0.00     0.004 C 
BRANCH   9  14
ATOM     14  C   UNL A   1      30.988  27.114  23.718  1.00  0.00     0.291 C 
ATOM     15  O   UNL A   1      30.233  26.165  23.936  1.00  0.00    -0.265 OA
BRANCH  14  16
ATOM     16  C   UNL A   1      30.497  28.369  23.172  1.00  0.00     0.214 A 
ATOM     17  C   UNL A   1      28.437  31.248  23.263  1.00  0.00     0.092 C 
ATOM     18  C   UNL A   1      29.385  30.163  22.934  1.00  0.00     0.148 A 
ATOM     19  N   UNL A   1      29.831  29.928  21.695  1.00  0.00    -0.159 NA
ATOM     20  N   UNL A   1      29.811  29.263  23.869  1.00  0.00    -0.207 NA
ATOM     21  N   UNL A   1      30.506  28.777  21.873  1.00  0.00    -0.255 N 
ATOM     22  H   UNL A   1      30.955  28.286  21.147  1.00  0.00     0.192 HD
ENDBRANCH  14  16
ENDBRANCH   9  14
ENDBRANCH   7   8
ENDBRANCH   6   7
ENDBRANCH   3   6
ENDBRANCH   1   2
BRANCH   1  23
ATOM     23  C   UNL A   1      31.343  32.233  26.863  1.00  0.00     0.042 C 
BRANCH  23  24
ATOM     24  C   UNL A   1      32.504  33.206  26.931  1.00  0.00     0.118 C 
BRANCH  24  25
ATOM     25  N   UNL A   1      32.309  34.256  27.916  1.00  0.00    -0.352 N 
ATOM     26  C   UNL A   1      33.026  34.469  29.077  1.00  0.00     0.251 C 
ATOM     27  H   UNL A   1      31.578  34.891  27.735  1.00  0.00     0.163 HD
ATOM     28  O   UNL A   1      32.539  35.148  29.968  1.00  0.00    -0.269 OA
BRANCH  26  29
ATOM     29  C   UNL A   1      34.380  33.885  29.232  1.00  0.00     0.039 A 
ATOM     30  C   UNL A   1      35.390  34.214  28.322  1.00  0.00     0.014 A 
ATOM     31  C   UNL A   1      34.632  32.958  30.243  1.00  0.00     0.014 A 
ATOM     32  C   UNL A   1      36.639  33.609  28.445  1.00  0.00     0.010 A 
ATOM     33  C   UNL A   1      35.898  32.473  30.453  1.00  0.00     0.010 A 
ATOM     34  C   UNL A   1      36.880  32.730  29.511  1.00  0.00    -0.014 A 
BRANCH  34  35
ATOM     35  C   UNL A   1      38.197  32.139  29.706  1.00  0.00     0.031 A 
ATOM     36  C   UNL A   1      38.296  30.732  29.247  1.00  0.00     0.074 A 
ATOM     37  C   UNL A   1      39.283  32.855  30.075  1.00  0.00     0.049 A 
ATOM     38  N   UNL A   1      38.452  29.677  29.975  1.00  0.00    -0.248 NA
ATOM     39  C   UNL A   1      38.030  30.450  27.827  1.00  0.00     0.031 C 
ATOM     40  C   UNL A   1      39.389  34.312  30.239  1.00  0.00     0.029 A 
ATOM     41  N   UNL A   1      40.570  32.443  30.236  1.00  0.00    -0.354 N 
ATOM     42  C   UNL A   1      38.570  28.625  29.070  1.00  0.00     0.074 A 
ATOM     43  C   UNL A   1      38.084  29.117  27.809  1.00  0.00     0.031 C 
ATOM     44  C   UNL A   1      40.690  34.674  30.211  1.00  0.00     0.029 A 
ATOM     45  C   UNL A   1      41.505  33.476  30.209  1.00  0.00     0.049 A 
ATOM     46  H   UNL A   1      40.819  31.498  30.361  1.00  0.00     0.167 HD
ATOM     47  C   UNL A   1      39.330  27.534  29.360  1.00  0.00     0.034 A 
ATOM     48  C   UNL A   1      42.853  33.351  30.141  1.00  0.00     0.034 A 
ATOM     49  C   UNL A   1      39.623  27.450  30.769  1.00  0.00     0.049 A 
ATOM     50  C   UNL A   1      43.185  31.981  30.589  1.00  0.00     0.074 A 
ATOM     51  C   UNL A   1      38.869  27.405  31.925  1.00  0.00     0.029 A 
ATOM     52  N   UNL A   1      40.889  27.813  31.158  1.00  0.00    -0.354 N 
ATOM     53  N   UNL A   1      43.011  31.558  31.809  1.00  0.00    -0.248 NA
ATOM     54  C   UNL A   1      43.333  30.948  29.581  1.00  0.00     0.031 C 
ATOM     55  C   UNL A   1      39.593  28.195  32.867  1.00  0.00     0.029 A 
ATOM     56  C   UNL A   1      40.777  28.618  32.259  1.00  0.00     0.049 A 
ATOM     57  H   UNL A   1      41.729  27.541  30.722  1.00  0.00     0.167 HD
ATOM     58  C   UNL A   1      42.556  30.256  31.656  1.00  0.00     0.074 A 
ATOM     59  C   UNL A   1      42.902  29.896  30.283  1.00  0.00     0.031 C 
ATOM     60  C   UNL A   1      41.685  29.707  32.555  1.00  0.00     0.034 A 
BRANCH  47  61
ATOM     61  C   UNL A   1      40.131  26.766  28.335  1.00  0.00     0.023 A 
ATOM     62  C   UNL A   1      40.062  25.357  28.372  1.00  0.00     0.012 A 
ATOM     63  C   UNL A   1      41.140  27.335  27.522  1.00  0.00     0.148 A 
ATOM     64  C   UNL A   1      40.968  24.559  27.665  1.00  0.00     0.002 A 
ATOM     65  C   UNL A   1      41.975  26.541  26.747  1.00  0.00     0.091 A 
ATOM     66  F   UNL A   1      41.406  28.643  27.597  1.00  0.00    -0.205 F 
ATOM     67  C   UNL A   1      41.917  25.150  26.839  1.00  0.00     0.022 A 
BRANCH  65  68
ATOM     68  S   UNL A   1      43.165  27.266  25.613  1.00  0.00     0.127 S 
ATOM     69  O   UNL A   1      44.018  28.021  26.525  1.00  0.00    -0.237 OA
ATOM     70  O   UNL A   1      43.783  26.076  25.025  1.00  0.00    -0.237 OA
ATOM     71  O   UNL A   1      42.375  28.050  24.670  1.00  0.00    -0.744 OA
ENDBRANCH  65  68
ENDBRANCH  47  61
BRANCH  48  72
ATOM     72  C   UNL A   1      43.867  34.225  29.510  1.00  0.00     0.023 A 
ATOM     73  C   UNL A   1      44.716  35.002  30.326  1.00  0.00     0.012 A 
ATOM     74  C   UNL A   1      44.206  34.073  28.148  1.00  0.00     0.148 A 
ATOM     75  C   UNL A   1      45.889  35.569  29.814  1.00  0.00     0.002 A 
ATOM     76  C   UNL A   1      45.373  34.640  27.642  1.00  0.00     0.091 A 
ATOM     77  F   UNL A   1      43.436  33.294  27.377  1.00  0.00    -0.205 F 
ATOM     78  C   UNL A   1      46.224  35.377  28.476  1.00  0.00     0.022 A 
BRANCH  76  79
ATOM     79  S   UNL A   1      45.893  34.411  25.936  1.00  0.00     0.127 S 
ATOM     80  O   UNL A   1      44.625  34.533  25.214  1.00  0.00    -0.237 OA
ATOM     81  O   UNL A   1      46.813  35.528  25.749  1.00  0.00    -0.237 OA
ATOM     82  O   UNL A   1      46.491  33.084  25.877  1.00  0.00    -0.744 OA
ENDBRANCH  76  79
ENDBRANCH  48  72
BRANCH  60  83
ATOM     83  C   UNL A   1      41.469  30.431  33.864  1.00  0.00     0.023 A 
ATOM     84  C   UNL A   1      42.344  30.300  34.964  1.00  0.00     0.012 A 
ATOM     85  C   UNL A   1      40.432  31.376  33.937  1.00  0.00     0.148 A 
ATOM     86  C   UNL A   1      42.167  31.068  36.120  1.00  0.00     0.002 A 
ATOM     87  C   UNL A   1      40.287  32.172  35.068  1.00  0.00     0.091 A 
ATOM     88  F   UNL A   1      39.607  31.494  32.886  1.00  0.00    -0.205 F 
ATOM     89  C   UNL A   1      41.144  32.014  36.167  1.00  0.00     0.022 A 
BRANCH  87  90
ATOM     90  S   UNL A   1      39.064  33.482  35.135  1.00  0.00     0.127 S 
ATOM     91  O   UNL A   1      37.846  32.785  34.732  1.00  0.00    -0.237 OA
ATOM     92  O   UNL A   1      39.103  33.881  36.544  1.00  0.00    -0.237 OA
ATOM     93  O   UNL A   1      39.534  34.513  34.217  1.00  0.00    -0.744 OA
ENDBRANCH  87  90
ENDBRANCH  60  83
ENDBRANCH  34  35
ENDBRANCH  26  29
ENDBRANCH  24  25
ENDBRANCH  23  24
ENDBRANCH   1  23
TORSDOF 17
ENDMDL
MODEL 3
REMARK VINA RESULT:     -11.3      1.327      2.423
REMARK SMILES Cc1n[nH]c(C(=O)N2CCCC[C@H]2CCC(=O)NCCCNC(=O)c2ccc(-c3c4nc(c(-c5cccc(S(=O)(=O)[O-])c5F)c5ccc([nH]5)c(-c5cccc(S(=O)(=O)[O-])c5F)c5nc(c(-c6cccc(S(=O)(=O)[O-])c6F)c6ccc3[nH]6)C=C5)C=C4)cc2)n1
REMARK SMILES IDX 19 1 18 2 16 3 17 4 15 6 14 7 13 8 8 9 9 10 10 11 12 12
REMARK SMILES IDX 11 13 6 14 7 15 5 16 1 17 2 18 3 19 88 20 4 21 20 23 21 24
REMARK SMILES IDX 22 25 23 26 24 28 25 29 26 30 87 31 27 32 86 33 28 34 29 35
REMARK SMILES IDX 30 36 80 37 31 38 85 39 79 40 81 41 32 42 84 43 78 44 77 45
REMARK SMILES IDX 33 47 65 48 45 49 64 50 46 51 49 52 63 53 82 54 47 55 48 56
REMARK SMILES IDX 62 58 83 59 50 60 34 61 35 62 43 63 36 64 38 65 44 66 37 67
REMARK SMILES IDX 39 68 40 69 41 70 42 71 66 72 67 73 75 74 68 75 70 76 76 77
REMARK SMILES IDX 69 78 71 79 72 80 73 81 74 82 51 83 52 84 60 85 53 86 55 87
REMARK SMILES IDX 61 88 54 89 56 90 57 91 58 92 59 93
REMARK H PARENT 18 5 4 22 22 27 81 46 49 57
REMARK Flexibility Score: inf
ROOT
ATOM      1  C   UNL A   1      38.107  21.451  25.159  1.00  0.00     0.117 C 
ENDROOT
BRANCH   1   2
ATOM      2  N   UNL A   1      37.186  22.017  24.171  1.00  0.00    -0.356 N 
ATOM      3  C   UNL A   1      36.209  22.968  24.256  1.00  0.00     0.220 C 
ATOM      4  O   UNL A   1      35.751  23.424  23.208  1.00  0.00    -0.275 OA
ATOM      5  H   UNL A   1      37.291  21.637  23.269  1.00  0.00     0.163 HD
BRANCH   3   6
ATOM      6  C   UNL A   1      35.643  23.416  25.595  1.00  0.00     0.102 C 
BRANCH   6   7
ATOM      7  C   UNL A   1      34.770  24.695  25.540  1.00  0.00     0.035 C 
BRANCH   7   8
ATOM      8  C   UNL A   1      33.357  24.448  26.094  1.00  0.00     0.086 C 
ATOM      9  N   UNL A   1      32.221  24.862  25.248  1.00  0.00    -0.333 N 
ATOM     10  C   UNL A   1      31.490  23.784  24.584  1.00  0.00     0.120 C 
ATOM     11  C   UNL A   1      31.031  22.733  25.584  1.00  0.00     0.022 C 
ATOM     12  C   UNL A   1      33.250  23.024  26.720  1.00  0.00     0.025 C 
ATOM     13  C   UNL A   1      32.258  22.037  26.125  1.00  0.00     0.004 C 
BRANCH   9  14
ATOM     14  C   UNL A   1      31.392  25.933  25.676  1.00  0.00     0.291 C 
ATOM     15  O   UNL A   1      31.505  26.386  26.815  1.00  0.00    -0.265 OA
BRANCH  14  16
ATOM     16  C   UNL A   1      30.355  26.399  24.770  1.00  0.00     0.214 A 
ATOM     17  C   UNL A   1      28.831  28.865  22.736  1.00  0.00     0.092 C 
ATOM     18  C   UNL A   1      29.205  27.659  23.504  1.00  0.00     0.148 A 
ATOM     19  N   UNL A   1      28.341  26.686  23.813  1.00  0.00    -0.159 NA
ATOM     20  N   UNL A   1      30.456  27.492  24.027  1.00  0.00    -0.207 NA
ATOM     21  N   UNL A   1      29.087  25.922  24.633  1.00  0.00    -0.255 N 
ATOM     22  H   UNL A   1      28.754  25.112  25.082  1.00  0.00     0.192 HD
ENDBRANCH  14  16
ENDBRANCH   9  14
ENDBRANCH   7   8
ENDBRANCH   6   7
ENDBRANCH   3   6
ENDBRANCH   1   2
BRANCH   1  23
ATOM     23  C   UNL A   1      38.595  20.009  24.916  1.00  0.00     0.042 C 
BRANCH  23  24
ATOM     24  C   UNL A   1      39.309  19.365  26.088  1.00  0.00     0.118 C 
BRANCH  24  25
ATOM     25  N   UNL A   1      40.625  18.858  25.744  1.00  0.00    -0.352 N 
ATOM     26  C   UNL A   1      41.816  19.557  25.703  1.00  0.00     0.251 C 
ATOM     27  H   UNL A   1      40.676  17.902  25.511  1.00  0.00     0.163 HD
ATOM     28  O   UNL A   1      42.756  19.108  25.066  1.00  0.00    -0.269 OA
BRANCH  26  29
ATOM     29  C   UNL A   1      41.951  20.838  26.438  1.00  0.00     0.039 A 
ATOM     30  C   UNL A   1      41.680  20.888  27.809  1.00  0.00     0.014 A 
ATOM     31  C   UNL A   1      42.284  22.007  25.754  1.00  0.00     0.014 A 
ATOM     32  C   UNL A   1      41.751  22.111  28.472  1.00  0.00     0.010 A 
ATOM     33  C   UNL A   1      42.496  23.182  26.430  1.00  0.00     0.010 A 
ATOM     34  C   UNL A   1      42.151  23.257  27.770  1.00  0.00    -0.014 A 
BRANCH  34  35
ATOM     35  C   UNL A   1      42.305  24.534  28.452  1.00  0.00     0.031 A 
ATOM     36  C   UNL A   1      41.169  25.466  28.242  1.00  0.00     0.074 A 
ATOM     37  C   UNL A   1      43.279  24.778  29.357  1.00  0.00     0.049 A 
ATOM     38  N   UNL A   1      41.176  26.577  27.585  1.00  0.00    -0.248 NA
ATOM     39  C   UNL A   1      39.832  25.032  28.679  1.00  0.00     0.031 C 
ATOM     40  C   UNL A   1      44.265  23.832  29.898  1.00  0.00     0.029 A 
ATOM     41  N   UNL A   1      43.501  25.896  30.102  1.00  0.00    -0.354 N 
ATOM     42  C   UNL A   1      39.900  27.107  27.756  1.00  0.00     0.074 A 
ATOM     43  C   UNL A   1      39.072  26.032  28.231  1.00  0.00     0.031 C 
ATOM     44  C   UNL A   1      44.784  24.327  31.042  1.00  0.00     0.029 A 
ATOM     45  C   UNL A   1      44.309  25.684  31.217  1.00  0.00     0.049 A 
ATOM     46  H   UNL A   1      43.124  26.776  29.873  1.00  0.00     0.167 HD
ATOM     47  C   UNL A   1      39.699  28.453  27.776  1.00  0.00     0.034 A 
ATOM     48  C   UNL A   1      44.530  26.550  32.236  1.00  0.00     0.034 A 
ATOM     49  C   UNL A   1      40.826  29.167  27.229  1.00  0.00     0.049 A 
ATOM     50  C   UNL A   1      44.184  27.900  31.742  1.00  0.00     0.074 A 
ATOM     51  C   UNL A   1      41.509  29.147  26.029  1.00  0.00     0.029 A 
ATOM     52  N   UNL A   1      41.661  29.783  28.128  1.00  0.00    -0.354 N 
ATOM     53  N   UNL A   1      44.850  28.521  30.810  1.00  0.00    -0.248 NA
ATOM     54  C   UNL A   1      42.846  28.400  31.997  1.00  0.00     0.031 C 
ATOM     55  C   UNL A   1      42.880  29.318  26.383  1.00  0.00     0.029 A 
ATOM     56  C   UNL A   1      42.951  29.502  27.766  1.00  0.00     0.049 A 
ATOM     57  H   UNL A   1      41.381  30.331  28.897  1.00  0.00     0.167 HD
ATOM     58  C   UNL A   1      43.871  29.152  30.055  1.00  0.00     0.074 A 
ATOM     59  C   UNL A   1      42.683  29.153  30.906  1.00  0.00     0.031 C 
ATOM     60  C   UNL A   1      44.036  29.344  28.712  1.00  0.00     0.034 A 
BRANCH  47  61
ATOM     61  C   UNL A   1      38.667  29.140  28.640  1.00  0.00     0.023 A 
ATOM     62  C   UNL A   1      37.830  30.096  28.023  1.00  0.00     0.012 A 
ATOM     63  C   UNL A   1      38.652  29.095  30.053  1.00  0.00     0.148 A 
ATOM     64  C   UNL A   1      37.048  30.979  28.776  1.00  0.00     0.002 A 
ATOM     65  C   UNL A   1      37.801  29.907  30.793  1.00  0.00     0.091 A 
ATOM     66  F   UNL A   1      39.563  28.373  30.713  1.00  0.00    -0.205 F 
ATOM     67  C   UNL A   1      37.020  30.875  30.162  1.00  0.00     0.022 A 
BRANCH  65  68
ATOM     68  S   UNL A   1      37.684  29.756  32.579  1.00  0.00     0.127 S 
ATOM     69  O   UNL A   1      39.010  30.194  32.999  1.00  0.00    -0.237 OA
ATOM     70  O   UNL A   1      36.595  30.684  32.888  1.00  0.00    -0.237 OA
ATOM     71  O   UNL A   1      37.358  28.357  32.829  1.00  0.00    -0.744 OA
ENDBRANCH  65  68
ENDBRANCH  47  61
BRANCH  48  72
ATOM     72  C   UNL A   1      44.797  26.297  33.670  1.00  0.00     0.023 A 
ATOM     73  C   UNL A   1      46.109  26.441  34.166  1.00  0.00     0.012 A 
ATOM     74  C   UNL A   1      43.737  26.213  34.599  1.00  0.00     0.148 A 
ATOM     75  C   UNL A   1      46.353  26.547  35.541  1.00  0.00     0.002 A 
ATOM     76  C   UNL A   1      43.984  26.318  35.965  1.00  0.00     0.091 A 
ATOM     77  F   UNL A   1      42.482  26.130  34.137  1.00  0.00    -0.205 F 
ATOM     78  C   UNL A   1      45.290  26.499  36.439  1.00  0.00     0.022 A 
BRANCH  76  79
ATOM     79  S   UNL A   1      42.663  26.299  37.186  1.00  0.00     0.127 S 
ATOM     80  O   UNL A   1      41.891  27.486  36.816  1.00  0.00    -0.237 OA
ATOM     81  O   UNL A   1      42.006  25.027  36.899  1.00  0.00    -0.237 OA
ATOM     82  O   UNL A   1      43.320  26.391  38.483  1.00  0.00    -0.744 OA
ENDBRANCH  76  79
ENDBRANCH  48  72
BRANCH  60  83
ATOM     83  C   UNL A   1      45.415  29.132  28.131  1.00  0.00     0.023 A 
ATOM     84  C   UNL A   1      45.826  27.904  27.567  1.00  0.00     0.012 A 
ATOM     85  C   UNL A   1      46.269  30.242  28.024  1.00  0.00     0.148 A 
ATOM     86  C   UNL A   1      47.073  27.780  26.945  1.00  0.00     0.002 A 
ATOM     87  C   UNL A   1      47.487  30.128  27.364  1.00  0.00     0.091 A 
ATOM     88  F   UNL A   1      45.868  31.404  28.561  1.00  0.00    -0.205 F 
ATOM     89  C   UNL A   1      47.899  28.897  26.833  1.00  0.00     0.022 A 
BRANCH  87  90
ATOM     90  S   UNL A   1      48.535  31.558  27.088  1.00  0.00     0.127 S 
ATOM     91  O   UNL A   1      49.686  30.968  26.410  1.00  0.00    -0.237 OA
ATOM     92  O   UNL A   1      47.695  32.407  26.240  1.00  0.00    -0.237 OA
ATOM     93  O   UNL A   1      48.798  32.119  28.408  1.00  0.00    -0.744 OA
ENDBRANCH  87  90
ENDBRANCH  60  83
ENDBRANCH  34  35
ENDBRANCH  26  29
ENDBRANCH  24  25
ENDBRANCH  23  24
ENDBRANCH   1  23
TORSDOF 17
ENDMDL
