MODEL 1
REMARK VINA RESULT:     -10.5      0.000      0.000
REMARK SMILES C=CCN(CC(=O)NCCCNC(=O)c1ccc(-c2c3nc(c(-c4cccc(S(=O)(=O)[O-])c4F)c4ccc([nH]4)c(-c4cccc(S(=O)(=O)[O-])c4F)c4nc(c(-c5cccc(S(=O)(=O)[O-])c5F)c5ccc2[nH]5)C=C4)C=C3)cc1)C(=O)N1CC[C@@H]([NH+]2CCCCC2)C1
REMARK SMILES IDX 9 1 8 2 6 3 7 4 5 6 4 7 3 8 2 9 1 10 78 11 79 12 80 13 81 14
REMARK SMILES IDX 90 15 82 16 83 17 84 18 85 19 89 20 86 22 88 23 87 24 10 25
REMARK SMILES IDX 11 26 12 27 13 28 14 30 15 31 16 32 77 33 17 34 76 35 18 36
REMARK SMILES IDX 19 37 20 38 70 39 21 40 75 41 69 42 71 43 22 44 74 45 68 46
REMARK SMILES IDX 67 47 23 49 55 50 35 51 54 52 36 53 39 54 53 55 72 56 37 57
REMARK SMILES IDX 38 58 52 60 73 61 40 62 24 63 25 64 33 65 26 66 28 67 34 68
REMARK SMILES IDX 27 69 29 70 30 71 31 72 32 73 56 74 57 75 65 76 58 77 60 78
REMARK SMILES IDX 66 79 59 80 61 81 62 82 63 83 64 84 41 85 42 86 50 87 43 88
REMARK SMILES IDX 45 89 51 90 44 91 46 92 47 93 48 94 49 95
REMARK H PARENT 8 5 84 21 12 29 71 48 39 59
REMARK Flexibility Score: inf
ROOT
ATOM      1  C   UNL A   1      37.520  20.905  24.682  1.00  0.00     0.117 C 
ENDROOT
BRANCH   1   2
ATOM      2  N   UNL A   1      38.047  22.215  24.996  1.00  0.00    -0.354 N 
ATOM      3  C   UNL A   1      37.510  23.231  25.728  1.00  0.00     0.239 C 
ATOM      4  O   UNL A   1      38.306  24.077  26.153  1.00  0.00    -0.273 OA
ATOM      5  H   UNL A   1      38.937  22.402  24.620  1.00  0.00     0.163 HD
BRANCH   3   6
ATOM      6  C   UNL A   1      36.020  23.313  26.119  1.00  0.00     0.221 C 
BRANCH   6   7
ATOM      7  N   UNL A   1      34.975  23.631  25.129  1.00  0.00    -0.312 N 
BRANCH   7   8
ATOM      8  C   UNL A   1      34.582  25.031  25.008  1.00  0.00     0.149 C 
BRANCH   8   9
ATOM      9  C   UNL A   1      33.404  25.355  25.880  1.00  0.00    -0.013 C 
ATOM     10  C   UNL A   1      32.622  24.408  26.419  1.00  0.00     0.006 C 
ENDBRANCH   8   9
ENDBRANCH   7   8
BRANCH   7  11
ATOM     11  C   UNL A   1      34.627  22.790  24.071  1.00  0.00     0.320 C 
ATOM     12  O   UNL A   1      35.071  22.949  22.934  1.00  0.00    -0.248 OA
BRANCH  11  13
ATOM     13  N   UNL A   1      33.823  21.718  24.341  1.00  0.00    -0.318 N 
ATOM     14  C   UNL A   1      32.440  21.580  23.985  1.00  0.00     0.128 C 
ATOM     15  C   UNL A   1      34.348  20.379  24.595  1.00  0.00     0.186 C 
ATOM     16  C   UNL A   1      31.966  20.590  25.021  1.00  0.00     0.088 C 
ATOM     17  C   UNL A   1      33.100  19.545  25.052  1.00  0.00     0.205 C 
BRANCH  17  18
ATOM     18  N   UNL A   1      32.893  18.279  24.321  1.00  0.00    -0.331 N 
ATOM     19  C   UNL A   1      32.150  17.207  24.988  1.00  0.00     0.262 C 
ATOM     20  C   UNL A   1      34.096  17.751  23.668  1.00  0.00     0.262 C 
ATOM     21  H   UNL A   1      32.249  18.612  23.603  1.00  0.00     0.348 HD
ATOM     22  C   UNL A   1      32.968  16.341  25.952  1.00  0.00     0.062 C 
ATOM     23  C   UNL A   1      35.030  16.964  24.586  1.00  0.00     0.062 C 
ATOM     24  C   UNL A   1      34.294  15.872  25.358  1.00  0.00     0.012 C 
ENDBRANCH  17  18
ENDBRANCH  11  13
ENDBRANCH   7  11
ENDBRANCH   6   7
ENDBRANCH   3   6
ENDBRANCH   1   2
BRANCH   1  25
ATOM     25  C   UNL A   1      38.465  19.740  24.967  1.00  0.00     0.042 C 
BRANCH  25  26
ATOM     26  C   UNL A   1      39.309  19.861  26.237  1.00  0.00     0.118 C 
BRANCH  26  27
ATOM     27  N   UNL A   1      40.618  19.236  26.122  1.00  0.00    -0.352 N 
ATOM     28  C   UNL A   1      41.893  19.744  26.112  1.00  0.00     0.251 C 
ATOM     29  H   UNL A   1      40.583  18.256  26.033  1.00  0.00     0.163 HD
ATOM     30  O   UNL A   1      42.811  18.976  25.822  1.00  0.00    -0.269 OA
BRANCH  28  31
ATOM     31  C   UNL A   1      42.207  21.160  26.432  1.00  0.00     0.039 A 
ATOM     32  C   UNL A   1      42.327  21.517  27.782  1.00  0.00     0.014 A 
ATOM     33  C   UNL A   1      42.282  22.157  25.458  1.00  0.00     0.014 A 
ATOM     34  C   UNL A   1      42.561  22.848  28.148  1.00  0.00     0.010 A 
ATOM     35  C   UNL A   1      42.581  23.476  25.818  1.00  0.00     0.010 A 
ATOM     36  C   UNL A   1      42.712  23.840  27.168  1.00  0.00    -0.014 A 
BRANCH  36  37
ATOM     37  C   UNL A   1      43.013  25.249  27.542  1.00  0.00     0.031 A 
ATOM     38  C   UNL A   1      44.418  25.789  27.459  1.00  0.00     0.074 A 
ATOM     39  C   UNL A   1      42.027  26.034  28.023  1.00  0.00     0.049 A 
ATOM     40  N   UNL A   1      44.862  26.981  27.767  1.00  0.00    -0.248 NA
ATOM     41  C   UNL A   1      45.462  24.864  26.991  1.00  0.00     0.031 C 
ATOM     42  C   UNL A   1      40.640  25.615  28.228  1.00  0.00     0.029 A 
ATOM     43  N   UNL A   1      42.046  27.340  28.449  1.00  0.00    -0.354 N 
ATOM     44  C   UNL A   1      46.237  26.941  27.568  1.00  0.00     0.074 A 
ATOM     45  C   UNL A   1      46.558  25.598  27.133  1.00  0.00     0.031 C 
ATOM     46  C   UNL A   1      39.940  26.643  28.737  1.00  0.00     0.029 A 
ATOM     47  C   UNL A   1      40.830  27.787  28.911  1.00  0.00     0.049 A 
ATOM     48  H   UNL A   1      42.854  27.902  28.427  1.00  0.00     0.167 HD
ATOM     49  C   UNL A   1      47.148  27.936  27.703  1.00  0.00     0.034 A 
ATOM     50  C   UNL A   1      40.467  28.984  29.413  1.00  0.00     0.034 A 
ATOM     51  C   UNL A   1      46.824  29.287  28.075  1.00  0.00     0.049 A 
ATOM     52  C   UNL A   1      41.483  30.093  29.484  1.00  0.00     0.074 A 
ATOM     53  C   UNL A   1      47.664  30.384  28.150  1.00  0.00     0.029 A 
ATOM     54  N   UNL A   1      45.559  29.729  28.430  1.00  0.00    -0.354 N 
ATOM     55  N   UNL A   1      42.745  30.078  29.131  1.00  0.00    -0.248 NA
ATOM     56  C   UNL A   1      41.014  31.395  29.982  1.00  0.00     0.031 C 
ATOM     57  C   UNL A   1      46.908  31.491  28.554  1.00  0.00     0.029 A 
ATOM     58  C   UNL A   1      45.595  31.082  28.724  1.00  0.00     0.049 A 
ATOM     59  H   UNL A   1      44.754  29.164  28.468  1.00  0.00     0.167 HD
ATOM     60  C   UNL A   1      43.211  31.372  29.328  1.00  0.00     0.074 A 
ATOM     61  C   UNL A   1      42.091  32.151  29.815  1.00  0.00     0.031 C 
ATOM     62  C   UNL A   1      44.460  31.864  29.140  1.00  0.00     0.034 A 
BRANCH  49  63
ATOM     63  C   UNL A   1      48.583  27.621  27.370  1.00  0.00     0.023 A 
ATOM     64  C   UNL A   1      49.433  27.131  28.383  1.00  0.00     0.012 A 
ATOM     65  C   UNL A   1      49.076  27.743  26.056  1.00  0.00     0.148 A 
ATOM     66  C   UNL A   1      50.756  26.796  28.102  1.00  0.00     0.002 A 
ATOM     67  C   UNL A   1      50.386  27.373  25.775  1.00  0.00     0.091 A 
ATOM     68  F   UNL A   1      48.262  28.232  25.108  1.00  0.00    -0.205 F 
ATOM     69  C   UNL A   1      51.229  26.907  26.798  1.00  0.00     0.022 A 
BRANCH  67  70
ATOM     70  S   UNL A   1      51.065  27.413  24.112  1.00  0.00     0.127 S 
ATOM     71  O   UNL A   1      50.040  26.702  23.355  1.00  0.00    -0.237 OA
ATOM     72  O   UNL A   1      51.144  28.847  23.838  1.00  0.00    -0.237 OA
ATOM     73  O   UNL A   1      52.362  26.746  24.201  1.00  0.00    -0.744 OA
ENDBRANCH  67  70
ENDBRANCH  49  63
BRANCH  50  74
ATOM     74  C   UNL A   1      39.047  29.224  29.795  1.00  0.00     0.023 A 
ATOM     75  C   UNL A   1      38.635  28.938  31.111  1.00  0.00     0.012 A 
ATOM     76  C   UNL A   1      38.121  29.773  28.889  1.00  0.00     0.148 A 
ATOM     77  C   UNL A   1      37.319  29.170  31.511  1.00  0.00     0.002 A 
ATOM     78  C   UNL A   1      36.824  30.052  29.309  1.00  0.00     0.091 A 
ATOM     79  F   UNL A   1      38.526  30.024  27.637  1.00  0.00    -0.205 F 
ATOM     80  C   UNL A   1      36.417  29.738  30.616  1.00  0.00     0.022 A 
BRANCH  78  81
ATOM     81  S   UNL A   1      35.638  30.901  28.261  1.00  0.00     0.127 S 
ATOM     82  O   UNL A   1      36.397  32.060  27.822  1.00  0.00    -0.237 OA
ATOM     83  O   UNL A   1      35.371  29.901  27.226  1.00  0.00    -0.237 OA
ATOM     84  O   UNL A   1      34.490  31.174  29.128  1.00  0.00    -0.744 OA
ENDBRANCH  78  81
ENDBRANCH  50  74
BRANCH  62  85
ATOM     85  C   UNL A   1      44.688  33.325  29.429  1.00  0.00     0.023 A 
ATOM     86  C   UNL A   1      45.106  33.723  30.713  1.00  0.00     0.012 A 
ATOM     87  C   UNL A   1      44.565  34.291  28.411  1.00  0.00     0.148 A 
ATOM     88  C   UNL A   1      45.375  35.063  30.988  1.00  0.00     0.002 A 
ATOM     89  C   UNL A   1      44.874  35.619  28.681  1.00  0.00     0.091 A 
ATOM     90  F   UNL A   1      44.143  33.898  27.200  1.00  0.00    -0.205 F 
ATOM     91  C   UNL A   1      45.271  36.009  29.971  1.00  0.00     0.022 A 
BRANCH  89  92
ATOM     92  S   UNL A   1      44.849  36.882  27.403  1.00  0.00     0.127 S 
ATOM     93  O   UNL A   1      45.286  38.066  28.142  1.00  0.00    -0.237 OA
ATOM     94  O   UNL A   1      45.821  36.374  26.435  1.00  0.00    -0.237 OA
ATOM     95  O   UNL A   1      43.477  36.917  26.910  1.00  0.00    -0.744 OA
ENDBRANCH  89  92
ENDBRANCH  62  85
ENDBRANCH  36  37
ENDBRANCH  28  31
ENDBRANCH  26  27
ENDBRANCH  25  26
ENDBRANCH   1  25
TORSDOF 19
ENDMDL
MODEL 2
REMARK VINA RESULT:     -10.4      2.955      4.927
REMARK SMILES C=CCN(CC(=O)NCCCNC(=O)c1ccc(-c2c3nc(c(-c4cccc(S(=O)(=O)[O-])c4F)c4ccc([nH]4)c(-c4cccc(S(=O)(=O)[O-])c4F)c4nc(c(-c5cccc(S(=O)(=O)[O-])c5F)c5ccc2[nH]5)C=C4)C=C3)cc1)C(=O)N1CC[C@@H]([NH+]2CCCCC2)C1
REMARK SMILES IDX 9 1 8 2 6 3 7 4 5 6 4 7 3 8 2 9 1 10 78 11 79 12 80 13 81 14
REMARK SMILES IDX 90 15 82 16 83 17 84 18 85 19 89 20 86 22 88 23 87 24 10 25
REMARK SMILES IDX 11 26 12 27 13 28 14 30 15 31 16 32 77 33 17 34 76 35 18 36
REMARK SMILES IDX 19 37 20 38 70 39 21 40 75 41 69 42 71 43 22 44 74 45 68 46
REMARK SMILES IDX 67 47 23 49 55 50 35 51 54 52 36 53 39 54 53 55 72 56 37 57
REMARK SMILES IDX 38 58 52 60 73 61 40 62 24 63 25 64 33 65 26 66 28 67 34 68
REMARK SMILES IDX 27 69 29 70 30 71 31 72 32 73 56 74 57 75 65 76 58 77 60 78
REMARK SMILES IDX 66 79 59 80 61 81 62 82 63 83 64 84 41 85 42 86 50 87 43 88
REMARK SMILES IDX 45 89 51 90 44 91 46 92 47 93 48 94 49 95
REMARK H PARENT 8 5 84 21 12 29 71 48 39 59
REMARK Flexibility Score: inf
ROOT
ATOM      1  C   UNL A   1      34.580  22.413  23.654  1.00  0.00     0.117 C 
ENDROOT
BRANCH   1   2
ATOM      2  N   UNL A   1      33.597  21.958  24.613  1.00  0.00    -0.354 N 
ATOM      3  C   UNL A   1      32.295  22.322  24.784  1.00  0.00     0.239 C 
ATOM      4  O   UNL A   1      31.583  21.526  25.410  1.00  0.00    -0.273 OA
ATOM      5  H   UNL A   1      33.921  21.274  25.243  1.00  0.00     0.163 HD
BRANCH   3   6
ATOM      6  C   UNL A   1      31.670  23.590  24.168  1.00  0.00     0.221 C 
BRANCH   6   7
ATOM      7  N   UNL A   1      32.219  24.932  24.433  1.00  0.00    -0.312 N 
BRANCH   7   8
ATOM      8  C   UNL A   1      32.783  25.166  25.759  1.00  0.00     0.149 C 
BRANCH   8   9
ATOM      9  C   UNL A   1      32.596  26.589  26.200  1.00  0.00    -0.013 C 
ATOM     10  C   UNL A   1      33.626  27.425  26.392  1.00  0.00     0.006 C 
ENDBRANCH   8   9
ENDBRANCH   7   8
BRANCH   7  11
ATOM     11  C   UNL A   1      32.580  25.835  23.432  1.00  0.00     0.320 C 
ATOM     12  O   UNL A   1      33.456  25.582  22.605  1.00  0.00    -0.248 OA
BRANCH  11  13
ATOM     13  N   UNL A   1      31.878  27.004  23.339  1.00  0.00    -0.318 N 
ATOM     14  C   UNL A   1      32.366  28.252  22.825  1.00  0.00     0.128 C 
ATOM     15  C   UNL A   1      30.419  27.050  23.294  1.00  0.00     0.186 C 
ATOM     16  C   UNL A   1      31.457  29.234  23.521  1.00  0.00     0.088 C 
ATOM     17  C   UNL A   1      30.068  28.576  23.398  1.00  0.00     0.205 C 
BRANCH  17  18
ATOM     18  N   UNL A   1      29.156  29.079  22.351  1.00  0.00    -0.331 N 
ATOM     19  C   UNL A   1      29.500  30.335  21.677  1.00  0.00     0.262 C 
ATOM     20  C   UNL A   1      27.736  29.057  22.721  1.00  0.00     0.262 C 
ATOM     21  H   UNL A   1      29.321  28.367  21.639  1.00  0.00     0.348 HD
ATOM     22  C   UNL A   1      29.102  31.612  22.425  1.00  0.00     0.062 C 
ATOM     23  C   UNL A   1      27.276  30.244  23.566  1.00  0.00     0.062 C 
ATOM     24  C   UNL A   1      27.666  31.581  22.942  1.00  0.00     0.012 C 
ENDBRANCH  17  18
ENDBRANCH  11  13
ENDBRANCH   7  11
ENDBRANCH   6   7
ENDBRANCH   3   6
ENDBRANCH   1   2
BRANCH   1  25
ATOM     25  C   UNL A   1      36.034  22.240  24.085  1.00  0.00     0.042 C 
BRANCH  25  26
ATOM     26  C   UNL A   1      36.255  21.836  25.544  1.00  0.00     0.118 C 
BRANCH  26  27
ATOM     27  N   UNL A   1      37.341  20.884  25.722  1.00  0.00    -0.352 N 
ATOM     28  C   UNL A   1      38.684  21.038  25.955  1.00  0.00     0.251 C 
ATOM     29  H   UNL A   1      37.056  19.943  25.663  1.00  0.00     0.163 HD
ATOM     30  O   UNL A   1      39.395  20.035  25.886  1.00  0.00    -0.269 OA
BRANCH  28  31
ATOM     31  C   UNL A   1      39.309  22.346  26.280  1.00  0.00     0.039 A 
ATOM     32  C   UNL A   1      40.364  22.359  27.202  1.00  0.00     0.014 A 
ATOM     33  C   UNL A   1      38.822  23.560  25.790  1.00  0.00     0.014 A 
ATOM     34  C   UNL A   1      40.952  23.567  27.594  1.00  0.00     0.010 A 
ATOM     35  C   UNL A   1      39.452  24.763  26.131  1.00  0.00     0.010 A 
ATOM     36  C   UNL A   1      40.516  24.782  27.046  1.00  0.00    -0.014 A 
BRANCH  36  37
ATOM     37  C   UNL A   1      41.167  26.069  27.416  1.00  0.00     0.031 A 
ATOM     38  C   UNL A   1      42.592  26.358  27.019  1.00  0.00     0.074 A 
ATOM     39  C   UNL A   1      40.495  26.961  28.172  1.00  0.00     0.049 A 
ATOM     40  N   UNL A   1      43.322  27.414  27.276  1.00  0.00    -0.248 NA
ATOM     41  C   UNL A   1      43.295  25.318  26.251  1.00  0.00     0.031 C 
ATOM     42  C   UNL A   1      39.139  26.775  28.691  1.00  0.00     0.029 A 
ATOM     43  N   UNL A   1      40.869  28.191  28.657  1.00  0.00    -0.354 N 
ATOM     44  C   UNL A   1      44.577  27.152  26.738  1.00  0.00     0.074 A 
ATOM     45  C   UNL A   1      44.517  25.827  26.160  1.00  0.00     0.031 C 
ATOM     46  C   UNL A   1      38.794  27.851  29.417  1.00  0.00     0.029 A 
ATOM     47  C   UNL A   1      39.907  28.795  29.432  1.00  0.00     0.049 A 
ATOM     48  H   UNL A   1      41.744  28.601  28.467  1.00  0.00     0.167 HD
ATOM     49  C   UNL A   1      45.671  27.951  26.701  1.00  0.00     0.034 A 
ATOM     50  C   UNL A   1      39.914  29.978  30.078  1.00  0.00     0.034 A 
ATOM     51  C   UNL A   1      45.715  29.292  27.221  1.00  0.00     0.049 A 
ATOM     52  C   UNL A   1      41.116  30.876  29.959  1.00  0.00     0.074 A 
ATOM     53  C   UNL A   1      46.749  30.209  27.149  1.00  0.00     0.029 A 
ATOM     54  N   UNL A   1      44.681  29.911  27.905  1.00  0.00    -0.354 N 
ATOM     55  N   UNL A   1      42.233  30.675  29.303  1.00  0.00    -0.248 NA
ATOM     56  C   UNL A   1      41.042  32.181  30.633  1.00  0.00     0.031 C 
ATOM     57  C   UNL A   1      46.341  31.383  27.793  1.00  0.00     0.029 A 
ATOM     58  C   UNL A   1      45.050  31.197  28.259  1.00  0.00     0.049 A 
ATOM     59  H   UNL A   1      43.812  29.496  28.109  1.00  0.00     0.167 HD
ATOM     60  C   UNL A   1      42.978  31.839  29.454  1.00  0.00     0.074 A 
ATOM     61  C   UNL A   1      42.178  32.748  30.248  1.00  0.00     0.031 C 
ATOM     62  C   UNL A   1      44.220  32.120  28.990  1.00  0.00     0.034 A 
BRANCH  49  63
ATOM     63  C   UNL A   1      46.899  27.424  26.003  1.00  0.00     0.023 A 
ATOM     64  C   UNL A   1      47.047  27.638  24.618  1.00  0.00     0.012 A 
ATOM     65  C   UNL A   1      47.929  26.781  26.718  1.00  0.00     0.148 A 
ATOM     66  C   UNL A   1      48.186  27.195  23.948  1.00  0.00     0.002 A 
ATOM     67  C   UNL A   1      49.079  26.374  26.049  1.00  0.00     0.091 A 
ATOM     68  F   UNL A   1      47.762  26.566  28.030  1.00  0.00    -0.205 F 
ATOM     69  C   UNL A   1      49.205  26.574  24.665  1.00  0.00     0.022 A 
BRANCH  67  70
ATOM     70  S   UNL A   1      50.475  25.629  26.898  1.00  0.00     0.127 S 
ATOM     71  O   UNL A   1      49.865  24.441  27.488  1.00  0.00    -0.237 OA
ATOM     72  O   UNL A   1      51.404  25.359  25.802  1.00  0.00    -0.237 OA
ATOM     73  O   UNL A   1      50.942  26.636  27.848  1.00  0.00    -0.744 OA
ENDBRANCH  67  70
ENDBRANCH  49  63
BRANCH  50  74
ATOM     74  C   UNL A   1      38.698  30.423  30.815  1.00  0.00     0.023 A 
ATOM     75  C   UNL A   1      38.623  30.208  32.204  1.00  0.00     0.012 A 
ATOM     76  C   UNL A   1      37.646  31.095  30.166  1.00  0.00     0.148 A 
ATOM     77  C   UNL A   1      37.510  30.631  32.931  1.00  0.00     0.002 A 
ATOM     78  C   UNL A   1      36.563  31.561  30.904  1.00  0.00     0.091 A 
ATOM     79  F   UNL A   1      37.727  31.277  28.840  1.00  0.00    -0.205 F 
ATOM     80  C   UNL A   1      36.486  31.318  32.285  1.00  0.00     0.022 A 
BRANCH  78  81
ATOM     81  S   UNL A   1      35.266  32.567  30.174  1.00  0.00     0.127 S 
ATOM     82  O   UNL A   1      34.351  32.739  31.289  1.00  0.00    -0.237 OA
ATOM     83  O   UNL A   1      35.998  33.771  29.776  1.00  0.00    -0.237 OA
ATOM     84  O   UNL A   1      34.764  31.781  29.045  1.00  0.00    -0.744 OA
ENDBRANCH  78  81
ENDBRANCH  50  74
BRANCH  62  85
ATOM     85  C   UNL A   1      44.792  33.479  29.299  1.00  0.00     0.023 A 
ATOM     86  C   UNL A   1      45.523  33.672  30.486  1.00  0.00     0.012 A 
ATOM     87  C   UNL A   1      44.674  34.539  28.378  1.00  0.00     0.148 A 
ATOM     88  C   UNL A   1      46.107  34.907  30.766  1.00  0.00     0.002 A 
ATOM     89  C   UNL A   1      45.293  35.755  28.644  1.00  0.00     0.091 A 
ATOM     90  F   UNL A   1      43.954  34.344  27.263  1.00  0.00    -0.205 F 
ATOM     91  C   UNL A   1      46.003  35.943  29.842  1.00  0.00     0.022 A 
BRANCH  89  92
ATOM     92  S   UNL A   1      45.279  37.110  27.465  1.00  0.00     0.127 S 
ATOM     93  O   UNL A   1      43.846  37.317  27.261  1.00  0.00    -0.237 OA
ATOM     94  O   UNL A   1      45.950  38.180  28.204  1.00  0.00    -0.237 OA
ATOM     95  O   UNL A   1      46.020  36.629  26.305  1.00  0.00    -0.744 OA
ENDBRANCH  89  92
ENDBRANCH  62  85
ENDBRANCH  36  37
ENDBRANCH  28  31
ENDBRANCH  26  27
ENDBRANCH  25  26
ENDBRANCH   1  25
TORSDOF 19
ENDMDL
MODEL 3
REMARK VINA RESULT:     -10.3      2.919      4.967
REMARK SMILES C=CCN(CC(=O)NCCCNC(=O)c1ccc(-c2c3nc(c(-c4cccc(S(=O)(=O)[O-])c4F)c4ccc([nH]4)c(-c4cccc(S(=O)(=O)[O-])c4F)c4nc(c(-c5cccc(S(=O)(=O)[O-])c5F)c5ccc2[nH]5)C=C4)C=C3)cc1)C(=O)N1CC[C@@H]([NH+]2CCCCC2)C1
REMARK SMILES IDX 9 1 8 2 6 3 7 4 5 6 4 7 3 8 2 9 1 10 78 11 79 12 80 13 81 14
REMARK SMILES IDX 90 15 82 16 83 17 84 18 85 19 89 20 86 22 88 23 87 24 10 25
REMARK SMILES IDX 11 26 12 27 13 28 14 30 15 31 16 32 77 33 17 34 76 35 18 36
REMARK SMILES IDX 19 37 20 38 70 39 21 40 75 41 69 42 71 43 22 44 74 45 68 46
REMARK SMILES IDX 67 47 23 49 55 50 35 51 54 52 36 53 39 54 53 55 72 56 37 57
REMARK SMILES IDX 38 58 52 60 73 61 40 62 24 63 25 64 33 65 26 66 28 67 34 68
REMARK SMILES IDX 27 69 29 70 30 71 31 72 32 73 56 74 57 75 65 76 58 77 60 78
REMARK SMILES IDX 66 79 59 80 61 81 62 82 63 83 64 84 41 85 42 86 50 87 43 88
REMARK SMILES IDX 45 89 51 90 44 91 46 92 47 93 48 94 49 95
REMARK H PARENT 8 5 84 21 12 29 71 48 39 59
REMARK Flexibility Score: inf
ROOT
ATOM      1  C   UNL A   1      33.560  21.473  26.460  1.00  0.00     0.117 C 
ENDROOT
BRANCH   1   2
ATOM      2  N   UNL A   1      32.426  22.102  27.102  1.00  0.00    -0.354 N 
ATOM      3  C   UNL A   1      31.740  23.233  26.772  1.00  0.00     0.239 C 
ATOM      4  O   UNL A   1      30.603  23.339  27.249  1.00  0.00    -0.273 OA
ATOM      5  H   UNL A   1      32.097  21.638  27.905  1.00  0.00     0.163 HD
BRANCH   3   6
ATOM      6  C   UNL A   1      32.262  24.298  25.787  1.00  0.00     0.221 C 
BRANCH   6   7
ATOM      7  N   UNL A   1      31.899  24.277  24.359  1.00  0.00    -0.312 N 
BRANCH   7   8
ATOM      8  C   UNL A   1      32.310  23.107  23.590  1.00  0.00     0.149 C 
BRANCH   8   9
ATOM      9  C   UNL A   1      33.743  23.202  23.154  1.00  0.00    -0.013 C 
ATOM     10  C   UNL A   1      34.403  24.367  23.094  1.00  0.00     0.006 C 
ENDBRANCH   8   9
ENDBRANCH   7   8
BRANCH   7  11
ATOM     11  C   UNL A   1      30.899  25.073  23.800  1.00  0.00     0.320 C 
ATOM     12  O   UNL A   1      29.947  24.594  23.184  1.00  0.00    -0.248 OA
BRANCH  11  13
ATOM     13  N   UNL A   1      30.957  26.422  24.015  1.00  0.00    -0.318 N 
ATOM     14  C   UNL A   1      32.147  27.207  24.185  1.00  0.00     0.128 C 
ATOM     15  C   UNL A   1      29.881  27.331  23.632  1.00  0.00     0.186 C 
ATOM     16  C   UNL A   1      31.615  28.381  24.970  1.00  0.00     0.088 C 
ATOM     17  C   UNL A   1      30.292  28.714  24.251  1.00  0.00     0.205 C 
BRANCH  17  18
ATOM     18  N   UNL A   1      30.286  29.847  23.305  1.00  0.00    -0.331 N 
ATOM     19  C   UNL A   1      29.897  31.168  23.809  1.00  0.00     0.262 C 
ATOM     20  C   UNL A   1      29.631  29.566  22.023  1.00  0.00     0.262 C 
ATOM     21  H   UNL A   1      31.290  29.932  23.150  1.00  0.00     0.348 HD
ATOM     22  C   UNL A   1      28.388  31.422  23.889  1.00  0.00     0.062 C 
ATOM     23  C   UNL A   1      28.108  29.688  22.040  1.00  0.00     0.062 C 
ATOM     24  C   UNL A   1      27.645  31.022  22.618  1.00  0.00     0.012 C 
ENDBRANCH  17  18
ENDBRANCH  11  13
ENDBRANCH   7  11
ENDBRANCH   6   7
ENDBRANCH   3   6
ENDBRANCH   1   2
BRANCH   1  25
ATOM     25  C   UNL A   1      34.918  22.077  26.807  1.00  0.00     0.042 C 
BRANCH  25  26
ATOM     26  C   UNL A   1      35.927  22.155  25.660  1.00  0.00     0.118 C 
BRANCH  26  27
ATOM     27  N   UNL A   1      36.956  21.128  25.724  1.00  0.00    -0.352 N 
ATOM     28  C   UNL A   1      38.313  21.181  25.922  1.00  0.00     0.251 C 
ATOM     29  H   UNL A   1      36.611  20.214  25.601  1.00  0.00     0.163 HD
ATOM     30  O   UNL A   1      38.956  20.145  25.750  1.00  0.00    -0.269 OA
BRANCH  28  31
ATOM     31  C   UNL A   1      39.027  22.418  26.328  1.00  0.00     0.039 A 
ATOM     32  C   UNL A   1      38.567  23.640  25.817  1.00  0.00     0.014 A 
ATOM     33  C   UNL A   1      40.188  22.402  27.103  1.00  0.00     0.014 A 
ATOM     34  C   UNL A   1      39.236  24.833  26.115  1.00  0.00     0.010 A 
ATOM     35  C   UNL A   1      40.820  23.601  27.454  1.00  0.00     0.010 A 
ATOM     36  C   UNL A   1      40.359  24.829  26.955  1.00  0.00    -0.014 A 
BRANCH  36  37
ATOM     37  C   UNL A   1      41.048  26.097  27.321  1.00  0.00     0.031 A 
ATOM     38  C   UNL A   1      42.474  26.353  26.902  1.00  0.00     0.074 A 
ATOM     39  C   UNL A   1      40.411  27.001  28.092  1.00  0.00     0.049 A 
ATOM     40  N   UNL A   1      43.234  27.388  27.153  1.00  0.00    -0.248 NA
ATOM     41  C   UNL A   1      43.138  25.299  26.119  1.00  0.00     0.031 C 
ATOM     42  C   UNL A   1      39.059  26.846  28.632  1.00  0.00     0.029 A 
ATOM     43  N   UNL A   1      40.824  28.218  28.577  1.00  0.00    -0.354 N 
ATOM     44  C   UNL A   1      44.473  27.099  26.595  1.00  0.00     0.074 A 
ATOM     45  C   UNL A   1      44.371  25.779  26.010  1.00  0.00     0.031 C 
ATOM     46  C   UNL A   1      38.753  27.926  29.369  1.00  0.00     0.029 A 
ATOM     47  C   UNL A   1      39.889  28.843  29.371  1.00  0.00     0.049 A 
ATOM     48  H   UNL A   1      41.705  28.607  28.376  1.00  0.00     0.167 HD
ATOM     49  C   UNL A   1      45.587  27.870  26.544  1.00  0.00     0.034 A 
ATOM     50  C   UNL A   1      39.936  30.021  30.022  1.00  0.00     0.034 A 
ATOM     51  C   UNL A   1      45.672  29.206  27.070  1.00  0.00     0.049 A 
ATOM     52  C   UNL A   1      41.158  30.889  29.889  1.00  0.00     0.074 A 
ATOM     53  C   UNL A   1      46.728  30.098  26.986  1.00  0.00     0.029 A 
ATOM     54  N   UNL A   1      44.665  29.847  27.774  1.00  0.00    -0.354 N 
ATOM     55  N   UNL A   1      42.259  30.664  29.214  1.00  0.00    -0.248 NA
ATOM     56  C   UNL A   1      41.128  32.192  30.572  1.00  0.00     0.031 C 
ATOM     57  C   UNL A   1      46.359  31.278  27.643  1.00  0.00     0.029 A 
ATOM     58  C   UNL A   1      45.071  31.122  28.129  1.00  0.00     0.049 A 
ATOM     59  H   UNL A   1      43.789  29.453  27.989  1.00  0.00     0.167 HD
ATOM     60  C   UNL A   1      43.035  31.808  29.359  1.00  0.00     0.074 A 
ATOM     61  C   UNL A   1      42.271  32.733  30.171  1.00  0.00     0.031 C 
ATOM     62  C   UNL A   1      44.277  32.061  28.878  1.00  0.00     0.034 A 
BRANCH  49  63
ATOM     63  C   UNL A   1      46.789  27.316  25.824  1.00  0.00     0.023 A 
ATOM     64  C   UNL A   1      47.590  26.351  26.467  1.00  0.00     0.012 A 
ATOM     65  C   UNL A   1      47.091  27.695  24.501  1.00  0.00     0.148 A 
ATOM     66  C   UNL A   1      48.689  25.791  25.817  1.00  0.00     0.002 A 
ATOM     67  C   UNL A   1      48.167  27.106  23.846  1.00  0.00     0.091 A 
ATOM     68  F   UNL A   1      46.333  28.631  23.913  1.00  0.00    -0.205 F 
ATOM     69  C   UNL A   1      48.971  26.161  24.505  1.00  0.00     0.022 A 
BRANCH  67  70
ATOM     70  S   UNL A   1      48.567  27.465  22.132  1.00  0.00     0.127 S 
ATOM     71  O   UNL A   1      47.379  28.192  21.696  1.00  0.00    -0.237 OA
ATOM     72  O   UNL A   1      49.774  28.281  22.254  1.00  0.00    -0.237 OA
ATOM     73  O   UNL A   1      48.781  26.167  21.498  1.00  0.00    -0.744 OA
ENDBRANCH  67  70
ENDBRANCH  49  63
BRANCH  50  74
ATOM     74  C   UNL A   1      38.743  30.492  30.781  1.00  0.00     0.023 A 
ATOM     75  C   UNL A   1      38.707  30.317  32.178  1.00  0.00     0.012 A 
ATOM     76  C   UNL A   1      37.675  31.150  30.144  1.00  0.00     0.148 A 
ATOM     77  C   UNL A   1      37.617  30.766  32.924  1.00  0.00     0.002 A 
ATOM     78  C   UNL A   1      36.616  31.642  30.899  1.00  0.00     0.091 A 
ATOM     79  F   UNL A   1      37.719  31.294  28.811  1.00  0.00    -0.205 F 
ATOM     80  C   UNL A   1      36.578  31.438  32.288  1.00  0.00     0.022 A 
BRANCH  78  81
ATOM     81  S   UNL A   1      35.302  32.632  30.178  1.00  0.00     0.127 S 
ATOM     82  O   UNL A   1      34.799  31.756  29.134  1.00  0.00    -0.237 OA
ATOM     83  O   UNL A   1      34.402  32.825  31.316  1.00  0.00    -0.237 OA
ATOM     84  O   UNL A   1      35.955  33.863  29.727  1.00  0.00    -0.744 OA
ENDBRANCH  78  81
ENDBRANCH  50  74
BRANCH  62  85
ATOM     85  C   UNL A   1      44.887  33.403  29.184  1.00  0.00     0.023 A 
ATOM     86  C   UNL A   1      45.617  33.579  30.375  1.00  0.00     0.012 A 
ATOM     87  C   UNL A   1      44.806  34.463  28.258  1.00  0.00     0.148 A 
ATOM     88  C   UNL A   1      46.236  34.797  30.653  1.00  0.00     0.002 A 
ATOM     89  C   UNL A   1      45.459  35.661  28.524  1.00  0.00     0.091 A 
ATOM     90  F   UNL A   1      44.087  34.285  27.141  1.00  0.00    -0.205 F 
ATOM     91  C   UNL A   1      46.169  35.833  29.724  1.00  0.00     0.022 A 
BRANCH  89  92
ATOM     92  S   UNL A   1      45.492  37.011  27.339  1.00  0.00     0.127 S 
ATOM     93  O   UNL A   1      44.071  37.322  27.198  1.00  0.00    -0.237 OA
ATOM     94  O   UNL A   1      46.274  38.030  28.041  1.00  0.00    -0.237 OA
ATOM     95  O   UNL A   1      46.143  36.475  26.149  1.00  0.00    -0.744 OA
ENDBRANCH  89  92
ENDBRANCH  62  85
ENDBRANCH  36  37
ENDBRANCH  28  31
ENDBRANCH  26  27
ENDBRANCH  25  26
ENDBRANCH   1  25
TORSDOF 19
ENDMDL
