MODEL 1
REMARK VINA RESULT:     -13.0      0.000      0.000
REMARK SMILES C[C@H](C(=O)NCCCNC(=O)c1ccc(-c2c3nc(c(-c4cccc(S(=O)(=O)[O-])c4F)c4ccc([nH]4)c(-c4cccc(S(=O)(=O)[O-])c4F)c4nc(c(-c5cccc(S(=O)(=O)[O-])c5F)c5ccc2[nH]5)C=C4)C=C3)cc1)N1C(=O)C[C@@H](N2C(=O)/C(=C/c3ccccc3)SC2=S)C1=O
REMARK SMILES IDX 7 1 6 2 5 3 3 4 4 5 2 7 1 8 75 9 76 10 94 11 77 12 78 13
REMARK SMILES IDX 79 14 95 15 80 16 81 17 92 18 82 19 83 20 91 21 93 22 84 23
REMARK SMILES IDX 85 24 86 25 90 26 87 27 89 28 88 29 8 30 9 31 10 32 11 34
REMARK SMILES IDX 12 35 13 36 74 37 14 38 73 39 15 40 16 41 17 42 67 43 18 44
REMARK SMILES IDX 72 45 66 46 68 47 19 48 71 49 65 50 64 51 20 53 52 54 32 55
REMARK SMILES IDX 51 56 33 57 36 58 50 59 69 60 34 61 35 62 49 64 70 65 37 66
REMARK SMILES IDX 21 67 22 68 30 69 23 70 25 71 31 72 24 73 26 74 27 75 28 76
REMARK SMILES IDX 29 77 53 78 54 79 62 80 55 81 57 82 63 83 56 84 58 85 59 86
REMARK SMILES IDX 60 87 61 88 38 89 39 90 47 91 40 92 42 93 48 94 41 95 43 96
REMARK SMILES IDX 44 97 45 98 46 99
REMARK H PARENT 5 6 9 33 68 52 36 63
REMARK Flexibility Score: inf
ROOT
ATOM      1  C   UNL A   1      38.272  20.383  24.998  1.00  0.00     0.042 C 
ENDROOT
BRANCH   1   2
ATOM      2  C   UNL A   1      37.448  21.647  24.842  1.00  0.00     0.117 C 
BRANCH   2   3
ATOM      3  N   UNL A   1      36.463  21.827  25.897  1.00  0.00    -0.354 N 
ATOM      4  C   UNL A   1      35.165  21.403  25.952  1.00  0.00     0.243 C 
ATOM      5  O   UNL A   1      34.603  21.403  27.052  1.00  0.00    -0.273 OA
ATOM      6  H   UNL A   1      36.776  22.327  26.686  1.00  0.00     0.163 HD
BRANCH   4   7
ATOM      7  C   UNL A   1      34.436  20.893  24.698  1.00  0.00     0.179 C 
ATOM      8  C   UNL A   1      33.977  19.436  24.821  1.00  0.00     0.042 C 
BRANCH   7   9
ATOM      9  N   UNL A   1      33.413  21.783  24.138  1.00  0.00    -0.268 N 
ATOM     10  C   UNL A   1      32.118  21.723  24.573  1.00  0.00     0.232 C 
ATOM     11  C   UNL A   1      33.608  22.817  23.265  1.00  0.00     0.253 C 
ATOM     12  O   UNL A   1      31.626  20.865  25.290  1.00  0.00    -0.274 OA
ATOM     13  C   UNL A   1      31.330  22.866  24.006  1.00  0.00     0.136 C 
ATOM     14  C   UNL A   1      32.344  23.644  23.191  1.00  0.00     0.191 C 
ATOM     15  O   UNL A   1      34.619  23.113  22.644  1.00  0.00    -0.272 OA
BRANCH  14  16
ATOM     16  N   UNL A   1      32.637  25.013  23.650  1.00  0.00    -0.280 N 
ATOM     17  C   UNL A   1      32.890  25.242  24.995  1.00  0.00     0.266 C 
ATOM     18  C   UNL A   1      32.746  26.112  22.821  1.00  0.00     0.149 C 
ATOM     19  O   UNL A   1      32.923  24.380  25.858  1.00  0.00    -0.268 OA
ATOM     20  C   UNL A   1      33.116  26.687  25.252  1.00  0.00     0.081 C 
ATOM     21  S   UNL A   1      33.098  27.551  23.770  1.00  0.00    -0.054 SA
ATOM     22  S   UNL A   1      32.535  26.184  21.168  1.00  0.00    -0.052 S 
ATOM     23  C   UNL A   1      33.274  27.167  26.494  1.00  0.00     0.029 C 
BRANCH  23  24
ATOM     24  C   UNL A   1      33.384  28.583  26.868  1.00  0.00    -0.024 A 
ATOM     25  C   UNL A   1      32.276  29.428  26.752  1.00  0.00     0.008 A 
ATOM     26  C   UNL A   1      34.613  29.121  27.270  1.00  0.00     0.008 A 
ATOM     27  C   UNL A   1      32.391  30.787  27.061  1.00  0.00     0.001 A 
ATOM     28  C   UNL A   1      34.728  30.478  27.579  1.00  0.00     0.001 A 
ATOM     29  C   UNL A   1      33.615  31.311  27.476  1.00  0.00     0.000 A 
ENDBRANCH  23  24
ENDBRANCH  14  16
ENDBRANCH   7   9
ENDBRANCH   4   7
ENDBRANCH   2   3
ENDBRANCH   1   2
BRANCH   1  30
ATOM     30  C   UNL A   1      39.303  20.461  26.113  1.00  0.00     0.118 C 
BRANCH  30  31
ATOM     31  N   UNL A   1      40.289  19.389  26.047  1.00  0.00    -0.352 N 
ATOM     32  C   UNL A   1      41.660  19.448  26.074  1.00  0.00     0.251 C 
ATOM     33  H   UNL A   1      39.912  18.482  25.974  1.00  0.00     0.163 HD
ATOM     34  O   UNL A   1      42.316  18.439  25.828  1.00  0.00    -0.269 OA
BRANCH  32  35
ATOM     35  C   UNL A   1      42.346  20.725  26.369  1.00  0.00     0.039 A 
ATOM     36  C   UNL A   1      42.750  21.535  25.304  1.00  0.00     0.014 A 
ATOM     37  C   UNL A   1      42.590  21.129  27.684  1.00  0.00     0.014 A 
ATOM     38  C   UNL A   1      43.326  22.782  25.562  1.00  0.00     0.010 A 
ATOM     39  C   UNL A   1      43.075  22.407  27.939  1.00  0.00     0.010 A 
ATOM     40  C   UNL A   1      43.452  23.248  26.882  1.00  0.00    -0.014 A 
BRANCH  40  41
ATOM     41  C   UNL A   1      43.950  24.618  27.171  1.00  0.00     0.031 A 
ATOM     42  C   UNL A   1      43.020  25.670  27.711  1.00  0.00     0.074 A 
ATOM     43  C   UNL A   1      45.226  24.936  26.867  1.00  0.00     0.049 A 
ATOM     44  N   UNL A   1      43.265  26.928  27.973  1.00  0.00    -0.248 NA
ATOM     45  C   UNL A   1      41.627  25.268  27.967  1.00  0.00     0.031 C 
ATOM     46  C   UNL A   1      46.205  24.028  26.263  1.00  0.00     0.029 A 
ATOM     47  N   UNL A   1      45.911  26.119  26.997  1.00  0.00    -0.354 N 
ATOM     48  C   UNL A   1      42.056  27.474  28.389  1.00  0.00     0.074 A 
ATOM     49  C   UNL A   1      41.069  26.419  28.316  1.00  0.00     0.031 C 
ATOM     50  C   UNL A   1      47.363  24.683  26.085  1.00  0.00     0.029 A 
ATOM     51  C   UNL A   1      47.200  26.065  26.521  1.00  0.00     0.049 A 
ATOM     52  H   UNL A   1      45.516  26.929  27.394  1.00  0.00     0.167 HD
ATOM     53  C   UNL A   1      41.796  28.732  28.818  1.00  0.00     0.034 A 
ATOM     54  C   UNL A   1      48.144  27.024  26.430  1.00  0.00     0.034 A 
ATOM     55  C   UNL A   1      42.787  29.768  28.926  1.00  0.00     0.049 A 
ATOM     56  C   UNL A   1      47.830  28.405  26.939  1.00  0.00     0.074 A 
ATOM     57  C   UNL A   1      42.641  31.045  29.436  1.00  0.00     0.029 A 
ATOM     58  N   UNL A   1      44.103  29.653  28.506  1.00  0.00    -0.354 N 
ATOM     59  N   UNL A   1      46.726  28.855  27.482  1.00  0.00    -0.248 NA
ATOM     60  C   UNL A   1      48.908  29.403  26.856  1.00  0.00     0.031 C 
ATOM     61  C   UNL A   1      43.858  31.718  29.289  1.00  0.00     0.029 A 
ATOM     62  C   UNL A   1      44.774  30.844  28.728  1.00  0.00     0.049 A 
ATOM     63  H   UNL A   1      44.501  28.846  28.108  1.00  0.00     0.167 HD
ATOM     64  C   UNL A   1      46.986  30.172  27.840  1.00  0.00     0.074 A 
ATOM     65  C   UNL A   1      48.361  30.441  27.474  1.00  0.00     0.031 C 
ATOM     66  C   UNL A   1      46.158  31.083  28.408  1.00  0.00     0.034 A 
BRANCH  53  67
ATOM     67  C   UNL A   1      40.389  29.056  29.249  1.00  0.00     0.023 A 
ATOM     68  C   UNL A   1      39.438  29.452  28.287  1.00  0.00     0.012 A 
ATOM     69  C   UNL A   1      39.988  28.887  30.588  1.00  0.00     0.148 A 
ATOM     70  C   UNL A   1      38.116  29.699  28.655  1.00  0.00     0.002 A 
ATOM     71  C   UNL A   1      38.658  29.088  30.939  1.00  0.00     0.091 A 
ATOM     72  F   UNL A   1      40.912  28.528  31.491  1.00  0.00    -0.205 F 
ATOM     73  C   UNL A   1      37.724  29.504  29.977  1.00  0.00     0.022 A 
BRANCH  71  74
ATOM     74  S   UNL A   1      38.033  28.782  32.595  1.00  0.00     0.127 S 
ATOM     75  O   UNL A   1      36.658  29.268  32.484  1.00  0.00    -0.237 OA
ATOM     76  O   UNL A   1      38.159  27.329  32.706  1.00  0.00    -0.237 OA
ATOM     77  O   UNL A   1      38.888  29.542  33.496  1.00  0.00    -0.744 OA
ENDBRANCH  71  74
ENDBRANCH  53  67
BRANCH  54  78
ATOM     78  C   UNL A   1      49.489  26.706  25.872  1.00  0.00     0.023 A 
ATOM     79  C   UNL A   1      50.410  25.976  26.649  1.00  0.00     0.012 A 
ATOM     80  C   UNL A   1      49.861  27.121  24.579  1.00  0.00     0.148 A 
ATOM     81  C   UNL A   1      51.691  25.706  26.168  1.00  0.00     0.002 A 
ATOM     82  C   UNL A   1      51.117  26.795  24.082  1.00  0.00     0.091 A 
ATOM     83  F   UNL A   1      48.976  27.823  23.858  1.00  0.00    -0.205 F 
ATOM     84  C   UNL A   1      52.042  26.107  24.882  1.00  0.00     0.022 A 
BRANCH  82  85
ATOM     85  S   UNL A   1      51.603  27.153  22.391  1.00  0.00     0.127 S 
ATOM     86  O   UNL A   1      50.409  26.759  21.647  1.00  0.00    -0.237 OA
ATOM     87  O   UNL A   1      51.847  28.594  22.445  1.00  0.00    -0.237 OA
ATOM     88  O   UNL A   1      52.796  26.353  22.147  1.00  0.00    -0.744 OA
ENDBRANCH  82  85
ENDBRANCH  54  78
BRANCH  66  89
ATOM     89  C   UNL A   1      46.722  32.445  28.719  1.00  0.00     0.023 A 
ATOM     90  C   UNL A   1      47.314  32.697  29.971  1.00  0.00     0.012 A 
ATOM     91  C   UNL A   1      46.723  33.457  27.737  1.00  0.00     0.148 A 
ATOM     92  C   UNL A   1      47.866  33.945  30.257  1.00  0.00     0.002 A 
ATOM     93  C   UNL A   1      47.323  34.680  28.008  1.00  0.00     0.091 A 
ATOM     94  F   UNL A   1      46.141  33.203  26.556  1.00  0.00    -0.205 F 
ATOM     95  C   UNL A   1      47.881  34.931  29.273  1.00  0.00     0.022 A 
BRANCH  93  96
ATOM     96  S   UNL A   1      47.480  35.973  26.772  1.00  0.00     0.127 S 
ATOM     97  O   UNL A   1      48.546  36.799  27.340  1.00  0.00    -0.237 OA
ATOM     98  O   UNL A   1      47.865  35.216  25.581  1.00  0.00    -0.237 OA
ATOM     99  O   UNL A   1      46.175  36.612  26.689  1.00  0.00    -0.744 OA
ENDBRANCH  93  96
ENDBRANCH  66  89
ENDBRANCH  40  41
ENDBRANCH  32  35
ENDBRANCH  30  31
ENDBRANCH   1  30
TORSDOF 16
ENDMDL
MODEL 2
REMARK VINA RESULT:     -13.0      2.262      2.895
REMARK SMILES C[C@H](C(=O)NCCCNC(=O)c1ccc(-c2c3nc(c(-c4cccc(S(=O)(=O)[O-])c4F)c4ccc([nH]4)c(-c4cccc(S(=O)(=O)[O-])c4F)c4nc(c(-c5cccc(S(=O)(=O)[O-])c5F)c5ccc2[nH]5)C=C4)C=C3)cc1)N1C(=O)C[C@@H](N2C(=O)/C(=C/c3ccccc3)SC2=S)C1=O
REMARK SMILES IDX 7 1 6 2 5 3 3 4 4 5 2 7 1 8 75 9 76 10 94 11 77 12 78 13
REMARK SMILES IDX 79 14 95 15 80 16 81 17 92 18 82 19 83 20 91 21 93 22 84 23
REMARK SMILES IDX 85 24 86 25 90 26 87 27 89 28 88 29 8 30 9 31 10 32 11 34
REMARK SMILES IDX 12 35 13 36 74 37 14 38 73 39 15 40 16 41 17 42 67 43 18 44
REMARK SMILES IDX 72 45 66 46 68 47 19 48 71 49 65 50 64 51 20 53 52 54 32 55
REMARK SMILES IDX 51 56 33 57 36 58 50 59 69 60 34 61 35 62 49 64 70 65 37 66
REMARK SMILES IDX 21 67 22 68 30 69 23 70 25 71 31 72 24 73 26 74 27 75 28 76
REMARK SMILES IDX 29 77 53 78 54 79 62 80 55 81 57 82 63 83 56 84 58 85 59 86
REMARK SMILES IDX 60 87 61 88 38 89 39 90 47 91 40 92 42 93 48 94 41 95 43 96
REMARK SMILES IDX 44 97 45 98 46 99
REMARK H PARENT 5 6 9 33 68 52 36 63
REMARK Flexibility Score: inf
ROOT
ATOM      1  C   UNL A   1      37.595  19.346  25.029  1.00  0.00     0.042 C 
ENDROOT
BRANCH   1   2
ATOM      2  C   UNL A   1      36.381  20.255  25.009  1.00  0.00     0.117 C 
BRANCH   2   3
ATOM      3  N   UNL A   1      36.694  21.641  25.321  1.00  0.00    -0.354 N 
ATOM      4  C   UNL A   1      35.894  22.611  25.855  1.00  0.00     0.243 C 
ATOM      5  O   UNL A   1      36.437  23.623  26.309  1.00  0.00    -0.273 OA
ATOM      6  H   UNL A   1      37.615  21.922  25.116  1.00  0.00     0.163 HD
BRANCH   4   7
ATOM      7  C   UNL A   1      34.368  22.435  25.939  1.00  0.00     0.179 C 
ATOM      8  C   UNL A   1      33.757  23.073  27.191  1.00  0.00     0.042 C 
BRANCH   7   9
ATOM      9  N   UNL A   1      33.616  22.719  24.712  1.00  0.00    -0.268 N 
ATOM     10  C   UNL A   1      32.677  21.839  24.247  1.00  0.00     0.232 C 
ATOM     11  C   UNL A   1      33.636  23.873  23.981  1.00  0.00     0.253 C 
ATOM     12  O   UNL A   1      32.483  20.700  24.643  1.00  0.00    -0.274 OA
ATOM     13  C   UNL A   1      31.910  22.454  23.115  1.00  0.00     0.136 C 
ATOM     14  C   UNL A   1      32.498  23.845  22.985  1.00  0.00     0.191 C 
ATOM     15  O   UNL A   1      34.389  24.831  24.084  1.00  0.00    -0.272 OA
BRANCH  14  16
ATOM     16  N   UNL A   1      31.585  24.968  23.264  1.00  0.00    -0.280 N 
ATOM     17  C   UNL A   1      31.475  26.002  22.345  1.00  0.00     0.266 C 
ATOM     18  C   UNL A   1      30.758  25.051  24.367  1.00  0.00     0.149 C 
ATOM     19  O   UNL A   1      32.062  26.055  21.277  1.00  0.00    -0.268 OA
ATOM     20  C   UNL A   1      30.543  27.048  22.836  1.00  0.00     0.081 C 
ATOM     21  S   UNL A   1      29.840  26.551  24.320  1.00  0.00    -0.054 SA
ATOM     22  S   UNL A   1      30.620  23.979  25.637  1.00  0.00    -0.052 S 
ATOM     23  C   UNL A   1      30.356  28.197  22.170  1.00  0.00     0.029 C 
BRANCH  23  24
ATOM     24  C   UNL A   1      29.554  29.340  22.623  1.00  0.00    -0.024 A 
ATOM     25  C   UNL A   1      29.991  30.124  23.695  1.00  0.00     0.008 A 
ATOM     26  C   UNL A   1      28.308  29.614  22.041  1.00  0.00     0.008 A 
ATOM     27  C   UNL A   1      29.205  31.183  24.160  1.00  0.00     0.001 A 
ATOM     28  C   UNL A   1      27.525  30.672  22.504  1.00  0.00     0.001 A 
ATOM     29  C   UNL A   1      27.975  31.459  23.563  1.00  0.00     0.000 A 
ENDBRANCH  23  24
ENDBRANCH  14  16
ENDBRANCH   7   9
ENDBRANCH   4   7
ENDBRANCH   2   3
ENDBRANCH   1   2
BRANCH   1  30
ATOM     30  C   UNL A   1      38.907  20.085  25.243  1.00  0.00     0.118 C 
BRANCH  30  31
ATOM     31  N   UNL A   1      39.944  19.240  25.822  1.00  0.00    -0.352 N 
ATOM     32  C   UNL A   1      41.121  19.586  26.439  1.00  0.00     0.251 C 
ATOM     33  H   UNL A   1      39.773  18.273  25.763  1.00  0.00     0.163 HD
ATOM     34  O   UNL A   1      41.946  18.716  26.703  1.00  0.00    -0.269 OA
BRANCH  32  35
ATOM     35  C   UNL A   1      41.408  21.002  26.760  1.00  0.00     0.039 A 
ATOM     36  C   UNL A   1      41.914  21.317  28.023  1.00  0.00     0.014 A 
ATOM     37  C   UNL A   1      41.184  22.015  25.824  1.00  0.00     0.014 A 
ATOM     38  C   UNL A   1      42.268  22.636  28.317  1.00  0.00     0.010 A 
ATOM     39  C   UNL A   1      41.624  23.309  26.085  1.00  0.00     0.010 A 
ATOM     40  C   UNL A   1      42.169  23.636  27.335  1.00  0.00    -0.014 A 
BRANCH  40  41
ATOM     41  C   UNL A   1      42.651  25.018  27.590  1.00  0.00     0.031 A 
ATOM     42  C   UNL A   1      41.745  26.038  28.227  1.00  0.00     0.074 A 
ATOM     43  C   UNL A   1      43.882  25.378  27.169  1.00  0.00     0.049 A 
ATOM     44  N   UNL A   1      41.976  27.301  28.477  1.00  0.00    -0.248 NA
ATOM     45  C   UNL A   1      40.395  25.591  28.609  1.00  0.00     0.031 C 
ATOM     46  C   UNL A   1      44.825  24.505  26.466  1.00  0.00     0.029 A 
ATOM     47  N   UNL A   1      44.540  26.580  27.246  1.00  0.00    -0.354 N 
ATOM     48  C   UNL A   1      40.797  27.806  29.012  1.00  0.00     0.074 A 
ATOM     49  C   UNL A   1      39.840  26.722  29.022  1.00  0.00     0.031 C 
ATOM     50  C   UNL A   1      45.941  25.196  26.185  1.00  0.00     0.029 A 
ATOM     51  C   UNL A   1      45.780  26.569  26.649  1.00  0.00     0.049 A 
ATOM     52  H   UNL A   1      44.161  27.374  27.687  1.00  0.00     0.167 HD
ATOM     53  C   UNL A   1      40.542  29.052  29.476  1.00  0.00     0.034 A 
ATOM     54  C   UNL A   1      46.681  27.557  26.479  1.00  0.00     0.034 A 
ATOM     55  C   UNL A   1      41.507  30.117  29.499  1.00  0.00     0.049 A 
ATOM     56  C   UNL A   1      46.376  28.925  27.029  1.00  0.00     0.074 A 
ATOM     57  C   UNL A   1      41.372  31.386  30.034  1.00  0.00     0.029 A 
ATOM     58  N   UNL A   1      42.779  30.046  28.955  1.00  0.00    -0.354 N 
ATOM     59  N   UNL A   1      45.316  29.336  27.679  1.00  0.00    -0.248 NA
ATOM     60  C   UNL A   1      47.411  29.956  26.854  1.00  0.00     0.031 C 
ATOM     61  C   UNL A   1      42.548  32.097  29.779  1.00  0.00     0.029 A 
ATOM     62  C   UNL A   1      43.433  31.255  29.125  1.00  0.00     0.049 A 
ATOM     63  H   UNL A   1      43.162  29.254  28.513  1.00  0.00     0.167 HD
ATOM     64  C   UNL A   1      45.569  30.659  28.024  1.00  0.00     0.074 A 
ATOM     65  C   UNL A   1      46.895  30.972  27.532  1.00  0.00     0.031 C 
ATOM     66  C   UNL A   1      44.771  31.539  28.677  1.00  0.00     0.034 A 
BRANCH  53  67
ATOM     67  C   UNL A   1      39.173  29.330  30.041  1.00  0.00     0.023 A 
ATOM     68  C   UNL A   1      38.880  28.968  31.372  1.00  0.00     0.012 A 
ATOM     69  C   UNL A   1      38.208  30.023  29.286  1.00  0.00     0.148 A 
ATOM     70  C   UNL A   1      37.640  29.271  31.934  1.00  0.00     0.002 A 
ATOM     71  C   UNL A   1      36.992  30.364  29.867  1.00  0.00     0.091 A 
ATOM     72  F   UNL A   1      38.499  30.342  28.016  1.00  0.00    -0.205 F 
ATOM     73  C   UNL A   1      36.702  29.978  31.186  1.00  0.00     0.022 A 
BRANCH  71  74
ATOM     74  S   UNL A   1      35.751  31.347  29.020  1.00  0.00     0.127 S 
ATOM     75  O   UNL A   1      35.102  30.341  28.180  1.00  0.00    -0.237 OA
ATOM     76  O   UNL A   1      34.934  31.832  30.132  1.00  0.00    -0.237 OA
ATOM     77  O   UNL A   1      36.478  32.381  28.298  1.00  0.00    -0.744 OA
ENDBRANCH  71  74
ENDBRANCH  53  67
BRANCH  54  78
ATOM     78  C   UNL A   1      47.975  27.285  25.792  1.00  0.00     0.023 A 
ATOM     79  C   UNL A   1      49.078  26.828  26.541  1.00  0.00     0.012 A 
ATOM     80  C   UNL A   1      48.122  27.476  24.405  1.00  0.00     0.148 A 
ATOM     81  C   UNL A   1      50.313  26.611  25.931  1.00  0.00     0.002 A 
ATOM     82  C   UNL A   1      49.338  27.198  23.793  1.00  0.00     0.091 A 
ATOM     83  F   UNL A   1      47.066  27.921  23.710  1.00  0.00    -0.205 F 
ATOM     84  C   UNL A   1      50.441  26.786  24.556  1.00  0.00     0.022 A 
BRANCH  82  85
ATOM     85  S   UNL A   1      49.554  27.267  22.011  1.00  0.00     0.127 S 
ATOM     86  O   UNL A   1      48.555  26.306  21.551  1.00  0.00    -0.237 OA
ATOM     87  O   UNL A   1      49.241  28.667  21.723  1.00  0.00    -0.237 OA
ATOM     88  O   UNL A   1      50.944  26.903  21.769  1.00  0.00    -0.744 OA
ENDBRANCH  82  85
ENDBRANCH  54  78
BRANCH  66  89
ATOM     89  C   UNL A   1      45.322  32.916  28.947  1.00  0.00     0.023 A 
ATOM     90  C   UNL A   1      46.038  33.172  30.131  1.00  0.00     0.012 A 
ATOM     91  C   UNL A   1      45.184  33.939  27.987  1.00  0.00     0.148 A 
ATOM     92  C   UNL A   1      46.577  34.434  30.376  1.00  0.00     0.002 A 
ATOM     93  C   UNL A   1      45.770  35.178  28.211  1.00  0.00     0.091 A 
ATOM     94  F   UNL A   1      44.485  33.680  26.871  1.00  0.00    -0.205 F 
ATOM     95  C   UNL A   1      46.453  35.433  29.412  1.00  0.00     0.022 A 
BRANCH  93  96
ATOM     96  S   UNL A   1      45.750  36.491  26.986  1.00  0.00     0.127 S 
ATOM     97  O   UNL A   1      44.320  36.775  26.878  1.00  0.00    -0.237 OA
ATOM     98  O   UNL A   1      46.532  37.538  27.643  1.00  0.00    -0.237 OA
ATOM     99  O   UNL A   1      46.366  35.934  25.789  1.00  0.00    -0.744 OA
ENDBRANCH  93  96
ENDBRANCH  66  89
ENDBRANCH  40  41
ENDBRANCH  32  35
ENDBRANCH  30  31
ENDBRANCH   1  30
TORSDOF 16
ENDMDL
MODEL 3
REMARK VINA RESULT:     -12.7      2.730      8.205
REMARK SMILES C[C@H](C(=O)NCCCNC(=O)c1ccc(-c2c3nc(c(-c4cccc(S(=O)(=O)[O-])c4F)c4ccc([nH]4)c(-c4cccc(S(=O)(=O)[O-])c4F)c4nc(c(-c5cccc(S(=O)(=O)[O-])c5F)c5ccc2[nH]5)C=C4)C=C3)cc1)N1C(=O)C[C@@H](N2C(=O)/C(=C/c3ccccc3)SC2=S)C1=O
REMARK SMILES IDX 7 1 6 2 5 3 3 4 4 5 2 7 1 8 75 9 76 10 94 11 77 12 78 13
REMARK SMILES IDX 79 14 95 15 80 16 81 17 92 18 82 19 83 20 91 21 93 22 84 23
REMARK SMILES IDX 85 24 86 25 90 26 87 27 89 28 88 29 8 30 9 31 10 32 11 34
REMARK SMILES IDX 12 35 13 36 74 37 14 38 73 39 15 40 16 41 17 42 67 43 18 44
REMARK SMILES IDX 72 45 66 46 68 47 19 48 71 49 65 50 64 51 20 53 52 54 32 55
REMARK SMILES IDX 51 56 33 57 36 58 50 59 69 60 34 61 35 62 49 64 70 65 37 66
REMARK SMILES IDX 21 67 22 68 30 69 23 70 25 71 31 72 24 73 26 74 27 75 28 76
REMARK SMILES IDX 29 77 53 78 54 79 62 80 55 81 57 82 63 83 56 84 58 85 59 86
REMARK SMILES IDX 60 87 61 88 38 89 39 90 47 91 40 92 42 93 48 94 41 95 43 96
REMARK SMILES IDX 44 97 45 98 46 99
REMARK H PARENT 5 6 9 33 68 52 36 63
REMARK Flexibility Score: inf
ROOT
ATOM      1  C   UNL A   1      35.774  21.946  25.756  1.00  0.00     0.042 C 
ENDROOT
BRANCH   1   2
ATOM      2  C   UNL A   1      34.738  21.119  25.018  1.00  0.00     0.117 C 
BRANCH   2   3
ATOM      3  N   UNL A   1      33.428  21.140  25.650  1.00  0.00    -0.354 N 
ATOM      4  C   UNL A   1      32.263  21.702  25.211  1.00  0.00     0.243 C 
ATOM      5  O   UNL A   1      31.211  21.351  25.754  1.00  0.00    -0.273 OA
ATOM      6  H   UNL A   1      33.373  20.684  26.521  1.00  0.00     0.163 HD
BRANCH   4   7
ATOM      7  C   UNL A   1      32.247  22.705  24.045  1.00  0.00     0.179 C 
ATOM      8  C   UNL A   1      30.843  22.948  23.480  1.00  0.00     0.042 C 
BRANCH   7   9
ATOM      9  N   UNL A   1      33.020  23.936  24.239  1.00  0.00    -0.268 N 
ATOM     10  C   UNL A   1      33.953  24.330  23.319  1.00  0.00     0.232 C 
ATOM     11  C   UNL A   1      32.846  24.874  25.218  1.00  0.00     0.253 C 
ATOM     12  O   UNL A   1      34.378  23.672  22.381  1.00  0.00    -0.274 OA
ATOM     13  C   UNL A   1      34.442  25.711  23.639  1.00  0.00     0.136 C 
ATOM     14  C   UNL A   1      33.646  26.108  24.866  1.00  0.00     0.191 C 
ATOM     15  O   UNL A   1      32.144  24.815  26.218  1.00  0.00    -0.272 OA
BRANCH  14  16
ATOM     16  N   UNL A   1      32.726  27.248  24.705  1.00  0.00    -0.280 N 
ATOM     17  C   UNL A   1      31.781  27.224  23.690  1.00  0.00     0.266 C 
ATOM     18  C   UNL A   1      32.683  28.345  25.543  1.00  0.00     0.149 C 
ATOM     19  O   UNL A   1      31.615  26.301  22.909  1.00  0.00    -0.268 OA
ATOM     20  C   UNL A   1      30.990  28.481  23.674  1.00  0.00     0.081 C 
ATOM     21  S   UNL A   1      31.450  29.474  24.995  1.00  0.00    -0.054 SA
ATOM     22  S   UNL A   1      33.647  28.675  26.863  1.00  0.00    -0.052 S 
ATOM     23  C   UNL A   1      30.087  28.736  22.715  1.00  0.00     0.029 C 
BRANCH  23  24
ATOM     24  C   UNL A   1      29.341  29.988  22.539  1.00  0.00    -0.024 A 
ATOM     25  C   UNL A   1      29.079  30.474  21.254  1.00  0.00     0.008 A 
ATOM     26  C   UNL A   1      28.951  30.748  23.649  1.00  0.00     0.008 A 
ATOM     27  C   UNL A   1      28.412  31.691  21.084  1.00  0.00     0.001 A 
ATOM     28  C   UNL A   1      28.283  31.963  23.478  1.00  0.00     0.001 A 
ATOM     29  C   UNL A   1      28.012  32.433  22.195  1.00  0.00     0.000 A 
ENDBRANCH  23  24
ENDBRANCH  14  16
ENDBRANCH   7   9
ENDBRANCH   4   7
ENDBRANCH   2   3
ENDBRANCH   1   2
BRANCH   1  30
ATOM     30  C   UNL A   1      37.111  22.029  25.036  1.00  0.00     0.118 C 
BRANCH  30  31
ATOM     31  N   UNL A   1      38.064  21.025  25.497  1.00  0.00    -0.352 N 
ATOM     32  C   UNL A   1      39.270  21.181  26.135  1.00  0.00     0.251 C 
ATOM     33  H   UNL A   1      37.801  20.093  25.325  1.00  0.00     0.163 HD
ATOM     34  O   UNL A   1      40.008  20.210  26.282  1.00  0.00    -0.269 OA
BRANCH  32  35
ATOM     35  C   UNL A   1      39.692  22.514  26.618  1.00  0.00     0.039 A 
ATOM     36  C   UNL A   1      40.693  22.593  27.589  1.00  0.00     0.014 A 
ATOM     37  C   UNL A   1      39.111  23.682  26.117  1.00  0.00     0.014 A 
ATOM     38  C   UNL A   1      41.163  23.843  28.000  1.00  0.00     0.010 A 
ATOM     39  C   UNL A   1      39.645  24.922  26.456  1.00  0.00     0.010 A 
ATOM     40  C   UNL A   1      40.674  25.017  27.403  1.00  0.00    -0.014 A 
BRANCH  40  41
ATOM     41  C   UNL A   1      41.245  26.348  27.739  1.00  0.00     0.031 A 
ATOM     42  C   UNL A   1      42.690  26.654  27.449  1.00  0.00     0.074 A 
ATOM     43  C   UNL A   1      40.480  27.253  28.385  1.00  0.00     0.049 A 
ATOM     44  N   UNL A   1      43.371  27.737  27.719  1.00  0.00    -0.248 NA
ATOM     45  C   UNL A   1      43.482  25.599  26.794  1.00  0.00     0.031 C 
ATOM     46  C   UNL A   1      39.089  27.047  28.795  1.00  0.00     0.029 A 
ATOM     47  N   UNL A   1      40.772  28.517  28.833  1.00  0.00    -0.354 N 
ATOM     48  C   UNL A   1      44.673  27.484  27.301  1.00  0.00     0.074 A 
ATOM     49  C   UNL A   1      44.695  26.132  26.787  1.00  0.00     0.031 C 
ATOM     50  C   UNL A   1      38.647  28.146  29.425  1.00  0.00     0.029 A 
ATOM     51  C   UNL A   1      39.731  29.119  29.501  1.00  0.00     0.049 A 
ATOM     52  H   UNL A   1      41.644  28.951  28.690  1.00  0.00     0.167 HD
ATOM     53  C   UNL A   1      45.746  28.310  27.319  1.00  0.00     0.034 A 
ATOM     54  C   UNL A   1      39.659  30.315  30.121  1.00  0.00     0.034 A 
ATOM     55  C   UNL A   1      45.711  29.666  27.796  1.00  0.00     0.049 A 
ATOM     56  C   UNL A   1      40.862  31.219  30.101  1.00  0.00     0.074 A 
ATOM     57  C   UNL A   1      46.721  30.610  27.770  1.00  0.00     0.029 A 
ATOM     58  N   UNL A   1      44.616  30.267  28.396  1.00  0.00    -0.354 N 
ATOM     59  N   UNL A   1      42.036  31.021  29.553  1.00  0.00    -0.248 NA
ATOM     60  C   UNL A   1      40.718  32.529  30.754  1.00  0.00     0.031 C 
ATOM     61  C   UNL A   1      46.251  31.772  28.390  1.00  0.00     0.029 A 
ATOM     62  C   UNL A   1      44.933  31.565  28.762  1.00  0.00     0.049 A 
ATOM     63  H   UNL A   1      43.743  29.837  28.542  1.00  0.00     0.167 HD
ATOM     64  C   UNL A   1      42.756  32.192  29.761  1.00  0.00     0.074 A 
ATOM     65  C   UNL A   1      41.877  33.103  30.463  1.00  0.00     0.031 C 
ATOM     66  C   UNL A   1      44.034  32.481  29.413  1.00  0.00     0.034 A 
BRANCH  53  67
ATOM     67  C   UNL A   1      47.048  27.790  26.769  1.00  0.00     0.023 A 
ATOM     68  C   UNL A   1      47.991  27.204  27.638  1.00  0.00     0.012 A 
ATOM     69  C   UNL A   1      47.302  27.805  25.384  1.00  0.00     0.148 A 
ATOM     70  C   UNL A   1      49.175  26.662  27.141  1.00  0.00     0.002 A 
ATOM     71  C   UNL A   1      48.463  27.221  24.890  1.00  0.00     0.091 A 
ATOM     72  F   UNL A   1      46.403  28.384  24.575  1.00  0.00    -0.205 F 
ATOM     73  C   UNL A   1      49.405  26.660  25.767  1.00  0.00     0.022 A 
BRANCH  71  74
ATOM     74  S   UNL A   1      48.814  27.090  23.134  1.00  0.00     0.127 S 
ATOM     75  O   UNL A   1      50.274  27.175  23.118  1.00  0.00    -0.237 OA
ATOM     76  O   UNL A   1      48.277  25.767  22.813  1.00  0.00    -0.237 OA
ATOM     77  O   UNL A   1      48.121  28.202  22.499  1.00  0.00    -0.744 OA
ENDBRANCH  71  74
ENDBRANCH  53  67
BRANCH  54  78
ATOM     78  C   UNL A   1      38.393  30.747  30.778  1.00  0.00     0.023 A 
ATOM     79  C   UNL A   1      38.198  30.488  32.149  1.00  0.00     0.012 A 
ATOM     80  C   UNL A   1      37.384  31.412  30.056  1.00  0.00     0.148 A 
ATOM     81  C   UNL A   1      37.003  30.840  32.777  1.00  0.00     0.002 A 
ATOM     82  C   UNL A   1      36.222  31.815  30.702  1.00  0.00     0.091 A 
ATOM     83  F   UNL A   1      37.583  31.641  28.750  1.00  0.00    -0.205 F 
ATOM     84  C   UNL A   1      36.019  31.512  32.057  1.00  0.00     0.022 A 
BRANCH  82  85
ATOM     85  S   UNL A   1      34.963  32.802  29.886  1.00  0.00     0.127 S 
ATOM     86  O   UNL A   1      34.060  33.110  30.992  1.00  0.00    -0.237 OA
ATOM     87  O   UNL A   1      35.743  33.938  29.392  1.00  0.00    -0.237 OA
ATOM     88  O   UNL A   1      34.416  31.952  28.837  1.00  0.00    -0.744 OA
ENDBRANCH  82  85
ENDBRANCH  54  78
BRANCH  66  89
ATOM     89  C   UNL A   1      44.553  33.858  29.740  1.00  0.00     0.023 A 
ATOM     90  C   UNL A   1      45.190  34.099  30.972  1.00  0.00     0.012 A 
ATOM     91  C   UNL A   1      44.466  34.896  28.791  1.00  0.00     0.148 A 
ATOM     92  C   UNL A   1      45.700  35.362  31.272  1.00  0.00     0.002 A 
ATOM     93  C   UNL A   1      45.025  36.136  29.073  1.00  0.00     0.091 A 
ATOM     94  F   UNL A   1      43.842  34.651  27.630  1.00  0.00    -0.205 F 
ATOM     95  C   UNL A   1      45.628  36.375  30.319  1.00  0.00     0.022 A 
BRANCH  93  96
ATOM     96  S   UNL A   1      45.070  37.470  27.871  1.00  0.00     0.127 S 
ATOM     97  O   UNL A   1      43.655  37.821  27.764  1.00  0.00    -0.237 OA
ATOM     98  O   UNL A   1      45.897  38.469  28.549  1.00  0.00    -0.237 OA
ATOM     99  O   UNL A   1      45.665  36.907  26.667  1.00  0.00    -0.744 OA
ENDBRANCH  93  96
ENDBRANCH  66  89
ENDBRANCH  40  41
ENDBRANCH  32  35
ENDBRANCH  30  31
ENDBRANCH   1  30
TORSDOF 16
ENDMDL
