MODEL 1
REMARK VINA RESULT:     -12.7      0.000      0.000
REMARK SMILES [NH3+]Cc1c(-c2ccccc2)c(C(=O)NCCCNC(=O)c2ccc(-c3c4nc(c(-c5cccc(S(=O)(=O)[O-])c5F)c5ccc([nH]5)c(-c5cccc(S(=O)(=O)[O-])c5F)c5nc(c(-c6cccc(S(=O)(=O)[O-])c6F)c6ccc3[nH]6)C=C5)C=C4)cc2)c2ccccn12
REMARK SMILES IDX 16 1 15 2 14 3 12 4 13 5 11 7 3 8 4 9 89 10 84 11 88 12
REMARK SMILES IDX 85 13 87 14 86 15 2 16 1 17 5 21 6 22 10 23 7 24 9 25 8 26
REMARK SMILES IDX 17 27 18 28 19 29 20 31 21 32 22 33 83 34 23 35 82 36 24 37
REMARK SMILES IDX 25 38 26 39 76 40 27 41 81 42 75 43 77 44 28 45 80 46 74 47
REMARK SMILES IDX 73 48 29 50 61 51 41 52 60 53 42 54 45 55 59 56 78 57 43 58
REMARK SMILES IDX 44 59 58 61 79 62 46 63 30 64 31 65 39 66 32 67 34 68 40 69
REMARK SMILES IDX 33 70 35 71 36 72 37 73 38 74 62 75 63 76 71 77 64 78 66 79
REMARK SMILES IDX 72 80 65 81 67 82 68 83 69 84 70 85 47 86 48 87 56 88 49 89
REMARK SMILES IDX 51 90 57 91 50 92 52 93 53 94 54 95 55 96
REMARK H PARENT 14 6 1 18 1 19 1 20 18 30 77 49 45 60
REMARK Flexibility Score: inf
ROOT
ATOM      1  C   UNL A   1      31.950  28.950  26.876  1.00  0.00     0.042 C 
ENDROOT
BRANCH   1   2
ATOM      2  C   UNL A   1      32.254  27.467  26.871  1.00  0.00     0.118 C 
BRANCH   2   3
ATOM      3  N   UNL A   1      31.116  26.578  26.897  1.00  0.00    -0.352 N 
ATOM      4  C   UNL A   1      30.808  25.489  26.110  1.00  0.00     0.254 C 
ATOM      5  O   UNL A   1      29.833  24.830  26.472  1.00  0.00    -0.269 OA
ATOM      6  H   UNL A   1      30.449  26.784  27.591  1.00  0.00     0.163 HD
BRANCH   4   7
ATOM      7  C   UNL A   1      31.530  25.178  24.864  1.00  0.00     0.073 A 
ATOM      8  C   UNL A   1      32.376  25.481  22.732  1.00  0.00     0.086 A 
ATOM      9  C   UNL A   1      31.486  25.997  23.674  1.00  0.00     0.022 A 
ATOM     10  N   UNL A   1      32.986  24.386  23.329  1.00  0.00    -0.314 N 
ATOM     11  C   UNL A   1      32.304  24.077  24.509  1.00  0.00     0.059 A 
ATOM     12  C   UNL A   1      34.105  23.654  22.903  1.00  0.00     0.092 A 
ATOM     13  C   UNL A   1      32.609  22.807  25.097  1.00  0.00     0.027 A 
ATOM     14  C   UNL A   1      34.503  22.572  23.588  1.00  0.00     0.018 A 
ATOM     15  C   UNL A   1      33.691  22.116  24.696  1.00  0.00     0.004 A 
BRANCH   8  16
ATOM     16  C   UNL A   1      32.761  25.948  21.363  1.00  0.00     0.315 C 
BRANCH  16  17
ATOM     17  N   UNL A   1      31.775  25.579  20.355  1.00  0.00    -0.353 N 
ATOM     18  H   UNL A   1      31.666  24.564  20.341  1.00  0.00     0.344 HD
ATOM     19  H   UNL A   1      32.089  25.899  19.439  1.00  0.00     0.344 HD
ATOM     20  H   UNL A   1      30.880  26.013  20.580  1.00  0.00     0.344 HD
ENDBRANCH  16  17
ENDBRANCH   8  16
BRANCH   9  21
ATOM     21  C   UNL A   1      30.675  27.184  23.444  1.00  0.00    -0.016 A 
ATOM     22  C   UNL A   1      29.281  27.101  23.392  1.00  0.00     0.009 A 
ATOM     23  C   UNL A   1      31.301  28.415  23.210  1.00  0.00     0.009 A 
ATOM     24  C   UNL A   1      28.523  28.246  23.129  1.00  0.00     0.001 A 
ATOM     25  C   UNL A   1      30.543  29.562  22.974  1.00  0.00     0.001 A 
ATOM     26  C   UNL A   1      29.153  29.476  22.930  1.00  0.00     0.000 A 
ENDBRANCH   9  21
ENDBRANCH   4   7
ENDBRANCH   2   3
ENDBRANCH   1   2
BRANCH   1  27
ATOM     27  C   UNL A   1      33.006  29.850  26.267  1.00  0.00     0.118 C 
BRANCH  27  28
ATOM     28  N   UNL A   1      32.918  31.243  26.686  1.00  0.00    -0.352 N 
ATOM     29  C   UNL A   1      33.706  31.995  27.529  1.00  0.00     0.251 C 
ATOM     30  H   UNL A   1      32.160  31.736  26.296  1.00  0.00     0.163 HD
ATOM     31  O   UNL A   1      33.349  33.135  27.817  1.00  0.00    -0.269 OA
BRANCH  29  32
ATOM     32  C   UNL A   1      34.954  31.447  28.115  1.00  0.00     0.039 A 
ATOM     33  C   UNL A   1      36.097  32.252  28.162  1.00  0.00     0.014 A 
ATOM     34  C   UNL A   1      35.023  30.142  28.600  1.00  0.00     0.014 A 
ATOM     35  C   UNL A   1      37.270  31.767  28.749  1.00  0.00     0.010 A 
ATOM     36  C   UNL A   1      36.134  29.718  29.318  1.00  0.00     0.010 A 
ATOM     37  C   UNL A   1      37.289  30.505  29.365  1.00  0.00    -0.014 A 
BRANCH  37  38
ATOM     38  C   UNL A   1      38.516  29.969  30.010  1.00  0.00     0.031 A 
ATOM     39  C   UNL A   1      38.914  30.440  31.389  1.00  0.00     0.074 A 
ATOM     40  C   UNL A   1      39.308  29.110  29.339  1.00  0.00     0.049 A 
ATOM     41  N   UNL A   1      39.951  30.101  32.110  1.00  0.00    -0.248 NA
ATOM     42  C   UNL A   1      38.057  31.454  32.030  1.00  0.00     0.031 C 
ATOM     43  C   UNL A   1      39.092  28.654  27.963  1.00  0.00     0.029 A 
ATOM     44  N   UNL A   1      40.466  28.478  29.717  1.00  0.00    -0.354 N 
ATOM     45  C   UNL A   1      39.890  30.883  33.259  1.00  0.00     0.074 A 
ATOM     46  C   UNL A   1      38.750  31.757  33.115  1.00  0.00     0.031 C 
ATOM     47  C   UNL A   1      40.068  27.797  27.624  1.00  0.00     0.029 A 
ATOM     48  C   UNL A   1      40.994  27.662  28.744  1.00  0.00     0.049 A 
ATOM     49  H   UNL A   1      40.879  28.596  30.603  1.00  0.00     0.167 HD
ATOM     50  C   UNL A   1      40.683  30.853  34.356  1.00  0.00     0.034 A 
ATOM     51  C   UNL A   1      42.097  26.888  28.754  1.00  0.00     0.034 A 
ATOM     52  C   UNL A   1      41.784  29.945  34.519  1.00  0.00     0.049 A 
ATOM     53  C   UNL A   1      42.922  26.820  30.011  1.00  0.00     0.074 A 
ATOM     54  C   UNL A   1      42.598  29.766  35.623  1.00  0.00     0.029 A 
ATOM     55  N   UNL A   1      42.231  29.065  33.546  1.00  0.00    -0.354 N 
ATOM     56  N   UNL A   1      42.752  27.450  31.148  1.00  0.00    -0.248 NA
ATOM     57  C   UNL A   1      44.064  25.895  30.002  1.00  0.00     0.031 C 
ATOM     58  C   UNL A   1      43.555  28.796  35.308  1.00  0.00     0.029 A 
ATOM     59  C   UNL A   1      43.311  28.342  34.022  1.00  0.00     0.049 A 
ATOM     60  H   UNL A   1      41.838  28.968  32.649  1.00  0.00     0.167 HD
ATOM     61  C   UNL A   1      43.738  26.970  32.002  1.00  0.00     0.074 A 
ATOM     62  C   UNL A   1      44.483  25.976  31.257  1.00  0.00     0.031 C 
ATOM     63  C   UNL A   1      44.012  27.324  33.282  1.00  0.00     0.034 A 
BRANCH  50  64
ATOM     64  C   UNL A   1      40.352  31.795  35.486  1.00  0.00     0.023 A 
ATOM     65  C   UNL A   1      41.168  32.923  35.720  1.00  0.00     0.012 A 
ATOM     66  C   UNL A   1      39.211  31.593  36.286  1.00  0.00     0.148 A 
ATOM     67  C   UNL A   1      40.879  33.808  36.758  1.00  0.00     0.002 A 
ATOM     68  C   UNL A   1      38.900  32.509  37.285  1.00  0.00     0.091 A 
ATOM     69  F   UNL A   1      38.459  30.505  36.065  1.00  0.00    -0.205 F 
ATOM     70  C   UNL A   1      39.739  33.607  37.532  1.00  0.00     0.022 A 
BRANCH  68  71
ATOM     71  S   UNL A   1      37.410  32.389  38.281  1.00  0.00     0.127 S 
ATOM     72  O   UNL A   1      37.800  33.123  39.484  1.00  0.00    -0.237 OA
ATOM     73  O   UNL A   1      36.426  33.073  37.442  1.00  0.00    -0.237 OA
ATOM     74  O   UNL A   1      37.166  30.966  38.472  1.00  0.00    -0.744 OA
ENDBRANCH  68  71
ENDBRANCH  50  64
BRANCH  51  75
ATOM     75  C   UNL A   1      42.441  26.057  27.566  1.00  0.00     0.023 A 
ATOM     76  C   UNL A   1      43.212  26.615  26.526  1.00  0.00     0.012 A 
ATOM     77  C   UNL A   1      42.024  24.717  27.465  1.00  0.00     0.148 A 
ATOM     78  C   UNL A   1      43.525  25.868  25.391  1.00  0.00     0.002 A 
ATOM     79  C   UNL A   1      42.388  23.959  26.358  1.00  0.00     0.091 A 
ATOM     80  F   UNL A   1      41.285  24.206  28.460  1.00  0.00    -0.205 F 
ATOM     81  C   UNL A   1      43.121  24.538  25.311  1.00  0.00     0.022 A 
BRANCH  79  82
ATOM     82  S   UNL A   1      42.028  22.204  26.232  1.00  0.00     0.127 S 
ATOM     83  O   UNL A   1      40.571  22.205  26.131  1.00  0.00    -0.237 OA
ATOM     84  O   UNL A   1      42.731  21.840  25.001  1.00  0.00    -0.237 OA
ATOM     85  O   UNL A   1      42.578  21.601  27.438  1.00  0.00    -0.744 OA
ENDBRANCH  79  82
ENDBRANCH  51  75
BRANCH  63  86
ATOM     86  C   UNL A   1      45.134  26.599  33.977  1.00  0.00     0.023 A 
ATOM     87  C   UNL A   1      46.464  27.036  33.823  1.00  0.00     0.012 A 
ATOM     88  C   UNL A   1      44.861  25.504  34.820  1.00  0.00     0.148 A 
ATOM     89  C   UNL A   1      47.510  26.361  34.452  1.00  0.00     0.002 A 
ATOM     90  C   UNL A   1      45.901  24.872  35.490  1.00  0.00     0.091 A 
ATOM     91  F   UNL A   1      43.590  25.090  34.944  1.00  0.00    -0.205 F 
ATOM     92  C   UNL A   1      47.228  25.287  35.293  1.00  0.00     0.022 A 
BRANCH  90  93
ATOM     93  S   UNL A   1      45.616  23.550  36.672  1.00  0.00     0.127 S 
ATOM     94  O   UNL A   1      44.984  22.533  35.833  1.00  0.00    -0.237 OA
ATOM     95  O   UNL A   1      46.973  23.224  37.108  1.00  0.00    -0.237 OA
ATOM     96  O   UNL A   1      44.771  24.122  37.712  1.00  0.00    -0.744 OA
ENDBRANCH  90  93
ENDBRANCH  63  86
ENDBRANCH  37  38
ENDBRANCH  29  32
ENDBRANCH  27  28
ENDBRANCH   1  27
TORSDOF 16
ENDMDL
MODEL 2
REMARK VINA RESULT:     -12.5      1.261      2.857
REMARK SMILES [NH3+]Cc1c(-c2ccccc2)c(C(=O)NCCCNC(=O)c2ccc(-c3c4nc(c(-c5cccc(S(=O)(=O)[O-])c5F)c5ccc([nH]5)c(-c5cccc(S(=O)(=O)[O-])c5F)c5nc(c(-c6cccc(S(=O)(=O)[O-])c6F)c6ccc3[nH]6)C=C5)C=C4)cc2)c2ccccn12
REMARK SMILES IDX 16 1 15 2 14 3 12 4 13 5 11 7 3 8 4 9 89 10 84 11 88 12
REMARK SMILES IDX 85 13 87 14 86 15 2 16 1 17 5 21 6 22 10 23 7 24 9 25 8 26
REMARK SMILES IDX 17 27 18 28 19 29 20 31 21 32 22 33 83 34 23 35 82 36 24 37
REMARK SMILES IDX 25 38 26 39 76 40 27 41 81 42 75 43 77 44 28 45 80 46 74 47
REMARK SMILES IDX 73 48 29 50 61 51 41 52 60 53 42 54 45 55 59 56 78 57 43 58
REMARK SMILES IDX 44 59 58 61 79 62 46 63 30 64 31 65 39 66 32 67 34 68 40 69
REMARK SMILES IDX 33 70 35 71 36 72 37 73 38 74 62 75 63 76 71 77 64 78 66 79
REMARK SMILES IDX 72 80 65 81 67 82 68 83 69 84 70 85 47 86 48 87 56 88 49 89
REMARK SMILES IDX 51 90 57 91 50 92 52 93 53 94 54 95 55 96
REMARK H PARENT 14 6 1 18 1 19 1 20 18 30 77 49 45 60
REMARK Flexibility Score: inf
ROOT
ATOM      1  C   UNL A   1      32.702  29.801  25.605  1.00  0.00     0.042 C 
ENDROOT
BRANCH   1   2
ATOM      2  C   UNL A   1      33.942  28.955  25.413  1.00  0.00     0.118 C 
BRANCH   2   3
ATOM      3  N   UNL A   1      34.373  28.746  24.050  1.00  0.00    -0.352 N 
ATOM      4  C   UNL A   1      33.741  28.127  22.992  1.00  0.00     0.254 C 
ATOM      5  O   UNL A   1      34.299  28.240  21.901  1.00  0.00    -0.269 OA
ATOM      6  H   UNL A   1      35.265  29.105  23.842  1.00  0.00     0.163 HD
BRANCH   4   7
ATOM      7  C   UNL A   1      32.532  27.303  23.160  1.00  0.00     0.073 A 
ATOM      8  C   UNL A   1      31.231  25.481  23.745  1.00  0.00     0.086 A 
ATOM      9  C   UNL A   1      32.545  25.916  23.567  1.00  0.00     0.022 A 
ATOM     10  N   UNL A   1      30.418  26.576  23.488  1.00  0.00    -0.314 N 
ATOM     11  C   UNL A   1      31.192  27.588  22.914  1.00  0.00     0.059 A 
ATOM     12  C   UNL A   1      29.047  26.740  23.737  1.00  0.00     0.092 A 
ATOM     13  C   UNL A   1      30.468  28.671  22.317  1.00  0.00     0.027 A 
ATOM     14  C   UNL A   1      28.419  27.859  23.347  1.00  0.00     0.018 A 
ATOM     15  C   UNL A   1      29.157  28.832  22.570  1.00  0.00     0.004 A 
BRANCH   8  16
ATOM     16  C   UNL A   1      30.667  24.170  24.196  1.00  0.00     0.315 C 
BRANCH  16  17
ATOM     17  N   UNL A   1      30.596  23.197  23.114  1.00  0.00    -0.353 N 
ATOM     18  H   UNL A   1      31.337  22.504  23.230  1.00  0.00     0.344 HD
ATOM     19  H   UNL A   1      30.712  23.672  22.220  1.00  0.00     0.344 HD
ATOM     20  H   UNL A   1      29.689  22.729  23.137  1.00  0.00     0.344 HD
ENDBRANCH  16  17
ENDBRANCH   8  16
BRANCH   9  21
ATOM     21  C   UNL A   1      33.706  25.065  23.783  1.00  0.00    -0.016 A 
ATOM     22  C   UNL A   1      34.056  24.079  22.857  1.00  0.00     0.009 A 
ATOM     23  C   UNL A   1      34.448  25.195  24.965  1.00  0.00     0.009 A 
ATOM     24  C   UNL A   1      35.151  23.246  23.103  1.00  0.00     0.001 A 
ATOM     25  C   UNL A   1      35.557  24.380  25.197  1.00  0.00     0.001 A 
ATOM     26  C   UNL A   1      35.906  23.403  24.267  1.00  0.00     0.000 A 
ENDBRANCH   9  21
ENDBRANCH   4   7
ENDBRANCH   2   3
ENDBRANCH   1   2
BRANCH   1  27
ATOM     27  C   UNL A   1      32.479  30.350  26.999  1.00  0.00     0.118 C 
BRANCH  27  28
ATOM     28  N   UNL A   1      32.606  31.799  27.099  1.00  0.00    -0.352 N 
ATOM     29  C   UNL A   1      33.578  32.593  27.666  1.00  0.00     0.251 C 
ATOM     30  H   UNL A   1      31.865  32.299  26.686  1.00  0.00     0.163 HD
ATOM     31  O   UNL A   1      33.393  33.807  27.724  1.00  0.00    -0.269 OA
BRANCH  29  32
ATOM     32  C   UNL A   1      34.820  32.012  28.231  1.00  0.00     0.039 A 
ATOM     33  C   UNL A   1      35.991  32.776  28.234  1.00  0.00     0.014 A 
ATOM     34  C   UNL A   1      34.854  30.715  28.739  1.00  0.00     0.014 A 
ATOM     35  C   UNL A   1      37.161  32.260  28.801  1.00  0.00     0.010 A 
ATOM     36  C   UNL A   1      35.968  30.264  29.438  1.00  0.00     0.010 A 
ATOM     37  C   UNL A   1      37.151  31.010  29.441  1.00  0.00    -0.014 A 
BRANCH  37  38
ATOM     38  C   UNL A   1      38.374  30.442  30.066  1.00  0.00     0.031 A 
ATOM     39  C   UNL A   1      38.791  30.882  31.450  1.00  0.00     0.074 A 
ATOM     40  C   UNL A   1      39.146  29.582  29.373  1.00  0.00     0.049 A 
ATOM     41  N   UNL A   1      39.829  30.513  32.155  1.00  0.00    -0.248 NA
ATOM     42  C   UNL A   1      37.957  31.899  32.115  1.00  0.00     0.031 C 
ATOM     43  C   UNL A   1      38.910  29.154  27.991  1.00  0.00     0.029 A 
ATOM     44  N   UNL A   1      40.296  28.924  29.730  1.00  0.00    -0.354 N 
ATOM     45  C   UNL A   1      39.792  31.276  33.318  1.00  0.00     0.074 A 
ATOM     46  C   UNL A   1      38.665  32.171  33.200  1.00  0.00     0.031 C 
ATOM     47  C   UNL A   1      39.868  28.286  27.629  1.00  0.00     0.029 A 
ATOM     48  C   UNL A   1      40.802  28.116  28.738  1.00  0.00     0.049 A 
ATOM     49  H   UNL A   1      40.719  29.019  30.614  1.00  0.00     0.167 HD
ATOM     50  C   UNL A   1      40.593  31.213  34.407  1.00  0.00     0.034 A 
ATOM     51  C   UNL A   1      41.891  27.324  28.725  1.00  0.00     0.034 A 
ATOM     52  C   UNL A   1      41.680  30.284  34.545  1.00  0.00     0.049 A 
ATOM     53  C   UNL A   1      42.726  27.219  29.973  1.00  0.00     0.074 A 
ATOM     54  C   UNL A   1      42.499  30.072  35.638  1.00  0.00     0.029 A 
ATOM     55  N   UNL A   1      42.103  29.414  33.552  1.00  0.00    -0.354 N 
ATOM     56  N   UNL A   1      42.576  27.832  31.123  1.00  0.00    -0.248 NA
ATOM     57  C   UNL A   1      43.852  26.276  29.938  1.00  0.00     0.031 C 
ATOM     58  C   UNL A   1      43.437  29.092  35.298  1.00  0.00     0.029 A 
ATOM     59  C   UNL A   1      43.175  28.665  34.006  1.00  0.00     0.049 A 
ATOM     60  H   UNL A   1      41.701  29.339  32.658  1.00  0.00     0.167 HD
ATOM     61  C   UNL A   1      43.561  27.321  31.959  1.00  0.00     0.074 A 
ATOM     62  C   UNL A   1      44.283  26.328  31.191  1.00  0.00     0.031 C 
ATOM     63  C   UNL A   1      43.852  27.648  33.243  1.00  0.00     0.034 A 
BRANCH  50  64
ATOM     64  C   UNL A   1      40.288  32.140  35.556  1.00  0.00     0.023 A 
ATOM     65  C   UNL A   1      41.035  33.327  35.717  1.00  0.00     0.012 A 
ATOM     66  C   UNL A   1      39.234  31.865  36.449  1.00  0.00     0.148 A 
ATOM     67  C   UNL A   1      40.768  34.200  36.771  1.00  0.00     0.002 A 
ATOM     68  C   UNL A   1      38.939  32.767  37.465  1.00  0.00     0.091 A 
ATOM     69  F   UNL A   1      38.548  30.723  36.295  1.00  0.00    -0.205 F 
ATOM     70  C   UNL A   1      39.714  33.925  37.637  1.00  0.00     0.022 A 
BRANCH  68  71
ATOM     71  S   UNL A   1      37.549  32.550  38.582  1.00  0.00     0.127 S 
ATOM     72  O   UNL A   1      37.636  31.122  38.887  1.00  0.00    -0.237 OA
ATOM     73  O   UNL A   1      37.908  33.433  39.691  1.00  0.00    -0.237 OA
ATOM     74  O   UNL A   1      36.366  32.956  37.837  1.00  0.00    -0.744 OA
ENDBRANCH  68  71
ENDBRANCH  50  64
BRANCH  51  75
ATOM     75  C   UNL A   1      42.211  26.508  27.519  1.00  0.00     0.023 A 
ATOM     76  C   UNL A   1      42.858  27.112  26.423  1.00  0.00     0.012 A 
ATOM     77  C   UNL A   1      41.893  25.138  27.458  1.00  0.00     0.148 A 
ATOM     78  C   UNL A   1      43.144  26.377  25.271  1.00  0.00     0.002 A 
ATOM     79  C   UNL A   1      42.234  24.398  26.332  1.00  0.00     0.091 A 
ATOM     80  F   UNL A   1      41.272  24.583  28.508  1.00  0.00    -0.205 F 
ATOM     81  C   UNL A   1      42.841  25.019  25.230  1.00  0.00     0.022 A 
BRANCH  79  82
ATOM     82  S   UNL A   1      42.003  22.619  26.243  1.00  0.00     0.127 S 
ATOM     83  O   UNL A   1      42.668  22.294  24.984  1.00  0.00    -0.237 OA
ATOM     84  O   UNL A   1      42.703  22.164  27.445  1.00  0.00    -0.237 OA
ATOM     85  O   UNL A   1      40.563  22.407  26.271  1.00  0.00    -0.744 OA
ENDBRANCH  79  82
ENDBRANCH  51  75
BRANCH  63  86
ATOM     86  C   UNL A   1      44.967  26.892  33.916  1.00  0.00     0.023 A 
ATOM     87  C   UNL A   1      46.292  27.366  33.840  1.00  0.00     0.012 A 
ATOM     88  C   UNL A   1      44.692  25.728  34.660  1.00  0.00     0.148 A 
ATOM     89  C   UNL A   1      47.332  26.664  34.449  1.00  0.00     0.002 A 
ATOM     90  C   UNL A   1      45.725  25.066  35.312  1.00  0.00     0.091 A 
ATOM     91  F   UNL A   1      43.428  25.280  34.707  1.00  0.00    -0.205 F 
ATOM     92  C   UNL A   1      47.048  25.521  35.192  1.00  0.00     0.022 A 
BRANCH  90  93
ATOM     93  S   UNL A   1      45.432  23.648  36.374  1.00  0.00     0.127 S 
ATOM     94  O   UNL A   1      44.592  22.807  35.524  1.00  0.00    -0.237 OA
ATOM     95  O   UNL A   1      46.785  23.136  36.591  1.00  0.00    -0.237 OA
ATOM     96  O   UNL A   1      44.789  24.174  37.571  1.00  0.00    -0.744 OA
ENDBRANCH  90  93
ENDBRANCH  63  86
ENDBRANCH  37  38
ENDBRANCH  29  32
ENDBRANCH  27  28
ENDBRANCH   1  27
TORSDOF 16
ENDMDL
MODEL 3
REMARK VINA RESULT:     -12.4      5.091     10.066
REMARK SMILES [NH3+]Cc1c(-c2ccccc2)c(C(=O)NCCCNC(=O)c2ccc(-c3c4nc(c(-c5cccc(S(=O)(=O)[O-])c5F)c5ccc([nH]5)c(-c5cccc(S(=O)(=O)[O-])c5F)c5nc(c(-c6cccc(S(=O)(=O)[O-])c6F)c6ccc3[nH]6)C=C5)C=C4)cc2)c2ccccn12
REMARK SMILES IDX 16 1 15 2 14 3 12 4 13 5 11 7 3 8 4 9 89 10 84 11 88 12
REMARK SMILES IDX 85 13 87 14 86 15 2 16 1 17 5 21 6 22 10 23 7 24 9 25 8 26
REMARK SMILES IDX 17 27 18 28 19 29 20 31 21 32 22 33 83 34 23 35 82 36 24 37
REMARK SMILES IDX 25 38 26 39 76 40 27 41 81 42 75 43 77 44 28 45 80 46 74 47
REMARK SMILES IDX 73 48 29 50 61 51 41 52 60 53 42 54 45 55 59 56 78 57 43 58
REMARK SMILES IDX 44 59 58 61 79 62 46 63 30 64 31 65 39 66 32 67 34 68 40 69
REMARK SMILES IDX 33 70 35 71 36 72 37 73 38 74 62 75 63 76 71 77 64 78 66 79
REMARK SMILES IDX 72 80 65 81 67 82 68 83 69 84 70 85 47 86 48 87 56 88 49 89
REMARK SMILES IDX 51 90 57 91 50 92 52 93 53 94 54 95 55 96
REMARK H PARENT 14 6 1 18 1 19 1 20 18 30 77 49 45 60
REMARK Flexibility Score: inf
ROOT
ATOM      1  C   UNL A   1      36.374  21.874  25.546  1.00  0.00     0.042 C 
ENDROOT
BRANCH   1   2
ATOM      2  C   UNL A   1      35.979  23.123  26.303  1.00  0.00     0.118 C 
BRANCH   2   3
ATOM      3  N   UNL A   1      34.907  22.981  27.261  1.00  0.00    -0.352 N 
ATOM      4  C   UNL A   1      33.559  22.757  27.076  1.00  0.00     0.254 C 
ATOM      5  O   UNL A   1      32.914  22.528  28.099  1.00  0.00    -0.269 OA
ATOM      6  H   UNL A   1      35.185  23.057  28.202  1.00  0.00     0.163 HD
BRANCH   4   7
ATOM      7  C   UNL A   1      32.906  22.876  25.762  1.00  0.00     0.073 A 
ATOM      8  C   UNL A   1      32.030  23.890  23.876  1.00  0.00     0.086 A 
ATOM      9  C   UNL A   1      32.499  24.129  25.167  1.00  0.00     0.022 A 
ATOM     10  N   UNL A   1      32.171  22.528  23.654  1.00  0.00    -0.314 N 
ATOM     11  C   UNL A   1      32.473  21.902  24.866  1.00  0.00     0.059 A 
ATOM     12  C   UNL A   1      32.059  21.809  22.454  1.00  0.00     0.092 A 
ATOM     13  C   UNL A   1      32.363  20.474  24.882  1.00  0.00     0.027 A 
ATOM     14  C   UNL A   1      32.160  20.471  22.457  1.00  0.00     0.018 A 
ATOM     15  C   UNL A   1      32.270  19.788  23.728  1.00  0.00     0.004 A 
BRANCH   8  16
ATOM     16  C   UNL A   1      31.531  24.815  22.809  1.00  0.00     0.315 C 
BRANCH  16  17
ATOM     17  N   UNL A   1      32.581  25.683  22.293  1.00  0.00    -0.353 N 
ATOM     18  H   UNL A   1      32.163  26.429  21.736  1.00  0.00     0.344 HD
ATOM     19  H   UNL A   1      33.217  25.140  21.711  1.00  0.00     0.344 HD
ATOM     20  H   UNL A   1      33.098  26.092  23.072  1.00  0.00     0.344 HD
ENDBRANCH  16  17
ENDBRANCH   8  16
BRANCH   9  21
ATOM     21  C   UNL A   1      32.556  25.455  25.767  1.00  0.00    -0.016 A 
ATOM     22  C   UNL A   1      31.423  26.028  26.352  1.00  0.00     0.009 A 
ATOM     23  C   UNL A   1      33.746  26.193  25.702  1.00  0.00     0.009 A 
ATOM     24  C   UNL A   1      31.490  27.318  26.885  1.00  0.00     0.001 A 
ATOM     25  C   UNL A   1      33.818  27.470  26.258  1.00  0.00     0.001 A 
ATOM     26  C   UNL A   1      32.688  28.034  26.846  1.00  0.00     0.000 A 
ENDBRANCH   9  21
ENDBRANCH   4   7
ENDBRANCH   2   3
ENDBRANCH   1   2
BRANCH   1  27
ATOM     27  C   UNL A   1      37.785  21.846  24.995  1.00  0.00     0.118 C 
BRANCH  27  28
ATOM     28  N   UNL A   1      38.666  20.890  25.652  1.00  0.00    -0.352 N 
ATOM     29  C   UNL A   1      39.778  21.067  26.446  1.00  0.00     0.251 C 
ATOM     30  H   UNL A   1      38.423  19.947  25.503  1.00  0.00     0.163 HD
ATOM     31  O   UNL A   1      40.426  20.081  26.789  1.00  0.00    -0.269 OA
BRANCH  29  32
ATOM     32  C   UNL A   1      40.219  22.419  26.867  1.00  0.00     0.039 A 
ATOM     33  C   UNL A   1      41.134  22.541  27.918  1.00  0.00     0.014 A 
ATOM     34  C   UNL A   1      39.728  23.572  26.256  1.00  0.00     0.014 A 
ATOM     35  C   UNL A   1      41.593  23.806  28.301  1.00  0.00     0.010 A 
ATOM     36  C   UNL A   1      40.299  24.808  26.531  1.00  0.00     0.010 A 
ATOM     37  C   UNL A   1      41.206  24.951  27.586  1.00  0.00    -0.014 A 
BRANCH  37  38
ATOM     38  C   UNL A   1      41.690  26.306  27.959  1.00  0.00     0.031 A 
ATOM     39  C   UNL A   1      43.108  26.718  27.641  1.00  0.00     0.074 A 
ATOM     40  C   UNL A   1      40.883  27.145  28.638  1.00  0.00     0.049 A 
ATOM     41  N   UNL A   1      43.717  27.847  27.896  1.00  0.00    -0.248 NA
ATOM     42  C   UNL A   1      43.970  25.719  26.984  1.00  0.00     0.031 C 
ATOM     43  C   UNL A   1      39.526  26.833  29.096  1.00  0.00     0.029 A 
ATOM     44  N   UNL A   1      41.091  28.428  29.076  1.00  0.00    -0.354 N 
ATOM     45  C   UNL A   1      45.030  27.678  27.471  1.00  0.00     0.074 A 
ATOM     46  C   UNL A   1      45.149  26.319  26.996  1.00  0.00     0.031 C 
ATOM     47  C   UNL A   1      39.016  27.903  29.725  1.00  0.00     0.029 A 
ATOM     48  C   UNL A   1      40.014  28.967  29.743  1.00  0.00     0.049 A 
ATOM     49  H   UNL A   1      41.931  28.919  28.927  1.00  0.00     0.167 HD
ATOM     50  C   UNL A   1      46.040  28.579  27.437  1.00  0.00     0.034 A 
ATOM     51  C   UNL A   1      39.849  30.182  30.299  1.00  0.00     0.034 A 
ATOM     52  C   UNL A   1      45.904  29.945  27.860  1.00  0.00     0.049 A 
ATOM     53  C   UNL A   1      40.962  31.189  30.186  1.00  0.00     0.074 A 
ATOM     54  C   UNL A   1      46.833  30.967  27.786  1.00  0.00     0.029 A 
ATOM     55  N   UNL A   1      44.766  30.480  28.442  1.00  0.00    -0.354 N 
ATOM     56  N   UNL A   1      42.144  31.058  29.632  1.00  0.00    -0.248 NA
ATOM     57  C   UNL A   1      40.700  32.529  30.731  1.00  0.00     0.031 C 
ATOM     58  C   UNL A   1      46.266  32.114  28.349  1.00  0.00     0.029 A 
ATOM     59  C   UNL A   1      44.970  31.817  28.737  1.00  0.00     0.049 A 
ATOM     60  H   UNL A   1      43.936  29.984  28.620  1.00  0.00     0.167 HD
ATOM     61  C   UNL A   1      42.750  32.305  29.726  1.00  0.00     0.074 A 
ATOM     62  C   UNL A   1      41.792  33.185  30.365  1.00  0.00     0.031 C 
ATOM     63  C   UNL A   1      43.989  32.689  29.331  1.00  0.00     0.034 A 
BRANCH  50  64
ATOM     64  C   UNL A   1      47.364  28.127  26.874  1.00  0.00     0.023 A 
ATOM     65  C   UNL A   1      48.426  27.809  27.748  1.00  0.00     0.012 A 
ATOM     66  C   UNL A   1      47.545  27.972  25.486  1.00  0.00     0.148 A 
ATOM     67  C   UNL A   1      49.657  27.387  27.248  1.00  0.00     0.002 A 
ATOM     68  C   UNL A   1      48.759  27.499  24.999  1.00  0.00     0.091 A 
ATOM     69  F   UNL A   1      46.534  28.299  24.668  1.00  0.00    -0.205 F 
ATOM     70  C   UNL A   1      49.819  27.221  25.876  1.00  0.00     0.022 A 
BRANCH  68  71
ATOM     71  S   UNL A   1      49.043  27.171  23.256  1.00  0.00     0.127 S 
ATOM     72  O   UNL A   1      50.495  26.999  23.221  1.00  0.00    -0.237 OA
ATOM     73  O   UNL A   1      48.278  25.941  23.049  1.00  0.00    -0.237 OA
ATOM     74  O   UNL A   1      48.536  28.332  22.539  1.00  0.00    -0.744 OA
ENDBRANCH  68  71
ENDBRANCH  50  64
BRANCH  51  75
ATOM     75  C   UNL A   1      38.554  30.542  30.943  1.00  0.00     0.023 A 
ATOM     76  C   UNL A   1      38.311  30.161  32.278  1.00  0.00     0.012 A 
ATOM     77  C   UNL A   1      37.569  31.270  30.249  1.00  0.00     0.148 A 
ATOM     78  C   UNL A   1      37.097  30.461  32.896  1.00  0.00     0.002 A 
ATOM     79  C   UNL A   1      36.385  31.617  30.889  1.00  0.00     0.091 A 
ATOM     80  F   UNL A   1      37.815  31.617  28.978  1.00  0.00    -0.205 F 
ATOM     81  C   UNL A   1      36.138  31.197  32.204  1.00  0.00     0.022 A 
BRANCH  79  82
ATOM     82  S   UNL A   1      35.152  32.675  30.123  1.00  0.00     0.127 S 
ATOM     83  O   UNL A   1      35.967  33.792  29.653  1.00  0.00    -0.237 OA
ATOM     84  O   UNL A   1      34.625  31.809  29.068  1.00  0.00    -0.237 OA
ATOM     85  O   UNL A   1      34.194  32.989  31.175  1.00  0.00    -0.744 OA
ENDBRANCH  79  82
ENDBRANCH  51  75
BRANCH  63  86
ATOM     86  C   UNL A   1      44.364  34.133  29.531  1.00  0.00     0.023 A 
ATOM     87  C   UNL A   1      44.946  34.553  30.744  1.00  0.00     0.012 A 
ATOM     88  C   UNL A   1      44.176  35.070  28.496  1.00  0.00     0.148 A 
ATOM     89  C   UNL A   1      45.284  35.891  30.943  1.00  0.00     0.002 A 
ATOM     90  C   UNL A   1      44.569  36.390  28.680  1.00  0.00     0.091 A 
ATOM     91  F   UNL A   1      43.606  34.658  27.354  1.00  0.00    -0.205 F 
ATOM     92  C   UNL A   1      45.105  36.806  29.909  1.00  0.00     0.022 A 
BRANCH  90  93
ATOM     93  S   UNL A   1      44.471  37.609  27.365  1.00  0.00     0.127 S 
ATOM     94  O   UNL A   1      45.605  37.232  26.524  1.00  0.00    -0.237 OA
ATOM     95  O   UNL A   1      43.158  37.332  26.781  1.00  0.00    -0.237 OA
ATOM     96  O   UNL A   1      44.576  38.907  28.018  1.00  0.00    -0.744 OA
ENDBRANCH  90  93
ENDBRANCH  63  86
ENDBRANCH  37  38
ENDBRANCH  29  32
ENDBRANCH  27  28
ENDBRANCH   1  27
TORSDOF 16
ENDMDL
