MODEL 1
REMARK VINA RESULT:     -10.3      0.000      0.000
REMARK SMILES O=C(NCCCNC(=O)c1cc(-c2ccc(N3C(=O)[C@@H]4CC=CC[C@H]4C3=O)cc2)nc2c(Cl)cccc12)c1ccc(-c2c3nc(c(-c4cccc(S(=O)(=O)[O-])c4F)c4ccc([nH]4)c(-c4cccc(S(=O)(=O)[O-])c4F)c4nc(c(-c5cccc(S(=O)(=O)[O-])c5F)c5ccc2[nH]5)C=C4)C=C3)cc1
REMARK SMILES IDX 4 1 3 2 1 3 2 4 38 6 39 7 100 8 40 9 99 10 41 11 42 12 43 13
REMARK SMILES IDX 93 14 44 15 98 16 92 17 94 18 45 19 97 20 91 21 90 22 46 24
REMARK SMILES IDX 78 25 58 26 77 27 59 28 62 29 76 30 95 31 60 32 61 33 75 35
REMARK SMILES IDX 96 36 63 37 47 38 48 39 56 40 49 41 51 42 57 43 50 44 52 45
REMARK SMILES IDX 53 46 54 47 55 48 79 49 80 50 88 51 81 52 83 53 89 54 82 55
REMARK SMILES IDX 84 56 85 57 86 58 87 59 64 60 65 61 73 62 66 63 68 64 74 65
REMARK SMILES IDX 67 66 69 67 70 68 71 69 72 70 5 71 6 72 7 73 8 74 9 76 10 77
REMARK SMILES IDX 11 78 37 79 12 80 31 81 36 82 30 83 32 84 35 85 33 86 34 87
REMARK SMILES IDX 13 88 14 89 29 90 15 91 28 92 16 93 17 94 18 95 26 96 19 97
REMARK SMILES IDX 20 98 25 99 27 100 21 101 24 102 22 103 23 104
REMARK H PARENT 3 5 94 23 62 34 7 75
REMARK Flexibility Score: inf
ROOT
ATOM      1  C   UNL A   1      36.820  34.024  35.457  1.00  0.00     0.118 C 
ENDROOT
BRANCH   1   2
ATOM      2  N   UNL A   1      37.023  32.950  36.424  1.00  0.00    -0.352 N 
ATOM      3  O   UNL A   1      37.788  31.011  37.273  1.00  0.00    -0.269 OA
ATOM      4  C   UNL A   1      37.885  31.876  36.407  1.00  0.00     0.251 C 
ATOM      5  H   UNL A   1      36.449  33.003  37.222  1.00  0.00     0.163 HD
BRANCH   4   6
ATOM      6  C   UNL A   1      38.883  31.740  35.323  1.00  0.00     0.039 A 
ATOM      7  C   UNL A   1      38.526  31.181  34.099  1.00  0.00     0.014 A 
ATOM      8  C   UNL A   1      40.205  32.138  35.542  1.00  0.00     0.014 A 
ATOM      9  C   UNL A   1      39.515  30.775  33.215  1.00  0.00     0.010 A 
ATOM     10  C   UNL A   1      41.181  31.864  34.578  1.00  0.00     0.010 A 
ATOM     11  C   UNL A   1      40.858  31.117  33.435  1.00  0.00    -0.014 A 
BRANCH  11  12
ATOM     12  C   UNL A   1      41.878  30.701  32.434  1.00  0.00     0.031 A 
ATOM     13  C   UNL A   1      42.351  31.641  31.355  1.00  0.00     0.074 A 
ATOM     14  C   UNL A   1      42.415  29.468  32.533  1.00  0.00     0.049 A 
ATOM     15  N   UNL A   1      43.276  31.449  30.448  1.00  0.00    -0.248 NA
ATOM     16  C   UNL A   1      41.702  32.959  31.269  1.00  0.00     0.031 C 
ATOM     17  C   UNL A   1      42.019  28.453  33.514  1.00  0.00     0.029 A 
ATOM     18  N   UNL A   1      43.414  28.859  31.817  1.00  0.00    -0.354 N 
ATOM     19  C   UNL A   1      43.282  32.591  29.655  1.00  0.00     0.074 A 
ATOM     20  C   UNL A   1      42.265  33.473  30.184  1.00  0.00     0.031 C 
ATOM     21  C   UNL A   1      42.798  27.372  33.373  1.00  0.00     0.029 A 
ATOM     22  C   UNL A   1      43.697  27.583  32.246  1.00  0.00     0.049 A 
ATOM     23  H   UNL A   1      43.883  29.293  31.068  1.00  0.00     0.167 HD
ATOM     24  C   UNL A   1      44.068  32.884  28.590  1.00  0.00     0.034 A 
ATOM     25  C   UNL A   1      44.569  26.672  31.778  1.00  0.00     0.034 A 
ATOM     26  C   UNL A   1      45.104  32.019  28.089  1.00  0.00     0.049 A 
ATOM     27  C   UNL A   1      45.438  27.034  30.610  1.00  0.00     0.074 A 
ATOM     28  C   UNL A   1      45.999  32.255  27.060  1.00  0.00     0.029 A 
ATOM     29  N   UNL A   1      45.376  30.746  28.568  1.00  0.00    -0.354 N 
ATOM     30  N   UNL A   1      45.507  28.165  29.951  1.00  0.00    -0.248 NA
ATOM     31  C   UNL A   1      46.373  26.003  30.139  1.00  0.00     0.031 C 
ATOM     32  C   UNL A   1      46.784  31.110  26.889  1.00  0.00     0.029 A 
ATOM     33  C   UNL A   1      46.414  30.179  27.846  1.00  0.00     0.049 A 
ATOM     34  H   UNL A   1      44.901  30.309  29.311  1.00  0.00     0.167 HD
ATOM     35  C   UNL A   1      46.520  27.998  29.016  1.00  0.00     0.074 A 
ATOM     36  C   UNL A   1      47.048  26.663  29.208  1.00  0.00     0.031 C 
ATOM     37  C   UNL A   1      46.965  28.868  28.077  1.00  0.00     0.034 A 
BRANCH  24  38
ATOM     38  C   UNL A   1      43.850  34.204  27.892  1.00  0.00     0.023 A 
ATOM     39  C   UNL A   1      43.027  34.275  26.750  1.00  0.00     0.012 A 
ATOM     40  C   UNL A   1      44.411  35.391  28.409  1.00  0.00     0.148 A 
ATOM     41  C   UNL A   1      42.796  35.495  26.112  1.00  0.00     0.002 A 
ATOM     42  C   UNL A   1      44.138  36.608  27.798  1.00  0.00     0.091 A 
ATOM     43  F   UNL A   1      45.205  35.304  29.486  1.00  0.00    -0.205 F 
ATOM     44  C   UNL A   1      43.342  36.661  26.643  1.00  0.00     0.022 A 
BRANCH  42  45
ATOM     45  S   UNL A   1      44.723  38.175  28.453  1.00  0.00     0.127 S 
ATOM     46  O   UNL A   1      44.221  39.117  27.454  1.00  0.00    -0.237 OA
ATOM     47  O   UNL A   1      44.044  38.240  29.748  1.00  0.00    -0.237 OA
ATOM     48  O   UNL A   1      46.172  38.063  28.532  1.00  0.00    -0.744 OA
ENDBRANCH  42  45
ENDBRANCH  24  38
BRANCH  25  49
ATOM     49  C   UNL A   1      44.684  25.343  32.442  1.00  0.00     0.023 A 
ATOM     50  C   UNL A   1      44.028  24.228  31.886  1.00  0.00     0.012 A 
ATOM     51  C   UNL A   1      45.462  25.176  33.604  1.00  0.00     0.148 A 
ATOM     52  C   UNL A   1      44.115  22.977  32.497  1.00  0.00     0.002 A 
ATOM     53  C   UNL A   1      45.596  23.916  34.171  1.00  0.00     0.091 A 
ATOM     54  F   UNL A   1      46.073  26.252  34.119  1.00  0.00    -0.205 F 
ATOM     55  C   UNL A   1      44.907  22.818  33.632  1.00  0.00     0.022 A 
BRANCH  53  56
ATOM     56  S   UNL A   1      46.701  23.593  35.549  1.00  0.00     0.127 S 
ATOM     57  O   UNL A   1      46.137  22.364  36.103  1.00  0.00    -0.237 OA
ATOM     58  O   UNL A   1      47.987  23.431  34.870  1.00  0.00    -0.237 OA
ATOM     59  O   UNL A   1      46.618  24.768  36.405  1.00  0.00    -0.744 OA
ENDBRANCH  53  56
ENDBRANCH  25  49
BRANCH  37  60
ATOM     60  C   UNL A   1      48.128  28.432  27.225  1.00  0.00     0.023 A 
ATOM     61  C   UNL A   1      49.434  28.416  27.753  1.00  0.00     0.012 A 
ATOM     62  C   UNL A   1      47.912  27.992  25.903  1.00  0.00     0.148 A 
ATOM     63  C   UNL A   1      50.512  28.013  26.966  1.00  0.00     0.002 A 
ATOM     64  C   UNL A   1      48.982  27.538  25.145  1.00  0.00     0.091 A 
ATOM     65  F   UNL A   1      46.666  28.036  25.410  1.00  0.00    -0.205 F 
ATOM     66  C   UNL A   1      50.285  27.564  25.668  1.00  0.00     0.022 A 
BRANCH  64  67
ATOM     67  S   UNL A   1      48.767  26.846  23.501  1.00  0.00     0.127 S 
ATOM     68  O   UNL A   1      48.019  27.905  22.828  1.00  0.00    -0.237 OA
ATOM     69  O   UNL A   1      50.150  26.691  23.047  1.00  0.00    -0.237 OA
ATOM     70  O   UNL A   1      48.050  25.592  23.685  1.00  0.00    -0.744 OA
ENDBRANCH  64  67
ENDBRANCH  37  60
ENDBRANCH  11  12
ENDBRANCH   4   6
ENDBRANCH   1   2
BRANCH   1  71
ATOM     71  C   UNL A   1      35.652  33.787  34.516  1.00  0.00     0.042 C 
BRANCH  71  72
ATOM     72  C   UNL A   1      36.058  33.365  33.117  1.00  0.00     0.118 C 
BRANCH  72  73
ATOM     73  N   UNL A   1      37.095  34.208  32.539  1.00  0.00    -0.352 N 
ATOM     74  C   UNL A   1      37.687  34.159  31.304  1.00  0.00     0.252 C 
ATOM     75  H   UNL A   1      37.423  34.926  33.127  1.00  0.00     0.163 HD
ATOM     76  O   UNL A   1      38.588  34.946  31.025  1.00  0.00    -0.269 OA
BRANCH  74  77
ATOM     77  C   UNL A   1      37.294  33.135  30.315  1.00  0.00     0.051 A 
ATOM     78  C   UNL A   1      38.207  32.097  30.145  1.00  0.00     0.043 A 
ATOM     79  C   UNL A   1      36.093  33.185  29.573  1.00  0.00     0.015 A 
ATOM     80  C   UNL A   1      37.889  31.099  29.251  1.00  0.00     0.072 A 
ATOM     81  C   UNL A   1      35.810  32.072  28.757  1.00  0.00     0.090 A 
ATOM     82  C   UNL A   1      35.176  34.267  29.617  1.00  0.00     0.011 A 
ATOM     83  N   UNL A   1      36.710  31.074  28.590  1.00  0.00    -0.246 NA
ATOM     84  C   UNL A   1      34.554  32.037  28.126  1.00  0.00     0.067 A 
ATOM     85  C   UNL A   1      33.936  34.198  28.993  1.00  0.00     0.002 A 
ATOM     86  Cl  UNL A   1      34.096  30.682  27.146  1.00  0.00    -0.082 Cl
ATOM     87  C   UNL A   1      33.615  33.067  28.262  1.00  0.00     0.023 A 
BRANCH  80  88
ATOM     88  C   UNL A   1      38.834  30.031  28.923  1.00  0.00     0.000 A 
ATOM     89  C   UNL A   1      39.713  29.508  29.878  1.00  0.00     0.012 A 
ATOM     90  C   UNL A   1      38.898  29.525  27.617  1.00  0.00     0.012 A 
ATOM     91  C   UNL A   1      40.621  28.496  29.540  1.00  0.00     0.027 A 
ATOM     92  C   UNL A   1      39.840  28.553  27.265  1.00  0.00     0.027 A 
ATOM     93  C   UNL A   1      40.706  28.018  28.225  1.00  0.00     0.052 A 
BRANCH  93  94
ATOM     94  N   UNL A   1      41.638  27.013  27.877  1.00  0.00    -0.250 N 
ATOM     95  C   UNL A   1      42.937  27.267  27.450  1.00  0.00     0.238 C 
ATOM     96  C   UNL A   1      41.384  25.649  27.929  1.00  0.00     0.238 C 
ATOM     97  O   UNL A   1      43.482  28.323  27.176  1.00  0.00    -0.274 OA
ATOM     98  C   UNL A   1      43.647  25.947  27.536  1.00  0.00     0.096 C 
ATOM     99  C   UNL A   1      42.516  25.003  27.180  1.00  0.00     0.096 C 
ATOM    100  O   UNL A   1      40.417  25.045  28.365  1.00  0.00    -0.274 OA
ATOM    101  C   UNL A   1      44.855  25.706  26.655  1.00  0.00     0.041 C 
ATOM    102  C   UNL A   1      42.887  23.569  27.498  1.00  0.00     0.041 C 
ATOM    103  C   UNL A   1      45.144  24.223  26.580  1.00  0.00    -0.030 C 
ATOM    104  C   UNL A   1      44.278  23.272  26.981  1.00  0.00    -0.030 C 
ENDBRANCH  93  94
ENDBRANCH  80  88
ENDBRANCH  74  77
ENDBRANCH  72  73
ENDBRANCH  71  72
ENDBRANCH   1  71
TORSDOF 15
ENDMDL
MODEL 2
REMARK VINA RESULT:     -10.1      1.363      7.283
REMARK SMILES O=C(NCCCNC(=O)c1cc(-c2ccc(N3C(=O)[C@@H]4CC=CC[C@H]4C3=O)cc2)nc2c(Cl)cccc12)c1ccc(-c2c3nc(c(-c4cccc(S(=O)(=O)[O-])c4F)c4ccc([nH]4)c(-c4cccc(S(=O)(=O)[O-])c4F)c4nc(c(-c5cccc(S(=O)(=O)[O-])c5F)c5ccc2[nH]5)C=C4)C=C3)cc1
REMARK SMILES IDX 4 1 3 2 1 3 2 4 38 6 39 7 100 8 40 9 99 10 41 11 42 12 43 13
REMARK SMILES IDX 93 14 44 15 98 16 92 17 94 18 45 19 97 20 91 21 90 22 46 24
REMARK SMILES IDX 78 25 58 26 77 27 59 28 62 29 76 30 95 31 60 32 61 33 75 35
REMARK SMILES IDX 96 36 63 37 47 38 48 39 56 40 49 41 51 42 57 43 50 44 52 45
REMARK SMILES IDX 53 46 54 47 55 48 79 49 80 50 88 51 81 52 83 53 89 54 82 55
REMARK SMILES IDX 84 56 85 57 86 58 87 59 64 60 65 61 73 62 66 63 68 64 74 65
REMARK SMILES IDX 67 66 69 67 70 68 71 69 72 70 5 71 6 72 7 73 8 74 9 76 10 77
REMARK SMILES IDX 11 78 37 79 12 80 31 81 36 82 30 83 32 84 35 85 33 86 34 87
REMARK SMILES IDX 13 88 14 89 29 90 15 91 28 92 16 93 17 94 18 95 26 96 19 97
REMARK SMILES IDX 20 98 25 99 27 100 21 101 24 102 22 103 23 104
REMARK H PARENT 3 5 94 23 62 34 7 75
REMARK Flexibility Score: inf
ROOT
ATOM      1  C   UNL A   1      37.100  33.763  34.675  1.00  0.00     0.118 C 
ENDROOT
BRANCH   1   2
ATOM      2  N   UNL A   1      37.251  32.775  35.740  1.00  0.00    -0.352 N 
ATOM      3  O   UNL A   1      37.962  30.914  36.787  1.00  0.00    -0.269 OA
ATOM      4  C   UNL A   1      38.104  31.700  35.854  1.00  0.00     0.251 C 
ATOM      5  H   UNL A   1      36.642  32.899  36.503  1.00  0.00     0.163 HD
BRANCH   4   6
ATOM      6  C   UNL A   1      39.149  31.466  34.832  1.00  0.00     0.039 A 
ATOM      7  C   UNL A   1      38.846  30.790  33.654  1.00  0.00     0.014 A 
ATOM      8  C   UNL A   1      40.459  31.892  35.069  1.00  0.00     0.014 A 
ATOM      9  C   UNL A   1      39.873  30.307  32.856  1.00  0.00     0.010 A 
ATOM     10  C   UNL A   1      41.477  31.533  34.178  1.00  0.00     0.010 A 
ATOM     11  C   UNL A   1      41.205  30.677  33.100  1.00  0.00    -0.014 A 
BRANCH  11  12
ATOM     12  C   UNL A   1      42.268  30.173  32.189  1.00  0.00     0.031 A 
ATOM     13  C   UNL A   1      42.866  28.800  32.361  1.00  0.00     0.074 A 
ATOM     14  C   UNL A   1      42.666  30.956  31.166  1.00  0.00     0.049 A 
ATOM     15  N   UNL A   1      43.756  28.194  31.615  1.00  0.00    -0.248 NA
ATOM     16  C   UNL A   1      42.424  28.006  33.519  1.00  0.00     0.031 C 
ATOM     17  C   UNL A   1      42.187  32.317  30.910  1.00  0.00     0.029 A 
ATOM     18  N   UNL A   1      43.548  30.722  30.142  1.00  0.00    -0.354 N 
ATOM     19  C   UNL A   1      44.019  26.979  32.238  1.00  0.00     0.074 A 
ATOM     20  C   UNL A   1      43.198  26.933  33.428  1.00  0.00     0.031 C 
ATOM     21  C   UNL A   1      42.739  32.777  29.779  1.00  0.00     0.029 A 
ATOM     22  C   UNL A   1      43.666  31.777  29.267  1.00  0.00     0.049 A 
ATOM     23  H   UNL A   1      44.049  29.879  30.042  1.00  0.00     0.167 HD
ATOM     24  C   UNL A   1      44.859  25.988  31.851  1.00  0.00     0.034 A 
ATOM     25  C   UNL A   1      44.446  31.937  28.183  1.00  0.00     0.034 A 
ATOM     26  C   UNL A   1      45.647  26.023  30.646  1.00  0.00     0.049 A 
ATOM     27  C   UNL A   1      45.352  30.814  27.769  1.00  0.00     0.074 A 
ATOM     28  C   UNL A   1      46.476  25.041  30.133  1.00  0.00     0.029 A 
ATOM     29  N   UNL A   1      45.719  27.099  29.775  1.00  0.00    -0.354 N 
ATOM     30  N   UNL A   1      45.495  29.628  28.309  1.00  0.00    -0.248 NA
ATOM     31  C   UNL A   1      46.181  31.039  26.578  1.00  0.00     0.031 C 
ATOM     32  C   UNL A   1      47.080  25.538  28.973  1.00  0.00     0.029 A 
ATOM     33  C   UNL A   1      46.589  26.811  28.736  1.00  0.00     0.049 A 
ATOM     34  H   UNL A   1      45.225  27.944  29.879  1.00  0.00     0.167 HD
ATOM     35  C   UNL A   1      46.398  28.951  27.501  1.00  0.00     0.074 A 
ATOM     36  C   UNL A   1      46.752  29.853  26.424  1.00  0.00     0.031 C 
ATOM     37  C   UNL A   1      46.897  27.698  27.643  1.00  0.00     0.034 A 
BRANCH  24  38
ATOM     38  C   UNL A   1      44.969  24.768  32.733  1.00  0.00     0.023 A 
ATOM     39  C   UNL A   1      44.023  23.728  32.625  1.00  0.00     0.012 A 
ATOM     40  C   UNL A   1      46.052  24.623  33.624  1.00  0.00     0.148 A 
ATOM     41  C   UNL A   1      44.131  22.583  33.416  1.00  0.00     0.002 A 
ATOM     42  C   UNL A   1      46.179  23.459  34.373  1.00  0.00     0.091 A 
ATOM     43  F   UNL A   1      46.933  25.628  33.727  1.00  0.00    -0.205 F 
ATOM     44  C   UNL A   1      45.214  22.445  34.280  1.00  0.00     0.022 A 
BRANCH  42  45
ATOM     45  S   UNL A   1      47.582  23.149  35.450  1.00  0.00     0.127 S 
ATOM     46  O   UNL A   1      48.699  23.228  34.509  1.00  0.00    -0.237 OA
ATOM     47  O   UNL A   1      47.499  24.264  36.394  1.00  0.00    -0.237 OA
ATOM     48  O   UNL A   1      47.356  21.836  36.039  1.00  0.00    -0.744 OA
ENDBRANCH  42  45
ENDBRANCH  24  38
BRANCH  25  49
ATOM     49  C   UNL A   1      44.374  33.198  27.394  1.00  0.00     0.023 A 
ATOM     50  C   UNL A   1      43.641  33.226  26.192  1.00  0.00     0.012 A 
ATOM     51  C   UNL A   1      45.006  34.374  27.842  1.00  0.00     0.148 A 
ATOM     52  C   UNL A   1      43.568  34.394  25.433  1.00  0.00     0.002 A 
ATOM     53  C   UNL A   1      44.878  35.549  27.114  1.00  0.00     0.091 A 
ATOM     54  F   UNL A   1      45.705  34.323  28.985  1.00  0.00    -0.205 F 
ATOM     55  C   UNL A   1      44.178  35.557  25.898  1.00  0.00     0.022 A 
BRANCH  53  56
ATOM     56  S   UNL A   1      45.511  37.122  27.705  1.00  0.00     0.127 S 
ATOM     57  O   UNL A   1      45.445  37.943  26.499  1.00  0.00    -0.237 OA
ATOM     58  O   UNL A   1      44.538  37.465  28.742  1.00  0.00    -0.237 OA
ATOM     59  O   UNL A   1      46.850  36.844  28.207  1.00  0.00    -0.744 OA
ENDBRANCH  53  56
ENDBRANCH  25  49
BRANCH  37  60
ATOM     60  C   UNL A   1      47.830  27.199  26.572  1.00  0.00     0.023 A 
ATOM     61  C   UNL A   1      47.324  26.536  25.436  1.00  0.00     0.012 A 
ATOM     62  C   UNL A   1      49.216  27.431  26.675  1.00  0.00     0.148 A 
ATOM     63  C   UNL A   1      48.186  26.072  24.442  1.00  0.00     0.002 A 
ATOM     64  C   UNL A   1      50.063  27.018  25.655  1.00  0.00     0.091 A 
ATOM     65  F   UNL A   1      49.683  28.043  27.772  1.00  0.00    -0.205 F 
ATOM     66  C   UNL A   1      49.552  26.323  24.546  1.00  0.00     0.022 A 
BRANCH  64  67
ATOM     67  S   UNL A   1      51.820  27.390  25.657  1.00  0.00     0.127 S 
ATOM     68  O   UNL A   1      51.815  28.851  25.646  1.00  0.00    -0.237 OA
ATOM     69  O   UNL A   1      52.262  26.790  26.916  1.00  0.00    -0.237 OA
ATOM     70  O   UNL A   1      52.365  26.756  24.464  1.00  0.00    -0.744 OA
ENDBRANCH  64  67
ENDBRANCH  37  60
ENDBRANCH  11  12
ENDBRANCH   4   6
ENDBRANCH   1   2
BRANCH   1  71
ATOM     71  C   UNL A   1      36.262  33.277  33.506  1.00  0.00     0.042 C 
BRANCH  71  72
ATOM     72  C   UNL A   1      36.043  34.318  32.425  1.00  0.00     0.118 C 
BRANCH  72  73
ATOM     73  N   UNL A   1      37.277  34.752  31.784  1.00  0.00    -0.352 N 
ATOM     74  C   UNL A   1      37.886  34.300  30.642  1.00  0.00     0.252 C 
ATOM     75  H   UNL A   1      37.747  35.485  32.241  1.00  0.00     0.163 HD
ATOM     76  O   UNL A   1      38.961  34.777  30.292  1.00  0.00    -0.269 OA
BRANCH  74  77
ATOM     77  C   UNL A   1      37.293  33.203  29.851  1.00  0.00     0.051 A 
ATOM     78  C   UNL A   1      38.043  32.031  29.810  1.00  0.00     0.043 A 
ATOM     79  C   UNL A   1      36.062  33.311  29.164  1.00  0.00     0.015 A 
ATOM     80  C   UNL A   1      37.534  30.963  29.103  1.00  0.00     0.072 A 
ATOM     81  C   UNL A   1      35.577  32.139  28.552  1.00  0.00     0.090 A 
ATOM     82  C   UNL A   1      35.305  34.508  29.073  1.00  0.00     0.011 A 
ATOM     83  N   UNL A   1      36.321  31.008  28.508  1.00  0.00    -0.246 NA
ATOM     84  C   UNL A   1      34.289  32.189  27.991  1.00  0.00     0.067 A 
ATOM     85  C   UNL A   1      34.029  34.523  28.524  1.00  0.00     0.002 A 
ATOM     86  Cl  UNL A   1      33.588  30.779  27.264  1.00  0.00    -0.082 Cl
ATOM     87  C   UNL A   1      33.510  33.352  28.001  1.00  0.00     0.023 A 
BRANCH  80  88
ATOM     88  C   UNL A   1      38.301  29.732  28.911  1.00  0.00     0.000 A 
ATOM     89  C   UNL A   1      38.439  28.784  29.932  1.00  0.00     0.012 A 
ATOM     90  C   UNL A   1      38.949  29.491  27.691  1.00  0.00     0.012 A 
ATOM     91  C   UNL A   1      39.192  27.620  29.732  1.00  0.00     0.027 A 
ATOM     92  C   UNL A   1      39.744  28.355  27.509  1.00  0.00     0.027 A 
ATOM     93  C   UNL A   1      39.866  27.399  28.524  1.00  0.00     0.052 A 
BRANCH  93  94
ATOM     94  N   UNL A   1      40.645  26.235  28.329  1.00  0.00    -0.250 N 
ATOM     95  C   UNL A   1      40.119  24.989  28.005  1.00  0.00     0.238 C 
ATOM     96  C   UNL A   1      42.030  26.187  28.421  1.00  0.00     0.238 C 
ATOM     97  O   UNL A   1      38.959  24.616  27.947  1.00  0.00    -0.274 OA
ATOM     98  C   UNL A   1      41.293  24.167  27.558  1.00  0.00     0.096 C 
ATOM     99  C   UNL A   1      42.377  24.725  28.460  1.00  0.00     0.096 C 
ATOM    100  O   UNL A   1      42.840  27.089  28.563  1.00  0.00    -0.274 OA
ATOM    101  C   UNL A   1      41.217  22.659  27.668  1.00  0.00     0.041 C 
ATOM    102  C   UNL A   1      43.749  24.281  27.996  1.00  0.00     0.041 C 
ATOM    103  C   UNL A   1      42.608  22.070  27.581  1.00  0.00    -0.030 C 
ATOM    104  C   UNL A   1      43.736  22.797  27.700  1.00  0.00    -0.030 C 
ENDBRANCH  93  94
ENDBRANCH  80  88
ENDBRANCH  74  77
ENDBRANCH  72  73
ENDBRANCH  71  72
ENDBRANCH   1  71
TORSDOF 15
ENDMDL
MODEL 3
REMARK VINA RESULT:      -9.8      4.171     10.476
REMARK SMILES O=C(NCCCNC(=O)c1cc(-c2ccc(N3C(=O)[C@@H]4CC=CC[C@H]4C3=O)cc2)nc2c(Cl)cccc12)c1ccc(-c2c3nc(c(-c4cccc(S(=O)(=O)[O-])c4F)c4ccc([nH]4)c(-c4cccc(S(=O)(=O)[O-])c4F)c4nc(c(-c5cccc(S(=O)(=O)[O-])c5F)c5ccc2[nH]5)C=C4)C=C3)cc1
REMARK SMILES IDX 4 1 3 2 1 3 2 4 38 6 39 7 100 8 40 9 99 10 41 11 42 12 43 13
REMARK SMILES IDX 93 14 44 15 98 16 92 17 94 18 45 19 97 20 91 21 90 22 46 24
REMARK SMILES IDX 78 25 58 26 77 27 59 28 62 29 76 30 95 31 60 32 61 33 75 35
REMARK SMILES IDX 96 36 63 37 47 38 48 39 56 40 49 41 51 42 57 43 50 44 52 45
REMARK SMILES IDX 53 46 54 47 55 48 79 49 80 50 88 51 81 52 83 53 89 54 82 55
REMARK SMILES IDX 84 56 85 57 86 58 87 59 64 60 65 61 73 62 66 63 68 64 74 65
REMARK SMILES IDX 67 66 69 67 70 68 71 69 72 70 5 71 6 72 7 73 8 74 9 76 10 77
REMARK SMILES IDX 11 78 37 79 12 80 31 81 36 82 30 83 32 84 35 85 33 86 34 87
REMARK SMILES IDX 13 88 14 89 29 90 15 91 28 92 16 93 17 94 18 95 26 96 19 97
REMARK SMILES IDX 20 98 25 99 27 100 21 101 24 102 22 103 23 104
REMARK H PARENT 3 5 94 23 62 34 7 75
REMARK Flexibility Score: inf
ROOT
ATOM      1  C   UNL A   1      48.481  26.316  34.989  1.00  0.00     0.118 C 
ENDROOT
BRANCH   1   2
ATOM      2  N   UNL A   1      49.123  27.512  35.526  1.00  0.00    -0.352 N 
ATOM      3  O   UNL A   1      49.472  29.696  35.946  1.00  0.00    -0.269 OA
ATOM      4  C   UNL A   1      48.699  28.822  35.562  1.00  0.00     0.251 C 
ATOM      5  H   UNL A   1      50.007  27.356  35.931  1.00  0.00     0.163 HD
BRANCH   4   6
ATOM      6  C   UNL A   1      47.341  29.178  35.094  1.00  0.00     0.039 A 
ATOM      7  C   UNL A   1      46.230  28.472  35.546  1.00  0.00     0.014 A 
ATOM      8  C   UNL A   1      47.176  30.203  34.159  1.00  0.00     0.014 A 
ATOM      9  C   UNL A   1      45.019  28.598  34.881  1.00  0.00     0.010 A 
ATOM     10  C   UNL A   1      45.915  30.434  33.598  1.00  0.00     0.010 A 
ATOM     11  C   UNL A   1      44.839  29.587  33.902  1.00  0.00    -0.014 A 
BRANCH  11  12
ATOM     12  C   UNL A   1      43.507  29.717  33.249  1.00  0.00     0.031 A 
ATOM     13  C   UNL A   1      42.357  30.405  33.938  1.00  0.00     0.074 A 
ATOM     14  C   UNL A   1      43.353  29.241  31.996  1.00  0.00     0.049 A 
ATOM     15  N   UNL A   1      41.156  30.653  33.478  1.00  0.00    -0.248 NA
ATOM     16  C   UNL A   1      42.570  30.868  35.318  1.00  0.00     0.031 C 
ATOM     17  C   UNL A   1      44.381  28.526  31.234  1.00  0.00     0.029 A 
ATOM     18  N   UNL A   1      42.287  29.297  31.136  1.00  0.00    -0.354 N 
ATOM     19  C   UNL A   1      40.457  31.245  34.524  1.00  0.00     0.074 A 
ATOM     20  C   UNL A   1      41.366  31.319  35.646  1.00  0.00     0.031 C 
ATOM     21  C   UNL A   1      43.915  28.255  30.007  1.00  0.00     0.029 A 
ATOM     22  C   UNL A   1      42.534  28.709  29.917  1.00  0.00     0.049 A 
ATOM     23  H   UNL A   1      41.427  29.717  31.368  1.00  0.00     0.167 HD
ATOM     24  C   UNL A   1      39.179  31.696  34.546  1.00  0.00     0.034 A 
ATOM     25  C   UNL A   1      41.736  28.533  28.849  1.00  0.00     0.034 A 
ATOM     26  C   UNL A   1      38.288  31.654  33.415  1.00  0.00     0.049 A 
ATOM     27  C   UNL A   1      40.332  29.061  28.897  1.00  0.00     0.074 A 
ATOM     28  C   UNL A   1      36.998  32.147  33.318  1.00  0.00     0.029 A 
ATOM     29  N   UNL A   1      38.585  31.073  32.192  1.00  0.00    -0.354 N 
ATOM     30  N   UNL A   1      39.732  29.723  29.856  1.00  0.00    -0.248 NA
ATOM     31  C   UNL A   1      39.503  28.843  27.704  1.00  0.00     0.031 C 
ATOM     32  C   UNL A   1      36.501  31.828  32.050  1.00  0.00     0.029 A 
ATOM     33  C   UNL A   1      37.499  31.182  31.338  1.00  0.00     0.049 A 
ATOM     34  H   UNL A   1      39.442  30.646  31.963  1.00  0.00     0.167 HD
ATOM     35  C   UNL A   1      38.471  30.038  29.367  1.00  0.00     0.074 A 
ATOM     36  C   UNL A   1      38.403  29.511  28.020  1.00  0.00     0.031 C 
ATOM     37  C   UNL A   1      37.459  30.697  29.983  1.00  0.00     0.034 A 
BRANCH  24  38
ATOM     38  C   UNL A   1      38.659  32.288  35.834  1.00  0.00     0.023 A 
ATOM     39  C   UNL A   1      38.720  33.679  36.050  1.00  0.00     0.012 A 
ATOM     40  C   UNL A   1      38.047  31.468  36.804  1.00  0.00     0.148 A 
ATOM     41  C   UNL A   1      38.217  34.241  37.224  1.00  0.00     0.002 A 
ATOM     42  C   UNL A   1      37.505  32.039  37.949  1.00  0.00     0.091 A 
ATOM     43  F   UNL A   1      38.011  30.145  36.591  1.00  0.00    -0.205 F 
ATOM     44  C   UNL A   1      37.601  33.422  38.167  1.00  0.00     0.022 A 
BRANCH  42  45
ATOM     45  S   UNL A   1      36.615  31.082  39.182  1.00  0.00     0.127 S 
ATOM     46  O   UNL A   1      37.539  31.129  40.314  1.00  0.00    -0.237 OA
ATOM     47  O   UNL A   1      35.393  31.868  39.358  1.00  0.00    -0.237 OA
ATOM     48  O   UNL A   1      36.410  29.764  38.598  1.00  0.00    -0.744 OA
ENDBRANCH  42  45
ENDBRANCH  24  38
BRANCH  25  49
ATOM     49  C   UNL A   1      42.263  27.858  27.630  1.00  0.00     0.023 A 
ATOM     50  C   UNL A   1      42.929  28.615  26.648  1.00  0.00     0.012 A 
ATOM     51  C   UNL A   1      42.129  26.467  27.454  1.00  0.00     0.148 A 
ATOM     52  C   UNL A   1      43.423  28.004  25.494  1.00  0.00     0.002 A 
ATOM     53  C   UNL A   1      42.677  25.856  26.333  1.00  0.00     0.091 A 
ATOM     54  F   UNL A   1      41.485  25.766  28.397  1.00  0.00    -0.205 F 
ATOM     55  C   UNL A   1      43.305  26.625  25.342  1.00  0.00     0.022 A 
BRANCH  53  56
ATOM     56  S   UNL A   1      42.694  24.073  26.121  1.00  0.00     0.127 S 
ATOM     57  O   UNL A   1      41.299  23.728  26.380  1.00  0.00    -0.237 OA
ATOM     58  O   UNL A   1      43.116  23.941  24.726  1.00  0.00    -0.237 OA
ATOM     59  O   UNL A   1      43.659  23.571  27.089  1.00  0.00    -0.744 OA
ENDBRANCH  53  56
ENDBRANCH  25  49
BRANCH  37  60
ATOM     60  C   UNL A   1      36.207  30.946  29.182  1.00  0.00     0.023 A 
ATOM     61  C   UNL A   1      35.539  29.878  28.551  1.00  0.00     0.012 A 
ATOM     62  C   UNL A   1      35.669  32.245  29.095  1.00  0.00     0.148 A 
ATOM     63  C   UNL A   1      34.381  30.106  27.809  1.00  0.00     0.002 A 
ATOM     64  C   UNL A   1      34.484  32.456  28.402  1.00  0.00     0.091 A 
ATOM     65  F   UNL A   1      36.330  33.253  29.683  1.00  0.00    -0.205 F 
ATOM     66  C   UNL A   1      33.848  31.391  27.744  1.00  0.00     0.022 A 
BRANCH  64  67
ATOM     67  S   UNL A   1      33.672  34.057  28.355  1.00  0.00     0.127 S 
ATOM     68  O   UNL A   1      34.656  34.868  27.640  1.00  0.00    -0.237 OA
ATOM     69  O   UNL A   1      32.455  33.765  27.597  1.00  0.00    -0.237 OA
ATOM     70  O   UNL A   1      33.442  34.431  29.744  1.00  0.00    -0.744 OA
ENDBRANCH  64  67
ENDBRANCH  37  60
ENDBRANCH  11  12
ENDBRANCH   4   6
ENDBRANCH   1   2
BRANCH   1  71
ATOM     71  C   UNL A   1      48.649  25.087  35.864  1.00  0.00     0.042 C 
BRANCH  71  72
ATOM     72  C   UNL A   1      47.587  24.938  36.935  1.00  0.00     0.118 C 
BRANCH  72  73
ATOM     73  N   UNL A   1      46.935  23.635  36.926  1.00  0.00    -0.352 N 
ATOM     74  C   UNL A   1      45.818  23.211  36.256  1.00  0.00     0.252 C 
ATOM     75  H   UNL A   1      47.365  22.952  37.489  1.00  0.00     0.163 HD
ATOM     76  O   UNL A   1      45.401  22.067  36.422  1.00  0.00    -0.269 OA
BRANCH  74  77
ATOM     77  C   UNL A   1      45.070  24.128  35.372  1.00  0.00     0.051 A 
ATOM     78  C   UNL A   1      45.529  24.189  34.059  1.00  0.00     0.043 A 
ATOM     79  C   UNL A   1      43.973  24.908  35.804  1.00  0.00     0.015 A 
ATOM     80  C   UNL A   1      44.860  25.012  33.180  1.00  0.00     0.072 A 
ATOM     81  C   UNL A   1      43.294  25.642  34.812  1.00  0.00     0.090 A 
ATOM     82  C   UNL A   1      43.526  24.975  37.149  1.00  0.00     0.011 A 
ATOM     83  N   UNL A   1      43.757  25.704  33.541  1.00  0.00    -0.246 NA
ATOM     84  C   UNL A   1      42.115  26.306  35.194  1.00  0.00     0.067 A 
ATOM     85  C   UNL A   1      42.349  25.629  37.494  1.00  0.00     0.002 A 
ATOM     86  Cl  UNL A   1      41.183  27.191  34.030  1.00  0.00    -0.082 Cl
ATOM     87  C   UNL A   1      41.629  26.279  36.507  1.00  0.00     0.023 A 
BRANCH  80  88
ATOM     88  C   UNL A   1      45.337  25.227  31.814  1.00  0.00     0.000 A 
ATOM     89  C   UNL A   1      46.572  25.834  31.552  1.00  0.00     0.012 A 
ATOM     90  C   UNL A   1      44.540  24.852  30.723  1.00  0.00     0.012 A 
ATOM     91  C   UNL A   1      47.003  26.045  30.236  1.00  0.00     0.027 A 
ATOM     92  C   UNL A   1      44.946  25.111  29.410  1.00  0.00     0.027 A 
ATOM     93  C   UNL A   1      46.188  25.701  29.150  1.00  0.00     0.052 A 
BRANCH  93  94
ATOM     94  N   UNL A   1      46.613  25.934  27.821  1.00  0.00    -0.250 N 
ATOM     95  C   UNL A   1      46.716  27.196  27.245  1.00  0.00     0.238 C 
ATOM     96  C   UNL A   1      46.993  24.941  26.928  1.00  0.00     0.238 C 
ATOM     97  O   UNL A   1      46.371  28.285  27.671  1.00  0.00    -0.274 OA
ATOM     98  C   UNL A   1      47.517  26.994  25.991  1.00  0.00     0.096 C 
ATOM     99  C   UNL A   1      47.045  25.612  25.584  1.00  0.00     0.096 C 
ATOM    100  O   UNL A   1      47.150  23.743  27.104  1.00  0.00    -0.274 OA
ATOM    101  C   UNL A   1      47.359  27.981  24.853  1.00  0.00     0.041 C 
ATOM    102  C   UNL A   1      47.937  25.032  24.504  1.00  0.00     0.041 C 
ATOM    103  C   UNL A   1      47.899  27.377  23.576  1.00  0.00    -0.030 C 
ATOM    104  C   UNL A   1      48.182  26.068  23.429  1.00  0.00    -0.030 C 
ENDBRANCH  93  94
ENDBRANCH  80  88
ENDBRANCH  74  77
ENDBRANCH  72  73
ENDBRANCH  71  72
ENDBRANCH   1  71
TORSDOF 15
ENDMDL
