MODEL 1
REMARK VINA RESULT:     -12.2      0.000      0.000
REMARK SMILES Cc1ccc(S(=O)(=O)N[C@@H](C)C(=O)Oc2csc(C(=O)NCCCNC(=O)c3ccc(-c4c5nc(c(-c6cccc(S(=O)(=O)[O-])c6F)c6ccc([nH]6)c(-c6cccc(S(=O)(=O)[O-])c6F)c6nc(c(-c7cccc(S(=O)(=O)[O-])c7F)c7ccc4[nH]7)C=C6)C=C5)cc3)c2C)cc1
REMARK SMILES IDX 19 1 20 2 21 3 18 5 15 6 16 7 91 8 17 9 92 10 14 11 12 12
REMARK SMILES IDX 13 13 10 14 11 15 9 16 6 18 7 19 8 20 5 21 1 22 2 23 3 24
REMARK SMILES IDX 94 25 4 26 93 27 22 28 23 29 24 30 25 31 26 32 27 34 28 35
REMARK SMILES IDX 29 36 90 37 30 38 89 39 31 40 32 41 33 42 83 43 34 44 88 45
REMARK SMILES IDX 82 46 84 47 35 48 87 49 81 50 80 51 36 53 68 54 48 55 67 56
REMARK SMILES IDX 49 57 52 58 66 59 85 60 50 61 51 62 65 64 86 65 53 66 37 67
REMARK SMILES IDX 38 68 46 69 39 70 41 71 47 72 40 73 42 74 43 75 44 76 45 77
REMARK SMILES IDX 69 78 70 79 78 80 71 81 73 82 79 83 72 84 74 85 75 86 76 87
REMARK SMILES IDX 77 88 54 89 55 90 63 91 56 92 58 93 64 94 57 95 59 96 60 97
REMARK SMILES IDX 61 98 62 99
REMARK H PARENT 21 4 9 17 25 33 84 52 52 63
REMARK Flexibility Score: inf
ROOT
ATOM      1  C   UNL A   1      34.404  20.398  24.654  1.00  0.00     0.261 C 
ATOM      2  O   UNL A   1      33.946  19.266  24.436  1.00  0.00    -0.268 OA
ATOM      3  N   UNL A   1      35.568  20.332  25.372  1.00  0.00    -0.351 N 
ATOM      4  H   UNL A   1      35.856  19.403  25.521  1.00  0.00     0.163 HD
ENDROOT
BRANCH   1   5
ATOM      5  C   UNL A   1      33.721  21.616  24.167  1.00  0.00     0.099 A 
ATOM      6  C   UNL A   1      32.786  23.681  23.531  1.00  0.00     0.145 A 
ATOM      7  C   UNL A   1      31.816  22.848  23.057  1.00  0.00     0.113 A 
ATOM      8  C   UNL A   1      33.883  23.010  24.191  1.00  0.00     0.015 A 
ATOM      9  S   UNL A   1      32.230  21.231  23.314  1.00  0.00    -0.134 S 
ATOM     10  C   UNL A   1      34.924  23.853  24.835  1.00  0.00     0.050 C 
BRANCH   6  11
ATOM     11  O   UNL A   1      32.627  25.025  23.474  1.00  0.00    -0.424 OA
BRANCH  11  12
ATOM     12  C   UNL A   1      32.992  25.624  22.303  1.00  0.00     0.329 C 
ATOM     13  O   UNL A   1      34.136  25.944  21.990  1.00  0.00    -0.250 OA
BRANCH  12  14
ATOM     14  C   UNL A   1      31.795  25.815  21.370  1.00  0.00     0.177 C 
ATOM     15  C   UNL A   1      32.112  25.611  19.896  1.00  0.00     0.038 C 
BRANCH  14  16
ATOM     16  N   UNL A   1      31.285  27.144  21.695  1.00  0.00    -0.197 NA
ATOM     17  H   UNL A   1      32.109  27.706  21.905  1.00  0.00     0.142 HD
BRANCH  16  18
ATOM     18  S   UNL A   1      30.203  27.485  22.894  1.00  0.00     0.241 S 
ATOM     19  O   UNL A   1      29.679  26.212  23.373  1.00  0.00    -0.207 OA
ATOM     20  O   UNL A   1      29.341  28.492  22.354  1.00  0.00    -0.207 OA
BRANCH  18  21
ATOM     21  C   UNL A   1      31.095  28.218  24.239  1.00  0.00     0.082 A 
ATOM     22  C   UNL A   1      32.904  30.285  27.549  1.00  0.00     0.044 C 
ATOM     23  C   UNL A   1      32.290  29.551  26.393  1.00  0.00    -0.051 A 
ATOM     24  C   UNL A   1      31.722  30.278  25.340  1.00  0.00     0.005 A 
ATOM     25  C   UNL A   1      32.290  28.150  26.336  1.00  0.00     0.005 A 
ATOM     26  C   UNL A   1      31.116  29.617  24.275  1.00  0.00     0.022 A 
ATOM     27  C   UNL A   1      31.712  27.480  25.251  1.00  0.00     0.022 A 
ENDBRANCH  18  21
ENDBRANCH  16  18
ENDBRANCH  14  16
ENDBRANCH  12  14
ENDBRANCH  11  12
ENDBRANCH   6  11
ENDBRANCH   1   5
BRANCH   3  28
ATOM     28  C   UNL A   1      36.479  21.282  25.965  1.00  0.00     0.118 C 
BRANCH  28  29
ATOM     29  C   UNL A   1      37.875  21.121  25.384  1.00  0.00     0.042 C 
BRANCH  29  30
ATOM     30  C   UNL A   1      38.669  22.398  25.338  1.00  0.00     0.118 C 
BRANCH  30  31
ATOM     31  N   UNL A   1      39.848  22.365  26.202  1.00  0.00    -0.352 N 
ATOM     32  C   UNL A   1      40.513  23.429  26.797  1.00  0.00     0.251 C 
ATOM     33  H   UNL A   1      40.220  21.472  26.385  1.00  0.00     0.163 HD
ATOM     34  O   UNL A   1      41.573  23.236  27.378  1.00  0.00    -0.269 OA
BRANCH  32  35
ATOM     35  C   UNL A   1      39.825  24.744  26.842  1.00  0.00     0.039 A 
ATOM     36  C   UNL A   1      40.522  25.777  26.214  1.00  0.00     0.014 A 
ATOM     37  C   UNL A   1      38.972  25.011  27.907  1.00  0.00     0.014 A 
ATOM     38  C   UNL A   1      40.691  26.971  26.895  1.00  0.00     0.010 A 
ATOM     39  C   UNL A   1      39.244  26.137  28.651  1.00  0.00     0.010 A 
ATOM     40  C   UNL A   1      40.190  27.056  28.185  1.00  0.00    -0.014 A 
BRANCH  40  41
ATOM     41  C   UNL A   1      40.454  28.152  29.088  1.00  0.00     0.031 A 
ATOM     42  C   UNL A   1      39.605  29.342  28.909  1.00  0.00     0.074 A 
ATOM     43  C   UNL A   1      41.282  27.988  30.147  1.00  0.00     0.049 A 
ATOM     44  N   UNL A   1      39.819  30.472  29.478  1.00  0.00    -0.248 NA
ATOM     45  C   UNL A   1      38.447  29.354  28.010  1.00  0.00     0.031 C 
ATOM     46  C   UNL A   1      41.335  28.809  31.352  1.00  0.00     0.029 A 
ATOM     47  N   UNL A   1      42.371  27.120  30.313  1.00  0.00    -0.354 N 
ATOM     48  C   UNL A   1      38.662  31.202  29.327  1.00  0.00     0.074 A 
ATOM     49  C   UNL A   1      37.947  30.567  28.257  1.00  0.00     0.031 C 
ATOM     50  C   UNL A   1      42.517  28.620  31.961  1.00  0.00     0.029 A 
ATOM     51  C   UNL A   1      43.334  27.856  31.039  1.00  0.00     0.049 A 
ATOM     52  H   UNL A   1      42.448  26.192  29.992  1.00  0.00     0.167 HD
ATOM     53  C   UNL A   1      38.369  32.125  30.281  1.00  0.00     0.034 A 
ATOM     54  C   UNL A   1      44.521  28.298  30.505  1.00  0.00     0.034 A 
ATOM     55  C   UNL A   1      39.561  32.387  31.116  1.00  0.00     0.049 A 
ATOM     56  C   UNL A   1      44.644  29.826  30.485  1.00  0.00     0.074 A 
ATOM     57  C   UNL A   1      39.941  32.052  32.404  1.00  0.00     0.029 A 
ATOM     58  N   UNL A   1      40.730  32.804  30.481  1.00  0.00    -0.354 N 
ATOM     59  N   UNL A   1      43.754  30.657  30.963  1.00  0.00    -0.248 NA
ATOM     60  C   UNL A   1      45.736  30.530  29.811  1.00  0.00     0.031 C 
ATOM     61  C   UNL A   1      41.365  32.193  32.499  1.00  0.00     0.029 A 
ATOM     62  C   UNL A   1      41.848  32.669  31.293  1.00  0.00     0.049 A 
ATOM     63  H   UNL A   1      40.759  33.153  29.561  1.00  0.00     0.167 HD
ATOM     64  C   UNL A   1      44.023  31.934  30.534  1.00  0.00     0.074 A 
ATOM     65  C   UNL A   1      45.286  31.795  29.823  1.00  0.00     0.031 C 
ATOM     66  C   UNL A   1      43.167  32.993  30.734  1.00  0.00     0.034 A 
BRANCH  53  67
ATOM     67  C   UNL A   1      36.965  32.631  30.600  1.00  0.00     0.023 A 
ATOM     68  C   UNL A   1      36.405  32.222  31.829  1.00  0.00     0.012 A 
ATOM     69  C   UNL A   1      36.099  33.382  29.754  1.00  0.00     0.148 A 
ATOM     70  C   UNL A   1      35.083  32.517  32.190  1.00  0.00     0.002 A 
ATOM     71  C   UNL A   1      34.799  33.729  30.139  1.00  0.00     0.091 A 
ATOM     72  F   UNL A   1      36.470  33.705  28.515  1.00  0.00    -0.205 F 
ATOM     73  C   UNL A   1      34.282  33.281  31.353  1.00  0.00     0.022 A 
BRANCH  71  74
ATOM     74  S   UNL A   1      33.718  34.749  29.111  1.00  0.00     0.127 S 
ATOM     75  O   UNL A   1      34.675  35.625  28.435  1.00  0.00    -0.237 OA
ATOM     76  O   UNL A   1      33.084  33.757  28.243  1.00  0.00    -0.237 OA
ATOM     77  O   UNL A   1      32.800  35.426  30.021  1.00  0.00    -0.744 OA
ENDBRANCH  71  74
ENDBRANCH  53  67
BRANCH  54  78
ATOM     78  C   UNL A   1      45.049  27.385  29.438  1.00  0.00     0.023 A 
ATOM     79  C   UNL A   1      45.256  26.036  29.812  1.00  0.00     0.012 A 
ATOM     80  C   UNL A   1      44.868  27.688  28.080  1.00  0.00     0.148 A 
ATOM     81  C   UNL A   1      44.982  25.008  28.909  1.00  0.00     0.002 A 
ATOM     82  C   UNL A   1      44.638  26.656  27.177  1.00  0.00     0.091 A 
ATOM     83  F   UNL A   1      44.851  28.967  27.688  1.00  0.00    -0.205 F 
ATOM     84  C   UNL A   1      44.605  25.322  27.607  1.00  0.00     0.022 A 
BRANCH  82  85
ATOM     85  S   UNL A   1      44.277  27.034  25.460  1.00  0.00     0.127 S 
ATOM     86  O   UNL A   1      45.609  27.308  24.933  1.00  0.00    -0.237 OA
ATOM     87  O   UNL A   1      43.671  25.794  24.979  1.00  0.00    -0.237 OA
ATOM     88  O   UNL A   1      43.360  28.163  25.525  1.00  0.00    -0.744 OA
ENDBRANCH  82  85
ENDBRANCH  54  78
BRANCH  66  89
ATOM     89  C   UNL A   1      43.490  34.439  30.348  1.00  0.00     0.023 A 
ATOM     90  C   UNL A   1      43.588  35.458  31.316  1.00  0.00     0.012 A 
ATOM     91  C   UNL A   1      43.611  34.865  28.996  1.00  0.00     0.148 A 
ATOM     92  C   UNL A   1      43.954  36.772  30.993  1.00  0.00     0.002 A 
ATOM     93  C   UNL A   1      43.927  36.182  28.669  1.00  0.00     0.091 A 
ATOM     94  F   UNL A   1      43.369  34.011  27.999  1.00  0.00    -0.205 F 
ATOM     95  C   UNL A   1      44.143  37.130  29.668  1.00  0.00     0.022 A 
BRANCH  93  96
ATOM     96  S   UNL A   1      44.014  36.760  26.967  1.00  0.00     0.127 S 
ATOM     97  O   UNL A   1      45.091  35.926  26.431  1.00  0.00    -0.237 OA
ATOM     98  O   UNL A   1      42.680  36.427  26.468  1.00  0.00    -0.237 OA
ATOM     99  O   UNL A   1      44.308  38.183  27.026  1.00  0.00    -0.744 OA
ENDBRANCH  93  96
ENDBRANCH  66  89
ENDBRANCH  40  41
ENDBRANCH  32  35
ENDBRANCH  30  31
ENDBRANCH  29  30
ENDBRANCH  28  29
ENDBRANCH   3  28
TORSDOF 19
ENDMDL
MODEL 2
REMARK VINA RESULT:     -11.9      1.925      2.418
REMARK SMILES Cc1ccc(S(=O)(=O)N[C@@H](C)C(=O)Oc2csc(C(=O)NCCCNC(=O)c3ccc(-c4c5nc(c(-c6cccc(S(=O)(=O)[O-])c6F)c6ccc([nH]6)c(-c6cccc(S(=O)(=O)[O-])c6F)c6nc(c(-c7cccc(S(=O)(=O)[O-])c7F)c7ccc4[nH]7)C=C6)C=C5)cc3)c2C)cc1
REMARK SMILES IDX 19 1 20 2 21 3 18 5 15 6 16 7 91 8 17 9 92 10 14 11 12 12
REMARK SMILES IDX 13 13 10 14 11 15 9 16 6 18 7 19 8 20 5 21 1 22 2 23 3 24
REMARK SMILES IDX 94 25 4 26 93 27 22 28 23 29 24 30 25 31 26 32 27 34 28 35
REMARK SMILES IDX 29 36 90 37 30 38 89 39 31 40 32 41 33 42 83 43 34 44 88 45
REMARK SMILES IDX 82 46 84 47 35 48 87 49 81 50 80 51 36 53 68 54 48 55 67 56
REMARK SMILES IDX 49 57 52 58 66 59 85 60 50 61 51 62 65 64 86 65 53 66 37 67
REMARK SMILES IDX 38 68 46 69 39 70 41 71 47 72 40 73 42 74 43 75 44 76 45 77
REMARK SMILES IDX 69 78 70 79 78 80 71 81 73 82 79 83 72 84 74 85 75 86 76 87
REMARK SMILES IDX 77 88 54 89 55 90 63 91 56 92 58 93 64 94 57 95 59 96 60 97
REMARK SMILES IDX 61 98 62 99
REMARK H PARENT 21 4 9 17 25 33 84 52 52 63
REMARK Flexibility Score: inf
ROOT
ATOM      1  C   UNL A   1      34.798  20.344  24.747  1.00  0.00     0.261 C 
ATOM      2  O   UNL A   1      34.528  19.134  24.704  1.00  0.00    -0.268 OA
ATOM      3  N   UNL A   1      35.940  20.571  25.469  1.00  0.00    -0.351 N 
ATOM      4  H   UNL A   1      36.364  19.732  25.759  1.00  0.00     0.163 HD
ENDROOT
BRANCH   1   5
ATOM      5  C   UNL A   1      33.947  21.351  24.079  1.00  0.00     0.099 A 
ATOM      6  C   UNL A   1      32.769  23.115  23.055  1.00  0.00     0.145 A 
ATOM      7  C   UNL A   1      31.752  22.215  23.177  1.00  0.00     0.113 A 
ATOM      8  C   UNL A   1      34.037  22.661  23.581  1.00  0.00     0.015 A 
ATOM      9  S   UNL A   1      32.302  20.766  23.848  1.00  0.00    -0.134 S 
ATOM     10  C   UNL A   1      35.169  23.624  23.589  1.00  0.00     0.050 C 
BRANCH   6  11
ATOM     11  O   UNL A   1      32.532  24.363  22.589  1.00  0.00    -0.424 OA
BRANCH  11  12
ATOM     12  C   UNL A   1      31.398  24.970  23.048  1.00  0.00     0.329 C 
ATOM     13  O   UNL A   1      30.363  24.396  23.377  1.00  0.00    -0.250 OA
BRANCH  12  14
ATOM     14  C   UNL A   1      31.574  26.485  23.159  1.00  0.00     0.177 C 
ATOM     15  C   UNL A   1      32.978  26.976  22.840  1.00  0.00     0.038 C 
BRANCH  14  16
ATOM     16  N   UNL A   1      31.118  26.811  24.507  1.00  0.00    -0.197 NA
ATOM     17  H   UNL A   1      30.894  27.805  24.484  1.00  0.00     0.142 HD
BRANCH  16  18
ATOM     18  S   UNL A   1      31.992  26.590  25.889  1.00  0.00     0.241 S 
ATOM     19  O   UNL A   1      33.207  25.875  25.519  1.00  0.00    -0.207 OA
ATOM     20  O   UNL A   1      31.069  26.049  26.842  1.00  0.00    -0.207 OA
BRANCH  18  21
ATOM     21  C   UNL A   1      32.487  28.185  26.481  1.00  0.00     0.082 A 
ATOM     22  C   UNL A   1      34.092  31.979  27.717  1.00  0.00     0.044 C 
ATOM     23  C   UNL A   1      33.514  30.660  27.296  1.00  0.00    -0.051 A 
ATOM     24  C   UNL A   1      34.265  29.492  27.471  1.00  0.00     0.005 A 
ATOM     25  C   UNL A   1      32.227  30.571  26.747  1.00  0.00     0.005 A 
ATOM     26  C   UNL A   1      33.761  28.263  27.055  1.00  0.00     0.022 A 
ATOM     27  C   UNL A   1      31.702  29.333  26.357  1.00  0.00     0.022 A 
ENDBRANCH  18  21
ENDBRANCH  16  18
ENDBRANCH  14  16
ENDBRANCH  12  14
ENDBRANCH  11  12
ENDBRANCH   6  11
ENDBRANCH   1   5
BRANCH   3  28
ATOM     28  C   UNL A   1      36.675  21.731  25.912  1.00  0.00     0.118 C 
BRANCH  28  29
ATOM     29  C   UNL A   1      38.173  21.497  25.783  1.00  0.00     0.042 C 
BRANCH  29  30
ATOM     30  C   UNL A   1      38.991  22.759  25.788  1.00  0.00     0.118 C 
BRANCH  30  31
ATOM     31  N   UNL A   1      40.007  22.774  26.839  1.00  0.00    -0.352 N 
ATOM     32  C   UNL A   1      40.494  23.858  27.555  1.00  0.00     0.251 C 
ATOM     33  H   UNL A   1      40.397  21.899  27.069  1.00  0.00     0.163 HD
ATOM     34  O   UNL A   1      41.451  23.714  28.306  1.00  0.00    -0.269 OA
BRANCH  32  35
ATOM     35  C   UNL A   1      39.728  25.130  27.502  1.00  0.00     0.039 A 
ATOM     36  C   UNL A   1      40.264  26.085  26.638  1.00  0.00     0.014 A 
ATOM     37  C   UNL A   1      39.006  25.517  28.625  1.00  0.00     0.014 A 
ATOM     38  C   UNL A   1      40.437  27.377  27.106  1.00  0.00     0.010 A 
ATOM     39  C   UNL A   1      39.294  26.756  29.151  1.00  0.00     0.010 A 
ATOM     40  C   UNL A   1      40.104  27.637  28.427  1.00  0.00    -0.014 A 
BRANCH  40  41
ATOM     41  C   UNL A   1      40.408  28.872  29.112  1.00  0.00     0.031 A 
ATOM     42  C   UNL A   1      39.378  29.921  29.019  1.00  0.00     0.074 A 
ATOM     43  C   UNL A   1      41.471  28.952  29.947  1.00  0.00     0.049 A 
ATOM     44  N   UNL A   1      39.552  31.136  29.391  1.00  0.00    -0.248 NA
ATOM     45  C   UNL A   1      38.056  29.675  28.435  1.00  0.00     0.031 C 
ATOM     46  C   UNL A   1      41.679  29.934  31.006  1.00  0.00     0.029 A 
ATOM     47  N   UNL A   1      42.682  28.245  29.935  1.00  0.00    -0.354 N 
ATOM     48  C   UNL A   1      38.299  31.702  29.450  1.00  0.00     0.074 A 
ATOM     49  C   UNL A   1      37.457  30.846  28.664  1.00  0.00     0.031 C 
ATOM     50  C   UNL A   1      42.984  29.968  31.324  1.00  0.00     0.029 A 
ATOM     51  C   UNL A   1      43.670  29.180  30.318  1.00  0.00     0.049 A 
ATOM     52  H   UNL A   1      42.816  27.296  29.707  1.00  0.00     0.167 HD
ATOM     53  C   UNL A   1      38.102  32.709  30.341  1.00  0.00     0.034 A 
ATOM     54  C   UNL A   1      44.627  29.674  29.465  1.00  0.00     0.034 A 
ATOM     55  C   UNL A   1      39.404  33.219  30.824  1.00  0.00     0.049 A 
ATOM     56  C   UNL A   1      44.521  31.189  29.249  1.00  0.00     0.074 A 
ATOM     57  C   UNL A   1      40.112  33.113  32.009  1.00  0.00     0.029 A 
ATOM     58  N   UNL A   1      40.324  33.673  29.881  1.00  0.00    -0.354 N 
ATOM     59  N   UNL A   1      43.654  31.972  29.838  1.00  0.00    -0.248 NA
ATOM     60  C   UNL A   1      45.317  31.911  28.256  1.00  0.00     0.031 C 
ATOM     61  C   UNL A   1      41.485  33.426  31.736  1.00  0.00     0.029 A 
ATOM     62  C   UNL A   1      41.606  33.781  30.404  1.00  0.00     0.049 A 
ATOM     63  H   UNL A   1      40.092  33.891  28.949  1.00  0.00     0.167 HD
ATOM     64  C   UNL A   1      43.632  33.199  29.220  1.00  0.00     0.074 A 
ATOM     65  C   UNL A   1      44.705  33.106  28.240  1.00  0.00     0.031 C 
ATOM     66  C   UNL A   1      42.701  34.171  29.507  1.00  0.00     0.034 A 
BRANCH  53  67
ATOM     67  C   UNL A   1      36.751  33.092  30.937  1.00  0.00     0.023 A 
ATOM     68  C   UNL A   1      36.402  32.488  32.164  1.00  0.00     0.012 A 
ATOM     69  C   UNL A   1      35.742  33.908  30.350  1.00  0.00     0.148 A 
ATOM     70  C   UNL A   1      35.144  32.660  32.758  1.00  0.00     0.002 A 
ATOM     71  C   UNL A   1      34.508  34.129  30.972  1.00  0.00     0.091 A 
ATOM     72  F   UNL A   1      35.904  34.419  29.129  1.00  0.00    -0.205 F 
ATOM     73  C   UNL A   1      34.200  33.490  32.172  1.00  0.00     0.022 A 
BRANCH  71  74
ATOM     74  S   UNL A   1      33.249  35.225  30.277  1.00  0.00     0.127 S 
ATOM     75  O   UNL A   1      32.599  34.360  29.292  1.00  0.00    -0.237 OA
ATOM     76  O   UNL A   1      32.427  35.537  31.446  1.00  0.00    -0.237 OA
ATOM     77  O   UNL A   1      33.959  36.369  29.718  1.00  0.00    -0.744 OA
ENDBRANCH  71  74
ENDBRANCH  53  67
BRANCH  54  78
ATOM     78  C   UNL A   1      45.022  28.687  28.407  1.00  0.00     0.023 A 
ATOM     79  C   UNL A   1      44.012  28.312  27.490  1.00  0.00     0.012 A 
ATOM     80  C   UNL A   1      46.365  28.540  28.029  1.00  0.00     0.148 A 
ATOM     81  C   UNL A   1      44.328  28.098  26.147  1.00  0.00     0.002 A 
ATOM     82  C   UNL A   1      46.673  28.283  26.698  1.00  0.00     0.091 A 
ATOM     83  F   UNL A   1      47.328  28.717  28.941  1.00  0.00    -0.205 F 
ATOM     84  C   UNL A   1      45.658  28.152  25.740  1.00  0.00     0.022 A 
BRANCH  82  85
ATOM     85  S   UNL A   1      48.389  28.219  26.173  1.00  0.00     0.127 S 
ATOM     86  O   UNL A   1      48.876  27.057  26.906  1.00  0.00    -0.237 OA
ATOM     87  O   UNL A   1      48.275  28.029  24.729  1.00  0.00    -0.237 OA
ATOM     88  O   UNL A   1      48.933  29.510  26.566  1.00  0.00    -0.744 OA
ENDBRANCH  82  85
ENDBRANCH  54  78
BRANCH  66  89
ATOM     89  C   UNL A   1      42.717  35.576  28.899  1.00  0.00     0.023 A 
ATOM     90  C   UNL A   1      42.189  35.833  27.618  1.00  0.00     0.012 A 
ATOM     91  C   UNL A   1      43.349  36.681  29.532  1.00  0.00     0.148 A 
ATOM     92  C   UNL A   1      42.127  37.123  27.073  1.00  0.00     0.002 A 
ATOM     93  C   UNL A   1      43.332  37.956  28.971  1.00  0.00     0.091 A 
ATOM     94  F   UNL A   1      44.026  36.506  30.670  1.00  0.00    -0.205 F 
ATOM     95  C   UNL A   1      42.683  38.189  27.759  1.00  0.00     0.022 A 
BRANCH  93  96
ATOM     96  S   UNL A   1      44.187  39.352  29.719  1.00  0.00     0.127 S 
ATOM     97  O   UNL A   1      43.838  40.434  28.796  1.00  0.00    -0.237 OA
ATOM     98  O   UNL A   1      43.539  39.435  31.027  1.00  0.00    -0.237 OA
ATOM     99  O   UNL A   1      45.599  39.004  29.754  1.00  0.00    -0.744 OA
ENDBRANCH  93  96
ENDBRANCH  66  89
ENDBRANCH  40  41
ENDBRANCH  32  35
ENDBRANCH  30  31
ENDBRANCH  29  30
ENDBRANCH  28  29
ENDBRANCH   3  28
TORSDOF 19
ENDMDL
MODEL 3
REMARK VINA RESULT:     -11.6      6.038     10.751
REMARK SMILES Cc1ccc(S(=O)(=O)N[C@@H](C)C(=O)Oc2csc(C(=O)NCCCNC(=O)c3ccc(-c4c5nc(c(-c6cccc(S(=O)(=O)[O-])c6F)c6ccc([nH]6)c(-c6cccc(S(=O)(=O)[O-])c6F)c6nc(c(-c7cccc(S(=O)(=O)[O-])c7F)c7ccc4[nH]7)C=C6)C=C5)cc3)c2C)cc1
REMARK SMILES IDX 19 1 20 2 21 3 18 5 15 6 16 7 91 8 17 9 92 10 14 11 12 12
REMARK SMILES IDX 13 13 10 14 11 15 9 16 6 18 7 19 8 20 5 21 1 22 2 23 3 24
REMARK SMILES IDX 94 25 4 26 93 27 22 28 23 29 24 30 25 31 26 32 27 34 28 35
REMARK SMILES IDX 29 36 90 37 30 38 89 39 31 40 32 41 33 42 83 43 34 44 88 45
REMARK SMILES IDX 82 46 84 47 35 48 87 49 81 50 80 51 36 53 68 54 48 55 67 56
REMARK SMILES IDX 49 57 52 58 66 59 85 60 50 61 51 62 65 64 86 65 53 66 37 67
REMARK SMILES IDX 38 68 46 69 39 70 41 71 47 72 40 73 42 74 43 75 44 76 45 77
REMARK SMILES IDX 69 78 70 79 78 80 71 81 73 82 79 83 72 84 74 85 75 86 76 87
REMARK SMILES IDX 77 88 54 89 55 90 63 91 56 92 58 93 64 94 57 95 59 96 60 97
REMARK SMILES IDX 61 98 62 99
REMARK H PARENT 21 4 9 17 25 33 84 52 52 63
REMARK Flexibility Score: inf
ROOT
ATOM      1  C   UNL A   1      36.803  21.630  24.933  1.00  0.00     0.261 C 
ATOM      2  O   UNL A   1      37.322  20.526  24.714  1.00  0.00    -0.268 OA
ATOM      3  N   UNL A   1      37.649  22.445  25.637  1.00  0.00    -0.351 N 
ATOM      4  H   UNL A   1      38.530  22.027  25.778  1.00  0.00     0.163 HD
ENDROOT
BRANCH   1   5
ATOM      5  C   UNL A   1      35.439  21.952  24.462  1.00  0.00     0.099 A 
ATOM      6  C   UNL A   1      33.192  22.266  23.830  1.00  0.00     0.145 A 
ATOM      7  C   UNL A   1      33.786  23.139  22.966  1.00  0.00     0.113 A 
ATOM      8  C   UNL A   1      34.112  21.553  24.688  1.00  0.00     0.015 A 
ATOM      9  S   UNL A   1      35.455  23.193  23.214  1.00  0.00    -0.134 S 
ATOM     10  C   UNL A   1      33.555  20.501  25.578  1.00  0.00     0.050 C 
BRANCH   6  11
ATOM     11  O   UNL A   1      31.861  22.030  23.764  1.00  0.00    -0.424 OA
BRANCH  11  12
ATOM     12  C   UNL A   1      31.049  23.110  23.961  1.00  0.00     0.329 C 
ATOM     13  O   UNL A   1      30.388  23.675  23.094  1.00  0.00    -0.250 OA
BRANCH  12  14
ATOM     14  C   UNL A   1      31.011  23.526  25.433  1.00  0.00     0.177 C 
ATOM     15  C   UNL A   1      30.275  22.551  26.339  1.00  0.00     0.038 C 
BRANCH  14  16
ATOM     16  N   UNL A   1      30.448  24.873  25.420  1.00  0.00    -0.197 NA
ATOM     17  H   UNL A   1      29.967  24.956  24.526  1.00  0.00     0.142 HD
BRANCH  16  18
ATOM     18  S   UNL A   1      31.313  26.270  25.585  1.00  0.00     0.241 S 
ATOM     19  O   UNL A   1      32.646  26.014  25.055  1.00  0.00    -0.207 OA
ATOM     20  O   UNL A   1      31.115  26.682  26.942  1.00  0.00    -0.207 OA
BRANCH  18  21
ATOM     21  C   UNL A   1      30.567  27.497  24.547  1.00  0.00     0.082 A 
ATOM     22  C   UNL A   1      28.353  30.302  22.153  1.00  0.00     0.044 C 
ATOM     23  C   UNL A   1      29.144  29.332  22.981  1.00  0.00    -0.051 A 
ATOM     24  C   UNL A   1      28.829  27.969  22.933  1.00  0.00     0.005 A 
ATOM     25  C   UNL A   1      30.205  29.762  23.791  1.00  0.00     0.005 A 
ATOM     26  C   UNL A   1      29.527  27.058  23.720  1.00  0.00     0.022 A 
ATOM     27  C   UNL A   1      30.932  28.845  24.559  1.00  0.00     0.022 A 
ENDBRANCH  18  21
ENDBRANCH  16  18
ENDBRANCH  14  16
ENDBRANCH  12  14
ENDBRANCH  11  12
ENDBRANCH   6  11
ENDBRANCH   1   5
BRANCH   3  28
ATOM     28  C   UNL A   1      37.575  23.761  26.226  1.00  0.00     0.118 C 
BRANCH  28  29
ATOM     29  C   UNL A   1      38.969  24.315  26.474  1.00  0.00     0.042 C 
BRANCH  29  30
ATOM     30  C   UNL A   1      39.328  24.438  27.930  1.00  0.00     0.118 C 
BRANCH  30  31
ATOM     31  N   UNL A   1      39.507  25.825  28.357  1.00  0.00    -0.352 N 
ATOM     32  C   UNL A   1      40.691  26.516  28.575  1.00  0.00     0.251 C 
ATOM     33  H   UNL A   1      38.679  26.336  28.509  1.00  0.00     0.163 HD
ATOM     34  O   UNL A   1      40.662  27.636  29.069  1.00  0.00    -0.269 OA
BRANCH  32  35
ATOM     35  C   UNL A   1      41.949  25.927  28.050  1.00  0.00     0.039 A 
ATOM     36  C   UNL A   1      42.380  24.791  28.738  1.00  0.00     0.014 A 
ATOM     37  C   UNL A   1      42.865  26.765  27.425  1.00  0.00     0.014 A 
ATOM     38  C   UNL A   1      43.702  24.727  29.147  1.00  0.00     0.010 A 
ATOM     39  C   UNL A   1      44.142  26.782  27.939  1.00  0.00     0.010 A 
ATOM     40  C   UNL A   1      44.514  25.820  28.885  1.00  0.00    -0.014 A 
BRANCH  40  41
ATOM     41  C   UNL A   1      45.847  25.987  29.416  1.00  0.00     0.031 A 
ATOM     42  C   UNL A   1      46.931  25.409  28.603  1.00  0.00     0.074 A 
ATOM     43  C   UNL A   1      46.070  26.804  30.473  1.00  0.00     0.049 A 
ATOM     44  N   UNL A   1      48.143  25.286  29.004  1.00  0.00    -0.248 NA
ATOM     45  C   UNL A   1      46.705  24.867  27.260  1.00  0.00     0.031 C 
ATOM     46  C   UNL A   1      47.342  27.404  30.861  1.00  0.00     0.029 A 
ATOM     47  N   UNL A   1      45.219  27.165  31.528  1.00  0.00    -0.354 N 
ATOM     48  C   UNL A   1      48.893  25.020  27.881  1.00  0.00     0.074 A 
ATOM     49  C   UNL A   1      47.953  24.570  26.894  1.00  0.00     0.031 C 
ATOM     50  C   UNL A   1      47.274  27.783  32.148  1.00  0.00     0.029 A 
ATOM     51  C   UNL A   1      46.044  27.225  32.674  1.00  0.00     0.049 A 
ATOM     52  H   UNL A   1      44.252  27.339  31.480  1.00  0.00     0.167 HD
ATOM     53  C   UNL A   1      50.190  25.425  27.877  1.00  0.00     0.034 A 
ATOM     54  C   UNL A   1      45.981  26.324  33.709  1.00  0.00     0.034 A 
ATOM     55  C   UNL A   1      50.618  25.769  29.250  1.00  0.00     0.049 A 
ATOM     56  C   UNL A   1      47.276  25.523  33.893  1.00  0.00     0.074 A 
ATOM     57  C   UNL A   1      50.875  26.951  29.922  1.00  0.00     0.029 A 
ATOM     58  N   UNL A   1      50.489  24.798  30.242  1.00  0.00    -0.354 N 
ATOM     59  N   UNL A   1      48.366  25.686  33.189  1.00  0.00    -0.248 NA
ATOM     60  C   UNL A   1      47.390  24.391  34.814  1.00  0.00     0.031 C 
ATOM     61  C   UNL A   1      50.810  26.685  31.330  1.00  0.00     0.029 A 
ATOM     62  C   UNL A   1      50.575  25.334  31.519  1.00  0.00     0.049 A 
ATOM     63  H   UNL A   1      50.353  23.840  30.057  1.00  0.00     0.167 HD
ATOM     64  C   UNL A   1      49.227  24.637  33.401  1.00  0.00     0.074 A 
ATOM     65  C   UNL A   1      48.564  23.859  34.440  1.00  0.00     0.031 C 
ATOM     66  C   UNL A   1      50.377  24.445  32.671  1.00  0.00     0.034 A 
BRANCH  53  67
ATOM     67  C   UNL A   1      51.007  25.715  26.621  1.00  0.00     0.023 A 
ATOM     68  C   UNL A   1      52.220  25.009  26.474  1.00  0.00     0.012 A 
ATOM     69  C   UNL A   1      50.748  26.699  25.623  1.00  0.00     0.148 A 
ATOM     70  C   UNL A   1      53.120  25.266  25.430  1.00  0.00     0.002 A 
ATOM     71  C   UNL A   1      51.617  26.914  24.548  1.00  0.00     0.091 A 
ATOM     72  F   UNL A   1      49.705  27.520  25.732  1.00  0.00    -0.205 F 
ATOM     73  C   UNL A   1      52.816  26.209  24.458  1.00  0.00     0.022 A 
BRANCH  71  74
ATOM     74  S   UNL A   1      51.263  28.102  23.232  1.00  0.00     0.127 S 
ATOM     75  O   UNL A   1      51.130  29.354  23.977  1.00  0.00    -0.237 OA
ATOM     76  O   UNL A   1      52.463  28.015  22.401  1.00  0.00    -0.237 OA
ATOM     77  O   UNL A   1      50.043  27.643  22.577  1.00  0.00    -0.744 OA
ENDBRANCH  71  74
ENDBRANCH  53  67
BRANCH  54  78
ATOM     78  C   UNL A   1      44.601  25.773  33.913  1.00  0.00     0.023 A 
ATOM     79  C   UNL A   1      44.385  24.444  33.476  1.00  0.00     0.012 A 
ATOM     80  C   UNL A   1      43.753  26.307  34.894  1.00  0.00     0.148 A 
ATOM     81  C   UNL A   1      43.561  23.590  34.212  1.00  0.00     0.002 A 
ATOM     82  C   UNL A   1      42.902  25.459  35.593  1.00  0.00     0.091 A 
ATOM     83  F   UNL A   1      43.826  27.611  35.188  1.00  0.00    -0.205 F 
ATOM     84  C   UNL A   1      42.871  24.086  35.314  1.00  0.00     0.022 A 
BRANCH  82  85
ATOM     85  S   UNL A   1      41.904  26.103  36.940  1.00  0.00     0.127 S 
ATOM     86  O   UNL A   1      41.097  24.940  37.288  1.00  0.00    -0.237 OA
ATOM     87  O   UNL A   1      42.908  26.473  37.935  1.00  0.00    -0.237 OA
ATOM     88  O   UNL A   1      41.196  27.232  36.354  1.00  0.00    -0.744 OA
ENDBRANCH  82  85
ENDBRANCH  54  78
BRANCH  66  89
ATOM     89  C   UNL A   1      51.395  23.336  32.954  1.00  0.00     0.023 A 
ATOM     90  C   UNL A   1      51.098  21.980  32.710  1.00  0.00     0.012 A 
ATOM     91  C   UNL A   1      52.652  23.586  33.570  1.00  0.00     0.148 A 
ATOM     92  C   UNL A   1      52.039  20.958  32.894  1.00  0.00     0.002 A 
ATOM     93  C   UNL A   1      53.572  22.565  33.798  1.00  0.00     0.091 A 
ATOM     94  F   UNL A   1      52.959  24.814  33.994  1.00  0.00    -0.205 F 
ATOM     95  C   UNL A   1      53.285  21.254  33.421  1.00  0.00     0.022 A 
BRANCH  93  96
ATOM     96  S   UNL A   1      55.137  22.846  34.641  1.00  0.00     0.127 S 
ATOM     97  O   UNL A   1      55.378  21.537  35.249  1.00  0.00    -0.237 OA
ATOM     98  O   UNL A   1      56.025  23.172  33.525  1.00  0.00    -0.237 OA
ATOM     99  O   UNL A   1      54.913  23.931  35.583  1.00  0.00    -0.744 OA
ENDBRANCH  93  96
ENDBRANCH  66  89
ENDBRANCH  40  41
ENDBRANCH  32  35
ENDBRANCH  30  31
ENDBRANCH  29  30
ENDBRANCH  28  29
ENDBRANCH   3  28
TORSDOF 19
ENDMDL
