MODEL 1
REMARK VINA RESULT:     -12.4      0.000      0.000
REMARK SMILES O=C(NCCCNC(=O)c1cc(S(=O)(=O)Nc2cccc(Cl)c2)ccc1O)c1ccc(-c2c3nc(c(-c4cccc(S(=O)(=O)[O-])c4F)c4ccc([nH]4)c(-c4cccc(S(=O)(=O)[O-])c4F)c4nc(c(-c5cccc(S(=O)(=O)[O-])c5F)c5ccc2[nH]5)C=C4)C=C3)cc1
REMARK SMILES IDX 5 1 4 2 3 3 1 4 2 5 28 7 29 8 90 9 30 10 89 11 31 12 32 13
REMARK SMILES IDX 33 14 83 15 34 16 88 17 82 18 84 19 35 20 87 21 81 22 80 23
REMARK SMILES IDX 36 25 68 26 48 27 67 28 49 29 52 30 66 31 85 32 50 33 51 34
REMARK SMILES IDX 65 36 86 37 53 38 37 39 38 40 46 41 39 42 41 43 47 44 40 45
REMARK SMILES IDX 42 46 43 47 44 48 45 49 69 50 70 51 78 52 71 53 73 54 79 55
REMARK SMILES IDX 72 56 74 57 75 58 76 59 77 60 54 61 55 62 63 63 56 64 58 65
REMARK SMILES IDX 64 66 57 67 59 68 60 69 61 70 62 71 6 72 7 73 8 74 9 76
REMARK SMILES IDX 10 77 11 78 26 79 12 80 25 81 24 82 27 83 13 85 14 86 15 87
REMARK SMILES IDX 16 88 17 90 18 91 23 92 19 93 21 94 20 95 22 96
REMARK H PARENT 3 6 84 24 52 35 7 75 27 84 16 89
REMARK Flexibility Score: inf
ROOT
ATOM      1  C   UNL A   1      35.225  22.726  26.887  1.00  0.00     0.042 C 
ENDROOT
BRANCH   1   2
ATOM      2  C   UNL A   1      35.868  22.460  25.539  1.00  0.00     0.118 C 
BRANCH   2   3
ATOM      3  N   UNL A   1      36.786  21.329  25.579  1.00  0.00    -0.352 N 
ATOM      4  O   UNL A   1      38.744  20.234  25.506  1.00  0.00    -0.269 OA
ATOM      5  C   UNL A   1      38.150  21.282  25.746  1.00  0.00     0.251 C 
ATOM      6  H   UNL A   1      36.358  20.449  25.468  1.00  0.00     0.163 HD
BRANCH   5   7
ATOM      7  C   UNL A   1      38.900  22.480  26.187  1.00  0.00     0.039 A 
ATOM      8  C   UNL A   1      38.563  23.749  25.717  1.00  0.00     0.014 A 
ATOM      9  C   UNL A   1      39.931  22.342  27.123  1.00  0.00     0.014 A 
ATOM     10  C   UNL A   1      39.358  24.842  26.031  1.00  0.00     0.010 A 
ATOM     11  C   UNL A   1      40.655  23.466  27.535  1.00  0.00     0.010 A 
ATOM     12  C   UNL A   1      40.396  24.721  26.967  1.00  0.00    -0.014 A 
BRANCH  12  13
ATOM     13  C   UNL A   1      41.112  25.948  27.400  1.00  0.00     0.031 A 
ATOM     14  C   UNL A   1      42.526  26.226  26.975  1.00  0.00     0.074 A 
ATOM     15  C   UNL A   1      40.451  26.830  28.178  1.00  0.00     0.049 A 
ATOM     16  N   UNL A   1      43.264  27.276  27.229  1.00  0.00    -0.248 NA
ATOM     17  C   UNL A   1      43.208  25.200  26.170  1.00  0.00     0.031 C 
ATOM     18  C   UNL A   1      39.093  26.637  28.698  1.00  0.00     0.029 A 
ATOM     19  N   UNL A   1      40.816  28.059  28.661  1.00  0.00    -0.354 N 
ATOM     20  C   UNL A   1      44.505  27.022  26.661  1.00  0.00     0.074 A 
ATOM     21  C   UNL A   1      44.425  25.714  26.043  1.00  0.00     0.031 C 
ATOM     22  C   UNL A   1      38.725  27.724  29.389  1.00  0.00     0.029 A 
ATOM     23  C   UNL A   1      39.836  28.667  29.412  1.00  0.00     0.049 A 
ATOM     24  H   UNL A   1      41.694  28.468  28.487  1.00  0.00     0.167 HD
ATOM     25  C   UNL A   1      45.604  27.813  26.641  1.00  0.00     0.034 A 
ATOM     26  C   UNL A   1      39.832  29.847  30.059  1.00  0.00     0.034 A 
ATOM     27  C   UNL A   1      45.658  29.135  27.209  1.00  0.00     0.049 A 
ATOM     28  C   UNL A   1      41.048  30.720  29.973  1.00  0.00     0.074 A 
ATOM     29  C   UNL A   1      46.701  30.043  27.171  1.00  0.00     0.029 A 
ATOM     30  N   UNL A   1      44.629  29.736  27.918  1.00  0.00    -0.354 N 
ATOM     31  N   UNL A   1      42.160  30.517  29.311  1.00  0.00    -0.248 NA
ATOM     32  C   UNL A   1      41.001  31.995  30.701  1.00  0.00     0.031 C 
ATOM     33  C   UNL A   1      46.307  31.191  27.867  1.00  0.00     0.029 A 
ATOM     34  C   UNL A   1      45.016  31.000  28.331  1.00  0.00     0.049 A 
ATOM     35  H   UNL A   1      43.754  29.326  28.101  1.00  0.00     0.167 HD
ATOM     36  C   UNL A   1      42.943  31.643  29.531  1.00  0.00     0.074 A 
ATOM     37  C   UNL A   1      42.162  32.540  30.359  1.00  0.00     0.031 C 
ATOM     38  C   UNL A   1      44.206  31.899  29.111  1.00  0.00     0.034 A 
BRANCH  25  39
ATOM     39  C   UNL A   1      46.834  27.304  25.938  1.00  0.00     0.023 A 
ATOM     40  C   UNL A   1      47.657  26.360  26.582  1.00  0.00     0.012 A 
ATOM     41  C   UNL A   1      47.119  27.680  24.611  1.00  0.00     0.148 A 
ATOM     42  C   UNL A   1      48.755  25.807  25.922  1.00  0.00     0.002 A 
ATOM     43  C   UNL A   1      48.195  27.101  23.948  1.00  0.00     0.091 A 
ATOM     44  F   UNL A   1      46.336  28.597  24.023  1.00  0.00    -0.205 F 
ATOM     45  C   UNL A   1      49.016  26.169  24.603  1.00  0.00     0.022 A 
BRANCH  43  46
ATOM     46  S   UNL A   1      48.576  27.449  22.226  1.00  0.00     0.127 S 
ATOM     47  O   UNL A   1      47.394  28.204  21.811  1.00  0.00    -0.237 OA
ATOM     48  O   UNL A   1      49.800  28.242  22.333  1.00  0.00    -0.237 OA
ATOM     49  O   UNL A   1      48.747  26.153  21.584  1.00  0.00    -0.744 OA
ENDBRANCH  43  46
ENDBRANCH  25  39
BRANCH  26  50
ATOM     50  C   UNL A   1      38.613  30.279  30.797  1.00  0.00     0.023 A 
ATOM     51  C   UNL A   1      38.497  29.996  32.171  1.00  0.00     0.012 A 
ATOM     52  C   UNL A   1      37.598  31.019  30.162  1.00  0.00     0.148 A 
ATOM     53  C   UNL A   1      37.383  30.427  32.894  1.00  0.00     0.002 A 
ATOM     54  C   UNL A   1      36.522  31.498  30.900  1.00  0.00     0.091 A 
ATOM     55  F   UNL A   1      37.709  31.261  28.847  1.00  0.00    -0.205 F 
ATOM     56  C   UNL A   1      36.404  31.189  32.263  1.00  0.00     0.022 A 
BRANCH  54  57
ATOM     57  S   UNL A   1      35.317  32.617  30.176  1.00  0.00     0.127 S 
ATOM     58  O   UNL A   1      34.774  31.812  29.086  1.00  0.00    -0.237 OA
ATOM     59  O   UNL A   1      34.394  32.848  31.289  1.00  0.00    -0.237 OA
ATOM     60  O   UNL A   1      36.086  33.794  29.791  1.00  0.00    -0.744 OA
ENDBRANCH  54  57
ENDBRANCH  26  50
BRANCH  38  61
ATOM     61  C   UNL A   1      44.819  33.204  29.536  1.00  0.00     0.023 A 
ATOM     62  C   UNL A   1      45.600  33.250  30.708  1.00  0.00     0.012 A 
ATOM     63  C   UNL A   1      44.677  34.363  28.750  1.00  0.00     0.148 A 
ATOM     64  C   UNL A   1      46.206  34.439  31.107  1.00  0.00     0.002 A 
ATOM     65  C   UNL A   1      45.319  35.535  29.132  1.00  0.00     0.091 A 
ATOM     66  F   UNL A   1      43.911  34.303  27.651  1.00  0.00    -0.205 F 
ATOM     67  C   UNL A   1      46.076  35.578  30.315  1.00  0.00     0.022 A 
BRANCH  65  68
ATOM     68  S   UNL A   1      45.272  37.020  28.124  1.00  0.00     0.127 S 
ATOM     69  O   UNL A   1      46.026  37.964  28.945  1.00  0.00    -0.237 OA
ATOM     70  O   UNL A   1      45.954  36.594  26.902  1.00  0.00    -0.237 OA
ATOM     71  O   UNL A   1      43.859  37.329  27.943  1.00  0.00    -0.744 OA
ENDBRANCH  65  68
ENDBRANCH  38  61
ENDBRANCH  12  13
ENDBRANCH   5   7
ENDBRANCH   2   3
ENDBRANCH   1   2
BRANCH   1  72
ATOM     72  C   UNL A   1      34.180  21.693  27.261  1.00  0.00     0.118 C 
BRANCH  72  73
ATOM     73  N   UNL A   1      32.901  22.276  27.655  1.00  0.00    -0.352 N 
ATOM     74  C   UNL A   1      31.859  22.695  26.857  1.00  0.00     0.255 C 
ATOM     75  H   UNL A   1      32.764  22.385  28.624  1.00  0.00     0.163 HD
ATOM     76  O   UNL A   1      30.854  23.204  27.343  1.00  0.00    -0.269 OA
BRANCH  74  77
ATOM     77  C   UNL A   1      32.018  22.628  25.392  1.00  0.00     0.082 A 
ATOM     78  C   UNL A   1      32.167  23.833  24.695  1.00  0.00     0.040 A 
ATOM     79  C   UNL A   1      32.139  21.409  24.719  1.00  0.00     0.128 A 
ATOM     80  C   UNL A   1      32.612  23.800  23.372  1.00  0.00     0.088 A 
ATOM     81  C   UNL A   1      32.701  21.381  23.452  1.00  0.00     0.048 A 
ATOM     82  C   UNL A   1      33.012  22.583  22.818  1.00  0.00     0.026 A 
BRANCH  79  83
ATOM     83  O   UNL A   1      31.786  20.240  25.331  1.00  0.00    -0.507 OA
ATOM     84  H   UNL A   1      32.444  19.617  25.568  1.00  0.00     0.293 HD
ENDBRANCH  79  83
BRANCH  80  85
ATOM     85  S   UNL A   1      32.487  25.313  22.433  1.00  0.00     0.261 S 
ATOM     86  O   UNL A   1      32.932  24.994  21.089  1.00  0.00    -0.201 OA
ATOM     87  O   UNL A   1      31.168  25.849  22.682  1.00  0.00    -0.201 OA
BRANCH  85  88
ATOM     88  N   UNL A   1      33.550  26.449  23.067  1.00  0.00    -0.280 N 
ATOM     89  H   UNL A   1      34.400  26.597  22.590  1.00  0.00     0.180 HD
BRANCH  88  90
ATOM     90  C   UNL A   1      33.312  27.212  24.243  1.00  0.00     0.050 A 
ATOM     91  C   UNL A   1      33.659  26.778  25.525  1.00  0.00     0.027 A 
ATOM     92  C   UNL A   1      32.559  28.380  24.085  1.00  0.00     0.047 A 
ATOM     93  C   UNL A   1      33.126  27.426  26.645  1.00  0.00     0.004 A 
ATOM     94  C   UNL A   1      32.040  29.026  25.205  1.00  0.00     0.043 A 
ATOM     95  C   UNL A   1      32.296  28.537  26.483  1.00  0.00     0.020 A 
ATOM     96  Cl  UNL A   1      31.012  30.390  24.998  1.00  0.00    -0.084 Cl
ENDBRANCH  88  90
ENDBRANCH  85  88
ENDBRANCH  80  85
ENDBRANCH  74  77
ENDBRANCH  72  73
ENDBRANCH   1  72
TORSDOF 17
ENDMDL
MODEL 2
REMARK VINA RESULT:     -12.3      5.242      9.977
REMARK SMILES O=C(NCCCNC(=O)c1cc(S(=O)(=O)Nc2cccc(Cl)c2)ccc1O)c1ccc(-c2c3nc(c(-c4cccc(S(=O)(=O)[O-])c4F)c4ccc([nH]4)c(-c4cccc(S(=O)(=O)[O-])c4F)c4nc(c(-c5cccc(S(=O)(=O)[O-])c5F)c5ccc2[nH]5)C=C4)C=C3)cc1
REMARK SMILES IDX 5 1 4 2 3 3 1 4 2 5 28 7 29 8 90 9 30 10 89 11 31 12 32 13
REMARK SMILES IDX 33 14 83 15 34 16 88 17 82 18 84 19 35 20 87 21 81 22 80 23
REMARK SMILES IDX 36 25 68 26 48 27 67 28 49 29 52 30 66 31 85 32 50 33 51 34
REMARK SMILES IDX 65 36 86 37 53 38 37 39 38 40 46 41 39 42 41 43 47 44 40 45
REMARK SMILES IDX 42 46 43 47 44 48 45 49 69 50 70 51 78 52 71 53 73 54 79 55
REMARK SMILES IDX 72 56 74 57 75 58 76 59 77 60 54 61 55 62 63 63 56 64 58 65
REMARK SMILES IDX 64 66 57 67 59 68 60 69 61 70 62 71 6 72 7 73 8 74 9 76
REMARK SMILES IDX 10 77 11 78 26 79 12 80 25 81 24 82 27 83 13 85 14 86 15 87
REMARK SMILES IDX 16 88 17 90 18 91 23 92 19 93 21 94 20 95 22 96
REMARK H PARENT 3 6 84 24 52 35 7 75 27 84 16 89
REMARK Flexibility Score: inf
ROOT
ATOM      1  C   UNL A   1      33.117  28.970  23.561  1.00  0.00     0.042 C 
ENDROOT
BRANCH   1   2
ATOM      2  C   UNL A   1      33.277  29.107  25.063  1.00  0.00     0.118 C 
BRANCH   2   3
ATOM      3  N   UNL A   1      32.732  30.363  25.564  1.00  0.00    -0.352 N 
ATOM      4  O   UNL A   1      32.306  32.009  27.028  1.00  0.00    -0.269 OA
ATOM      5  C   UNL A   1      33.060  31.107  26.672  1.00  0.00     0.251 C 
ATOM      6  H   UNL A   1      32.008  30.743  25.016  1.00  0.00     0.163 HD
BRANCH   5   7
ATOM      7  C   UNL A   1      34.290  30.817  27.442  1.00  0.00     0.039 A 
ATOM      8  C   UNL A   1      34.535  29.540  27.946  1.00  0.00     0.014 A 
ATOM      9  C   UNL A   1      35.242  31.826  27.628  1.00  0.00     0.014 A 
ATOM     10  C   UNL A   1      35.622  29.316  28.779  1.00  0.00     0.010 A 
ATOM     11  C   UNL A   1      36.401  31.566  28.366  1.00  0.00     0.010 A 
ATOM     12  C   UNL A   1      36.585  30.317  28.976  1.00  0.00    -0.014 A 
BRANCH  12  13
ATOM     13  C   UNL A   1      37.816  29.983  29.737  1.00  0.00     0.031 A 
ATOM     14  C   UNL A   1      38.052  30.511  31.124  1.00  0.00     0.074 A 
ATOM     15  C   UNL A   1      38.721  29.168  29.157  1.00  0.00     0.049 A 
ATOM     16  N   UNL A   1      39.052  30.266  31.932  1.00  0.00    -0.248 NA
ATOM     17  C   UNL A   1      37.051  31.437  31.678  1.00  0.00     0.031 C 
ATOM     18  C   UNL A   1      38.621  28.639  27.793  1.00  0.00     0.029 A 
ATOM     19  N   UNL A   1      39.889  28.632  29.633  1.00  0.00    -0.354 N 
ATOM     20  C   UNL A   1      38.829  31.037  33.065  1.00  0.00     0.074 A 
ATOM     21  C   UNL A   1      37.595  31.762  32.845  1.00  0.00     0.031 C 
ATOM     22  C   UNL A   1      39.659  27.825  27.556  1.00  0.00     0.029 A 
ATOM     23  C   UNL A   1      40.527  27.816  28.727  1.00  0.00     0.049 A 
ATOM     24  H   UNL A   1      40.239  28.814  30.534  1.00  0.00     0.167 HD
ATOM     25  C   UNL A   1      39.576  31.118  34.192  1.00  0.00     0.034 A 
ATOM     26  C   UNL A   1      41.688  27.142  28.819  1.00  0.00     0.034 A 
ATOM     27  C   UNL A   1      40.772  30.352  34.426  1.00  0.00     0.049 A 
ATOM     28  C   UNL A   1      42.464  27.215  30.101  1.00  0.00     0.074 A 
ATOM     29  C   UNL A   1      41.554  30.309  35.566  1.00  0.00     0.029 A 
ATOM     30  N   UNL A   1      41.359  29.498  33.505  1.00  0.00    -0.354 N 
ATOM     31  N   UNL A   1      42.160  27.841  31.211  1.00  0.00    -0.248 NA
ATOM     32  C   UNL A   1      43.728  26.470  30.153  1.00  0.00     0.031 C 
ATOM     33  C   UNL A   1      42.622  29.435  35.332  1.00  0.00     0.029 A 
ATOM     34  C   UNL A   1      42.500  28.930  34.048  1.00  0.00     0.049 A 
ATOM     35  H   UNL A   1      41.017  29.322  32.599  1.00  0.00     0.167 HD
ATOM     36  C   UNL A   1      43.188  27.558  32.100  1.00  0.00     0.074 A 
ATOM     37  C   UNL A   1      44.105  26.673  31.410  1.00  0.00     0.031 C 
ATOM     38  C   UNL A   1      43.373  28.012  33.363  1.00  0.00     0.034 A 
BRANCH  25  39
ATOM     39  C   UNL A   1      39.103  32.029  35.293  1.00  0.00     0.023 A 
ATOM     40  C   UNL A   1      38.174  31.549  36.237  1.00  0.00     0.012 A 
ATOM     41  C   UNL A   1      39.650  33.318  35.453  1.00  0.00     0.148 A 
ATOM     42  C   UNL A   1      37.785  32.341  37.317  1.00  0.00     0.002 A 
ATOM     43  C   UNL A   1      39.281  34.090  36.549  1.00  0.00     0.091 A 
ATOM     44  F   UNL A   1      40.516  33.765  34.532  1.00  0.00    -0.205 F 
ATOM     45  C   UNL A   1      38.346  33.606  37.478  1.00  0.00     0.022 A 
BRANCH  43  46
ATOM     46  S   UNL A   1      39.998  35.704  36.885  1.00  0.00     0.127 S 
ATOM     47  O   UNL A   1      41.417  35.374  37.013  1.00  0.00    -0.237 OA
ATOM     48  O   UNL A   1      39.653  36.454  35.677  1.00  0.00    -0.237 OA
ATOM     49  O   UNL A   1      39.355  36.182  38.101  1.00  0.00    -0.744 OA
ENDBRANCH  43  46
ENDBRANCH  25  39
BRANCH  26  50
ATOM     50  C   UNL A   1      42.148  26.306  27.677  1.00  0.00     0.023 A 
ATOM     51  C   UNL A   1      43.062  26.840  26.749  1.00  0.00     0.012 A 
ATOM     52  C   UNL A   1      41.734  24.967  27.538  1.00  0.00     0.148 A 
ATOM     53  C   UNL A   1      43.540  26.062  25.693  1.00  0.00     0.002 A 
ATOM     54  C   UNL A   1      42.261  24.179  26.521  1.00  0.00     0.091 A 
ATOM     55  F   UNL A   1      40.845  24.478  28.415  1.00  0.00    -0.205 F 
ATOM     56  C   UNL A   1      43.151  24.729  25.587  1.00  0.00     0.022 A 
BRANCH  54  57
ATOM     57  S   UNL A   1      41.920  22.418  26.432  1.00  0.00     0.127 S 
ATOM     58  O   UNL A   1      40.471  22.399  26.252  1.00  0.00    -0.237 OA
ATOM     59  O   UNL A   1      42.692  22.006  25.259  1.00  0.00    -0.237 OA
ATOM     60  O   UNL A   1      42.422  21.878  27.690  1.00  0.00    -0.744 OA
ENDBRANCH  54  57
ENDBRANCH  26  50
BRANCH  38  61
ATOM     61  C   UNL A   1      44.610  27.555  34.083  1.00  0.00     0.023 A 
ATOM     62  C   UNL A   1      45.775  28.345  34.021  1.00  0.00     0.012 A 
ATOM     63  C   UNL A   1      44.606  26.385  34.865  1.00  0.00     0.148 A 
ATOM     64  C   UNL A   1      46.927  27.962  34.706  1.00  0.00     0.002 A 
ATOM     65  C   UNL A   1      45.745  26.030  35.578  1.00  0.00     0.091 A 
ATOM     66  F   UNL A   1      43.494  25.635  34.891  1.00  0.00    -0.205 F 
ATOM     67  C   UNL A   1      46.910  26.812  35.492  1.00  0.00     0.022 A 
BRANCH  65  68
ATOM     68  S   UNL A   1      45.777  24.613  36.680  1.00  0.00     0.127 S 
ATOM     69  O   UNL A   1      45.595  23.504  35.747  1.00  0.00    -0.237 OA
ATOM     70  O   UNL A   1      47.113  24.701  37.270  1.00  0.00    -0.237 OA
ATOM     71  O   UNL A   1      44.690  24.826  37.627  1.00  0.00    -0.744 OA
ENDBRANCH  65  68
ENDBRANCH  38  61
ENDBRANCH  12  13
ENDBRANCH   5   7
ENDBRANCH   2   3
ENDBRANCH   1   2
BRANCH   1  72
ATOM     72  C   UNL A   1      33.649  27.656  23.024  1.00  0.00     0.118 C 
BRANCH  72  73
ATOM     73  N   UNL A   1      32.957  27.194  21.824  1.00  0.00    -0.352 N 
ATOM     74  C   UNL A   1      31.867  26.358  21.724  1.00  0.00     0.255 C 
ATOM     75  H   UNL A   1      33.318  27.526  20.970  1.00  0.00     0.163 HD
ATOM     76  O   UNL A   1      31.419  26.030  20.629  1.00  0.00    -0.269 OA
BRANCH  74  77
ATOM     77  C   UNL A   1      31.312  25.765  22.956  1.00  0.00     0.082 A 
ATOM     78  C   UNL A   1      31.794  24.513  23.353  1.00  0.00     0.040 A 
ATOM     79  C   UNL A   1      30.424  26.468  23.776  1.00  0.00     0.128 A 
ATOM     80  C   UNL A   1      31.521  24.061  24.646  1.00  0.00     0.088 A 
ATOM     81  C   UNL A   1      30.262  26.081  25.097  1.00  0.00     0.048 A 
ATOM     82  C   UNL A   1      30.883  24.916  25.547  1.00  0.00     0.026 A 
BRANCH  79  83
ATOM     83  O   UNL A   1      29.782  27.580  23.311  1.00  0.00    -0.507 OA
ATOM     84  H   UNL A   1      29.969  27.907  22.453  1.00  0.00     0.293 HD
ENDBRANCH  79  83
BRANCH  80  85
ATOM     85  S   UNL A   1      31.877  22.349  25.003  1.00  0.00     0.261 S 
ATOM     86  O   UNL A   1      30.746  21.848  25.760  1.00  0.00    -0.201 OA
ATOM     87  O   UNL A   1      32.277  21.739  23.756  1.00  0.00    -0.201 OA
BRANCH  85  88
ATOM     88  N   UNL A   1      33.233  22.259  25.991  1.00  0.00    -0.280 N 
ATOM     89  H   UNL A   1      33.087  22.148  26.959  1.00  0.00     0.180 HD
BRANCH  88  90
ATOM     90  C   UNL A   1      34.577  22.331  25.530  1.00  0.00     0.050 A 
ATOM     91  C   UNL A   1      35.101  23.439  24.858  1.00  0.00     0.027 A 
ATOM     92  C   UNL A   1      35.336  21.162  25.640  1.00  0.00     0.047 A 
ATOM     93  C   UNL A   1      36.314  23.323  24.171  1.00  0.00     0.004 A 
ATOM     94  C   UNL A   1      36.548  21.058  24.962  1.00  0.00     0.043 A 
ATOM     95  C   UNL A   1      37.027  22.123  24.202  1.00  0.00     0.020 A 
ATOM     96  Cl  UNL A   1      37.418  19.574  24.999  1.00  0.00    -0.084 Cl
ENDBRANCH  88  90
ENDBRANCH  85  88
ENDBRANCH  80  85
ENDBRANCH  74  77
ENDBRANCH  72  73
ENDBRANCH   1  72
TORSDOF 17
ENDMDL
MODEL 3
REMARK VINA RESULT:     -12.2      1.546      2.137
REMARK SMILES O=C(NCCCNC(=O)c1cc(S(=O)(=O)Nc2cccc(Cl)c2)ccc1O)c1ccc(-c2c3nc(c(-c4cccc(S(=O)(=O)[O-])c4F)c4ccc([nH]4)c(-c4cccc(S(=O)(=O)[O-])c4F)c4nc(c(-c5cccc(S(=O)(=O)[O-])c5F)c5ccc2[nH]5)C=C4)C=C3)cc1
REMARK SMILES IDX 5 1 4 2 3 3 1 4 2 5 28 7 29 8 90 9 30 10 89 11 31 12 32 13
REMARK SMILES IDX 33 14 83 15 34 16 88 17 82 18 84 19 35 20 87 21 81 22 80 23
REMARK SMILES IDX 36 25 68 26 48 27 67 28 49 29 52 30 66 31 85 32 50 33 51 34
REMARK SMILES IDX 65 36 86 37 53 38 37 39 38 40 46 41 39 42 41 43 47 44 40 45
REMARK SMILES IDX 42 46 43 47 44 48 45 49 69 50 70 51 78 52 71 53 73 54 79 55
REMARK SMILES IDX 72 56 74 57 75 58 76 59 77 60 54 61 55 62 63 63 56 64 58 65
REMARK SMILES IDX 64 66 57 67 59 68 60 69 61 70 62 71 6 72 7 73 8 74 9 76
REMARK SMILES IDX 10 77 11 78 26 79 12 80 25 81 24 82 27 83 13 85 14 86 15 87
REMARK SMILES IDX 16 88 17 90 18 91 23 92 19 93 21 94 20 95 22 96
REMARK H PARENT 3 6 84 24 52 35 7 75 27 84 16 89
REMARK Flexibility Score: inf
ROOT
ATOM      1  C   UNL A   1      35.351  21.575  25.943  1.00  0.00     0.042 C 
ENDROOT
BRANCH   1   2
ATOM      2  C   UNL A   1      36.725  22.213  25.982  1.00  0.00     0.118 C 
BRANCH   2   3
ATOM      3  N   UNL A   1      37.793  21.223  26.038  1.00  0.00    -0.352 N 
ATOM      4  O   UNL A   1      39.885  20.412  25.977  1.00  0.00    -0.269 OA
ATOM      5  C   UNL A   1      39.150  21.370  26.201  1.00  0.00     0.251 C 
ATOM      6  H   UNL A   1      37.493  20.290  25.942  1.00  0.00     0.163 HD
BRANCH   5   7
ATOM      7  C   UNL A   1      39.725  22.669  26.620  1.00  0.00     0.039 A 
ATOM      8  C   UNL A   1      40.764  22.726  27.548  1.00  0.00     0.014 A 
ATOM      9  C   UNL A   1      39.248  23.852  26.045  1.00  0.00     0.014 A 
ATOM     10  C   UNL A   1      41.199  23.951  28.032  1.00  0.00     0.010 A 
ATOM     11  C   UNL A   1      39.773  25.085  26.445  1.00  0.00     0.010 A 
ATOM     12  C   UNL A   1      40.731  25.147  27.467  1.00  0.00    -0.014 A 
BRANCH  12  13
ATOM     13  C   UNL A   1      41.344  26.429  27.899  1.00  0.00     0.031 A 
ATOM     14  C   UNL A   1      42.758  26.787  27.537  1.00  0.00     0.074 A 
ATOM     15  C   UNL A   1      40.588  27.286  28.616  1.00  0.00     0.049 A 
ATOM     16  N   UNL A   1      43.413  27.889  27.796  1.00  0.00    -0.248 NA
ATOM     17  C   UNL A   1      43.544  25.786  26.798  1.00  0.00     0.031 C 
ATOM     18  C   UNL A   1      39.220  27.019  29.071  1.00  0.00     0.029 A 
ATOM     19  N   UNL A   1      40.849  28.549  29.079  1.00  0.00    -0.354 N 
ATOM     20  C   UNL A   1      44.696  27.700  27.299  1.00  0.00     0.074 A 
ATOM     21  C   UNL A   1      44.731  26.375  26.717  1.00  0.00     0.031 C 
ATOM     22  C   UNL A   1      38.749  28.098  29.711  1.00  0.00     0.029 A 
ATOM     23  C   UNL A   1      39.795  29.111  29.761  1.00  0.00     0.049 A 
ATOM     24  H   UNL A   1      41.707  29.009  28.938  1.00  0.00     0.167 HD
ATOM     25  C   UNL A   1      45.742  28.561  27.311  1.00  0.00     0.034 A 
ATOM     26  C   UNL A   1      39.682  30.305  30.371  1.00  0.00     0.034 A 
ATOM     27  C   UNL A   1      45.682  29.897  27.841  1.00  0.00     0.049 A 
ATOM     28  C   UNL A   1      40.843  31.253  30.321  1.00  0.00     0.074 A 
ATOM     29  C   UNL A   1      46.666  30.870  27.829  1.00  0.00     0.029 A 
ATOM     30  N   UNL A   1      44.582  30.449  28.479  1.00  0.00    -0.354 N 
ATOM     31  N   UNL A   1      41.999  31.106  29.722  1.00  0.00    -0.248 NA
ATOM     32  C   UNL A   1      40.678  32.541  31.008  1.00  0.00     0.031 C 
ATOM     33  C   UNL A   1      46.164  32.009  28.470  1.00  0.00     0.029 A 
ATOM     34  C   UNL A   1      44.866  31.746  28.873  1.00  0.00     0.049 A 
ATOM     35  H   UNL A   1      43.726  29.988  28.630  1.00  0.00     0.167 HD
ATOM     36  C   UNL A   1      42.696  32.285  29.948  1.00  0.00     0.074 A 
ATOM     37  C   UNL A   1      41.817  33.151  30.708  1.00  0.00     0.031 C 
ATOM     38  C   UNL A   1      43.960  32.611  29.585  1.00  0.00     0.034 A 
BRANCH  25  39
ATOM     39  C   UNL A   1      47.037  28.114  26.686  1.00  0.00     0.023 A 
ATOM     40  C   UNL A   1      48.067  27.619  27.510  1.00  0.00     0.012 A 
ATOM     41  C   UNL A   1      47.197  28.089  25.287  1.00  0.00     0.148 A 
ATOM     42  C   UNL A   1      49.243  27.118  26.952  1.00  0.00     0.002 A 
ATOM     43  C   UNL A   1      48.358  27.559  24.737  1.00  0.00     0.091 A 
ATOM     44  F   UNL A   1      46.213  28.585  24.522  1.00  0.00    -0.205 F 
ATOM     45  C   UNL A   1      49.383  27.078  25.567  1.00  0.00     0.022 A 
BRANCH  43  46
ATOM     46  S   UNL A   1      48.608  27.400  22.964  1.00  0.00     0.127 S 
ATOM     47  O   UNL A   1      49.990  27.856  22.820  1.00  0.00    -0.237 OA
ATOM     48  O   UNL A   1      48.414  25.966  22.750  1.00  0.00    -0.237 OA
ATOM     49  O   UNL A   1      47.602  28.248  22.340  1.00  0.00    -0.744 OA
ENDBRANCH  43  46
ENDBRANCH  25  39
BRANCH  26  50
ATOM     50  C   UNL A   1      38.402  30.677  31.035  1.00  0.00     0.023 A 
ATOM     51  C   UNL A   1      38.225  30.405  32.404  1.00  0.00     0.012 A 
ATOM     52  C   UNL A   1      37.384  31.351  30.333  1.00  0.00     0.148 A 
ATOM     53  C   UNL A   1      37.049  30.781  33.057  1.00  0.00     0.002 A 
ATOM     54  C   UNL A   1      36.243  31.778  31.003  1.00  0.00     0.091 A 
ATOM     55  F   UNL A   1      37.556  31.583  29.023  1.00  0.00    -0.205 F 
ATOM     56  C   UNL A   1      36.066  31.479  32.361  1.00  0.00     0.022 A 
BRANCH  54  57
ATOM     57  S   UNL A   1      35.020  32.818  30.196  1.00  0.00     0.127 S 
ATOM     58  O   UNL A   1      34.101  33.109  31.293  1.00  0.00    -0.237 OA
ATOM     59  O   UNL A   1      35.823  33.956  29.746  1.00  0.00    -0.237 OA
ATOM     60  O   UNL A   1      34.494  32.000  29.111  1.00  0.00    -0.744 OA
ENDBRANCH  54  57
ENDBRANCH  26  50
BRANCH  38  61
ATOM     61  C   UNL A   1      44.467  33.964  30.000  1.00  0.00     0.023 A 
ATOM     62  C   UNL A   1      45.221  34.084  31.185  1.00  0.00     0.012 A 
ATOM     63  C   UNL A   1      44.252  35.098  29.196  1.00  0.00     0.148 A 
ATOM     64  C   UNL A   1      45.730  35.321  31.576  1.00  0.00     0.002 A 
ATOM     65  C   UNL A   1      44.797  36.321  29.572  1.00  0.00     0.091 A 
ATOM     66  F   UNL A   1      43.511  34.967  28.086  1.00  0.00    -0.205 F 
ATOM     67  C   UNL A   1      45.528  36.436  30.766  1.00  0.00     0.022 A 
BRANCH  65  68
ATOM     68  S   UNL A   1      44.656  37.784  28.541  1.00  0.00     0.127 S 
ATOM     69  O   UNL A   1      43.209  37.979  28.495  1.00  0.00    -0.237 OA
ATOM     70  O   UNL A   1      45.382  38.789  29.319  1.00  0.00    -0.237 OA
ATOM     71  O   UNL A   1      45.287  37.437  27.275  1.00  0.00    -0.744 OA
ENDBRANCH  65  68
ENDBRANCH  38  61
ENDBRANCH  12  13
ENDBRANCH   5   7
ENDBRANCH   2   3
ENDBRANCH   1   2
BRANCH   1  72
ATOM     72  C   UNL A   1      35.185  20.587  24.805  1.00  0.00     0.118 C 
BRANCH  72  73
ATOM     73  N   UNL A   1      34.286  19.480  25.120  1.00  0.00    -0.352 N 
ATOM     74  C   UNL A   1      32.911  19.441  25.062  1.00  0.00     0.255 C 
ATOM     75  H   UNL A   1      34.723  18.649  25.414  1.00  0.00     0.163 HD
ATOM     76  O   UNL A   1      32.291  18.437  25.399  1.00  0.00    -0.269 OA
BRANCH  74  77
ATOM     77  C   UNL A   1      32.181  20.671  24.698  1.00  0.00     0.082 A 
ATOM     78  C   UNL A   1      31.831  21.552  25.726  1.00  0.00     0.040 A 
ATOM     79  C   UNL A   1      31.944  21.017  23.365  1.00  0.00     0.128 A 
ATOM     80  C   UNL A   1      31.415  22.844  25.399  1.00  0.00     0.088 A 
ATOM     81  C   UNL A   1      31.655  22.334  23.043  1.00  0.00     0.048 A 
ATOM     82  C   UNL A   1      31.472  23.262  24.067  1.00  0.00     0.026 A 
BRANCH  79  83
ATOM     83  O   UNL A   1      32.077  20.090  22.371  1.00  0.00    -0.507 OA
ATOM     84  H   UNL A   1      32.836  20.096  21.822  1.00  0.00     0.293 HD
ENDBRANCH  79  83
BRANCH  80  85
ATOM     85  S   UNL A   1      30.685  23.821  26.703  1.00  0.00     0.261 S 
ATOM     86  O   UNL A   1      29.686  22.978  27.331  1.00  0.00    -0.201 OA
ATOM     87  O   UNL A   1      31.779  24.385  27.460  1.00  0.00    -0.201 OA
BRANCH  85  88
ATOM     88  N   UNL A   1      29.891  25.140  26.029  1.00  0.00    -0.280 N 
ATOM     89  H   UNL A   1      28.912  25.086  25.936  1.00  0.00     0.180 HD
BRANCH  88  90
ATOM     90  C   UNL A   1      30.532  26.329  25.583  1.00  0.00     0.050 A 
ATOM     91  C   UNL A   1      31.345  27.118  26.402  1.00  0.00     0.027 A 
ATOM     92  C   UNL A   1      30.190  26.778  24.304  1.00  0.00     0.047 A 
ATOM     93  C   UNL A   1      31.685  28.414  25.999  1.00  0.00     0.004 A 
ATOM     94  C   UNL A   1      30.541  28.066  23.906  1.00  0.00     0.043 A 
ATOM     95  C   UNL A   1      31.262  28.897  24.760  1.00  0.00     0.020 A 
ATOM     96  Cl  UNL A   1      30.011  28.658  22.380  1.00  0.00    -0.084 Cl
ENDBRANCH  88  90
ENDBRANCH  85  88
ENDBRANCH  80  85
ENDBRANCH  74  77
ENDBRANCH  72  73
ENDBRANCH   1  72
TORSDOF 17
ENDMDL
