MODEL 1
REMARK VINA RESULT:     -11.6      0.000      0.000
REMARK SMILES [NH3+][C@H]1C=C[C@@H](C(=O)NC2(CC(=O)NCCCNC(=O)c3ccc(-c4c5nc(c(-c6cccc(S(=O)(=O)[O-])c6F)c6ccc([nH]6)c(-c6cccc(S(=O)(=O)[O-])c6F)c6nc(c(-c7cccc(S(=O)(=O)[O-])c7F)c7ccc4[nH]7)C=C6)C=C5)cc3)CCC2)C1
REMARK SMILES IDX 14 1 13 2 11 3 12 4 10 6 9 7 83 8 85 9 84 10 8 11 6 12 7 13
REMARK SMILES IDX 5 15 2 16 3 17 86 18 4 19 1 20 15 24 16 25 17 26 18 27 19 29
REMARK SMILES IDX 20 30 21 31 82 32 22 33 81 34 23 35 24 36 25 37 75 38 26 39
REMARK SMILES IDX 80 40 74 41 76 42 27 43 79 44 73 45 72 46 28 48 60 49 40 50
REMARK SMILES IDX 59 51 41 52 44 53 58 54 77 55 42 56 43 57 57 59 78 60 45 61
REMARK SMILES IDX 29 62 30 63 38 64 31 65 33 66 39 67 32 68 34 69 35 70 36 71
REMARK SMILES IDX 37 72 61 73 62 74 70 75 63 76 65 77 71 78 64 79 66 80 67 81
REMARK SMILES IDX 68 82 69 83 46 84 47 85 55 86 48 87 50 88 56 89 49 90 51 91
REMARK SMILES IDX 52 92 53 93 54 94
REMARK H PARENT 13 5 8 14 1 21 1 22 1 23 17 28 76 47 44 58
REMARK Flexibility Score: inf
ROOT
ATOM      1  C   UNL A   1      32.211  28.746  23.014  1.00  0.00     0.117 C 
ENDROOT
BRANCH   1   2
ATOM      2  N   UNL A   1      32.652  27.751  22.056  1.00  0.00    -0.356 N 
ATOM      3  C   UNL A   1      33.014  26.456  22.256  1.00  0.00     0.222 C 
ATOM      4  O   UNL A   1      33.505  25.832  21.313  1.00  0.00    -0.275 OA
ATOM      5  H   UNL A   1      32.695  28.059  21.121  1.00  0.00     0.163 HD
BRANCH   3   6
ATOM      6  C   UNL A   1      32.810  25.774  23.592  1.00  0.00     0.128 C 
BRANCH   6   7
ATOM      7  C   UNL A   1      31.596  24.820  23.714  1.00  0.00     0.049 C 
ATOM      8  C   UNL A   1      30.259  25.532  23.328  1.00  0.00     0.029 C 
ATOM      9  C   UNL A   1      31.045  24.746  25.150  1.00  0.00     0.029 C 
ATOM     10  C   UNL A   1      30.054  25.868  24.812  1.00  0.00     0.005 C 
BRANCH   7  11
ATOM     11  N   UNL A   1      31.827  23.595  22.916  1.00  0.00    -0.350 N 
ATOM     12  C   UNL A   1      32.321  22.340  23.074  1.00  0.00     0.227 C 
ATOM     13  O   UNL A   1      32.197  21.621  22.068  1.00  0.00    -0.274 OA
ATOM     14  H   UNL A   1      31.531  23.732  21.986  1.00  0.00     0.164 HD
BRANCH  12  15
ATOM     15  C   UNL A   1      33.021  21.736  24.298  1.00  0.00     0.107 C 
ATOM     16  C   UNL A   1      34.125  19.718  25.140  1.00  0.00     0.205 C 
ATOM     17  C   UNL A   1      35.089  20.845  24.936  1.00  0.00     0.033 C 
ATOM     18  C   UNL A   1      32.840  20.224  24.462  1.00  0.00     0.087 C 
ATOM     19  C   UNL A   1      34.491  21.946  24.462  1.00  0.00    -0.012 C 
BRANCH  16  20
ATOM     20  N   UNL A   1      34.591  18.476  24.543  1.00  0.00    -0.352 N 
ATOM     21  H   UNL A   1      34.013  17.702  24.873  1.00  0.00     0.345 HD
ATOM     22  H   UNL A   1      35.561  18.313  24.809  1.00  0.00     0.345 HD
ATOM     23  H   UNL A   1      34.524  18.540  23.527  1.00  0.00     0.345 HD
ENDBRANCH  16  20
ENDBRANCH  12  15
ENDBRANCH   7  11
ENDBRANCH   6   7
ENDBRANCH   3   6
ENDBRANCH   1   2
BRANCH   1  24
ATOM     24  C   UNL A   1      33.346  29.158  23.949  1.00  0.00     0.042 C 
BRANCH  24  25
ATOM     25  C   UNL A   1      32.973  29.183  25.427  1.00  0.00     0.118 C 
BRANCH  25  26
ATOM     26  N   UNL A   1      32.629  30.523  25.876  1.00  0.00    -0.352 N 
ATOM     27  C   UNL A   1      33.172  31.306  26.863  1.00  0.00     0.251 C 
ATOM     28  H   UNL A   1      31.881  30.939  25.388  1.00  0.00     0.163 HD
ATOM     29  O   UNL A   1      32.565  32.323  27.194  1.00  0.00    -0.269 OA
BRANCH  27  30
ATOM     30  C   UNL A   1      34.453  30.963  27.531  1.00  0.00     0.039 A 
ATOM     31  C   UNL A   1      34.622  29.654  27.999  1.00  0.00     0.014 A 
ATOM     32  C   UNL A   1      35.445  31.912  27.789  1.00  0.00     0.014 A 
ATOM     33  C   UNL A   1      35.777  29.298  28.700  1.00  0.00     0.010 A 
ATOM     34  C   UNL A   1      36.634  31.537  28.423  1.00  0.00     0.010 A 
ATOM     35  C   UNL A   1      36.803  30.233  28.909  1.00  0.00    -0.014 A 
BRANCH  35  36
ATOM     36  C   UNL A   1      38.038  29.855  29.648  1.00  0.00     0.031 A 
ATOM     37  C   UNL A   1      38.289  30.366  31.044  1.00  0.00     0.074 A 
ATOM     38  C   UNL A   1      38.961  29.077  29.048  1.00  0.00     0.049 A 
ATOM     39  N   UNL A   1      39.297  30.124  31.843  1.00  0.00    -0.248 NA
ATOM     40  C   UNL A   1      37.290  31.289  31.610  1.00  0.00     0.031 C 
ATOM     41  C   UNL A   1      38.879  28.580  27.672  1.00  0.00     0.029 A 
ATOM     42  N   UNL A   1      40.154  28.579  29.510  1.00  0.00    -0.354 N 
ATOM     43  C   UNL A   1      39.073  30.885  32.986  1.00  0.00     0.074 A 
ATOM     44  C   UNL A   1      37.851  31.625  32.763  1.00  0.00     0.031 C 
ATOM     45  C   UNL A   1      39.967  27.840  27.407  1.00  0.00     0.029 A 
ATOM     46  C   UNL A   1      40.834  27.825  28.581  1.00  0.00     0.049 A 
ATOM     47  H   UNL A   1      40.491  28.746  30.419  1.00  0.00     0.167 HD
ATOM     48  C   UNL A   1      39.800  30.942  34.129  1.00  0.00     0.034 A 
ATOM     49  C   UNL A   1      42.020  27.189  28.666  1.00  0.00     0.034 A 
ATOM     50  C   UNL A   1      40.992  30.173  34.366  1.00  0.00     0.049 A 
ATOM     51  C   UNL A   1      42.773  27.217  29.968  1.00  0.00     0.074 A 
ATOM     52  C   UNL A   1      41.754  30.099  35.520  1.00  0.00     0.029 A 
ATOM     53  N   UNL A   1      41.600  29.347  33.434  1.00  0.00    -0.354 N 
ATOM     54  N   UNL A   1      42.460  27.814  31.093  1.00  0.00    -0.248 NA
ATOM     55  C   UNL A   1      44.022  26.443  30.029  1.00  0.00     0.031 C 
ATOM     56  C   UNL A   1      42.833  29.242  35.277  1.00  0.00     0.029 A 
ATOM     57  C   UNL A   1      42.727  28.760  33.983  1.00  0.00     0.049 A 
ATOM     58  H   UNL A   1      41.277  29.199  32.515  1.00  0.00     0.167 HD
ATOM     59  C   UNL A   1      43.447  27.457  32.004  1.00  0.00     0.074 A 
ATOM     60  C   UNL A   1      44.357  26.573  31.305  1.00  0.00     0.031 C 
ATOM     61  C   UNL A   1      43.596  27.837  33.297  1.00  0.00     0.034 A 
BRANCH  48  62
ATOM     62  C   UNL A   1      39.291  31.828  35.239  1.00  0.00     0.023 A 
ATOM     63  C   UNL A   1      38.368  31.311  36.173  1.00  0.00     0.012 A 
ATOM     64  C   UNL A   1      39.768  33.144  35.399  1.00  0.00     0.148 A 
ATOM     65  C   UNL A   1      37.900  32.099  37.224  1.00  0.00     0.002 A 
ATOM     66  C   UNL A   1      39.332  33.909  36.477  1.00  0.00     0.091 A 
ATOM     67  F   UNL A   1      40.631  33.627  34.494  1.00  0.00    -0.205 F 
ATOM     68  C   UNL A   1      38.389  33.393  37.380  1.00  0.00     0.022 A 
BRANCH  66  69
ATOM     69  S   UNL A   1      39.964  35.557  36.814  1.00  0.00     0.127 S 
ATOM     70  O   UNL A   1      39.304  35.872  38.081  1.00  0.00    -0.237 OA
ATOM     71  O   UNL A   1      41.405  35.317  36.924  1.00  0.00    -0.237 OA
ATOM     72  O   UNL A   1      39.571  36.378  35.681  1.00  0.00    -0.744 OA
ENDBRANCH  66  69
ENDBRANCH  48  62
BRANCH  49  73
ATOM     73  C   UNL A   1      42.523  26.400  27.506  1.00  0.00     0.023 A 
ATOM     74  C   UNL A   1      43.397  27.008  26.583  1.00  0.00     0.012 A 
ATOM     75  C   UNL A   1      42.170  25.049  27.329  1.00  0.00     0.148 A 
ATOM     76  C   UNL A   1      43.881  26.295  25.486  1.00  0.00     0.002 A 
ATOM     77  C   UNL A   1      42.702  24.328  26.266  1.00  0.00     0.091 A 
ATOM     78  F   UNL A   1      41.329  24.491  28.211  1.00  0.00    -0.205 F 
ATOM     79  C   UNL A   1      43.542  24.954  25.333  1.00  0.00     0.022 A 
BRANCH  77  80
ATOM     80  S   UNL A   1      42.431  22.563  26.069  1.00  0.00     0.127 S 
ATOM     81  O   UNL A   1      43.092  22.299  24.794  1.00  0.00    -0.237 OA
ATOM     82  O   UNL A   1      43.115  22.018  27.243  1.00  0.00    -0.237 OA
ATOM     83  O   UNL A   1      40.986  22.383  26.083  1.00  0.00    -0.744 OA
ENDBRANCH  77  80
ENDBRANCH  49  73
BRANCH  61  84
ATOM     84  C   UNL A   1      44.762  27.266  34.062  1.00  0.00     0.023 A 
ATOM     85  C   UNL A   1      46.004  27.932  34.052  1.00  0.00     0.012 A 
ATOM     86  C   UNL A   1      44.611  26.096  34.832  1.00  0.00     0.148 A 
ATOM     87  C   UNL A   1      47.089  27.419  34.763  1.00  0.00     0.002 A 
ATOM     88  C   UNL A   1      45.682  25.620  35.578  1.00  0.00     0.091 A 
ATOM     89  F   UNL A   1      43.429  25.463  34.813  1.00  0.00    -0.205 F 
ATOM     90  C   UNL A   1      46.926  26.270  35.534  1.00  0.00     0.022 A 
BRANCH  88  91
ATOM     91  S   UNL A   1      45.529  24.202  36.672  1.00  0.00     0.127 S 
ATOM     92  O   UNL A   1      46.879  24.100  37.220  1.00  0.00    -0.237 OA
ATOM     93  O   UNL A   1      44.515  24.652  37.629  1.00  0.00    -0.237 OA
ATOM     94  O   UNL A   1      45.105  23.093  35.828  1.00  0.00    -0.744 OA
ENDBRANCH  88  91
ENDBRANCH  61  84
ENDBRANCH  35  36
ENDBRANCH  27  30
ENDBRANCH  25  26
ENDBRANCH  24  25
ENDBRANCH   1  24
TORSDOF 17
ENDMDL
MODEL 2
REMARK VINA RESULT:     -11.6      1.534      1.900
REMARK SMILES [NH3+][C@H]1C=C[C@@H](C(=O)NC2(CC(=O)NCCCNC(=O)c3ccc(-c4c5nc(c(-c6cccc(S(=O)(=O)[O-])c6F)c6ccc([nH]6)c(-c6cccc(S(=O)(=O)[O-])c6F)c6nc(c(-c7cccc(S(=O)(=O)[O-])c7F)c7ccc4[nH]7)C=C6)C=C5)cc3)CCC2)C1
REMARK SMILES IDX 14 1 13 2 11 3 12 4 10 6 9 7 83 8 85 9 84 10 8 11 6 12 7 13
REMARK SMILES IDX 5 15 2 16 3 17 86 18 4 19 1 20 15 24 16 25 17 26 18 27 19 29
REMARK SMILES IDX 20 30 21 31 82 32 22 33 81 34 23 35 24 36 25 37 75 38 26 39
REMARK SMILES IDX 80 40 74 41 76 42 27 43 79 44 73 45 72 46 28 48 60 49 40 50
REMARK SMILES IDX 59 51 41 52 44 53 58 54 77 55 42 56 43 57 57 59 78 60 45 61
REMARK SMILES IDX 29 62 30 63 38 64 31 65 33 66 39 67 32 68 34 69 35 70 36 71
REMARK SMILES IDX 37 72 61 73 62 74 70 75 63 76 65 77 71 78 64 79 66 80 67 81
REMARK SMILES IDX 68 82 69 83 46 84 47 85 55 86 48 87 50 88 56 89 49 90 51 91
REMARK SMILES IDX 52 92 53 93 54 94
REMARK H PARENT 13 5 8 14 1 21 1 22 1 23 17 28 76 47 44 58
REMARK Flexibility Score: inf
ROOT
ATOM      1  C   UNL A   1      32.624  28.843  23.020  1.00  0.00     0.117 C 
ENDROOT
BRANCH   1   2
ATOM      2  N   UNL A   1      33.214  27.751  22.272  1.00  0.00    -0.356 N 
ATOM      3  C   UNL A   1      32.882  26.433  22.255  1.00  0.00     0.222 C 
ATOM      4  O   UNL A   1      33.622  25.649  21.658  1.00  0.00    -0.275 OA
ATOM      5  H   UNL A   1      33.968  28.000  21.689  1.00  0.00     0.163 HD
BRANCH   3   6
ATOM      6  C   UNL A   1      31.627  25.924  22.932  1.00  0.00     0.128 C 
BRANCH   6   7
ATOM      7  C   UNL A   1      31.815  25.098  24.228  1.00  0.00     0.049 C 
ATOM      8  C   UNL A   1      30.502  25.044  25.076  1.00  0.00     0.029 C 
ATOM      9  C   UNL A   1      32.421  25.929  25.374  1.00  0.00     0.029 C 
ATOM     10  C   UNL A   1      31.004  26.262  25.863  1.00  0.00     0.005 C 
BRANCH   7  11
ATOM     11  N   UNL A   1      32.326  23.748  23.904  1.00  0.00    -0.350 N 
ATOM     12  C   UNL A   1      33.504  23.070  23.880  1.00  0.00     0.227 C 
ATOM     13  O   UNL A   1      33.382  21.862  23.617  1.00  0.00    -0.274 OA
ATOM     14  H   UNL A   1      31.588  23.161  23.620  1.00  0.00     0.164 HD
BRANCH  12  15
ATOM     15  C   UNL A   1      34.922  23.612  24.099  1.00  0.00     0.107 C 
ATOM     16  C   UNL A   1      36.978  23.284  25.391  1.00  0.00     0.205 C 
ATOM     17  C   UNL A   1      37.157  22.933  23.946  1.00  0.00     0.033 C 
ATOM     18  C   UNL A   1      35.455  23.458  25.527  1.00  0.00     0.087 C 
ATOM     19  C   UNL A   1      36.030  23.097  23.240  1.00  0.00    -0.012 C 
BRANCH  16  20
ATOM     20  N   UNL A   1      37.480  22.247  26.279  1.00  0.00    -0.352 N 
ATOM     21  H   UNL A   1      37.805  22.672  27.148  1.00  0.00     0.345 HD
ATOM     22  H   UNL A   1      38.253  21.759  25.829  1.00  0.00     0.345 HD
ATOM     23  H   UNL A   1      36.733  21.584  26.484  1.00  0.00     0.345 HD
ENDBRANCH  16  20
ENDBRANCH  12  15
ENDBRANCH   7  11
ENDBRANCH   6   7
ENDBRANCH   3   6
ENDBRANCH   1   2
BRANCH   1  24
ATOM     24  C   UNL A   1      33.526  29.280  24.171  1.00  0.00     0.042 C 
BRANCH  24  25
ATOM     25  C   UNL A   1      32.842  29.319  25.534  1.00  0.00     0.118 C 
BRANCH  25  26
ATOM     26  N   UNL A   1      32.552  30.682  25.953  1.00  0.00    -0.352 N 
ATOM     27  C   UNL A   1      33.142  31.472  26.906  1.00  0.00     0.251 C 
ATOM     28  H   UNL A   1      31.808  31.109  25.470  1.00  0.00     0.163 HD
ATOM     29  O   UNL A   1      32.576  32.517  27.223  1.00  0.00    -0.269 OA
BRANCH  27  30
ATOM     30  C   UNL A   1      34.426  31.104  27.557  1.00  0.00     0.039 A 
ATOM     31  C   UNL A   1      34.556  29.809  28.071  1.00  0.00     0.014 A 
ATOM     32  C   UNL A   1      35.460  32.024  27.753  1.00  0.00     0.014 A 
ATOM     33  C   UNL A   1      35.715  29.435  28.758  1.00  0.00     0.010 A 
ATOM     34  C   UNL A   1      36.649  31.626  28.372  1.00  0.00     0.010 A 
ATOM     35  C   UNL A   1      36.781  30.336  28.905  1.00  0.00    -0.014 A 
BRANCH  35  36
ATOM     36  C   UNL A   1      38.019  29.938  29.628  1.00  0.00     0.031 A 
ATOM     37  C   UNL A   1      38.312  30.471  31.007  1.00  0.00     0.074 A 
ATOM     38  C   UNL A   1      38.907  29.121  29.027  1.00  0.00     0.049 A 
ATOM     39  N   UNL A   1      39.328  30.217  31.792  1.00  0.00    -0.248 NA
ATOM     40  C   UNL A   1      37.351  31.434  31.572  1.00  0.00     0.031 C 
ATOM     41  C   UNL A   1      38.784  28.598  27.664  1.00  0.00     0.029 A 
ATOM     42  N   UNL A   1      40.094  28.599  29.476  1.00  0.00    -0.354 N 
ATOM     43  C   UNL A   1      39.149  31.008  32.922  1.00  0.00     0.074 A 
ATOM     44  C   UNL A   1      37.944  31.778  32.706  1.00  0.00     0.031 C 
ATOM     45  C   UNL A   1      39.845  27.822  27.393  1.00  0.00     0.029 A 
ATOM     46  C   UNL A   1      40.734  27.807  28.551  1.00  0.00     0.049 A 
ATOM     47  H   UNL A   1      40.454  28.775  30.375  1.00  0.00     0.167 HD
ATOM     48  C   UNL A   1      39.899  31.068  34.049  1.00  0.00     0.034 A 
ATOM     49  C   UNL A   1      41.903  27.139  28.627  1.00  0.00     0.034 A 
ATOM     50  C   UNL A   1      41.074  30.270  34.280  1.00  0.00     0.049 A 
ATOM     51  C   UNL A   1      42.682  27.172  29.913  1.00  0.00     0.074 A 
ATOM     52  C   UNL A   1      41.857  30.198  35.420  1.00  0.00     0.029 A 
ATOM     53  N   UNL A   1      41.639  29.408  33.354  1.00  0.00    -0.354 N 
ATOM     54  N   UNL A   1      42.409  27.802  31.031  1.00  0.00    -0.248 NA
ATOM     55  C   UNL A   1      43.910  26.364  29.966  1.00  0.00     0.031 C 
ATOM     56  C   UNL A   1      42.906  29.305  35.175  1.00  0.00     0.029 A 
ATOM     57  C   UNL A   1      42.761  28.800  33.894  1.00  0.00     0.049 A 
ATOM     58  H   UNL A   1      41.294  29.250  32.446  1.00  0.00     0.167 HD
ATOM     59  C   UNL A   1      43.404  27.436  31.930  1.00  0.00     0.074 A 
ATOM     60  C   UNL A   1      44.274  26.511  31.233  1.00  0.00     0.031 C 
ATOM     61  C   UNL A   1      43.589  27.839  33.211  1.00  0.00     0.034 A 
BRANCH  48  62
ATOM     62  C   UNL A   1      39.438  31.991  35.150  1.00  0.00     0.023 A 
ATOM     63  C   UNL A   1      39.670  33.378  35.036  1.00  0.00     0.012 A 
ATOM     64  C   UNL A   1      38.724  31.502  36.262  1.00  0.00     0.148 A 
ATOM     65  C   UNL A   1      39.233  34.257  36.026  1.00  0.00     0.002 A 
ATOM     66  C   UNL A   1      38.251  32.390  37.222  1.00  0.00     0.091 A 
ATOM     67  F   UNL A   1      38.528  30.179  36.365  1.00  0.00    -0.205 F 
ATOM     68  C   UNL A   1      38.516  33.765  37.113  1.00  0.00     0.022 A 
BRANCH  66  69
ATOM     69  S   UNL A   1      37.247  31.865  38.617  1.00  0.00     0.127 S 
ATOM     70  O   UNL A   1      37.057  30.444  38.325  1.00  0.00    -0.237 OA
ATOM     71  O   UNL A   1      38.130  32.138  39.753  1.00  0.00    -0.237 OA
ATOM     72  O   UNL A   1      36.044  32.679  38.575  1.00  0.00    -0.744 OA
ENDBRANCH  66  69
ENDBRANCH  48  62
BRANCH  49  73
ATOM     73  C   UNL A   1      42.361  26.311  27.474  1.00  0.00     0.023 A 
ATOM     74  C   UNL A   1      43.201  26.887  26.501  1.00  0.00     0.012 A 
ATOM     75  C   UNL A   1      41.998  24.957  27.354  1.00  0.00     0.148 A 
ATOM     76  C   UNL A   1      43.642  26.138  25.409  1.00  0.00     0.002 A 
ATOM     77  C   UNL A   1      42.488  24.200  26.295  1.00  0.00     0.091 A 
ATOM     78  F   UNL A   1      41.189  24.430  28.284  1.00  0.00    -0.205 F 
ATOM     79  C   UNL A   1      43.294  24.793  25.312  1.00  0.00     0.022 A 
BRANCH  77  80
ATOM     80  S   UNL A   1      42.206  22.431  26.165  1.00  0.00     0.127 S 
ATOM     81  O   UNL A   1      42.800  21.940  27.405  1.00  0.00    -0.237 OA
ATOM     82  O   UNL A   1      40.744  22.360  26.111  1.00  0.00    -0.237 OA
ATOM     83  O   UNL A   1      42.869  22.016  24.936  1.00  0.00    -0.744 OA
ENDBRANCH  77  80
ENDBRANCH  49  73
BRANCH  61  84
ATOM     84  C   UNL A   1      44.753  27.250  33.966  1.00  0.00     0.023 A 
ATOM     85  C   UNL A   1      46.011  27.884  33.923  1.00  0.00     0.012 A 
ATOM     86  C   UNL A   1      44.586  26.098  34.759  1.00  0.00     0.148 A 
ATOM     87  C   UNL A   1      47.095  27.355  34.624  1.00  0.00     0.002 A 
ATOM     88  C   UNL A   1      45.658  25.606  35.494  1.00  0.00     0.091 A 
ATOM     89  F   UNL A   1      43.388  25.496  34.771  1.00  0.00    -0.205 F 
ATOM     90  C   UNL A   1      46.916  26.223  35.418  1.00  0.00     0.022 A 
BRANCH  88  91
ATOM     91  S   UNL A   1      45.487  24.212  36.615  1.00  0.00     0.127 S 
ATOM     92  O   UNL A   1      44.487  24.707  37.558  1.00  0.00    -0.237 OA
ATOM     93  O   UNL A   1      45.011  23.150  35.725  1.00  0.00    -0.237 OA
ATOM     94  O   UNL A   1      46.815  23.980  37.166  1.00  0.00    -0.744 OA
ENDBRANCH  88  91
ENDBRANCH  61  84
ENDBRANCH  35  36
ENDBRANCH  27  30
ENDBRANCH  25  26
ENDBRANCH  24  25
ENDBRANCH   1  24
TORSDOF 17
ENDMDL
MODEL 3
REMARK VINA RESULT:     -11.5      2.055      2.722
REMARK SMILES [NH3+][C@H]1C=C[C@@H](C(=O)NC2(CC(=O)NCCCNC(=O)c3ccc(-c4c5nc(c(-c6cccc(S(=O)(=O)[O-])c6F)c6ccc([nH]6)c(-c6cccc(S(=O)(=O)[O-])c6F)c6nc(c(-c7cccc(S(=O)(=O)[O-])c7F)c7ccc4[nH]7)C=C6)C=C5)cc3)CCC2)C1
REMARK SMILES IDX 14 1 13 2 11 3 12 4 10 6 9 7 83 8 85 9 84 10 8 11 6 12 7 13
REMARK SMILES IDX 5 15 2 16 3 17 86 18 4 19 1 20 15 24 16 25 17 26 18 27 19 29
REMARK SMILES IDX 20 30 21 31 82 32 22 33 81 34 23 35 24 36 25 37 75 38 26 39
REMARK SMILES IDX 80 40 74 41 76 42 27 43 79 44 73 45 72 46 28 48 60 49 40 50
REMARK SMILES IDX 59 51 41 52 44 53 58 54 77 55 42 56 43 57 57 59 78 60 45 61
REMARK SMILES IDX 29 62 30 63 38 64 31 65 33 66 39 67 32 68 34 69 35 70 36 71
REMARK SMILES IDX 37 72 61 73 62 74 70 75 63 76 65 77 71 78 64 79 66 80 67 81
REMARK SMILES IDX 68 82 69 83 46 84 47 85 55 86 48 87 50 88 56 89 49 90 51 91
REMARK SMILES IDX 52 92 53 93 54 94
REMARK H PARENT 13 5 8 14 1 21 1 22 1 23 17 28 76 47 44 58
REMARK Flexibility Score: inf
ROOT
ATOM      1  C   UNL A   1      33.235  28.586  24.234  1.00  0.00     0.117 C 
ENDROOT
BRANCH   1   2
ATOM      2  N   UNL A   1      33.611  27.801  23.075  1.00  0.00    -0.356 N 
ATOM      3  C   UNL A   1      33.184  26.570  22.686  1.00  0.00     0.222 C 
ATOM      4  O   UNL A   1      33.755  26.023  21.741  1.00  0.00    -0.275 OA
ATOM      5  H   UNL A   1      34.275  28.221  22.481  1.00  0.00     0.163 HD
BRANCH   3   6
ATOM      6  C   UNL A   1      32.023  25.882  23.372  1.00  0.00     0.128 C 
BRANCH   6   7
ATOM      7  C   UNL A   1      32.330  24.554  24.107  1.00  0.00     0.049 C 
ATOM      8  C   UNL A   1      31.377  24.332  25.326  1.00  0.00     0.029 C 
ATOM      9  C   UNL A   1      33.471  24.697  25.132  1.00  0.00     0.029 C 
ATOM     10  C   UNL A   1      32.433  24.991  26.224  1.00  0.00     0.005 C 
BRANCH   7  11
ATOM     11  N   UNL A   1      32.292  23.422  23.154  1.00  0.00    -0.350 N 
ATOM     12  C   UNL A   1      32.596  22.099  23.113  1.00  0.00     0.227 C 
ATOM     13  O   UNL A   1      32.269  21.541  22.052  1.00  0.00    -0.274 OA
ATOM     14  H   UNL A   1      31.937  23.718  22.285  1.00  0.00     0.164 HD
BRANCH  12  15
ATOM     15  C   UNL A   1      33.303  21.248  24.176  1.00  0.00     0.107 C 
ATOM     16  C   UNL A   1      35.000  21.312  25.941  1.00  0.00     0.205 C 
ATOM     17  C   UNL A   1      33.618  21.150  26.493  1.00  0.00     0.033 C 
ATOM     18  C   UNL A   1      34.753  21.649  24.460  1.00  0.00     0.087 C 
ATOM     19  C   UNL A   1      32.685  21.129  25.531  1.00  0.00    -0.012 C 
BRANCH  16  20
ATOM     20  N   UNL A   1      35.745  22.364  26.613  1.00  0.00    -0.352 N 
ATOM     21  H   UNL A   1      36.725  22.321  26.331  1.00  0.00     0.345 HD
ATOM     22  H   UNL A   1      35.677  22.238  27.622  1.00  0.00     0.345 HD
ATOM     23  H   UNL A   1      35.358  23.273  26.357  1.00  0.00     0.345 HD
ENDBRANCH  16  20
ENDBRANCH  12  15
ENDBRANCH   7  11
ENDBRANCH   6   7
ENDBRANCH   3   6
ENDBRANCH   1   2
BRANCH   1  24
ATOM     24  C   UNL A   1      34.057  28.196  25.460  1.00  0.00     0.042 C 
BRANCH  24  25
ATOM     25  C   UNL A   1      33.414  28.556  26.795  1.00  0.00     0.118 C 
BRANCH  25  26
ATOM     26  N   UNL A   1      33.453  29.988  27.046  1.00  0.00    -0.352 N 
ATOM     27  C   UNL A   1      34.378  30.759  27.702  1.00  0.00     0.251 C 
ATOM     28  H   UNL A   1      32.687  30.488  26.682  1.00  0.00     0.163 HD
ATOM     29  O   UNL A   1      34.079  31.922  27.967  1.00  0.00    -0.269 OA
BRANCH  27  30
ATOM     30  C   UNL A   1      35.711  30.234  28.096  1.00  0.00     0.039 A 
ATOM     31  C   UNL A   1      35.851  29.687  29.377  1.00  0.00     0.014 A 
ATOM     32  C   UNL A   1      36.838  30.352  27.278  1.00  0.00     0.014 A 
ATOM     33  C   UNL A   1      37.100  29.246  29.824  1.00  0.00     0.010 A 
ATOM     34  C   UNL A   1      38.070  29.842  27.696  1.00  0.00     0.010 A 
ATOM     35  C   UNL A   1      38.222  29.307  28.984  1.00  0.00    -0.014 A 
BRANCH  35  36
ATOM     36  C   UNL A   1      39.551  28.832  29.454  1.00  0.00     0.031 A 
ATOM     37  C   UNL A   1      40.270  29.536  30.577  1.00  0.00     0.074 A 
ATOM     38  C   UNL A   1      40.137  27.782  28.844  1.00  0.00     0.049 A 
ATOM     39  N   UNL A   1      41.421  29.250  31.129  1.00  0.00    -0.248 NA
ATOM     40  C   UNL A   1      39.622  30.733  31.140  1.00  0.00     0.031 C 
ATOM     41  C   UNL A   1      39.587  27.061  27.694  1.00  0.00     0.029 A 
ATOM     42  N   UNL A   1      41.328  27.148  29.094  1.00  0.00    -0.354 N 
ATOM     43  C   UNL A   1      41.652  30.243  32.075  1.00  0.00     0.074 A 
ATOM     44  C   UNL A   1      40.537  31.161  31.998  1.00  0.00     0.031 C 
ATOM     45  C   UNL A   1      40.432  26.077  27.346  1.00  0.00     0.029 A 
ATOM     46  C   UNL A   1      41.592  26.109  28.231  1.00  0.00     0.049 A 
ATOM     47  H   UNL A   1      41.937  27.412  29.821  1.00  0.00     0.167 HD
ATOM     48  C   UNL A   1      42.681  30.366  32.949  1.00  0.00     0.034 A 
ATOM     49  C   UNL A   1      42.647  25.272  28.163  1.00  0.00     0.034 A 
ATOM     50  C   UNL A   1      43.768  29.428  33.054  1.00  0.00     0.049 A 
ATOM     51  C   UNL A   1      43.743  25.392  29.187  1.00  0.00     0.074 A 
ATOM     52  C   UNL A   1      44.815  29.420  33.959  1.00  0.00     0.029 A 
ATOM     53  N   UNL A   1      43.952  28.334  32.223  1.00  0.00    -0.354 N 
ATOM     54  N   UNL A   1      43.861  26.242  30.177  1.00  0.00    -0.248 NA
ATOM     55  C   UNL A   1      44.831  24.404  29.112  1.00  0.00     0.031 C 
ATOM     56  C   UNL A   1      45.641  28.331  33.664  1.00  0.00     0.029 A 
ATOM     57  C   UNL A   1      45.094  27.644  32.593  1.00  0.00     0.049 A 
ATOM     58  H   UNL A   1      43.357  28.084  31.479  1.00  0.00     0.167 HD
ATOM     59  C   UNL A   1      45.010  25.870  30.866  1.00  0.00     0.074 A 
ATOM     60  C   UNL A   1      45.540  24.703  30.192  1.00  0.00     0.031 C 
ATOM     61  C   UNL A   1      45.582  26.451  31.950  1.00  0.00     0.034 A 
BRANCH  48  62
ATOM     62  C   UNL A   1      42.652  31.531  33.907  1.00  0.00     0.023 A 
ATOM     63  C   UNL A   1      43.172  32.777  33.501  1.00  0.00     0.012 A 
ATOM     64  C   UNL A   1      42.057  31.415  35.179  1.00  0.00     0.148 A 
ATOM     65  C   UNL A   1      43.135  33.878  34.356  1.00  0.00     0.002 A 
ATOM     66  C   UNL A   1      41.983  32.529  36.009  1.00  0.00     0.091 A 
ATOM     67  F   UNL A   1      41.584  30.219  35.558  1.00  0.00    -0.205 F 
ATOM     68  C   UNL A   1      42.533  33.756  35.605  1.00  0.00     0.022 A 
BRANCH  66  69
ATOM     69  S   UNL A   1      41.153  32.496  37.603  1.00  0.00     0.127 S 
ATOM     70  O   UNL A   1      39.843  31.955  37.242  1.00  0.00    -0.237 OA
ATOM     71  O   UNL A   1      41.998  31.579  38.371  1.00  0.00    -0.237 OA
ATOM     72  O   UNL A   1      41.153  33.867  38.084  1.00  0.00    -0.744 OA
ENDBRANCH  66  69
ENDBRANCH  48  62
BRANCH  49  73
ATOM     73  C   UNL A   1      42.671  24.191  27.137  1.00  0.00     0.023 A 
ATOM     74  C   UNL A   1      43.384  24.391  25.938  1.00  0.00     0.012 A 
ATOM     75  C   UNL A   1      42.023  22.960  27.352  1.00  0.00     0.148 A 
ATOM     76  C   UNL A   1      43.421  23.399  24.958  1.00  0.00     0.002 A 
ATOM     77  C   UNL A   1      42.113  21.954  26.396  1.00  0.00     0.091 A 
ATOM     78  F   UNL A   1      41.340  22.792  28.493  1.00  0.00    -0.205 F 
ATOM     79  C   UNL A   1      42.795  22.178  25.191  1.00  0.00     0.022 A 
BRANCH  77  80
ATOM     80  S   UNL A   1      41.454  20.305  26.670  1.00  0.00     0.127 S 
ATOM     81  O   UNL A   1      40.020  20.565  26.754  1.00  0.00    -0.237 OA
ATOM     82  O   UNL A   1      41.884  19.602  25.460  1.00  0.00    -0.237 OA
ATOM     83  O   UNL A   1      42.085  19.828  27.894  1.00  0.00    -0.744 OA
ENDBRANCH  77  80
ENDBRANCH  49  73
BRANCH  61  84
ATOM     84  C   UNL A   1      46.827  25.809  32.508  1.00  0.00     0.023 A 
ATOM     85  C   UNL A   1      48.092  26.172  32.006  1.00  0.00     0.012 A 
ATOM     86  C   UNL A   1      46.743  24.884  33.568  1.00  0.00     0.148 A 
ATOM     87  C   UNL A   1      49.252  25.592  32.519  1.00  0.00     0.002 A 
ATOM     88  C   UNL A   1      47.906  24.349  34.109  1.00  0.00     0.091 A 
ATOM     89  F   UNL A   1      45.530  24.534  34.021  1.00  0.00    -0.205 F 
ATOM     90  C   UNL A   1      49.160  24.690  33.578  1.00  0.00     0.022 A 
BRANCH  88  91
ATOM     91  S   UNL A   1      47.881  23.255  35.534  1.00  0.00     0.127 S 
ATOM     92  O   UNL A   1      49.306  23.015  35.751  1.00  0.00    -0.237 OA
ATOM     93  O   UNL A   1      47.242  24.086  36.556  1.00  0.00    -0.237 OA
ATOM     94  O   UNL A   1      47.099  22.094  35.130  1.00  0.00    -0.744 OA
ENDBRANCH  88  91
ENDBRANCH  61  84
ENDBRANCH  35  36
ENDBRANCH  27  30
ENDBRANCH  25  26
ENDBRANCH  24  25
ENDBRANCH   1  24
TORSDOF 17
ENDMDL
