MODEL 1
REMARK VINA RESULT:     -12.0      0.000      0.000
REMARK SMILES CCCc1c(C(=O)NCCCNC(=O)c2ccc(-c3c4nc(c(-c5cccc(S(=O)(=O)[O-])c5F)c5ccc([nH]5)c(-c5cccc(S(=O)(=O)[O-])c5F)c5nc(c(-c6cccc(S(=O)(=O)[O-])c6F)c6ccc3[nH]6)C=C5)C=C4)cc2)nnn1-c1cccc(C(F)(F)F)c1
REMARK SMILES IDX 10 1 9 2 8 3 6 4 7 5 5 7 4 8 80 9 78 10 79 11 3 12 2 13 1 14
REMARK SMILES IDX 81 15 82 16 90 17 83 18 85 19 84 20 86 21 87 22 88 23 89 24
REMARK SMILES IDX 11 25 12 26 13 27 14 29 15 30 16 31 77 32 17 33 76 34 18 35
REMARK SMILES IDX 19 36 20 37 70 38 21 39 75 40 69 41 71 42 22 43 74 44 68 45
REMARK SMILES IDX 67 46 23 48 55 49 35 50 54 51 36 52 39 53 53 54 72 55 37 56
REMARK SMILES IDX 38 57 52 59 73 60 40 61 24 62 25 63 33 64 26 65 28 66 34 67
REMARK SMILES IDX 27 68 29 69 30 70 31 71 32 72 56 73 57 74 65 75 58 76 60 77
REMARK SMILES IDX 66 78 59 79 61 80 62 81 63 82 64 83 41 84 42 85 50 86 43 87
REMARK SMILES IDX 45 88 51 89 44 90 46 91 47 92 48 93 49 94
REMARK H PARENT 8 6 12 28 71 47 39 58
REMARK Flexibility Score: inf
ROOT
ATOM      1  C   UNL A   1      31.437  32.093  26.872  1.00  0.00     0.042 C 
ENDROOT
BRANCH   1   2
ATOM      2  C   UNL A   1      31.744  30.740  26.221  1.00  0.00     0.118 C 
BRANCH   2   3
ATOM      3  N   UNL A   1      31.039  30.513  24.981  1.00  0.00    -0.351 N 
ATOM      4  C   UNL A   1      30.952  29.514  24.049  1.00  0.00     0.273 C 
ATOM      5  O   UNL A   1      30.008  29.662  23.266  1.00  0.00    -0.267 OA
ATOM      6  H   UNL A   1      30.469  31.281  24.744  1.00  0.00     0.163 HD
BRANCH   4   7
ATOM      7  C   UNL A   1      31.840  28.349  23.890  1.00  0.00     0.174 A 
ATOM      8  C   UNL A   1      31.919  27.027  24.366  1.00  0.00     0.078 A 
ATOM      9  N   UNL A   1      33.073  26.543  23.756  1.00  0.00    -0.217 N 
ATOM     10  N   UNL A   1      32.957  28.579  23.104  1.00  0.00    -0.124 NA
ATOM     11  N   UNL A   1      33.731  27.519  23.118  1.00  0.00    -0.061 NA
BRANCH   8  12
ATOM     12  C   UNL A   1      31.068  26.332  25.381  1.00  0.00     0.059 C 
BRANCH  12  13
ATOM     13  C   UNL A   1      29.598  25.948  25.267  1.00  0.00     0.003 C 
ATOM     14  C   UNL A   1      28.881  26.374  23.999  1.00  0.00     0.004 C 
ENDBRANCH  12  13
ENDBRANCH   8  12
BRANCH   9  15
ATOM     15  C   UNL A   1      33.639  25.258  23.766  1.00  0.00     0.067 A 
ATOM     16  C   UNL A   1      33.263  24.352  22.770  1.00  0.00     0.028 A 
ATOM     17  C   UNL A   1      34.620  24.933  24.700  1.00  0.00     0.041 A 
ATOM     18  C   UNL A   1      33.983  23.170  22.623  1.00  0.00     0.003 A 
ATOM     19  C   UNL A   1      35.373  23.765  24.535  1.00  0.00     0.058 A 
ATOM     20  C   UNL A   1      35.048  22.891  23.484  1.00  0.00     0.013 A 
BRANCH  19  21
ATOM     21  C   UNL A   1      36.570  23.500  25.411  1.00  0.00     0.416 C 
ATOM     22  F   UNL A   1      36.702  22.188  25.745  1.00  0.00    -0.166 F 
ATOM     23  F   UNL A   1      37.739  23.855  24.807  1.00  0.00    -0.166 F 
ATOM     24  F   UNL A   1      36.545  24.187  26.589  1.00  0.00    -0.166 F 
ENDBRANCH  19  21
ENDBRANCH   9  15
ENDBRANCH   4   7
ENDBRANCH   2   3
ENDBRANCH   1   2
BRANCH   1  25
ATOM     25  C   UNL A   1      32.702  32.821  27.274  1.00  0.00     0.118 C 
BRANCH  25  26
ATOM     26  N   UNL A   1      32.411  34.196  27.715  1.00  0.00    -0.352 N 
ATOM     27  C   UNL A   1      32.973  34.911  28.763  1.00  0.00     0.251 C 
ATOM     28  H   UNL A   1      31.724  34.674  27.196  1.00  0.00     0.163 HD
ATOM     29  O   UNL A   1      32.450  35.911  29.203  1.00  0.00    -0.269 OA
BRANCH  27  30
ATOM     30  C   UNL A   1      34.238  34.401  29.315  1.00  0.00     0.039 A 
ATOM     31  C   UNL A   1      34.281  33.576  30.444  1.00  0.00     0.014 A 
ATOM     32  C   UNL A   1      35.376  34.672  28.570  1.00  0.00     0.014 A 
ATOM     33  C   UNL A   1      35.480  32.940  30.755  1.00  0.00     0.010 A 
ATOM     34  C   UNL A   1      36.458  33.860  28.727  1.00  0.00     0.010 A 
ATOM     35  C   UNL A   1      36.555  33.074  29.871  1.00  0.00    -0.014 A 
BRANCH  35  36
ATOM     36  C   UNL A   1      37.817  32.371  30.049  1.00  0.00     0.031 A 
ATOM     37  C   UNL A   1      37.885  31.012  29.440  1.00  0.00     0.074 A 
ATOM     38  C   UNL A   1      38.914  33.070  30.423  1.00  0.00     0.049 A 
ATOM     39  N   UNL A   1      38.084  29.880  30.031  1.00  0.00    -0.248 NA
ATOM     40  C   UNL A   1      37.563  30.879  28.008  1.00  0.00     0.031 C 
ATOM     41  C   UNL A   1      39.017  34.522  30.665  1.00  0.00     0.029 A 
ATOM     42  N   UNL A   1      40.211  32.678  30.456  1.00  0.00    -0.354 N 
ATOM     43  C   UNL A   1      38.142  28.925  29.013  1.00  0.00     0.074 A 
ATOM     44  C   UNL A   1      37.590  29.555  27.846  1.00  0.00     0.031 C 
ATOM     45  C   UNL A   1      40.300  34.912  30.515  1.00  0.00     0.029 A 
ATOM     46  C   UNL A   1      41.121  33.729  30.373  1.00  0.00     0.049 A 
ATOM     47  H   UNL A   1      40.486  31.735  30.531  1.00  0.00     0.167 HD
ATOM     48  C   UNL A   1      38.877  27.783  29.143  1.00  0.00     0.034 A 
ATOM     49  C   UNL A   1      42.451  33.632  30.142  1.00  0.00     0.034 A 
ATOM     50  C   UNL A   1      39.301  27.599  30.508  1.00  0.00     0.049 A 
ATOM     51  C   UNL A   1      42.834  32.229  30.418  1.00  0.00     0.074 A 
ATOM     52  C   UNL A   1      38.663  27.442  31.721  1.00  0.00     0.029 A 
ATOM     53  N   UNL A   1      40.596  27.959  30.798  1.00  0.00    -0.354 N 
ATOM     54  N   UNL A   1      42.757  31.681  31.599  1.00  0.00    -0.248 NA
ATOM     55  C   UNL A   1      42.865  31.304  29.297  1.00  0.00     0.031 C 
ATOM     56  C   UNL A   1      39.462  28.176  32.645  1.00  0.00     0.029 A 
ATOM     57  C   UNL A   1      40.574  28.676  31.962  1.00  0.00     0.049 A 
ATOM     58  H   UNL A   1      41.393  27.741  30.264  1.00  0.00     0.167 HD
ATOM     59  C   UNL A   1      42.277  30.401  31.355  1.00  0.00     0.074 A 
ATOM     60  C   UNL A   1      42.477  30.189  29.921  1.00  0.00     0.031 C 
ATOM     61  C   UNL A   1      41.490  29.756  32.266  1.00  0.00     0.034 A 
BRANCH  48  62
ATOM     62  C   UNL A   1      39.543  27.005  28.024  1.00  0.00     0.023 A 
ATOM     63  C   UNL A   1      39.149  25.655  27.861  1.00  0.00     0.012 A 
ATOM     64  C   UNL A   1      40.695  27.416  27.314  1.00  0.00     0.148 A 
ATOM     65  C   UNL A   1      39.896  24.751  27.097  1.00  0.00     0.002 A 
ATOM     66  C   UNL A   1      41.388  26.534  26.490  1.00  0.00     0.091 A 
ATOM     67  F   UNL A   1      41.219  28.625  27.523  1.00  0.00    -0.205 F 
ATOM     68  C   UNL A   1      41.015  25.191  26.405  1.00  0.00     0.022 A 
BRANCH  66  69
ATOM     69  S   UNL A   1      42.810  27.068  25.528  1.00  0.00     0.127 S 
ATOM     70  O   UNL A   1      43.195  25.829  24.860  1.00  0.00    -0.237 OA
ATOM     71  O   UNL A   1      42.219  28.085  24.657  1.00  0.00    -0.237 OA
ATOM     72  O   UNL A   1      43.759  27.597  26.500  1.00  0.00    -0.744 OA
ENDBRANCH  66  69
ENDBRANCH  48  62
BRANCH  49  73
ATOM     73  C   UNL A   1      43.354  34.589  29.465  1.00  0.00     0.023 A 
ATOM     74  C   UNL A   1      43.463  34.580  28.063  1.00  0.00     0.012 A 
ATOM     75  C   UNL A   1      43.918  35.674  30.174  1.00  0.00     0.148 A 
ATOM     76  C   UNL A   1      44.095  35.629  27.383  1.00  0.00     0.002 A 
ATOM     77  C   UNL A   1      44.552  36.711  29.495  1.00  0.00     0.091 A 
ATOM     78  F   UNL A   1      43.753  35.729  31.503  1.00  0.00    -0.205 F 
ATOM     79  C   UNL A   1      44.633  36.696  28.097  1.00  0.00     0.022 A 
BRANCH  77  80
ATOM     80  S   UNL A   1      45.251  38.132  30.347  1.00  0.00     0.127 S 
ATOM     81  O   UNL A   1      44.088  38.653  31.065  1.00  0.00    -0.237 OA
ATOM     82  O   UNL A   1      46.264  37.506  31.191  1.00  0.00    -0.237 OA
ATOM     83  O   UNL A   1      45.753  39.009  29.297  1.00  0.00    -0.744 OA
ENDBRANCH  77  80
ENDBRANCH  49  73
BRANCH  61  84
ATOM     84  C   UNL A   1      41.341  30.358  33.641  1.00  0.00     0.023 A 
ATOM     85  C   UNL A   1      42.347  30.251  34.625  1.00  0.00     0.012 A 
ATOM     86  C   UNL A   1      40.282  31.256  33.849  1.00  0.00     0.148 A 
ATOM     87  C   UNL A   1      42.297  31.023  35.789  1.00  0.00     0.002 A 
ATOM     88  C   UNL A   1      40.266  32.063  34.979  1.00  0.00     0.091 A 
ATOM     89  F   UNL A   1      39.336  31.346  32.902  1.00  0.00    -0.205 F 
ATOM     90  C   UNL A   1      41.267  31.945  35.956  1.00  0.00     0.022 A 
BRANCH  88  91
ATOM     91  S   UNL A   1      39.060  33.377  35.170  1.00  0.00     0.127 S 
ATOM     92  O   UNL A   1      39.410  33.924  36.479  1.00  0.00    -0.237 OA
ATOM     93  O   UNL A   1      39.368  34.252  34.037  1.00  0.00    -0.237 OA
ATOM     94  O   UNL A   1      37.752  32.738  35.087  1.00  0.00    -0.744 OA
ENDBRANCH  88  91
ENDBRANCH  61  84
ENDBRANCH  35  36
ENDBRANCH  27  30
ENDBRANCH  25  26
ENDBRANCH   1  25
TORSDOF 17
ENDMDL
MODEL 2
REMARK VINA RESULT:     -11.9      4.937      9.745
REMARK SMILES CCCc1c(C(=O)NCCCNC(=O)c2ccc(-c3c4nc(c(-c5cccc(S(=O)(=O)[O-])c5F)c5ccc([nH]5)c(-c5cccc(S(=O)(=O)[O-])c5F)c5nc(c(-c6cccc(S(=O)(=O)[O-])c6F)c6ccc3[nH]6)C=C5)C=C4)cc2)nnn1-c1cccc(C(F)(F)F)c1
REMARK SMILES IDX 10 1 9 2 8 3 6 4 7 5 5 7 4 8 80 9 78 10 79 11 3 12 2 13 1 14
REMARK SMILES IDX 81 15 82 16 90 17 83 18 85 19 84 20 86 21 87 22 88 23 89 24
REMARK SMILES IDX 11 25 12 26 13 27 14 29 15 30 16 31 77 32 17 33 76 34 18 35
REMARK SMILES IDX 19 36 20 37 70 38 21 39 75 40 69 41 71 42 22 43 74 44 68 45
REMARK SMILES IDX 67 46 23 48 55 49 35 50 54 51 36 52 39 53 53 54 72 55 37 56
REMARK SMILES IDX 38 57 52 59 73 60 40 61 24 62 25 63 33 64 26 65 28 66 34 67
REMARK SMILES IDX 27 68 29 69 30 70 31 71 32 72 56 73 57 74 65 75 58 76 60 77
REMARK SMILES IDX 66 78 59 79 61 80 62 81 63 82 64 83 41 84 42 85 50 86 43 87
REMARK SMILES IDX 45 88 51 89 44 90 46 91 47 92 48 93 49 94
REMARK H PARENT 8 6 12 28 71 47 39 58
REMARK Flexibility Score: inf
ROOT
ATOM      1  C   UNL A   1      37.654  19.936  24.991  1.00  0.00     0.042 C 
ENDROOT
BRANCH   1   2
ATOM      2  C   UNL A   1      36.590  21.033  25.119  1.00  0.00     0.118 C 
BRANCH   2   3
ATOM      3  N   UNL A   1      35.234  20.541  25.070  1.00  0.00    -0.351 N 
ATOM      4  C   UNL A   1      34.002  21.038  24.738  1.00  0.00     0.273 C 
ATOM      5  O   UNL A   1      33.143  20.159  24.606  1.00  0.00    -0.267 OA
ATOM      6  H   UNL A   1      35.181  19.598  25.350  1.00  0.00     0.163 HD
BRANCH   4   7
ATOM      7  C   UNL A   1      33.619  22.448  24.547  1.00  0.00     0.174 A 
ATOM      8  C   UNL A   1      32.808  23.402  25.189  1.00  0.00     0.078 A 
ATOM      9  N   UNL A   1      32.956  24.530  24.386  1.00  0.00    -0.217 N 
ATOM     10  N   UNL A   1      34.128  23.033  23.399  1.00  0.00    -0.124 NA
ATOM     11  N   UNL A   1      33.639  24.244  23.270  1.00  0.00    -0.061 NA
BRANCH   8  12
ATOM     12  C   UNL A   1      31.897  23.237  26.364  1.00  0.00     0.059 C 
BRANCH  12  13
ATOM     13  C   UNL A   1      30.454  23.705  26.504  1.00  0.00     0.003 C 
ATOM     14  C   UNL A   1      29.494  22.749  27.187  1.00  0.00     0.004 C 
ENDBRANCH  12  13
ENDBRANCH   8  12
BRANCH   9  15
ATOM     15  C   UNL A   1      32.465  25.835  24.547  1.00  0.00     0.067 A 
ATOM     16  C   UNL A   1      31.553  26.328  23.609  1.00  0.00     0.028 A 
ATOM     17  C   UNL A   1      32.818  26.582  25.669  1.00  0.00     0.041 A 
ATOM     18  C   UNL A   1      30.881  27.517  23.878  1.00  0.00     0.003 A 
ATOM     19  C   UNL A   1      32.118  27.758  25.965  1.00  0.00     0.058 A 
ATOM     20  C   UNL A   1      31.143  28.213  25.062  1.00  0.00     0.013 A 
BRANCH  19  21
ATOM     21  C   UNL A   1      32.342  28.467  27.276  1.00  0.00     0.416 C 
ATOM     22  F   UNL A   1      31.727  27.852  28.322  1.00  0.00    -0.166 F 
ATOM     23  F   UNL A   1      33.663  28.538  27.603  1.00  0.00    -0.166 F 
ATOM     24  F   UNL A   1      31.896  29.755  27.281  1.00  0.00    -0.166 F 
ENDBRANCH  19  21
ENDBRANCH   9  15
ENDBRANCH   4   7
ENDBRANCH   2   3
ENDBRANCH   1   2
BRANCH   1  25
ATOM     25  C   UNL A   1      38.964  20.351  25.628  1.00  0.00     0.118 C 
BRANCH  25  26
ATOM     26  N   UNL A   1      39.897  19.214  25.718  1.00  0.00    -0.352 N 
ATOM     27  C   UNL A   1      41.263  19.227  25.966  1.00  0.00     0.251 C 
ATOM     28  H   UNL A   1      39.498  18.324  25.587  1.00  0.00     0.163 HD
ATOM     29  O   UNL A   1      41.961  18.267  25.727  1.00  0.00    -0.269 OA
BRANCH  27  30
ATOM     30  C   UNL A   1      41.825  20.462  26.534  1.00  0.00     0.039 A 
ATOM     31  C   UNL A   1      42.499  21.405  25.751  1.00  0.00     0.014 A 
ATOM     32  C   UNL A   1      41.529  20.704  27.867  1.00  0.00     0.014 A 
ATOM     33  C   UNL A   1      42.781  22.649  26.309  1.00  0.00     0.010 A 
ATOM     34  C   UNL A   1      41.579  21.988  28.316  1.00  0.00     0.010 A 
ATOM     35  C   UNL A   1      42.292  22.934  27.588  1.00  0.00    -0.014 A 
BRANCH  35  36
ATOM     36  C   UNL A   1      42.445  24.236  28.221  1.00  0.00     0.031 A 
ATOM     37  C   UNL A   1      41.304  25.177  28.033  1.00  0.00     0.074 A 
ATOM     38  C   UNL A   1      43.388  24.397  29.178  1.00  0.00     0.049 A 
ATOM     39  N   UNL A   1      41.311  26.338  27.464  1.00  0.00    -0.248 NA
ATOM     40  C   UNL A   1      39.957  24.714  28.411  1.00  0.00     0.031 C 
ATOM     41  C   UNL A   1      44.312  23.378  29.712  1.00  0.00     0.029 A 
ATOM     42  N   UNL A   1      43.577  25.435  30.030  1.00  0.00    -0.354 N 
ATOM     43  C   UNL A   1      40.018  26.845  27.622  1.00  0.00     0.074 A 
ATOM     44  C   UNL A   1      39.196  25.727  27.991  1.00  0.00     0.031 C 
ATOM     45  C   UNL A   1      44.719  23.743  30.945  1.00  0.00     0.029 A 
ATOM     46  C   UNL A   1      44.256  25.092  31.196  1.00  0.00     0.049 A 
ATOM     47  H   UNL A   1      43.263  26.349  29.841  1.00  0.00     0.167 HD
ATOM     48  C   UNL A   1      39.779  28.186  27.692  1.00  0.00     0.034 A 
ATOM     49  C   UNL A   1      44.374  25.843  32.315  1.00  0.00     0.034 A 
ATOM     50  C   UNL A   1      40.946  28.936  27.302  1.00  0.00     0.049 A 
ATOM     51  C   UNL A   1      44.037  27.234  31.936  1.00  0.00     0.074 A 
ATOM     52  C   UNL A   1      41.713  29.034  26.159  1.00  0.00     0.029 A 
ATOM     53  N   UNL A   1      41.709  29.450  28.323  1.00  0.00    -0.354 N 
ATOM     54  N   UNL A   1      44.741  27.942  31.097  1.00  0.00    -0.248 NA
ATOM     55  C   UNL A   1      42.666  27.674  32.134  1.00  0.00     0.031 C 
ATOM     56  C   UNL A   1      43.051  29.151  26.633  1.00  0.00     0.029 A 
ATOM     57  C   UNL A   1      43.019  29.191  28.030  1.00  0.00     0.049 A 
ATOM     58  H   UNL A   1      41.373  29.920  29.120  1.00  0.00     0.167 HD
ATOM     59  C   UNL A   1      43.795  28.616  30.334  1.00  0.00     0.074 A 
ATOM     60  C   UNL A   1      42.549  28.505  31.094  1.00  0.00     0.031 C 
ATOM     61  C   UNL A   1      44.037  28.932  29.029  1.00  0.00     0.034 A 
BRANCH  48  62
ATOM     62  C   UNL A   1      38.650  28.864  28.446  1.00  0.00     0.023 A 
ATOM     63  C   UNL A   1      37.771  29.675  27.688  1.00  0.00     0.012 A 
ATOM     64  C   UNL A   1      38.557  28.976  29.852  1.00  0.00     0.148 A 
ATOM     65  C   UNL A   1      36.903  30.593  28.290  1.00  0.00     0.002 A 
ATOM     66  C   UNL A   1      37.634  29.831  30.448  1.00  0.00     0.091 A 
ATOM     67  F   UNL A   1      39.443  28.361  30.637  1.00  0.00    -0.205 F 
ATOM     68  C   UNL A   1      36.830  30.669  29.673  1.00  0.00     0.022 A 
BRANCH  66  69
ATOM     69  S   UNL A   1      37.460  29.926  32.235  1.00  0.00     0.127 S 
ATOM     70  O   UNL A   1      37.194  28.533  32.579  1.00  0.00    -0.237 OA
ATOM     71  O   UNL A   1      38.776  30.424  32.639  1.00  0.00    -0.237 OA
ATOM     72  O   UNL A   1      36.372  30.867  32.470  1.00  0.00    -0.744 OA
ENDBRANCH  66  69
ENDBRANCH  48  62
BRANCH  49  73
ATOM     73  C   UNL A   1      44.510  25.409  33.723  1.00  0.00     0.023 A 
ATOM     74  C   UNL A   1      43.362  25.238  34.518  1.00  0.00     0.012 A 
ATOM     75  C   UNL A   1      45.743  24.923  34.213  1.00  0.00     0.148 A 
ATOM     76  C   UNL A   1      43.434  24.584  35.755  1.00  0.00     0.002 A 
ATOM     77  C   UNL A   1      45.811  24.280  35.446  1.00  0.00     0.091 A 
ATOM     78  F   UNL A   1      46.826  25.014  33.430  1.00  0.00    -0.205 F 
ATOM     79  C   UNL A   1      44.656  24.100  36.215  1.00  0.00     0.022 A 
BRANCH  77  80
ATOM     80  S   UNL A   1      47.348  23.609  36.096  1.00  0.00     0.127 S 
ATOM     81  O   UNL A   1      46.916  23.066  37.384  1.00  0.00    -0.237 OA
ATOM     82  O   UNL A   1      47.687  22.608  35.090  1.00  0.00    -0.237 OA
ATOM     83  O   UNL A   1      48.259  24.743  36.196  1.00  0.00    -0.744 OA
ENDBRANCH  77  80
ENDBRANCH  49  73
BRANCH  61  84
ATOM     84  C   UNL A   1      45.434  28.750  28.490  1.00  0.00     0.023 A 
ATOM     85  C   UNL A   1      45.868  27.537  27.914  1.00  0.00     0.012 A 
ATOM     86  C   UNL A   1      46.228  29.897  28.336  1.00  0.00     0.148 A 
ATOM     87  C   UNL A   1      47.068  27.471  27.200  1.00  0.00     0.002 A 
ATOM     88  C   UNL A   1      47.390  29.842  27.577  1.00  0.00     0.091 A 
ATOM     89  F   UNL A   1      45.798  31.042  28.889  1.00  0.00    -0.205 F 
ATOM     90  C   UNL A   1      47.819  28.630  27.014  1.00  0.00     0.022 A 
BRANCH  88  91
ATOM     91  S   UNL A   1      48.309  31.327  27.167  1.00  0.00     0.127 S 
ATOM     92  O   UNL A   1      48.610  31.874  28.488  1.00  0.00    -0.237 OA
ATOM     93  O   UNL A   1      49.465  30.791  26.447  1.00  0.00    -0.237 OA
ATOM     94  O   UNL A   1      47.418  32.135  26.342  1.00  0.00    -0.744 OA
ENDBRANCH  88  91
ENDBRANCH  61  84
ENDBRANCH  35  36
ENDBRANCH  27  30
ENDBRANCH  25  26
ENDBRANCH   1  25
TORSDOF 17
ENDMDL
MODEL 3
REMARK VINA RESULT:     -11.7      4.881      9.975
REMARK SMILES CCCc1c(C(=O)NCCCNC(=O)c2ccc(-c3c4nc(c(-c5cccc(S(=O)(=O)[O-])c5F)c5ccc([nH]5)c(-c5cccc(S(=O)(=O)[O-])c5F)c5nc(c(-c6cccc(S(=O)(=O)[O-])c6F)c6ccc3[nH]6)C=C5)C=C4)cc2)nnn1-c1cccc(C(F)(F)F)c1
REMARK SMILES IDX 10 1 9 2 8 3 6 4 7 5 5 7 4 8 80 9 78 10 79 11 3 12 2 13 1 14
REMARK SMILES IDX 81 15 82 16 90 17 83 18 85 19 84 20 86 21 87 22 88 23 89 24
REMARK SMILES IDX 11 25 12 26 13 27 14 29 15 30 16 31 77 32 17 33 76 34 18 35
REMARK SMILES IDX 19 36 20 37 70 38 21 39 75 40 69 41 71 42 22 43 74 44 68 45
REMARK SMILES IDX 67 46 23 48 55 49 35 50 54 51 36 52 39 53 53 54 72 55 37 56
REMARK SMILES IDX 38 57 52 59 73 60 40 61 24 62 25 63 33 64 26 65 28 66 34 67
REMARK SMILES IDX 27 68 29 69 30 70 31 71 32 72 56 73 57 74 65 75 58 76 60 77
REMARK SMILES IDX 66 78 59 79 61 80 62 81 63 82 64 83 41 84 42 85 50 86 43 87
REMARK SMILES IDX 45 88 51 89 44 90 46 91 47 92 48 93 49 94
REMARK H PARENT 8 6 12 28 71 47 39 58
REMARK Flexibility Score: inf
ROOT
ATOM      1  C   UNL A   1      37.869  19.704  24.966  1.00  0.00     0.042 C 
ENDROOT
BRANCH   1   2
ATOM      2  C   UNL A   1      36.702  20.672  25.193  1.00  0.00     0.118 C 
BRANCH   2   3
ATOM      3  N   UNL A   1      35.403  20.083  24.975  1.00  0.00    -0.351 N 
ATOM      4  C   UNL A   1      34.132  20.529  24.728  1.00  0.00     0.273 C 
ATOM      5  O   UNL A   1      33.367  19.633  24.354  1.00  0.00    -0.267 OA
ATOM      6  H   UNL A   1      35.441  19.099  25.014  1.00  0.00     0.163 HD
BRANCH   4   7
ATOM      7  C   UNL A   1      33.613  21.900  24.874  1.00  0.00     0.174 A 
ATOM      8  C   UNL A   1      34.108  23.215  24.796  1.00  0.00     0.078 A 
ATOM      9  N   UNL A   1      32.984  23.990  25.068  1.00  0.00    -0.217 N 
ATOM     10  N   UNL A   1      32.279  21.975  25.243  1.00  0.00    -0.124 NA
ATOM     11  N   UNL A   1      31.951  23.229  25.452  1.00  0.00    -0.061 NA
BRANCH   8  12
ATOM     12  C   UNL A   1      35.513  23.689  24.606  1.00  0.00     0.059 C 
BRANCH  12  13
ATOM     13  C   UNL A   1      36.476  24.216  25.662  1.00  0.00     0.003 C 
ATOM     14  C   UNL A   1      37.927  23.789  25.531  1.00  0.00     0.004 C 
ENDBRANCH  12  13
ENDBRANCH   8  12
BRANCH   9  15
ATOM     15  C   UNL A   1      32.811  25.383  25.055  1.00  0.00     0.067 A 
ATOM     16  C   UNL A   1      32.548  26.037  26.262  1.00  0.00     0.028 A 
ATOM     17  C   UNL A   1      32.988  26.099  23.873  1.00  0.00     0.041 A 
ATOM     18  C   UNL A   1      32.609  27.427  26.307  1.00  0.00     0.003 A 
ATOM     19  C   UNL A   1      33.091  27.494  23.918  1.00  0.00     0.058 A 
ATOM     20  C   UNL A   1      32.905  28.149  25.147  1.00  0.00     0.013 A 
BRANCH  19  21
ATOM     21  C   UNL A   1      33.486  28.268  22.687  1.00  0.00     0.416 C 
ATOM     22  F   UNL A   1      34.648  28.959  22.847  1.00  0.00    -0.166 F 
ATOM     23  F   UNL A   1      33.675  27.458  21.608  1.00  0.00    -0.166 F 
ATOM     24  F   UNL A   1      32.555  29.184  22.297  1.00  0.00    -0.166 F 
ENDBRANCH  19  21
ENDBRANCH   9  15
ENDBRANCH   4   7
ENDBRANCH   2   3
ENDBRANCH   1   2
BRANCH   1  25
ATOM     25  C   UNL A   1      39.135  20.185  25.645  1.00  0.00     0.118 C 
BRANCH  25  26
ATOM     26  N   UNL A   1      40.119  19.096  25.774  1.00  0.00    -0.352 N 
ATOM     27  C   UNL A   1      41.488  19.180  25.988  1.00  0.00     0.251 C 
ATOM     28  H   UNL A   1      39.756  18.183  25.699  1.00  0.00     0.163 HD
ATOM     29  O   UNL A   1      42.222  18.239  25.785  1.00  0.00    -0.269 OA
BRANCH  27  30
ATOM     30  C   UNL A   1      42.007  20.467  26.477  1.00  0.00     0.039 A 
ATOM     31  C   UNL A   1      42.388  21.496  25.610  1.00  0.00     0.014 A 
ATOM     32  C   UNL A   1      41.967  20.653  27.851  1.00  0.00     0.014 A 
ATOM     33  C   UNL A   1      42.633  22.758  26.146  1.00  0.00     0.010 A 
ATOM     34  C   UNL A   1      41.958  21.927  28.329  1.00  0.00     0.010 A 
ATOM     35  C   UNL A   1      42.390  22.963  27.508  1.00  0.00    -0.014 A 
BRANCH  35  36
ATOM     36  C   UNL A   1      42.517  24.265  28.146  1.00  0.00     0.031 A 
ATOM     37  C   UNL A   1      41.352  25.179  27.973  1.00  0.00     0.074 A 
ATOM     38  C   UNL A   1      43.464  24.444  29.096  1.00  0.00     0.049 A 
ATOM     39  N   UNL A   1      41.326  26.343  27.410  1.00  0.00    -0.248 NA
ATOM     40  C   UNL A   1      40.020  24.683  28.360  1.00  0.00     0.031 C 
ATOM     41  C   UNL A   1      44.417  23.445  29.617  1.00  0.00     0.029 A 
ATOM     42  N   UNL A   1      43.635  25.482  29.951  1.00  0.00    -0.354 N 
ATOM     43  C   UNL A   1      40.023  26.818  27.582  1.00  0.00     0.074 A 
ATOM     44  C   UNL A   1      39.231  25.679  27.952  1.00  0.00     0.031 C 
ATOM     45  C   UNL A   1      44.825  23.814  30.848  1.00  0.00     0.029 A 
ATOM     46  C   UNL A   1      44.332  25.149  31.110  1.00  0.00     0.049 A 
ATOM     47  H   UNL A   1      43.298  26.389  29.769  1.00  0.00     0.167 HD
ATOM     48  C   UNL A   1      39.752  28.153  27.660  1.00  0.00     0.034 A 
ATOM     49  C   UNL A   1      44.443  25.898  32.231  1.00  0.00     0.034 A 
ATOM     50  C   UNL A   1      40.897  28.933  27.264  1.00  0.00     0.049 A 
ATOM     51  C   UNL A   1      44.069  27.283  31.862  1.00  0.00     0.074 A 
ATOM     52  C   UNL A   1      41.652  29.054  26.115  1.00  0.00     0.029 A 
ATOM     53  N   UNL A   1      41.657  29.460  28.281  1.00  0.00    -0.354 N 
ATOM     54  N   UNL A   1      44.749  28.011  31.021  1.00  0.00    -0.248 NA
ATOM     55  C   UNL A   1      42.690  27.689  32.074  1.00  0.00     0.031 C 
ATOM     56  C   UNL A   1      42.991  29.201  26.578  1.00  0.00     0.029 A 
ATOM     57  C   UNL A   1      42.971  29.233  27.976  1.00  0.00     0.049 A 
ATOM     58  H   UNL A   1      41.317  29.918  29.083  1.00  0.00     0.167 HD
ATOM     59  C   UNL A   1      43.780  28.666  30.270  1.00  0.00     0.074 A 
ATOM     60  C   UNL A   1      42.544  28.521  31.039  1.00  0.00     0.031 C 
ATOM     61  C   UNL A   1      44.003  28.994  28.964  1.00  0.00     0.034 A 
BRANCH  48  62
ATOM     62  C   UNL A   1      38.615  28.800  28.427  1.00  0.00     0.023 A 
ATOM     63  C   UNL A   1      37.739  29.634  27.690  1.00  0.00     0.012 A 
ATOM     64  C   UNL A   1      38.509  28.862  29.835  1.00  0.00     0.148 A 
ATOM     65  C   UNL A   1      36.862  30.528  28.316  1.00  0.00     0.002 A 
ATOM     66  C   UNL A   1      37.577  29.693  30.453  1.00  0.00     0.091 A 
ATOM     67  F   UNL A   1      39.390  28.223  30.607  1.00  0.00    -0.205 F 
ATOM     68  C   UNL A   1      36.777  30.554  29.701  1.00  0.00     0.022 A 
BRANCH  66  69
ATOM     69  S   UNL A   1      37.387  29.724  32.241  1.00  0.00     0.127 S 
ATOM     70  O   UNL A   1      37.340  28.300  32.556  1.00  0.00    -0.237 OA
ATOM     71  O   UNL A   1      38.609  30.412  32.661  1.00  0.00    -0.237 OA
ATOM     72  O   UNL A   1      36.165  30.479  32.488  1.00  0.00    -0.744 OA
ENDBRANCH  66  69
ENDBRANCH  48  62
BRANCH  49  73
ATOM     73  C   UNL A   1      44.601  25.460  33.636  1.00  0.00     0.023 A 
ATOM     74  C   UNL A   1      43.464  25.254  34.439  1.00  0.00     0.012 A 
ATOM     75  C   UNL A   1      45.850  25.005  34.114  1.00  0.00     0.148 A 
ATOM     76  C   UNL A   1      43.564  24.596  35.672  1.00  0.00     0.002 A 
ATOM     77  C   UNL A   1      45.946  24.358  35.343  1.00  0.00     0.091 A 
ATOM     78  F   UNL A   1      46.925  25.130  33.323  1.00  0.00    -0.205 F 
ATOM     79  C   UNL A   1      44.802  24.142  36.120  1.00  0.00     0.022 A 
BRANCH  77  80
ATOM     80  S   UNL A   1      47.505  23.726  35.978  1.00  0.00     0.127 S 
ATOM     81  O   UNL A   1      48.306  24.947  36.076  1.00  0.00    -0.237 OA
ATOM     82  O   UNL A   1      47.098  23.154  37.257  1.00  0.00    -0.237 OA
ATOM     83  O   UNL A   1      47.978  22.776  34.979  1.00  0.00    -0.744 OA
ENDBRANCH  77  80
ENDBRANCH  49  73
BRANCH  61  84
ATOM     84  C   UNL A   1      45.399  28.848  28.412  1.00  0.00     0.023 A 
ATOM     85  C   UNL A   1      46.418  29.785  28.680  1.00  0.00     0.012 A 
ATOM     86  C   UNL A   1      45.744  27.617  27.831  1.00  0.00     0.148 A 
ATOM     87  C   UNL A   1      47.753  29.501  28.376  1.00  0.00     0.002 A 
ATOM     88  C   UNL A   1      47.077  27.314  27.583  1.00  0.00     0.091 A 
ATOM     89  F   UNL A   1      44.762  26.737  27.585  1.00  0.00    -0.205 F 
ATOM     90  C   UNL A   1      48.085  28.256  27.846  1.00  0.00     0.022 A 
BRANCH  88  91
ATOM     91  S   UNL A   1      47.580  25.675  27.056  1.00  0.00     0.127 S 
ATOM     92  O   UNL A   1      49.036  25.795  27.034  1.00  0.00    -0.237 OA
ATOM     93  O   UNL A   1      47.051  24.827  28.126  1.00  0.00    -0.237 OA
ATOM     94  O   UNL A   1      46.949  25.458  25.760  1.00  0.00    -0.744 OA
ENDBRANCH  88  91
ENDBRANCH  61  84
ENDBRANCH  35  36
ENDBRANCH  27  30
ENDBRANCH  25  26
ENDBRANCH   1  25
TORSDOF 17
ENDMDL
