MODEL 1
REMARK VINA RESULT:     -10.9      0.000      0.000
REMARK SMILES C[C@H](CC(=O)NCCCNC(=O)c1ccc(-c2c3nc(c(-c4cccc(S(=O)(=O)[O-])c4F)c4ccc([nH]4)c(-c4cccc(S(=O)(=O)[O-])c4F)c4nc(c(-c5cccc(S(=O)(=O)[O-])c5F)c5ccc2[nH]5)C=C4)C=C3)cc1)NC(=O)Cc1cn2ccsc2n1
REMARK SMILES IDX 7 1 6 2 4 3 5 4 3 6 2 7 1 8 76 9 77 10 78 12 79 13 80 14
REMARK SMILES IDX 81 15 87 16 82 17 86 18 83 19 85 20 84 21 8 22 9 23 10 24
REMARK SMILES IDX 11 25 12 27 13 28 14 29 75 30 15 31 74 32 16 33 17 34 18 35
REMARK SMILES IDX 68 36 19 37 73 38 67 39 69 40 20 41 72 42 66 43 65 44 21 46
REMARK SMILES IDX 53 47 33 48 52 49 34 50 37 51 51 52 70 53 35 54 36 55 50 57
REMARK SMILES IDX 71 58 38 59 22 60 23 61 31 62 24 63 26 64 32 65 25 66 27 67
REMARK SMILES IDX 28 68 29 69 30 70 54 71 55 72 63 73 56 74 58 75 64 76 57 77
REMARK SMILES IDX 59 78 60 79 61 80 62 81 39 82 40 83 48 84 41 85 43 86 49 87
REMARK SMILES IDX 42 88 44 89 45 90 46 91 47 92
REMARK H PARENT 6 5 76 11 10 26 69 45 37 56
REMARK Flexibility Score: inf
ROOT
ATOM      1  C   UNL A   1      31.661  27.752  26.197  1.00  0.00     0.117 C 
ENDROOT
BRANCH   1   2
ATOM      2  N   UNL A   1      30.999  26.547  26.669  1.00  0.00    -0.356 N 
ATOM      3  C   UNL A   1      30.921  25.312  26.105  1.00  0.00     0.222 C 
ATOM      4  O   UNL A   1      30.317  24.426  26.711  1.00  0.00    -0.275 OA
ATOM      5  H   UNL A   1      30.538  26.638  27.534  1.00  0.00     0.163 HD
BRANCH   3   6
ATOM      6  C   UNL A   1      31.555  25.037  24.761  1.00  0.00     0.124 C 
BRANCH   6   7
ATOM      7  C   UNL A   1      33.020  24.574  24.800  1.00  0.00     0.088 C 
ATOM      8  C   UNL A   1      34.064  25.567  24.300  1.00  0.00     0.031 C 
BRANCH   7   9
ATOM      9  N   UNL A   1      33.363  24.060  26.127  1.00  0.00    -0.353 N 
ATOM     10  C   UNL A   1      34.182  23.017  26.468  1.00  0.00     0.226 C 
ATOM     11  H   UNL A   1      32.947  24.534  26.883  1.00  0.00     0.163 HD
ATOM     12  O   UNL A   1      34.221  22.683  27.654  1.00  0.00    -0.275 OA
BRANCH  10  13
ATOM     13  C   UNL A   1      35.074  22.370  25.426  1.00  0.00     0.157 C 
BRANCH  13  14
ATOM     14  C   UNL A   1      34.565  21.053  24.946  1.00  0.00     0.070 A 
ATOM     15  C   UNL A   1      33.284  20.754  24.484  1.00  0.00     0.118 A 
ATOM     16  N   UNL A   1      35.358  19.914  24.974  1.00  0.00    -0.223 NA
ATOM     17  N   UNL A   1      33.299  19.409  24.284  1.00  0.00    -0.297 N 
ATOM     18  C   UNL A   1      34.556  18.972  24.569  1.00  0.00     0.193 A 
ATOM     19  C   UNL A   1      32.398  18.437  23.917  1.00  0.00     0.104 A 
ATOM     20  S   UNL A   1      34.681  17.252  24.370  1.00  0.00    -0.105 S 
ATOM     21  C   UNL A   1      32.967  17.219  23.911  1.00  0.00     0.087 A 
ENDBRANCH  13  14
ENDBRANCH  10  13
ENDBRANCH   7   9
ENDBRANCH   6   7
ENDBRANCH   3   6
ENDBRANCH   1   2
BRANCH   1  22
ATOM     22  C   UNL A   1      32.925  28.088  26.985  1.00  0.00     0.042 C 
BRANCH  22  23
ATOM     23  C   UNL A   1      33.881  29.038  26.272  1.00  0.00     0.118 C 
BRANCH  23  24
ATOM     24  N   UNL A   1      33.772  30.397  26.775  1.00  0.00    -0.352 N 
ATOM     25  C   UNL A   1      34.516  31.034  27.737  1.00  0.00     0.251 C 
ATOM     26  H   UNL A   1      33.061  30.941  26.365  1.00  0.00     0.163 HD
ATOM     27  O   UNL A   1      34.117  32.099  28.198  1.00  0.00    -0.269 OA
BRANCH  25  28
ATOM     28  C   UNL A   1      35.783  30.442  28.223  1.00  0.00     0.039 A 
ATOM     29  C   UNL A   1      36.942  30.607  27.458  1.00  0.00     0.014 A 
ATOM     30  C   UNL A   1      35.828  29.692  29.401  1.00  0.00     0.014 A 
ATOM     31  C   UNL A   1      38.149  30.056  27.896  1.00  0.00     0.010 A 
ATOM     32  C   UNL A   1      37.046  29.212  29.876  1.00  0.00     0.010 A 
ATOM     33  C   UNL A   1      38.218  29.373  29.122  1.00  0.00    -0.014 A 
BRANCH  33  34
ATOM     34  C   UNL A   1      39.504  28.820  29.624  1.00  0.00     0.031 A 
ATOM     35  C   UNL A   1      40.246  29.509  30.738  1.00  0.00     0.074 A 
ATOM     36  C   UNL A   1      40.040  27.736  29.030  1.00  0.00     0.049 A 
ATOM     37  N   UNL A   1      41.402  29.206  31.272  1.00  0.00    -0.248 NA
ATOM     38  C   UNL A   1      39.622  30.713  31.313  1.00  0.00     0.031 C 
ATOM     39  C   UNL A   1      39.456  27.014  27.898  1.00  0.00     0.029 A 
ATOM     40  N   UNL A   1      41.213  27.065  29.279  1.00  0.00    -0.354 N 
ATOM     41  C   UNL A   1      41.659  30.194  32.215  1.00  0.00     0.074 A 
ATOM     42  C   UNL A   1      40.556  31.127  32.157  1.00  0.00     0.031 C 
ATOM     43  C   UNL A   1      40.266  26.000  27.555  1.00  0.00     0.029 A 
ATOM     44  C   UNL A   1      41.445  26.021  28.414  1.00  0.00     0.049 A 
ATOM     45  H   UNL A   1      41.828  27.307  30.009  1.00  0.00     0.167 HD
ATOM     46  C   UNL A   1      42.704  30.304  33.069  1.00  0.00     0.034 A 
ATOM     47  C   UNL A   1      42.497  25.184  28.311  1.00  0.00     0.034 A 
ATOM     48  C   UNL A   1      43.785  29.357  33.145  1.00  0.00     0.049 A 
ATOM     49  C   UNL A   1      43.638  25.318  29.283  1.00  0.00     0.074 A 
ATOM     50  C   UNL A   1      44.848  29.336  34.030  1.00  0.00     0.029 A 
ATOM     51  N   UNL A   1      43.952  28.274  32.295  1.00  0.00    -0.354 N 
ATOM     52  N   UNL A   1      43.792  26.174  30.263  1.00  0.00    -0.248 NA
ATOM     53  C   UNL A   1      44.735  24.347  29.157  1.00  0.00     0.031 C 
ATOM     54  C   UNL A   1      45.681  28.265  33.690  1.00  0.00     0.029 A 
ATOM     55  C   UNL A   1      45.109  27.588  32.625  1.00  0.00     0.049 A 
ATOM     56  H   UNL A   1      43.339  28.029  31.566  1.00  0.00     0.167 HD
ATOM     57  C   UNL A   1      44.977  25.819  30.896  1.00  0.00     0.074 A 
ATOM     58  C   UNL A   1      45.493  24.660  30.198  1.00  0.00     0.031 C 
ATOM     59  C   UNL A   1      45.589  26.407  31.955  1.00  0.00     0.034 A 
BRANCH  46  60
ATOM     60  C   UNL A   1      42.717  31.475  34.018  1.00  0.00     0.023 A 
ATOM     61  C   UNL A   1      43.281  32.702  33.610  1.00  0.00     0.012 A 
ATOM     62  C   UNL A   1      42.117  31.382  35.289  1.00  0.00     0.148 A 
ATOM     63  C   UNL A   1      43.283  33.803  34.465  1.00  0.00     0.002 A 
ATOM     64  C   UNL A   1      42.078  32.497  36.117  1.00  0.00     0.091 A 
ATOM     65  F   UNL A   1      41.600  30.203  35.667  1.00  0.00    -0.205 F 
ATOM     66  C   UNL A   1      42.673  33.704  35.713  1.00  0.00     0.022 A 
BRANCH  64  67
ATOM     67  S   UNL A   1      41.243  32.499  37.707  1.00  0.00     0.127 S 
ATOM     68  O   UNL A   1      39.925  31.975  37.349  1.00  0.00    -0.237 OA
ATOM     69  O   UNL A   1      42.072  31.581  38.489  1.00  0.00    -0.237 OA
ATOM     70  O   UNL A   1      41.259  33.879  38.170  1.00  0.00    -0.744 OA
ENDBRANCH  64  67
ENDBRANCH  46  60
BRANCH  47  71
ATOM     71  C   UNL A   1      42.502  24.114  27.273  1.00  0.00     0.023 A 
ATOM     72  C   UNL A   1      43.314  24.255  26.132  1.00  0.00     0.012 A 
ATOM     73  C   UNL A   1      41.713  22.957  27.416  1.00  0.00     0.148 A 
ATOM     74  C   UNL A   1      43.313  23.280  25.133  1.00  0.00     0.002 A 
ATOM     75  C   UNL A   1      41.760  21.963  26.447  1.00  0.00     0.091 A 
ATOM     76  F   UNL A   1      40.942  22.846  28.507  1.00  0.00    -0.205 F 
ATOM     77  C   UNL A   1      42.543  22.131  25.295  1.00  0.00     0.022 A 
BRANCH  75  78
ATOM     78  S   UNL A   1      40.900  20.398  26.627  1.00  0.00     0.127 S 
ATOM     79  O   UNL A   1      39.582  20.716  26.082  1.00  0.00    -0.237 OA
ATOM     80  O   UNL A   1      41.714  19.511  25.796  1.00  0.00    -0.237 OA
ATOM     81  O   UNL A   1      40.935  20.089  28.051  1.00  0.00    -0.744 OA
ENDBRANCH  75  78
ENDBRANCH  47  71
BRANCH  59  82
ATOM     82  C   UNL A   1      46.859  25.779  32.469  1.00  0.00     0.023 A 
ATOM     83  C   UNL A   1      48.111  26.208  31.983  1.00  0.00     0.012 A 
ATOM     84  C   UNL A   1      46.810  24.809  33.490  1.00  0.00     0.148 A 
ATOM     85  C   UNL A   1      49.290  25.653  32.478  1.00  0.00     0.002 A 
ATOM     86  C   UNL A   1      47.990  24.302  34.017  1.00  0.00     0.091 A 
ATOM     87  F   UNL A   1      45.610  24.403  33.927  1.00  0.00    -0.205 F 
ATOM     88  C   UNL A   1      49.231  24.711  33.503  1.00  0.00     0.022 A 
BRANCH  86  89
ATOM     89  S   UNL A   1      48.016  23.162  35.406  1.00  0.00     0.127 S 
ATOM     90  O   UNL A   1      47.298  23.923  36.428  1.00  0.00    -0.237 OA
ATOM     91  O   UNL A   1      47.283  22.013  34.874  1.00  0.00    -0.237 OA
ATOM     92  O   UNL A   1      49.420  22.907  35.692  1.00  0.00    -0.744 OA
ENDBRANCH  86  89
ENDBRANCH  59  82
ENDBRANCH  33  34
ENDBRANCH  25  28
ENDBRANCH  23  24
ENDBRANCH  22  23
ENDBRANCH   1  22
TORSDOF 17
ENDMDL
MODEL 2
REMARK VINA RESULT:     -10.8      3.475      8.737
REMARK SMILES C[C@H](CC(=O)NCCCNC(=O)c1ccc(-c2c3nc(c(-c4cccc(S(=O)(=O)[O-])c4F)c4ccc([nH]4)c(-c4cccc(S(=O)(=O)[O-])c4F)c4nc(c(-c5cccc(S(=O)(=O)[O-])c5F)c5ccc2[nH]5)C=C4)C=C3)cc1)NC(=O)Cc1cn2ccsc2n1
REMARK SMILES IDX 7 1 6 2 4 3 5 4 3 6 2 7 1 8 76 9 77 10 78 12 79 13 80 14
REMARK SMILES IDX 81 15 87 16 82 17 86 18 83 19 85 20 84 21 8 22 9 23 10 24
REMARK SMILES IDX 11 25 12 27 13 28 14 29 75 30 15 31 74 32 16 33 17 34 18 35
REMARK SMILES IDX 68 36 19 37 73 38 67 39 69 40 20 41 72 42 66 43 65 44 21 46
REMARK SMILES IDX 53 47 33 48 52 49 34 50 37 51 51 52 70 53 35 54 36 55 50 57
REMARK SMILES IDX 71 58 38 59 22 60 23 61 31 62 24 63 26 64 32 65 25 66 27 67
REMARK SMILES IDX 28 68 29 69 30 70 54 71 55 72 63 73 56 74 58 75 64 76 57 77
REMARK SMILES IDX 59 78 60 79 61 80 62 81 39 82 40 83 48 84 41 85 43 86 49 87
REMARK SMILES IDX 42 88 44 89 45 90 46 91 47 92
REMARK H PARENT 6 5 76 11 10 26 69 45 37 56
REMARK Flexibility Score: inf
ROOT
ATOM      1  C   UNL A   1      31.521  30.512  26.394  1.00  0.00     0.117 C 
ENDROOT
BRANCH   1   2
ATOM      2  N   UNL A   1      32.147  30.226  25.114  1.00  0.00    -0.356 N 
ATOM      3  C   UNL A   1      32.841  29.131  24.704  1.00  0.00     0.222 C 
ATOM      4  O   UNL A   1      33.264  29.103  23.547  1.00  0.00    -0.275 OA
ATOM      5  H   UNL A   1      32.052  30.935  24.438  1.00  0.00     0.163 HD
BRANCH   3   6
ATOM      6  C   UNL A   1      33.093  27.979  25.648  1.00  0.00     0.124 C 
BRANCH   6   7
ATOM      7  C   UNL A   1      32.348  26.676  25.320  1.00  0.00     0.088 C 
ATOM      8  C   UNL A   1      30.853  26.651  25.618  1.00  0.00     0.031 C 
BRANCH   7   9
ATOM      9  N   UNL A   1      32.626  26.254  23.947  1.00  0.00    -0.353 N 
ATOM     10  C   UNL A   1      33.697  25.557  23.453  1.00  0.00     0.226 C 
ATOM     11  H   UNL A   1      31.945  26.507  23.282  1.00  0.00     0.163 HD
ATOM     12  O   UNL A   1      33.780  25.426  22.230  1.00  0.00    -0.275 OA
BRANCH  10  13
ATOM     13  C   UNL A   1      34.681  24.895  24.397  1.00  0.00     0.157 C 
BRANCH  13  14
ATOM     14  C   UNL A   1      34.454  23.430  24.558  1.00  0.00     0.070 A 
ATOM     15  C   UNL A   1      35.399  22.451  24.860  1.00  0.00     0.118 A 
ATOM     16  N   UNL A   1      33.205  22.862  24.347  1.00  0.00    -0.223 NA
ATOM     17  N   UNL A   1      34.715  21.279  24.776  1.00  0.00    -0.297 N 
ATOM     18  C   UNL A   1      33.420  21.586  24.492  1.00  0.00     0.193 A 
ATOM     19  C   UNL A   1      35.003  19.938  24.871  1.00  0.00     0.104 A 
ATOM     20  S   UNL A   1      32.456  20.152  24.338  1.00  0.00    -0.105 S 
ATOM     21  C   UNL A   1      33.909  19.185  24.663  1.00  0.00     0.087 A 
ENDBRANCH  13  14
ENDBRANCH  10  13
ENDBRANCH   7   9
ENDBRANCH   6   7
ENDBRANCH   3   6
ENDBRANCH   1   2
BRANCH   1  22
ATOM     22  C   UNL A   1      31.440  32.006  26.700  1.00  0.00     0.042 C 
BRANCH  22  23
ATOM     23  C   UNL A   1      32.759  32.634  27.136  1.00  0.00     0.118 C 
BRANCH  23  24
ATOM     24  N   UNL A   1      32.580  33.993  27.623  1.00  0.00    -0.352 N 
ATOM     25  C   UNL A   1      33.155  34.615  28.703  1.00  0.00     0.251 C 
ATOM     26  H   UNL A   1      31.956  34.547  27.101  1.00  0.00     0.163 HD
ATOM     27  O   UNL A   1      32.694  35.683  29.096  1.00  0.00    -0.269 OA
BRANCH  25  28
ATOM     28  C   UNL A   1      34.314  34.007  29.394  1.00  0.00     0.039 A 
ATOM     29  C   UNL A   1      35.603  34.411  29.034  1.00  0.00     0.014 A 
ATOM     30  C   UNL A   1      34.141  33.012  30.360  1.00  0.00     0.014 A 
ATOM     31  C   UNL A   1      36.712  33.848  29.671  1.00  0.00     0.010 A 
ATOM     32  C   UNL A   1      35.243  32.511  31.050  1.00  0.00     0.010 A 
ATOM     33  C   UNL A   1      36.542  32.910  30.703  1.00  0.00    -0.014 A 
BRANCH  33  34
ATOM     34  C   UNL A   1      37.710  32.336  31.422  1.00  0.00     0.031 A 
ATOM     35  C   UNL A   1      38.497  31.204  30.814  1.00  0.00     0.074 A 
ATOM     36  C   UNL A   1      38.022  32.784  32.654  1.00  0.00     0.049 A 
ATOM     37  N   UNL A   1      39.510  30.543  31.312  1.00  0.00    -0.248 NA
ATOM     38  C   UNL A   1      38.074  30.735  29.484  1.00  0.00     0.031 C 
ATOM     39  C   UNL A   1      37.300  33.829  33.383  1.00  0.00     0.029 A 
ATOM     40  N   UNL A   1      39.013  32.401  33.524  1.00  0.00    -0.354 N 
ATOM     41  C   UNL A   1      39.823  29.563  30.378  1.00  0.00     0.074 A 
ATOM     42  C   UNL A   1      38.870  29.692  29.297  1.00  0.00     0.031 C 
ATOM     43  C   UNL A   1      37.873  34.008  34.582  1.00  0.00     0.029 A 
ATOM     44  C   UNL A   1      38.979  33.066  34.727  1.00  0.00     0.049 A 
ATOM     45  H   UNL A   1      39.686  31.716  33.306  1.00  0.00     0.167 HD
ATOM     46  C   UNL A   1      40.827  28.653  30.402  1.00  0.00     0.034 A 
ATOM     47  C   UNL A   1      39.740  32.923  35.831  1.00  0.00     0.034 A 
ATOM     48  C   UNL A   1      41.792  28.547  31.464  1.00  0.00     0.049 A 
ATOM     49  C   UNL A   1      40.858  31.917  35.825  1.00  0.00     0.074 A 
ATOM     50  C   UNL A   1      42.893  27.713  31.543  1.00  0.00     0.029 A 
ATOM     51  N   UNL A   1      41.764  29.284  32.637  1.00  0.00    -0.354 N 
ATOM     52  N   UNL A   1      41.227  31.098  34.871  1.00  0.00    -0.248 NA
ATOM     53  C   UNL A   1      41.687  31.838  37.037  1.00  0.00     0.031 C 
ATOM     54  C   UNL A   1      43.507  27.916  32.783  1.00  0.00     0.029 A 
ATOM     55  C   UNL A   1      42.819  28.913  33.454  1.00  0.00     0.049 A 
ATOM     56  H   UNL A   1      41.093  29.970  32.857  1.00  0.00     0.167 HD
ATOM     57  C   UNL A   1      42.355  30.440  35.348  1.00  0.00     0.074 A 
ATOM     58  C   UNL A   1      42.617  30.968  36.671  1.00  0.00     0.031 C 
ATOM     59  C   UNL A   1      43.100  29.479  34.749  1.00  0.00     0.034 A 
BRANCH  46  60
ATOM     60  C   UNL A   1      40.956  27.717  29.227  1.00  0.00     0.023 A 
ATOM     61  C   UNL A   1      40.228  26.508  29.212  1.00  0.00     0.012 A 
ATOM     62  C   UNL A   1      41.746  28.060  28.112  1.00  0.00     0.148 A 
ATOM     63  C   UNL A   1      40.317  25.638  28.125  1.00  0.00     0.002 A 
ATOM     64  C   UNL A   1      41.791  27.212  27.012  1.00  0.00     0.091 A 
ATOM     65  F   UNL A   1      42.443  29.204  28.152  1.00  0.00    -0.205 F 
ATOM     66  C   UNL A   1      41.089  25.995  27.022  1.00  0.00     0.022 A 
BRANCH  64  67
ATOM     67  S   UNL A   1      42.686  27.618  25.510  1.00  0.00     0.127 S 
ATOM     68  O   UNL A   1      42.051  28.875  25.117  1.00  0.00    -0.237 OA
ATOM     69  O   UNL A   1      44.058  27.754  25.998  1.00  0.00    -0.237 OA
ATOM     70  O   UNL A   1      42.472  26.502  24.599  1.00  0.00    -0.744 OA
ENDBRANCH  64  67
ENDBRANCH  46  60
BRANCH  47  71
ATOM     71  C   UNL A   1      39.498  33.787  37.022  1.00  0.00     0.023 A 
ATOM     72  C   UNL A   1      39.889  35.139  36.992  1.00  0.00     0.012 A 
ATOM     73  C   UNL A   1      38.874  33.277  38.177  1.00  0.00     0.148 A 
ATOM     74  C   UNL A   1      39.699  35.959  38.105  1.00  0.00     0.002 A 
ATOM     75  C   UNL A   1      38.636  34.113  39.260  1.00  0.00     0.091 A 
ATOM     76  F   UNL A   1      38.516  31.986  38.186  1.00  0.00    -0.205 F 
ATOM     77  C   UNL A   1      39.065  35.449  39.235  1.00  0.00     0.022 A 
BRANCH  75  78
ATOM     78  S   UNL A   1      37.718  33.578  40.707  1.00  0.00     0.127 S 
ATOM     79  O   UNL A   1      37.550  34.834  41.436  1.00  0.00    -0.237 OA
ATOM     80  O   UNL A   1      36.496  33.045  40.107  1.00  0.00    -0.237 OA
ATOM     81  O   UNL A   1      38.555  32.579  41.359  1.00  0.00    -0.744 OA
ENDBRANCH  75  78
ENDBRANCH  47  71
BRANCH  59  82
ATOM     82  C   UNL A   1      44.310  28.966  35.487  1.00  0.00     0.023 A 
ATOM     83  C   UNL A   1      45.564  29.583  35.312  1.00  0.00     0.012 A 
ATOM     84  C   UNL A   1      44.182  27.910  36.413  1.00  0.00     0.148 A 
ATOM     85  C   UNL A   1      46.680  29.132  36.018  1.00  0.00     0.002 A 
ATOM     86  C   UNL A   1      45.285  27.504  37.152  1.00  0.00     0.091 A 
ATOM     87  F   UNL A   1      42.984  27.325  36.553  1.00  0.00    -0.205 F 
ATOM     88  C   UNL A   1      46.538  28.103  36.946  1.00  0.00     0.022 A 
BRANCH  86  89
ATOM     89  S   UNL A   1      45.177  26.257  38.442  1.00  0.00     0.127 S 
ATOM     90  O   UNL A   1      44.800  25.070  37.677  1.00  0.00    -0.237 OA
ATOM     91  O   UNL A   1      46.543  26.237  38.966  1.00  0.00    -0.237 OA
ATOM     92  O   UNL A   1      44.174  26.737  39.382  1.00  0.00    -0.744 OA
ENDBRANCH  86  89
ENDBRANCH  59  82
ENDBRANCH  33  34
ENDBRANCH  25  28
ENDBRANCH  23  24
ENDBRANCH  22  23
ENDBRANCH   1  22
TORSDOF 17
ENDMDL
MODEL 3
REMARK VINA RESULT:     -10.8      2.568      3.844
REMARK SMILES C[C@H](CC(=O)NCCCNC(=O)c1ccc(-c2c3nc(c(-c4cccc(S(=O)(=O)[O-])c4F)c4ccc([nH]4)c(-c4cccc(S(=O)(=O)[O-])c4F)c4nc(c(-c5cccc(S(=O)(=O)[O-])c5F)c5ccc2[nH]5)C=C4)C=C3)cc1)NC(=O)Cc1cn2ccsc2n1
REMARK SMILES IDX 7 1 6 2 4 3 5 4 3 6 2 7 1 8 76 9 77 10 78 12 79 13 80 14
REMARK SMILES IDX 81 15 87 16 82 17 86 18 83 19 85 20 84 21 8 22 9 23 10 24
REMARK SMILES IDX 11 25 12 27 13 28 14 29 75 30 15 31 74 32 16 33 17 34 18 35
REMARK SMILES IDX 68 36 19 37 73 38 67 39 69 40 20 41 72 42 66 43 65 44 21 46
REMARK SMILES IDX 53 47 33 48 52 49 34 50 37 51 51 52 70 53 35 54 36 55 50 57
REMARK SMILES IDX 71 58 38 59 22 60 23 61 31 62 24 63 26 64 32 65 25 66 27 67
REMARK SMILES IDX 28 68 29 69 30 70 54 71 55 72 63 73 56 74 58 75 64 76 57 77
REMARK SMILES IDX 59 78 60 79 61 80 62 81 39 82 40 83 48 84 41 85 43 86 49 87
REMARK SMILES IDX 42 88 44 89 45 90 46 91 47 92
REMARK H PARENT 6 5 76 11 10 26 69 45 37 56
REMARK Flexibility Score: inf
ROOT
ATOM      1  C   UNL A   1      32.871  26.821  26.155  1.00  0.00     0.117 C 
ENDROOT
BRANCH   1   2
ATOM      2  N   UNL A   1      31.955  25.703  26.298  1.00  0.00    -0.356 N 
ATOM      3  C   UNL A   1      32.210  24.376  26.454  1.00  0.00     0.222 C 
ATOM      4  O   UNL A   1      31.258  23.605  26.582  1.00  0.00    -0.275 OA
ATOM      5  H   UNL A   1      31.000  25.943  26.281  1.00  0.00     0.163 HD
BRANCH   3   6
ATOM      6  C   UNL A   1      33.630  23.860  26.465  1.00  0.00     0.124 C 
BRANCH   6   7
ATOM      7  C   UNL A   1      34.277  23.665  25.084  1.00  0.00     0.088 C 
ATOM      8  C   UNL A   1      35.789  23.470  25.060  1.00  0.00     0.031 C 
BRANCH   7   9
ATOM      9  N   UNL A   1      33.589  22.612  24.337  1.00  0.00    -0.353 N 
ATOM     10  C   UNL A   1      33.008  22.665  23.098  1.00  0.00     0.226 C 
ATOM     11  H   UNL A   1      33.538  21.739  24.789  1.00  0.00     0.163 HD
ATOM     12  O   UNL A   1      32.371  21.680  22.721  1.00  0.00    -0.275 OA
BRANCH  10  13
ATOM     13  C   UNL A   1      33.233  23.864  22.197  1.00  0.00     0.157 C 
BRANCH  13  14
ATOM     14  C   UNL A   1      32.224  24.946  22.386  1.00  0.00     0.070 A 
ATOM     15  C   UNL A   1      32.263  26.243  21.877  1.00  0.00     0.118 A 
ATOM     16  N   UNL A   1      31.109  24.765  23.193  1.00  0.00    -0.223 NA
ATOM     17  N   UNL A   1      31.183  26.858  22.430  1.00  0.00    -0.297 N 
ATOM     18  C   UNL A   1      30.529  25.930  23.180  1.00  0.00     0.193 A 
ATOM     19  C   UNL A   1      30.643  28.122  22.440  1.00  0.00     0.104 A 
ATOM     20  S   UNL A   1      29.139  26.620  23.957  1.00  0.00    -0.105 S 
ATOM     21  C   UNL A   1      29.542  28.179  23.210  1.00  0.00     0.087 A 
ENDBRANCH  13  14
ENDBRANCH  10  13
ENDBRANCH   7   9
ENDBRANCH   6   7
ENDBRANCH   3   6
ENDBRANCH   1   2
BRANCH   1  22
ATOM     22  C   UNL A   1      32.159  28.149  25.906  1.00  0.00     0.042 C 
BRANCH  22  23
ATOM     23  C   UNL A   1      33.053  29.252  25.350  1.00  0.00     0.118 C 
BRANCH  23  24
ATOM     24  N   UNL A   1      32.658  30.566  25.830  1.00  0.00    -0.352 N 
ATOM     25  C   UNL A   1      33.118  31.274  26.912  1.00  0.00     0.251 C 
ATOM     26  H   UNL A   1      31.959  31.014  25.301  1.00  0.00     0.163 HD
ATOM     27  O   UNL A   1      32.492  32.257  27.298  1.00  0.00    -0.269 OA
BRANCH  25  28
ATOM     28  C   UNL A   1      34.352  30.857  27.615  1.00  0.00     0.039 A 
ATOM     29  C   UNL A   1      35.410  31.765  27.720  1.00  0.00     0.014 A 
ATOM     30  C   UNL A   1      34.490  29.565  28.133  1.00  0.00     0.014 A 
ATOM     31  C   UNL A   1      36.585  31.392  28.377  1.00  0.00     0.010 A 
ATOM     32  C   UNL A   1      35.630  29.223  28.857  1.00  0.00     0.010 A 
ATOM     33  C   UNL A   1      36.698  30.125  28.973  1.00  0.00    -0.014 A 
BRANCH  33  34
ATOM     34  C   UNL A   1      37.924  29.729  29.715  1.00  0.00     0.031 A 
ATOM     35  C   UNL A   1      38.189  30.274  31.094  1.00  0.00     0.074 A 
ATOM     36  C   UNL A   1      38.836  28.934  29.121  1.00  0.00     0.049 A 
ATOM     37  N   UNL A   1      39.224  30.085  31.872  1.00  0.00    -0.248 NA
ATOM     38  C   UNL A   1      37.170  31.171  31.666  1.00  0.00     0.031 C 
ATOM     39  C   UNL A   1      38.732  28.393  27.764  1.00  0.00     0.029 A 
ATOM     40  N   UNL A   1      40.045  28.463  29.572  1.00  0.00    -0.354 N 
ATOM     41  C   UNL A   1      39.000  30.860  33.003  1.00  0.00     0.074 A 
ATOM     42  C   UNL A   1      37.746  31.552  32.797  1.00  0.00     0.031 C 
ATOM     43  C   UNL A   1      39.824  27.661  27.496  1.00  0.00     0.029 A 
ATOM     44  C   UNL A   1      40.725  27.711  28.644  1.00  0.00     0.049 A 
ATOM     45  H   UNL A   1      40.391  28.645  30.476  1.00  0.00     0.167 HD
ATOM     46  C   UNL A   1      39.753  30.970  34.123  1.00  0.00     0.034 A 
ATOM     47  C   UNL A   1      41.944  27.138  28.700  1.00  0.00     0.034 A 
ATOM     48  C   UNL A   1      40.985  30.258  34.338  1.00  0.00     0.049 A 
ATOM     49  C   UNL A   1      42.753  27.263  29.962  1.00  0.00     0.074 A 
ATOM     50  C   UNL A   1      41.780  30.239  35.470  1.00  0.00     0.029 A 
ATOM     51  N   UNL A   1      41.609  29.452  33.398  1.00  0.00    -0.354 N 
ATOM     52  N   UNL A   1      42.456  27.884  31.077  1.00  0.00    -0.248 NA
ATOM     53  C   UNL A   1      44.054  26.576  29.987  1.00  0.00     0.031 C 
ATOM     54  C   UNL A   1      42.907  29.456  35.201  1.00  0.00     0.029 A 
ATOM     55  C   UNL A   1      42.788  28.944  33.919  1.00  0.00     0.049 A 
ATOM     56  H   UNL A   1      41.265  29.267  32.495  1.00  0.00     0.167 HD
ATOM     57  C   UNL A   1      43.508  27.628  31.948  1.00  0.00     0.074 A 
ATOM     58  C   UNL A   1      44.444  26.782  31.237  1.00  0.00     0.031 C 
ATOM     59  C   UNL A   1      43.688  28.063  33.220  1.00  0.00     0.034 A 
BRANCH  46  60
ATOM     60  C   UNL A   1      39.253  31.872  35.222  1.00  0.00     0.023 A 
ATOM     61  C   UNL A   1      38.322  31.382  36.162  1.00  0.00     0.012 A 
ATOM     62  C   UNL A   1      39.748  33.184  35.364  1.00  0.00     0.148 A 
ATOM     63  C   UNL A   1      37.863  32.193  37.199  1.00  0.00     0.002 A 
ATOM     64  C   UNL A   1      39.325  33.970  36.428  1.00  0.00     0.091 A 
ATOM     65  F   UNL A   1      40.620  33.638  34.452  1.00  0.00    -0.205 F 
ATOM     66  C   UNL A   1      38.372  33.482  37.338  1.00  0.00     0.022 A 
BRANCH  64  67
ATOM     67  S   UNL A   1      39.981  35.611  36.745  1.00  0.00     0.127 S 
ATOM     68  O   UNL A   1      39.329  35.950  38.010  1.00  0.00    -0.237 OA
ATOM     69  O   UNL A   1      41.417  35.352  36.849  1.00  0.00    -0.237 OA
ATOM     70  O   UNL A   1      39.591  36.428  35.605  1.00  0.00    -0.744 OA
ENDBRANCH  64  67
ENDBRANCH  46  60
BRANCH  47  71
ATOM     71  C   UNL A   1      42.457  26.356  27.539  1.00  0.00     0.023 A 
ATOM     72  C   UNL A   1      43.294  26.981  26.595  1.00  0.00     0.012 A 
ATOM     73  C   UNL A   1      42.127  24.998  27.372  1.00  0.00     0.148 A 
ATOM     74  C   UNL A   1      43.763  26.278  25.484  1.00  0.00     0.002 A 
ATOM     75  C   UNL A   1      42.644  24.288  26.296  1.00  0.00     0.091 A 
ATOM     76  F   UNL A   1      41.323  24.425  28.279  1.00  0.00    -0.205 F 
ATOM     77  C   UNL A   1      43.446  24.930  25.340  1.00  0.00     0.022 A 
BRANCH  75  78
ATOM     78  S   UNL A   1      42.390  22.522  26.095  1.00  0.00     0.127 S 
ATOM     79  O   UNL A   1      42.957  21.995  27.334  1.00  0.00    -0.237 OA
ATOM     80  O   UNL A   1      40.933  22.437  25.997  1.00  0.00    -0.237 OA
ATOM     81  O   UNL A   1      43.097  22.158  24.874  1.00  0.00    -0.744 OA
ENDBRANCH  75  78
ENDBRANCH  47  71
BRANCH  59  82
ATOM     82  C   UNL A   1      44.916  27.591  33.957  1.00  0.00     0.023 A 
ATOM     83  C   UNL A   1      46.094  28.364  33.943  1.00  0.00     0.012 A 
ATOM     84  C   UNL A   1      44.874  26.410  34.723  1.00  0.00     0.148 A 
ATOM     85  C   UNL A   1      47.222  27.948  34.649  1.00  0.00     0.002 A 
ATOM     86  C   UNL A   1      45.983  26.030  35.468  1.00  0.00     0.091 A 
ATOM     87  F   UNL A   1      43.749  25.679  34.710  1.00  0.00    -0.205 F 
ATOM     88  C   UNL A   1      47.162  26.790  35.421  1.00  0.00     0.022 A 
BRANCH  86  89
ATOM     89  S   UNL A   1      45.966  24.611  36.570  1.00  0.00     0.127 S 
ATOM     90  O   UNL A   1      45.824  23.503  35.627  1.00  0.00    -0.237 OA
ATOM     91  O   UNL A   1      47.279  24.703  37.210  1.00  0.00    -0.237 OA
ATOM     92  O   UNL A   1      44.839  24.813  37.469  1.00  0.00    -0.744 OA
ENDBRANCH  86  89
ENDBRANCH  59  82
ENDBRANCH  33  34
ENDBRANCH  25  28
ENDBRANCH  23  24
ENDBRANCH  22  23
ENDBRANCH   1  22
TORSDOF 17
ENDMDL
