MODEL 1
REMARK VINA RESULT:     -11.6      0.000      0.000
REMARK SMILES COC(=O)[C@H]1CN(C(=O)[C@@H]2CC=CC[C@@H]2C(=O)NCCCNC(=O)c2ccc(-c3c4nc(c(-c5cccc(S(=O)(=O)[O-])c5F)c5ccc([nH]5)c(-c5cccc(S(=O)(=O)[O-])c5F)c5nc(c(-c6cccc(S(=O)(=O)[O-])c6F)c6ccc3[nH]6)C=C5)C=C4)cc2)C[C@H]1C
REMARK SMILES IDX 19 1 18 2 16 3 17 4 15 6 10 7 11 8 12 9 14 10 13 11 8 12
REMARK SMILES IDX 9 13 7 14 5 15 6 16 89 17 88 18 90 19 3 20 4 21 2 22 1 23
REMARK SMILES IDX 20 24 21 25 22 26 23 27 24 29 25 30 26 31 87 32 27 33 86 34
REMARK SMILES IDX 28 35 29 36 30 37 80 38 31 39 85 40 79 41 81 42 32 43 84 44
REMARK SMILES IDX 78 45 77 46 33 48 65 49 45 50 64 51 46 52 49 53 63 54 82 55
REMARK SMILES IDX 47 56 48 57 62 59 83 60 50 61 34 62 35 63 43 64 36 65 38 66
REMARK SMILES IDX 44 67 37 68 39 69 40 70 41 71 42 72 66 73 67 74 75 75 68 76
REMARK SMILES IDX 70 77 76 78 69 79 71 80 72 81 73 82 74 83 51 84 52 85 60 86
REMARK SMILES IDX 53 87 55 88 61 89 54 90 56 91 57 92 58 93 59 94
REMARK H PARENT 18 5 22 28 81 47 49 58
REMARK Flexibility Score: inf
ROOT
ATOM      1  C   UNL A   1      33.917  26.311  25.091  1.00  0.00     0.117 C 
ENDROOT
BRANCH   1   2
ATOM      2  N   UNL A   1      33.871  25.134  25.946  1.00  0.00    -0.356 N 
ATOM      3  C   UNL A   1      33.815  23.807  25.677  1.00  0.00     0.224 C 
ATOM      4  O   UNL A   1      33.228  23.134  26.534  1.00  0.00    -0.275 OA
ATOM      5  H   UNL A   1      33.885  25.343  26.909  1.00  0.00     0.163 HD
BRANCH   3   6
ATOM      6  C   UNL A   1      34.510  23.082  24.524  1.00  0.00     0.095 C 
ATOM      7  C   UNL A   1      33.566  22.646  23.387  1.00  0.00     0.095 C 
ATOM      8  C   UNL A   1      32.611  21.529  23.809  1.00  0.00     0.041 C 
ATOM      9  C   UNL A   1      33.391  20.402  24.440  1.00  0.00    -0.030 C 
ATOM     10  C   UNL A   1      35.389  21.874  24.905  1.00  0.00     0.041 C 
ATOM     11  C   UNL A   1      34.655  20.545  24.875  1.00  0.00    -0.030 C 
BRANCH   7  12
ATOM     12  C   UNL A   1      32.989  23.669  22.403  1.00  0.00     0.226 C 
ATOM     13  O   UNL A   1      33.280  23.541  21.205  1.00  0.00    -0.275 OA
BRANCH  12  14
ATOM     14  N   UNL A   1      32.072  24.618  22.770  1.00  0.00    -0.341 N 
ATOM     15  C   UNL A   1      30.879  26.579  22.386  1.00  0.00     0.123 C 
ATOM     16  C   UNL A   1      32.288  26.011  22.428  1.00  0.00     0.135 C 
ATOM     17  C   UNL A   1      30.134  25.809  23.497  1.00  0.00     0.021 C 
ATOM     18  C   UNL A   1      30.960  24.522  23.690  1.00  0.00     0.123 C 
ATOM     19  C   UNL A   1      29.967  26.560  24.819  1.00  0.00     0.010 C 
BRANCH  15  20
ATOM     20  C   UNL A   1      30.878  28.084  22.492  1.00  0.00     0.310 C 
ATOM     21  O   UNL A   1      31.798  28.764  22.920  1.00  0.00    -0.252 OA
BRANCH  20  22
ATOM     22  O   UNL A   1      29.706  28.581  22.001  1.00  0.00    -0.469 OA
ATOM     23  C   UNL A   1      29.102  29.568  22.837  1.00  0.00     0.282 C 
ENDBRANCH  20  22
ENDBRANCH  15  20
ENDBRANCH  12  14
ENDBRANCH   7  12
ENDBRANCH   3   6
ENDBRANCH   1   2
BRANCH   1  24
ATOM     24  C   UNL A   1      33.463  27.558  25.845  1.00  0.00     0.042 C 
BRANCH  24  25
ATOM     25  C   UNL A   1      33.978  28.849  25.226  1.00  0.00     0.118 C 
BRANCH  25  26
ATOM     26  N   UNL A   1      33.192  30.007  25.644  1.00  0.00    -0.352 N 
ATOM     27  C   UNL A   1      33.312  30.799  26.761  1.00  0.00     0.251 C 
ATOM     28  H   UNL A   1      32.465  30.260  25.031  1.00  0.00     0.163 HD
ATOM     29  O   UNL A   1      32.400  31.566  27.061  1.00  0.00    -0.269 OA
BRANCH  27  30
ATOM     30  C   UNL A   1      34.524  30.722  27.601  1.00  0.00     0.039 A 
ATOM     31  C   UNL A   1      34.745  29.582  28.380  1.00  0.00     0.014 A 
ATOM     32  C   UNL A   1      35.440  31.776  27.626  1.00  0.00     0.014 A 
ATOM     33  C   UNL A   1      35.926  29.468  29.117  1.00  0.00     0.010 A 
ATOM     34  C   UNL A   1      36.653  31.622  28.286  1.00  0.00     0.010 A 
ATOM     35  C   UNL A   1      36.911  30.466  29.037  1.00  0.00    -0.014 A 
BRANCH  35  36
ATOM     36  C   UNL A   1      38.233  30.314  29.695  1.00  0.00     0.031 A 
ATOM     37  C   UNL A   1      39.289  29.434  29.083  1.00  0.00     0.074 A 
ATOM     38  C   UNL A   1      38.436  30.875  30.905  1.00  0.00     0.049 A 
ATOM     39  N   UNL A   1      40.454  29.089  29.564  1.00  0.00    -0.248 NA
ATOM     40  C   UNL A   1      38.982  28.841  27.770  1.00  0.00     0.031 C 
ATOM     41  C   UNL A   1      37.460  31.689  31.634  1.00  0.00     0.029 A 
ATOM     42  N   UNL A   1      39.514  30.815  31.751  1.00  0.00    -0.354 N 
ATOM     43  C   UNL A   1      41.003  28.212  28.638  1.00  0.00     0.074 A 
ATOM     44  C   UNL A   1      40.031  28.053  27.578  1.00  0.00     0.031 C 
ATOM     45  C   UNL A   1      37.981  32.049  32.816  1.00  0.00     0.029 A 
ATOM     46  C   UNL A   1      39.307  31.456  32.951  1.00  0.00     0.049 A 
ATOM     47  H   UNL A   1      40.356  30.357  31.522  1.00  0.00     0.167 HD
ATOM     48  C   UNL A   1      42.216  27.610  28.656  1.00  0.00     0.034 A 
ATOM     49  C   UNL A   1      40.085  31.537  34.048  1.00  0.00     0.034 A 
ATOM     50  C   UNL A   1      43.189  27.796  29.698  1.00  0.00     0.049 A 
ATOM     51  C   UNL A   1      41.431  30.863  34.038  1.00  0.00     0.074 A 
ATOM     52  C   UNL A   1      44.483  27.308  29.763  1.00  0.00     0.029 A 
ATOM     53  N   UNL A   1      42.972  28.509  30.867  1.00  0.00    -0.354 N 
ATOM     54  N   UNL A   1      42.001  30.174  33.081  1.00  0.00    -0.248 NA
ATOM     55  C   UNL A   1      42.250  31.000  35.251  1.00  0.00     0.031 C 
ATOM     56  C   UNL A   1      45.033  27.694  30.989  1.00  0.00     0.029 A 
ATOM     57  C   UNL A   1      44.096  28.452  31.673  1.00  0.00     0.049 A 
ATOM     58  H   UNL A   1      42.141  28.986  31.092  1.00  0.00     0.167 HD
ATOM     59  C   UNL A   1      43.254  29.814  33.564  1.00  0.00     0.074 A 
ATOM     60  C   UNL A   1      43.371  30.390  34.888  1.00  0.00     0.031 C 
ATOM     61  C   UNL A   1      44.213  29.060  32.974  1.00  0.00     0.034 A 
BRANCH  48  62
ATOM     62  C   UNL A   1      42.576  26.720  27.494  1.00  0.00     0.023 A 
ATOM     63  C   UNL A   1      43.374  27.226  26.448  1.00  0.00     0.012 A 
ATOM     64  C   UNL A   1      42.179  25.368  27.468  1.00  0.00     0.148 A 
ATOM     65  C   UNL A   1      43.740  26.411  25.376  1.00  0.00     0.002 A 
ATOM     66  C   UNL A   1      42.588  24.551  26.421  1.00  0.00     0.091 A 
ATOM     67  F   UNL A   1      41.405  24.911  28.462  1.00  0.00    -0.205 F 
ATOM     68  C   UNL A   1      43.357  25.074  25.368  1.00  0.00     0.022 A 
BRANCH  66  69
ATOM     69  S   UNL A   1      42.214  22.796  26.356  1.00  0.00     0.127 S 
ATOM     70  O   UNL A   1      42.983  22.289  27.491  1.00  0.00    -0.237 OA
ATOM     71  O   UNL A   1      40.764  22.785  26.548  1.00  0.00    -0.237 OA
ATOM     72  O   UNL A   1      42.658  22.337  25.048  1.00  0.00    -0.744 OA
ENDBRANCH  66  69
ENDBRANCH  48  62
BRANCH  49  73
ATOM     73  C   UNL A   1      39.623  32.309  35.236  1.00  0.00     0.023 A 
ATOM     74  C   UNL A   1      39.918  33.684  35.325  1.00  0.00     0.012 A 
ATOM     75  C   UNL A   1      38.874  31.699  36.261  1.00  0.00     0.148 A 
ATOM     76  C   UNL A   1      39.504  34.428  36.431  1.00  0.00     0.002 A 
ATOM     77  C   UNL A   1      38.414  32.459  37.329  1.00  0.00     0.091 A 
ATOM     78  F   UNL A   1      38.613  30.388  36.161  1.00  0.00    -0.205 F 
ATOM     79  C   UNL A   1      38.744  33.820  37.426  1.00  0.00     0.022 A 
BRANCH  77  80
ATOM     80  S   UNL A   1      37.318  31.793  38.586  1.00  0.00     0.127 S 
ATOM     81  O   UNL A   1      38.126  31.933  39.793  1.00  0.00    -0.237 OA
ATOM     82  O   UNL A   1      36.174  32.703  38.499  1.00  0.00    -0.237 OA
ATOM     83  O   UNL A   1      37.029  30.427  38.173  1.00  0.00    -0.744 OA
ENDBRANCH  77  80
ENDBRANCH  49  73
BRANCH  61  84
ATOM     84  C   UNL A   1      45.486  28.821  33.744  1.00  0.00     0.023 A 
ATOM     85  C   UNL A   1      46.559  29.726  33.619  1.00  0.00     0.012 A 
ATOM     86  C   UNL A   1      45.590  27.745  34.647  1.00  0.00     0.148 A 
ATOM     87  C   UNL A   1      47.728  29.546  34.356  1.00  0.00     0.002 A 
ATOM     88  C   UNL A   1      46.738  27.601  35.417  1.00  0.00     0.091 A 
ATOM     89  F   UNL A   1      44.563  26.888  34.741  1.00  0.00    -0.205 F 
ATOM     90  C   UNL A   1      47.813  28.492  35.263  1.00  0.00     0.022 A 
BRANCH  88  91
ATOM     91  S   UNL A   1      46.905  26.334  36.679  1.00  0.00     0.127 S 
ATOM     92  O   UNL A   1      48.298  26.502  37.088  1.00  0.00    -0.237 OA
ATOM     93  O   UNL A   1      45.921  26.759  37.674  1.00  0.00    -0.237 OA
ATOM     94  O   UNL A   1      46.598  25.068  36.024  1.00  0.00    -0.744 OA
ENDBRANCH  88  91
ENDBRANCH  61  84
ENDBRANCH  35  36
ENDBRANCH  27  30
ENDBRANCH  25  26
ENDBRANCH  24  25
ENDBRANCH   1  24
TORSDOF 17
ENDMDL
MODEL 2
REMARK VINA RESULT:     -11.3      2.379      8.373
REMARK SMILES COC(=O)[C@H]1CN(C(=O)[C@@H]2CC=CC[C@@H]2C(=O)NCCCNC(=O)c2ccc(-c3c4nc(c(-c5cccc(S(=O)(=O)[O-])c5F)c5ccc([nH]5)c(-c5cccc(S(=O)(=O)[O-])c5F)c5nc(c(-c6cccc(S(=O)(=O)[O-])c6F)c6ccc3[nH]6)C=C5)C=C4)cc2)C[C@H]1C
REMARK SMILES IDX 19 1 18 2 16 3 17 4 15 6 10 7 11 8 12 9 14 10 13 11 8 12
REMARK SMILES IDX 9 13 7 14 5 15 6 16 89 17 88 18 90 19 3 20 4 21 2 22 1 23
REMARK SMILES IDX 20 24 21 25 22 26 23 27 24 29 25 30 26 31 87 32 27 33 86 34
REMARK SMILES IDX 28 35 29 36 30 37 80 38 31 39 85 40 79 41 81 42 32 43 84 44
REMARK SMILES IDX 78 45 77 46 33 48 65 49 45 50 64 51 46 52 49 53 63 54 82 55
REMARK SMILES IDX 47 56 48 57 62 59 83 60 50 61 34 62 35 63 43 64 36 65 38 66
REMARK SMILES IDX 44 67 37 68 39 69 40 70 41 71 42 72 66 73 67 74 75 75 68 76
REMARK SMILES IDX 70 77 76 78 69 79 71 80 72 81 73 82 74 83 51 84 52 85 60 86
REMARK SMILES IDX 53 87 55 88 61 89 54 90 56 91 57 92 58 93 59 94
REMARK H PARENT 18 5 22 28 81 47 49 58
REMARK Flexibility Score: inf
ROOT
ATOM      1  C   UNL A   1      32.024  27.241  26.581  1.00  0.00     0.117 C 
ENDROOT
BRANCH   1   2
ATOM      2  N   UNL A   1      33.025  26.274  26.157  1.00  0.00    -0.356 N 
ATOM      3  C   UNL A   1      32.933  25.015  25.665  1.00  0.00     0.224 C 
ATOM      4  O   UNL A   1      33.894  24.284  25.941  1.00  0.00    -0.275 OA
ATOM      5  H   UNL A   1      33.951  26.598  26.243  1.00  0.00     0.163 HD
BRANCH   3   6
ATOM      6  C   UNL A   1      31.855  24.483  24.719  1.00  0.00     0.095 C 
ATOM      7  C   UNL A   1      32.326  24.290  23.265  1.00  0.00     0.095 C 
ATOM      8  C   UNL A   1      32.608  25.615  22.557  1.00  0.00     0.041 C 
ATOM      9  C   UNL A   1      31.427  26.540  22.713  1.00  0.00    -0.030 C 
ATOM     10  C   UNL A   1      30.524  25.259  24.692  1.00  0.00     0.041 C 
ATOM     11  C   UNL A   1      30.465  26.343  23.632  1.00  0.00    -0.030 C 
BRANCH   7  12
ATOM     12  C   UNL A   1      33.247  23.127  22.880  1.00  0.00     0.226 C 
ATOM     13  O   UNL A   1      34.403  23.404  22.526  1.00  0.00    -0.275 OA
BRANCH  12  14
ATOM     14  N   UNL A   1      32.893  21.815  23.040  1.00  0.00    -0.341 N 
ATOM     15  C   UNL A   1      32.471  19.947  24.363  1.00  0.00     0.123 C 
ATOM     16  C   UNL A   1      33.516  21.013  24.077  1.00  0.00     0.135 C 
ATOM     17  C   UNL A   1      31.824  19.679  22.987  1.00  0.00     0.021 C 
ATOM     18  C   UNL A   1      32.124  20.951  22.170  1.00  0.00     0.123 C 
ATOM     19  C   UNL A   1      32.321  18.428  22.260  1.00  0.00     0.010 C 
BRANCH  15  20
ATOM     20  C   UNL A   1      33.066  18.755  25.072  1.00  0.00     0.310 C 
ATOM     21  O   UNL A   1      32.487  18.057  25.889  1.00  0.00    -0.252 OA
BRANCH  20  22
ATOM     22  O   UNL A   1      34.342  18.547  24.635  1.00  0.00    -0.469 OA
ATOM     23  C   UNL A   1      34.757  17.182  24.693  1.00  0.00     0.282 C 
ENDBRANCH  20  22
ENDBRANCH  15  20
ENDBRANCH  12  14
ENDBRANCH   7  12
ENDBRANCH   3   6
ENDBRANCH   1   2
BRANCH   1  24
ATOM     24  C   UNL A   1      32.665  28.407  27.328  1.00  0.00     0.042 C 
BRANCH  24  25
ATOM     25  C   UNL A   1      33.714  29.140  26.504  1.00  0.00     0.118 C 
BRANCH  25  26
ATOM     26  N   UNL A   1      33.847  30.537  26.906  1.00  0.00    -0.352 N 
ATOM     27  C   UNL A   1      34.758  31.132  27.746  1.00  0.00     0.251 C 
ATOM     28  H   UNL A   1      33.182  31.148  26.514  1.00  0.00     0.163 HD
ATOM     29  O   UNL A   1      34.550  32.271  28.156  1.00  0.00    -0.269 OA
BRANCH  27  30
ATOM     30  C   UNL A   1      35.973  30.402  28.162  1.00  0.00     0.039 A 
ATOM     31  C   UNL A   1      37.095  30.411  27.328  1.00  0.00     0.014 A 
ATOM     32  C   UNL A   1      36.004  29.703  29.370  1.00  0.00     0.014 A 
ATOM     33  C   UNL A   1      38.273  29.789  27.748  1.00  0.00     0.010 A 
ATOM     34  C   UNL A   1      37.201  29.164  29.827  1.00  0.00     0.010 A 
ATOM     35  C   UNL A   1      38.349  29.203  29.022  1.00  0.00    -0.014 A 
BRANCH  35  36
ATOM     36  C   UNL A   1      39.622  28.656  29.557  1.00  0.00     0.031 A 
ATOM     37  C   UNL A   1      40.349  29.371  30.663  1.00  0.00     0.074 A 
ATOM     38  C   UNL A   1      40.179  27.581  28.963  1.00  0.00     0.049 A 
ATOM     39  N   UNL A   1      41.522  29.112  31.178  1.00  0.00    -0.248 NA
ATOM     40  C   UNL A   1      39.684  30.548  31.246  1.00  0.00     0.031 C 
ATOM     41  C   UNL A   1      39.604  26.848  27.832  1.00  0.00     0.029 A 
ATOM     42  N   UNL A   1      41.370  26.944  29.200  1.00  0.00    -0.354 N 
ATOM     43  C   UNL A   1      41.754  30.111  32.116  1.00  0.00     0.074 A 
ATOM     44  C   UNL A   1      40.613  30.999  32.078  1.00  0.00     0.031 C 
ATOM     45  C   UNL A   1      40.442  25.864  27.473  1.00  0.00     0.029 A 
ATOM     46  C   UNL A   1      41.633  25.923  28.314  1.00  0.00     0.049 A 
ATOM     47  H   UNL A   1      41.979  27.191  29.933  1.00  0.00     0.167 HD
ATOM     48  C   UNL A   1      42.811  30.263  32.948  1.00  0.00     0.034 A 
ATOM     49  C   UNL A   1      42.721  25.141  28.176  1.00  0.00     0.034 A 
ATOM     50  C   UNL A   1      43.928  29.360  33.002  1.00  0.00     0.049 A 
ATOM     51  C   UNL A   1      43.879  25.328  29.119  1.00  0.00     0.074 A 
ATOM     52  C   UNL A   1      45.002  29.371  33.875  1.00  0.00     0.029 A 
ATOM     53  N   UNL A   1      44.128  28.295  32.136  1.00  0.00    -0.354 N 
ATOM     54  N   UNL A   1      44.006  26.175  30.110  1.00  0.00    -0.248 NA
ATOM     55  C   UNL A   1      45.031  24.433  28.940  1.00  0.00     0.031 C 
ATOM     56  C   UNL A   1      45.870  28.338  33.511  1.00  0.00     0.029 A 
ATOM     57  C   UNL A   1      45.321  27.660  32.434  1.00  0.00     0.049 A 
ATOM     58  H   UNL A   1      43.513  28.031  31.415  1.00  0.00     0.167 HD
ATOM     59  C   UNL A   1      45.240  25.903  30.688  1.00  0.00     0.074 A 
ATOM     60  C   UNL A   1      45.807  24.789  29.955  1.00  0.00     0.031 C 
ATOM     61  C   UNL A   1      45.857  26.529  31.720  1.00  0.00     0.034 A 
BRANCH  48  62
ATOM     62  C   UNL A   1      42.794  31.433  33.899  1.00  0.00     0.023 A 
ATOM     63  C   UNL A   1      43.358  32.663  33.503  1.00  0.00     0.012 A 
ATOM     64  C   UNL A   1      42.164  31.335  35.156  1.00  0.00     0.148 A 
ATOM     65  C   UNL A   1      43.329  33.766  34.357  1.00  0.00     0.002 A 
ATOM     66  C   UNL A   1      42.098  32.451  35.981  1.00  0.00     0.091 A 
ATOM     67  F   UNL A   1      41.650  30.153  35.522  1.00  0.00    -0.205 F 
ATOM     68  C   UNL A   1      42.691  33.663  35.588  1.00  0.00     0.022 A 
BRANCH  66  69
ATOM     69  S   UNL A   1      41.230  32.446  37.553  1.00  0.00     0.127 S 
ATOM     70  O   UNL A   1      42.081  31.569  38.356  1.00  0.00    -0.237 OA
ATOM     71  O   UNL A   1      41.279  33.858  37.934  1.00  0.00    -0.237 OA
ATOM     72  O   UNL A   1      39.896  31.936  37.276  1.00  0.00    -0.744 OA
ENDBRANCH  66  69
ENDBRANCH  48  62
BRANCH  49  73
ATOM     73  C   UNL A   1      42.754  24.089  27.120  1.00  0.00     0.023 A 
ATOM     74  C   UNL A   1      43.447  24.335  25.919  1.00  0.00     0.012 A 
ATOM     75  C   UNL A   1      42.129  22.841  27.309  1.00  0.00     0.148 A 
ATOM     76  C   UNL A   1      43.487  23.371  24.911  1.00  0.00     0.002 A 
ATOM     77  C   UNL A   1      42.224  21.863  26.326  1.00  0.00     0.091 A 
ATOM     78  F   UNL A   1      41.467  22.630  28.455  1.00  0.00    -0.205 F 
ATOM     79  C   UNL A   1      42.886  22.133  25.118  1.00  0.00     0.022 A 
BRANCH  77  80
ATOM     80  S   UNL A   1      41.598  20.196  26.560  1.00  0.00     0.127 S 
ATOM     81  O   UNL A   1      40.154  20.414  26.552  1.00  0.00    -0.237 OA
ATOM     82  O   UNL A   1      42.126  19.509  25.380  1.00  0.00    -0.237 OA
ATOM     83  O   UNL A   1      42.161  19.737  27.822  1.00  0.00    -0.744 OA
ENDBRANCH  77  80
ENDBRANCH  49  73
BRANCH  61  84
ATOM     84  C   UNL A   1      47.213  26.020  32.134  1.00  0.00     0.023 A 
ATOM     85  C   UNL A   1      48.370  26.523  31.505  1.00  0.00     0.012 A 
ATOM     86  C   UNL A   1      47.346  25.103  33.195  1.00  0.00     0.148 A 
ATOM     87  C   UNL A   1      49.636  26.096  31.904  1.00  0.00     0.002 A 
ATOM     88  C   UNL A   1      48.612  24.722  33.622  1.00  0.00     0.091 A 
ATOM     89  F   UNL A   1      46.232  24.627  33.771  1.00  0.00    -0.205 F 
ATOM     90  C   UNL A   1      49.758  25.207  32.969  1.00  0.00     0.022 A 
BRANCH  88  91
ATOM     91  S   UNL A   1      48.875  23.657  35.044  1.00  0.00     0.127 S 
ATOM     92  O   UNL A   1      48.246  22.412  34.604  1.00  0.00    -0.237 OA
ATOM     93  O   UNL A   1      50.334  23.607  35.126  1.00  0.00    -0.237 OA
ATOM     94  O   UNL A   1      48.225  24.316  36.169  1.00  0.00    -0.744 OA
ENDBRANCH  88  91
ENDBRANCH  61  84
ENDBRANCH  35  36
ENDBRANCH  27  30
ENDBRANCH  25  26
ENDBRANCH  24  25
ENDBRANCH   1  24
TORSDOF 17
ENDMDL
MODEL 3
REMARK VINA RESULT:     -11.3      2.147      4.087
REMARK SMILES COC(=O)[C@H]1CN(C(=O)[C@@H]2CC=CC[C@@H]2C(=O)NCCCNC(=O)c2ccc(-c3c4nc(c(-c5cccc(S(=O)(=O)[O-])c5F)c5ccc([nH]5)c(-c5cccc(S(=O)(=O)[O-])c5F)c5nc(c(-c6cccc(S(=O)(=O)[O-])c6F)c6ccc3[nH]6)C=C5)C=C4)cc2)C[C@H]1C
REMARK SMILES IDX 19 1 18 2 16 3 17 4 15 6 10 7 11 8 12 9 14 10 13 11 8 12
REMARK SMILES IDX 9 13 7 14 5 15 6 16 89 17 88 18 90 19 3 20 4 21 2 22 1 23
REMARK SMILES IDX 20 24 21 25 22 26 23 27 24 29 25 30 26 31 87 32 27 33 86 34
REMARK SMILES IDX 28 35 29 36 30 37 80 38 31 39 85 40 79 41 81 42 32 43 84 44
REMARK SMILES IDX 78 45 77 46 33 48 65 49 45 50 64 51 46 52 49 53 63 54 82 55
REMARK SMILES IDX 47 56 48 57 62 59 83 60 50 61 34 62 35 63 43 64 36 65 38 66
REMARK SMILES IDX 44 67 37 68 39 69 40 70 41 71 42 72 66 73 67 74 75 75 68 76
REMARK SMILES IDX 70 77 76 78 69 79 71 80 72 81 73 82 74 83 51 84 52 85 60 86
REMARK SMILES IDX 53 87 55 88 61 89 54 90 56 91 57 92 58 93 59 94
REMARK H PARENT 18 5 22 28 81 47 49 58
REMARK Flexibility Score: inf
ROOT
ATOM      1  C   UNL A   1      33.160  26.574  25.556  1.00  0.00     0.117 C 
ENDROOT
BRANCH   1   2
ATOM      2  N   UNL A   1      32.095  25.583  25.575  1.00  0.00    -0.356 N 
ATOM      3  C   UNL A   1      31.851  24.486  24.819  1.00  0.00     0.224 C 
ATOM      4  O   UNL A   1      30.652  24.207  24.690  1.00  0.00    -0.275 OA
ATOM      5  H   UNL A   1      31.419  25.741  26.274  1.00  0.00     0.163 HD
BRANCH   3   6
ATOM      6  C   UNL A   1      32.893  23.520  24.252  1.00  0.00     0.095 C 
ATOM      7  C   UNL A   1      33.181  22.300  25.148  1.00  0.00     0.095 C 
ATOM      8  C   UNL A   1      33.906  22.675  26.440  1.00  0.00     0.041 C 
ATOM      9  C   UNL A   1      35.118  23.515  26.121  1.00  0.00    -0.030 C 
ATOM     10  C   UNL A   1      34.243  24.136  23.835  1.00  0.00     0.041 C 
ATOM     11  C   UNL A   1      35.292  24.119  24.932  1.00  0.00    -0.030 C 
BRANCH   7  12
ATOM     12  C   UNL A   1      32.173  21.152  25.268  1.00  0.00     0.226 C 
ATOM     13  O   UNL A   1      31.061  21.412  25.751  1.00  0.00    -0.275 OA
BRANCH  12  14
ATOM     14  N   UNL A   1      32.399  19.907  24.746  1.00  0.00    -0.341 N 
ATOM     15  C   UNL A   1      32.409  17.584  24.901  1.00  0.00     0.123 C 
ATOM     16  C   UNL A   1      32.906  18.842  25.592  1.00  0.00     0.135 C 
ATOM     17  C   UNL A   1      32.468  17.935  23.399  1.00  0.00     0.021 C 
ATOM     18  C   UNL A   1      32.443  19.476  23.365  1.00  0.00     0.123 C 
ATOM     19  C   UNL A   1      33.682  17.388  22.644  1.00  0.00     0.010 C 
BRANCH  15  20
ATOM     20  C   UNL A   1      33.177  16.362  25.339  1.00  0.00     0.310 C 
ATOM     21  O   UNL A   1      32.769  15.213  25.286  1.00  0.00    -0.252 OA
BRANCH  20  22
ATOM     22  O   UNL A   1      34.420  16.727  25.769  1.00  0.00    -0.469 OA
ATOM     23  C   UNL A   1      35.456  15.827  25.375  1.00  0.00     0.282 C 
ENDBRANCH  20  22
ENDBRANCH  15  20
ENDBRANCH  12  14
ENDBRANCH   7  12
ENDBRANCH   3   6
ENDBRANCH   1   2
BRANCH   1  24
ATOM     24  C   UNL A   1      32.596  27.988  25.446  1.00  0.00     0.042 C 
BRANCH  24  25
ATOM     25  C   UNL A   1      32.411  28.664  26.797  1.00  0.00     0.118 C 
BRANCH  25  26
ATOM     26  N   UNL A   1      32.245  30.109  26.666  1.00  0.00    -0.352 N 
ATOM     27  C   UNL A   1      33.023  31.135  27.149  1.00  0.00     0.251 C 
ATOM     28  H   UNL A   1      31.456  30.392  26.152  1.00  0.00     0.163 HD
ATOM     29  O   UNL A   1      32.581  32.281  27.150  1.00  0.00    -0.269 OA
BRANCH  27  30
ATOM     30  C   UNL A   1      34.376  30.859  27.672  1.00  0.00     0.039 A 
ATOM     31  C   UNL A   1      35.277  31.916  27.828  1.00  0.00     0.014 A 
ATOM     32  C   UNL A   1      34.759  29.558  28.003  1.00  0.00     0.014 A 
ATOM     33  C   UNL A   1      36.532  31.677  28.395  1.00  0.00     0.010 A 
ATOM     34  C   UNL A   1      35.970  29.336  28.649  1.00  0.00     0.010 A 
ATOM     35  C   UNL A   1      36.868  30.393  28.854  1.00  0.00    -0.014 A 
BRANCH  35  36
ATOM     36  C   UNL A   1      38.134  30.131  29.585  1.00  0.00     0.031 A 
ATOM     37  C   UNL A   1      39.145  29.166  29.029  1.00  0.00     0.074 A 
ATOM     38  C   UNL A   1      38.314  30.674  30.807  1.00  0.00     0.049 A 
ATOM     39  N   UNL A   1      40.248  28.724  29.574  1.00  0.00    -0.248 NA
ATOM     40  C   UNL A   1      38.865  28.601  27.698  1.00  0.00     0.031 C 
ATOM     41  C   UNL A   1      37.369  31.566  31.483  1.00  0.00     0.029 A 
ATOM     42  N   UNL A   1      39.334  30.523  31.712  1.00  0.00    -0.354 N 
ATOM     43  C   UNL A   1      40.774  27.804  28.676  1.00  0.00     0.074 A 
ATOM     44  C   UNL A   1      39.854  27.728  27.562  1.00  0.00     0.031 C 
ATOM     45  C   UNL A   1      37.851  31.881  32.695  1.00  0.00     0.029 A 
ATOM     46  C   UNL A   1      39.114  31.179  32.902  1.00  0.00     0.049 A 
ATOM     47  H   UNL A   1      40.146  29.996  31.529  1.00  0.00     0.167 HD
ATOM     48  C   UNL A   1      41.929  27.103  28.760  1.00  0.00     0.034 A 
ATOM     49  C   UNL A   1      39.832  31.194  34.041  1.00  0.00     0.034 A 
ATOM     50  C   UNL A   1      42.854  27.207  29.855  1.00  0.00     0.049 A 
ATOM     51  C   UNL A   1      41.115  30.410  34.105  1.00  0.00     0.074 A 
ATOM     52  C   UNL A   1      44.097  26.613  29.991  1.00  0.00     0.029 A 
ATOM     53  N   UNL A   1      42.631  27.935  31.014  1.00  0.00    -0.354 N 
ATOM     54  N   UNL A   1      41.679  29.675  33.178  1.00  0.00    -0.248 NA
ATOM     55  C   UNL A   1      41.873  30.478  35.362  1.00  0.00     0.031 C 
ATOM     56  C   UNL A   1      44.606  26.950  31.248  1.00  0.00     0.029 A 
ATOM     57  C   UNL A   1      43.699  27.784  31.882  1.00  0.00     0.049 A 
ATOM     58  H   UNL A   1      41.831  28.480  31.194  1.00  0.00     0.167 HD
ATOM     59  C   UNL A   1      42.868  29.212  33.729  1.00  0.00     0.074 A 
ATOM     60  C   UNL A   1      42.957  29.776  35.060  1.00  0.00     0.031 C 
ATOM     61  C   UNL A   1      43.793  28.380  33.190  1.00  0.00     0.034 A 
BRANCH  48  62
ATOM     62  C   UNL A   1      42.278  26.186  27.616  1.00  0.00     0.023 A 
ATOM     63  C   UNL A   1      43.075  26.665  26.555  1.00  0.00     0.012 A 
ATOM     64  C   UNL A   1      41.874  24.837  27.621  1.00  0.00     0.148 A 
ATOM     65  C   UNL A   1      43.431  25.826  25.499  1.00  0.00     0.002 A 
ATOM     66  C   UNL A   1      42.273  23.994  26.589  1.00  0.00     0.091 A 
ATOM     67  F   UNL A   1      41.101  24.405  28.627  1.00  0.00    -0.205 F 
ATOM     68  C   UNL A   1      43.041  24.491  25.522  1.00  0.00     0.022 A 
BRANCH  66  69
ATOM     69  S   UNL A   1      41.889  22.241  26.564  1.00  0.00     0.127 S 
ATOM     70  O   UNL A   1      40.433  22.260  26.434  1.00  0.00    -0.237 OA
ATOM     71  O   UNL A   1      42.602  21.789  25.368  1.00  0.00    -0.237 OA
ATOM     72  O   UNL A   1      42.396  21.698  27.816  1.00  0.00    -0.744 OA
ENDBRANCH  66  69
ENDBRANCH  48  62
BRANCH  49  73
ATOM     73  C   UNL A   1      39.370  32.002  35.205  1.00  0.00     0.023 A 
ATOM     74  C   UNL A   1      38.480  31.429  36.135  1.00  0.00     0.012 A 
ATOM     75  C   UNL A   1      39.824  33.319  35.411  1.00  0.00     0.148 A 
ATOM     76  C   UNL A   1      38.025  32.167  37.229  1.00  0.00     0.002 A 
ATOM     77  C   UNL A   1      39.413  34.026  36.533  1.00  0.00     0.091 A 
ATOM     78  F   UNL A   1      40.662  33.848  34.509  1.00  0.00    -0.205 F 
ATOM     79  C   UNL A   1      38.498  33.459  37.435  1.00  0.00     0.022 A 
BRANCH  77  80
ATOM     80  S   UNL A   1      40.075  35.643  36.951  1.00  0.00     0.127 S 
ATOM     81  O   UNL A   1      39.651  36.445  35.807  1.00  0.00    -0.237 OA
ATOM     82  O   UNL A   1      39.378  35.938  38.205  1.00  0.00    -0.237 OA
ATOM     83  O   UNL A   1      41.512  35.455  37.095  1.00  0.00    -0.744 OA
ENDBRANCH  77  80
ENDBRANCH  49  73
BRANCH  61  84
ATOM     84  C   UNL A   1      44.995  28.035  34.030  1.00  0.00     0.023 A 
ATOM     85  C   UNL A   1      46.079  28.933  34.100  1.00  0.00     0.012 A 
ATOM     86  C   UNL A   1      45.018  26.862  34.807  1.00  0.00     0.148 A 
ATOM     87  C   UNL A   1      47.182  28.652  34.905  1.00  0.00     0.002 A 
ATOM     88  C   UNL A   1      46.096  26.613  35.648  1.00  0.00     0.091 A 
ATOM     89  F   UNL A   1      43.982  26.014  34.716  1.00  0.00    -0.205 F 
ATOM     90  C   UNL A   1      47.185  27.499  35.687  1.00  0.00     0.022 A 
BRANCH  88  91
ATOM     91  S   UNL A   1      46.151  25.206  36.763  1.00  0.00     0.127 S 
ATOM     92  O   UNL A   1      47.425  25.417  37.448  1.00  0.00    -0.237 OA
ATOM     93  O   UNL A   1      44.968  25.427  37.595  1.00  0.00    -0.237 OA
ATOM     94  O   UNL A   1      46.087  24.019  35.921  1.00  0.00    -0.744 OA
ENDBRANCH  88  91
ENDBRANCH  61  84
ENDBRANCH  35  36
ENDBRANCH  27  30
ENDBRANCH  25  26
ENDBRANCH  24  25
ENDBRANCH   1  24
TORSDOF 17
ENDMDL
