MODEL 1
REMARK VINA RESULT:     -12.4      0.000      0.000
REMARK SMILES CC(C)[C@@H](C)[N@@H+]1[C@@H](C(=O)NCCCNC(=O)c2ccc(-c3c4nc(c(-c5cccc(S(=O)(=O)[O-])c5F)c5ccc([nH]5)c(-c5cccc(S(=O)(=O)[O-])c5F)c5nc(c(-c6cccc(S(=O)(=O)[O-])c6F)c6ccc3[nH]6)C=C5)C=C4)cc2)C[C@H]2CCCC[C@H]21
REMARK SMILES IDX 12 1 11 2 10 3 8 4 9 5 7 7 6 8 86 9 80 11 81 12 85 13 82 14
REMARK SMILES IDX 84 15 83 16 4 17 5 18 2 19 1 20 3 21 13 22 14 23 15 24 16 26
REMARK SMILES IDX 17 27 18 28 79 29 19 30 78 31 20 32 21 33 22 34 72 35 23 36
REMARK SMILES IDX 77 37 71 38 73 39 24 40 76 41 70 42 69 43 25 45 57 46 37 47
REMARK SMILES IDX 56 48 38 49 41 50 55 51 74 52 39 53 40 54 54 56 75 57 42 58
REMARK SMILES IDX 26 59 27 60 35 61 28 62 30 63 36 64 29 65 31 66 32 67 33 68
REMARK SMILES IDX 34 69 58 70 59 71 67 72 60 73 62 74 68 75 61 76 63 77 64 78
REMARK SMILES IDX 65 79 66 80 43 81 44 82 52 83 45 84 47 85 53 86 46 87 48 88
REMARK SMILES IDX 49 89 50 90 51 91
REMARK H PARENT 10 6 6 10 14 25 73 44 41 55
REMARK Flexibility Score: inf
ROOT
ATOM      1  C   UNL A   1      31.641  28.040  26.653  1.00  0.00     0.042 C 
ENDROOT
BRANCH   1   2
ATOM      2  C   UNL A   1      31.015  26.985  25.770  1.00  0.00     0.118 C 
BRANCH   2   3
ATOM      3  N   UNL A   1      30.844  25.690  26.414  1.00  0.00    -0.351 N 
ATOM      4  C   UNL A   1      31.665  24.608  26.579  1.00  0.00     0.278 C 
ATOM      5  O   UNL A   1      31.198  23.696  27.274  1.00  0.00    -0.268 OA
ATOM      6  H   UNL A   1      29.953  25.569  26.815  1.00  0.00     0.163 HD
BRANCH   4   7
ATOM      7  C   UNL A   1      33.040  24.473  25.858  1.00  0.00     0.275 C 
ATOM      8  N   UNL A   1      32.856  24.306  24.355  1.00  0.00    -0.320 N 
ATOM      9  C   UNL A   1      33.158  22.896  24.070  1.00  0.00     0.188 C 
ATOM     10  H   UNL A   1      31.907  24.478  24.023  1.00  0.00     0.349 HD
ATOM     11  C   UNL A   1      33.883  23.268  26.264  1.00  0.00     0.085 C 
ATOM     12  C   UNL A   1      34.340  22.611  24.985  1.00  0.00     0.054 C 
ATOM     13  C   UNL A   1      31.944  21.985  24.366  1.00  0.00     0.065 C 
ATOM     14  C   UNL A   1      34.678  21.134  25.163  1.00  0.00     0.010 C 
ATOM     15  C   UNL A   1      32.349  20.512  24.406  1.00  0.00     0.006 C 
ATOM     16  C   UNL A   1      33.456  20.256  25.426  1.00  0.00     0.001 C 
BRANCH   8  17
ATOM     17  C   UNL A   1      33.628  25.350  23.612  1.00  0.00     0.184 C 
ATOM     18  C   UNL A   1      34.313  26.185  24.716  1.00  0.00     0.075 C 
BRANCH  17  19
ATOM     19  C   UNL A   1      32.880  26.297  22.588  1.00  0.00     0.041 C 
ATOM     20  C   UNL A   1      33.653  27.607  22.330  1.00  0.00     0.013 C 
ATOM     21  C   UNL A   1      32.670  25.676  21.193  1.00  0.00     0.013 C 
ENDBRANCH  17  19
ENDBRANCH   8  17
ENDBRANCH   4   7
ENDBRANCH   2   3
ENDBRANCH   1   2
BRANCH   1  22
ATOM     22  C   UNL A   1      32.556  28.989  25.909  1.00  0.00     0.118 C 
BRANCH  22  23
ATOM     23  N   UNL A   1      32.253  30.392  26.183  1.00  0.00    -0.352 N 
ATOM     24  C   UNL A   1      32.882  31.308  26.994  1.00  0.00     0.251 C 
ATOM     25  H   UNL A   1      31.464  30.741  25.708  1.00  0.00     0.163 HD
ATOM     26  O   UNL A   1      32.321  32.365  27.260  1.00  0.00    -0.269 OA
BRANCH  24  27
ATOM     27  C   UNL A   1      34.216  31.012  27.560  1.00  0.00     0.039 A 
ATOM     28  C   UNL A   1      35.091  32.063  27.845  1.00  0.00     0.014 A 
ATOM     29  C   UNL A   1      34.608  29.696  27.808  1.00  0.00     0.014 A 
ATOM     30  C   UNL A   1      36.315  31.795  28.463  1.00  0.00     0.010 A 
ATOM     31  C   UNL A   1      35.763  29.442  28.534  1.00  0.00     0.010 A 
ATOM     32  C   UNL A   1      36.636  30.487  28.861  1.00  0.00    -0.014 A 
BRANCH  32  33
ATOM     33  C   UNL A   1      37.865  30.184  29.636  1.00  0.00     0.031 A 
ATOM     34  C   UNL A   1      38.887  29.221  29.092  1.00  0.00     0.074 A 
ATOM     35  C   UNL A   1      38.006  30.693  30.877  1.00  0.00     0.049 A 
ATOM     36  N   UNL A   1      39.979  28.774  29.655  1.00  0.00    -0.248 NA
ATOM     37  C   UNL A   1      38.634  28.659  27.753  1.00  0.00     0.031 C 
ATOM     38  C   UNL A   1      37.039  31.564  31.550  1.00  0.00     0.029 A 
ATOM     39  N   UNL A   1      39.003  30.528  31.806  1.00  0.00    -0.354 N 
ATOM     40  C   UNL A   1      40.519  27.855  28.763  1.00  0.00     0.074 A 
ATOM     41  C   UNL A   1      39.613  27.776  27.638  1.00  0.00     0.031 C 
ATOM     42  C   UNL A   1      37.496  31.866  32.775  1.00  0.00     0.029 A 
ATOM     43  C   UNL A   1      38.763  31.179  32.993  1.00  0.00     0.049 A 
ATOM     44  H   UNL A   1      39.813  29.994  31.638  1.00  0.00     0.167 HD
ATOM     45  C   UNL A   1      41.677  27.162  28.856  1.00  0.00     0.034 A 
ATOM     46  C   UNL A   1      39.477  31.208  34.136  1.00  0.00     0.034 A 
ATOM     47  C   UNL A   1      42.592  27.275  29.959  1.00  0.00     0.049 A 
ATOM     48  C   UNL A   1      40.776  30.455  34.199  1.00  0.00     0.074 A 
ATOM     49  C   UNL A   1      43.837  26.693  30.105  1.00  0.00     0.029 A 
ATOM     50  N   UNL A   1      42.353  28.008  31.111  1.00  0.00    -0.354 N 
ATOM     51  N   UNL A   1      41.352  29.723  33.276  1.00  0.00    -0.248 NA
ATOM     52  C   UNL A   1      41.541  30.556  35.451  1.00  0.00     0.031 C 
ATOM     53  C   UNL A   1      44.337  27.045  31.364  1.00  0.00     0.029 A 
ATOM     54  C   UNL A   1      43.419  27.878  31.984  1.00  0.00     0.049 A 
ATOM     55  H   UNL A   1      41.545  28.543  31.283  1.00  0.00     0.167 HD
ATOM     56  C   UNL A   1      42.559  29.303  33.821  1.00  0.00     0.074 A 
ATOM     57  C   UNL A   1      42.644  29.884  35.145  1.00  0.00     0.031 C 
ATOM     58  C   UNL A   1      43.506  28.496  33.282  1.00  0.00     0.034 A 
BRANCH  45  59
ATOM     59  C   UNL A   1      42.045  26.254  27.711  1.00  0.00     0.023 A 
ATOM     60  C   UNL A   1      42.853  26.741  26.663  1.00  0.00     0.012 A 
ATOM     61  C   UNL A   1      41.643  24.904  27.700  1.00  0.00     0.148 A 
ATOM     62  C   UNL A   1      43.222  25.913  25.603  1.00  0.00     0.002 A 
ATOM     63  C   UNL A   1      42.056  24.071  26.667  1.00  0.00     0.091 A 
ATOM     64  F   UNL A   1      40.859  24.462  28.694  1.00  0.00    -0.205 F 
ATOM     65  C   UNL A   1      42.833  24.576  25.612  1.00  0.00     0.022 A 
BRANCH  63  66
ATOM     66  S   UNL A   1      41.679  22.315  26.626  1.00  0.00     0.127 S 
ATOM     67  O   UNL A   1      40.217  22.328  26.592  1.00  0.00    -0.237 OA
ATOM     68  O   UNL A   1      42.314  21.896  25.376  1.00  0.00    -0.237 OA
ATOM     69  O   UNL A   1      42.270  21.748  27.829  1.00  0.00    -0.744 OA
ENDBRANCH  63  66
ENDBRANCH  45  59
BRANCH  46  70
ATOM     70  C   UNL A   1      39.001  32.019  35.292  1.00  0.00     0.023 A 
ATOM     71  C   UNL A   1      39.114  33.422  35.247  1.00  0.00     0.012 A 
ATOM     72  C   UNL A   1      38.413  31.414  36.419  1.00  0.00     0.148 A 
ATOM     73  C   UNL A   1      38.684  34.206  36.318  1.00  0.00     0.002 A 
ATOM     74  C   UNL A   1      37.933  32.204  37.458  1.00  0.00     0.091 A 
ATOM     75  F   UNL A   1      38.322  30.078  36.447  1.00  0.00    -0.205 F 
ATOM     76  C   UNL A   1      38.085  33.598  37.418  1.00  0.00     0.022 A 
BRANCH  74  77
ATOM     77  S   UNL A   1      37.027  31.519  38.850  1.00  0.00     0.127 S 
ATOM     78  O   UNL A   1      37.964  31.730  39.950  1.00  0.00    -0.237 OA
ATOM     79  O   UNL A   1      35.837  32.369  38.880  1.00  0.00    -0.237 OA
ATOM     80  O   UNL A   1      36.763  30.130  38.502  1.00  0.00    -0.744 OA
ENDBRANCH  74  77
ENDBRANCH  46  70
BRANCH  58  81
ATOM     81  C   UNL A   1      44.734  28.214  34.108  1.00  0.00     0.023 A 
ATOM     82  C   UNL A   1      45.816  29.115  34.090  1.00  0.00     0.012 A 
ATOM     83  C   UNL A   1      44.784  27.089  34.956  1.00  0.00     0.148 A 
ATOM     84  C   UNL A   1      46.944  28.884  34.876  1.00  0.00     0.002 A 
ATOM     85  C   UNL A   1      45.888  26.894  35.775  1.00  0.00     0.091 A 
ATOM     86  F   UNL A   1      43.750  26.235  34.946  1.00  0.00    -0.205 F 
ATOM     87  C   UNL A   1      46.975  27.782  35.727  1.00  0.00     0.022 A 
BRANCH  85  88
ATOM     88  S   UNL A   1      45.976  25.558  36.974  1.00  0.00     0.127 S 
ATOM     89  O   UNL A   1      45.741  24.387  36.131  1.00  0.00    -0.237 OA
ATOM     90  O   UNL A   1      47.344  25.685  37.477  1.00  0.00    -0.237 OA
ATOM     91  O   UNL A   1      44.940  25.833  37.960  1.00  0.00    -0.744 OA
ENDBRANCH  85  88
ENDBRANCH  58  81
ENDBRANCH  32  33
ENDBRANCH  24  27
ENDBRANCH  22  23
ENDBRANCH   1  22
TORSDOF 15
ENDMDL
MODEL 2
REMARK VINA RESULT:     -12.2      2.313      8.074
REMARK SMILES CC(C)[C@@H](C)[N@@H+]1[C@@H](C(=O)NCCCNC(=O)c2ccc(-c3c4nc(c(-c5cccc(S(=O)(=O)[O-])c5F)c5ccc([nH]5)c(-c5cccc(S(=O)(=O)[O-])c5F)c5nc(c(-c6cccc(S(=O)(=O)[O-])c6F)c6ccc3[nH]6)C=C5)C=C4)cc2)C[C@H]2CCCC[C@H]21
REMARK SMILES IDX 12 1 11 2 10 3 8 4 9 5 7 7 6 8 86 9 80 11 81 12 85 13 82 14
REMARK SMILES IDX 84 15 83 16 4 17 5 18 2 19 1 20 3 21 13 22 14 23 15 24 16 26
REMARK SMILES IDX 17 27 18 28 79 29 19 30 78 31 20 32 21 33 22 34 72 35 23 36
REMARK SMILES IDX 77 37 71 38 73 39 24 40 76 41 70 42 69 43 25 45 57 46 37 47
REMARK SMILES IDX 56 48 38 49 41 50 55 51 74 52 39 53 40 54 54 56 75 57 42 58
REMARK SMILES IDX 26 59 27 60 35 61 28 62 30 63 36 64 29 65 31 66 32 67 33 68
REMARK SMILES IDX 34 69 58 70 59 71 67 72 60 73 62 74 68 75 61 76 63 77 64 78
REMARK SMILES IDX 65 79 66 80 43 81 44 82 52 83 45 84 47 85 53 86 46 87 48 88
REMARK SMILES IDX 49 89 50 90 51 91
REMARK H PARENT 10 6 6 10 14 25 73 44 41 55
REMARK Flexibility Score: inf
ROOT
ATOM      1  C   UNL A   1      33.136  27.321  25.655  1.00  0.00     0.042 C 
ENDROOT
BRANCH   1   2
ATOM      2  C   UNL A   1      33.498  25.870  25.432  1.00  0.00     0.118 C 
BRANCH   2   3
ATOM      3  N   UNL A   1      32.630  24.925  26.121  1.00  0.00    -0.351 N 
ATOM      4  C   UNL A   1      32.810  23.650  26.584  1.00  0.00     0.278 C 
ATOM      5  O   UNL A   1      31.852  23.179  27.211  1.00  0.00    -0.268 OA
ATOM      6  H   UNL A   1      31.725  25.276  26.288  1.00  0.00     0.163 HD
BRANCH   4   7
ATOM      7  C   UNL A   1      34.077  22.802  26.256  1.00  0.00     0.275 C 
ATOM      8  N   UNL A   1      34.511  23.006  24.810  1.00  0.00    -0.320 N 
ATOM      9  C   UNL A   1      34.142  21.770  24.104  1.00  0.00     0.188 C 
ATOM     10  H   UNL A   1      34.039  23.773  24.329  1.00  0.00     0.349 HD
ATOM     11  C   UNL A   1      33.911  21.292  26.384  1.00  0.00     0.085 C 
ATOM     12  C   UNL A   1      34.475  20.687  25.120  1.00  0.00     0.054 C 
ATOM     13  C   UNL A   1      32.648  21.771  23.703  1.00  0.00     0.065 C 
ATOM     14  C   UNL A   1      33.896  19.310  24.810  1.00  0.00     0.010 C 
ATOM     15  C   UNL A   1      32.182  20.375  23.291  1.00  0.00     0.006 C 
ATOM     16  C   UNL A   1      32.428  19.346  24.391  1.00  0.00     0.001 C 
BRANCH   8  17
ATOM     17  C   UNL A   1      35.939  23.446  24.747  1.00  0.00     0.184 C 
ATOM     18  C   UNL A   1      36.359  23.194  23.282  1.00  0.00     0.075 C 
BRANCH  17  19
ATOM     19  C   UNL A   1      36.997  22.814  25.740  1.00  0.00     0.041 C 
ATOM     20  C   UNL A   1      37.804  21.672  25.088  1.00  0.00     0.013 C 
ATOM     21  C   UNL A   1      38.056  23.810  26.252  1.00  0.00     0.013 C 
ENDBRANCH  17  19
ENDBRANCH   8  17
ENDBRANCH   4   7
ENDBRANCH   2   3
ENDBRANCH   1   2
BRANCH   1  22
ATOM     22  C   UNL A   1      33.905  27.971  26.787  1.00  0.00     0.118 C 
BRANCH  22  23
ATOM     23  N   UNL A   1      33.708  29.417  26.841  1.00  0.00    -0.352 N 
ATOM     24  C   UNL A   1      34.415  30.399  27.496  1.00  0.00     0.251 C 
ATOM     25  H   UNL A   1      32.938  29.745  26.321  1.00  0.00     0.163 HD
ATOM     26  O   UNL A   1      33.937  31.523  27.596  1.00  0.00    -0.269 OA
BRANCH  24  27
ATOM     27  C   UNL A   1      35.734  30.096  28.093  1.00  0.00     0.039 A 
ATOM     28  C   UNL A   1      35.804  29.651  29.416  1.00  0.00     0.014 A 
ATOM     29  C   UNL A   1      36.905  30.254  27.351  1.00  0.00     0.014 A 
ATOM     30  C   UNL A   1      37.037  29.277  29.955  1.00  0.00     0.010 A 
ATOM     31  C   UNL A   1      38.107  29.765  27.843  1.00  0.00     0.010 A 
ATOM     32  C   UNL A   1      38.191  29.280  29.153  1.00  0.00    -0.014 A 
BRANCH  32  33
ATOM     33  C   UNL A   1      39.491  28.767  29.652  1.00  0.00     0.031 A 
ATOM     34  C   UNL A   1      40.222  29.491  30.752  1.00  0.00     0.074 A 
ATOM     35  C   UNL A   1      40.064  27.713  29.037  1.00  0.00     0.049 A 
ATOM     36  N   UNL A   1      41.399  29.241  31.261  1.00  0.00    -0.248 NA
ATOM     37  C   UNL A   1      39.558  30.672  31.333  1.00  0.00     0.031 C 
ATOM     38  C   UNL A   1      39.498  26.985  27.898  1.00  0.00     0.029 A 
ATOM     39  N   UNL A   1      41.265  27.087  29.262  1.00  0.00    -0.354 N 
ATOM     40  C   UNL A   1      41.633  30.248  32.190  1.00  0.00     0.074 A 
ATOM     41  C   UNL A   1      40.495  31.139  32.145  1.00  0.00     0.031 C 
ATOM     42  C   UNL A   1      40.341  26.007  27.535  1.00  0.00     0.029 A 
ATOM     43  C   UNL A   1      41.527  26.063  28.383  1.00  0.00     0.049 A 
ATOM     44  H   UNL A   1      41.881  27.347  29.986  1.00  0.00     0.167 HD
ATOM     45  C   UNL A   1      42.686  30.403  33.026  1.00  0.00     0.034 A 
ATOM     46  C   UNL A   1      42.607  25.266  28.262  1.00  0.00     0.034 A 
ATOM     47  C   UNL A   1      43.796  29.493  33.093  1.00  0.00     0.049 A 
ATOM     48  C   UNL A   1      43.748  25.439  29.226  1.00  0.00     0.074 A 
ATOM     49  C   UNL A   1      44.864  29.504  33.971  1.00  0.00     0.029 A 
ATOM     50  N   UNL A   1      43.989  28.418  32.240  1.00  0.00    -0.354 N 
ATOM     51  N   UNL A   1      43.874  26.297  30.210  1.00  0.00    -0.248 NA
ATOM     52  C   UNL A   1      44.882  24.515  29.084  1.00  0.00     0.031 C 
ATOM     53  C   UNL A   1      45.724  28.456  33.624  1.00  0.00     0.029 A 
ATOM     54  C   UNL A   1      45.170  27.769  32.556  1.00  0.00     0.049 A 
ATOM     55  H   UNL A   1      43.377  28.155  31.515  1.00  0.00     0.167 HD
ATOM     56  C   UNL A   1      45.084  25.997  30.824  1.00  0.00     0.074 A 
ATOM     57  C   UNL A   1      45.640  24.861  30.117  1.00  0.00     0.031 C 
ATOM     58  C   UNL A   1      45.689  26.614  31.868  1.00  0.00     0.034 A 
BRANCH  45  59
ATOM     59  C   UNL A   1      42.665  31.577  33.971  1.00  0.00     0.023 A 
ATOM     60  C   UNL A   1      43.184  32.821  33.553  1.00  0.00     0.012 A 
ATOM     61  C   UNL A   1      42.081  31.469  35.248  1.00  0.00     0.148 A 
ATOM     62  C   UNL A   1      43.158  33.926  34.403  1.00  0.00     0.002 A 
ATOM     63  C   UNL A   1      42.013  32.587  36.071  1.00  0.00     0.091 A 
ATOM     64  F   UNL A   1      41.610  30.275  35.636  1.00  0.00    -0.205 F 
ATOM     65  C   UNL A   1      42.562  33.812  35.656  1.00  0.00     0.022 A 
BRANCH  63  66
ATOM     66  S   UNL A   1      41.193  32.568  37.669  1.00  0.00     0.127 S 
ATOM     67  O   UNL A   1      41.196  33.988  38.018  1.00  0.00    -0.237 OA
ATOM     68  O   UNL A   1      39.877  32.026  37.331  1.00  0.00    -0.237 OA
ATOM     69  O   UNL A   1      42.002  31.714  38.526  1.00  0.00    -0.744 OA
ENDBRANCH  63  66
ENDBRANCH  45  59
BRANCH  46  70
ATOM     70  C   UNL A   1      42.635  24.200  27.221  1.00  0.00     0.023 A 
ATOM     71  C   UNL A   1      43.256  24.456  25.983  1.00  0.00     0.012 A 
ATOM     72  C   UNL A   1      42.079  22.929  27.460  1.00  0.00     0.148 A 
ATOM     73  C   UNL A   1      43.290  23.479  24.988  1.00  0.00     0.002 A 
ATOM     74  C   UNL A   1      42.167  21.940  26.487  1.00  0.00     0.091 A 
ATOM     75  F   UNL A   1      41.486  22.707  28.641  1.00  0.00    -0.205 F 
ATOM     76  C   UNL A   1      42.755  22.219  25.243  1.00  0.00     0.022 A 
BRANCH  74  77
ATOM     77  S   UNL A   1      41.629  20.251  26.777  1.00  0.00     0.127 S 
ATOM     78  O   UNL A   1      41.854  19.637  25.471  1.00  0.00    -0.237 OA
ATOM     79  O   UNL A   1      42.548  19.819  27.830  1.00  0.00    -0.237 OA
ATOM     80  O   UNL A   1      40.238  20.348  27.199  1.00  0.00    -0.744 OA
ENDBRANCH  74  77
ENDBRANCH  46  70
BRANCH  58  81
ATOM     81  C   UNL A   1      47.011  26.060  32.335  1.00  0.00     0.023 A 
ATOM     82  C   UNL A   1      48.212  26.573  31.809  1.00  0.00     0.012 A 
ATOM     83  C   UNL A   1      47.059  25.080  33.346  1.00  0.00     0.148 A 
ATOM     84  C   UNL A   1      49.442  26.093  32.257  1.00  0.00     0.002 A 
ATOM     85  C   UNL A   1      48.288  24.646  33.825  1.00  0.00     0.091 A 
ATOM     86  F   UNL A   1      45.902  24.595  33.822  1.00  0.00    -0.205 F 
ATOM     87  C   UNL A   1      49.481  25.140  33.272  1.00  0.00     0.022 A 
BRANCH  85  88
ATOM     88  S   UNL A   1      48.438  23.496  35.197  1.00  0.00     0.127 S 
ATOM     89  O   UNL A   1      49.889  23.394  35.343  1.00  0.00    -0.237 OA
ATOM     90  O   UNL A   1      47.764  24.216  36.278  1.00  0.00    -0.237 OA
ATOM     91  O   UNL A   1      47.768  22.274  34.773  1.00  0.00    -0.744 OA
ENDBRANCH  85  88
ENDBRANCH  58  81
ENDBRANCH  32  33
ENDBRANCH  24  27
ENDBRANCH  22  23
ENDBRANCH   1  22
TORSDOF 15
ENDMDL
MODEL 3
REMARK VINA RESULT:     -12.2      5.185      9.987
REMARK SMILES CC(C)[C@@H](C)[N@@H+]1[C@@H](C(=O)NCCCNC(=O)c2ccc(-c3c4nc(c(-c5cccc(S(=O)(=O)[O-])c5F)c5ccc([nH]5)c(-c5cccc(S(=O)(=O)[O-])c5F)c5nc(c(-c6cccc(S(=O)(=O)[O-])c6F)c6ccc3[nH]6)C=C5)C=C4)cc2)C[C@H]2CCCC[C@H]21
REMARK SMILES IDX 12 1 11 2 10 3 8 4 9 5 7 7 6 8 86 9 80 11 81 12 85 13 82 14
REMARK SMILES IDX 84 15 83 16 4 17 5 18 2 19 1 20 3 21 13 22 14 23 15 24 16 26
REMARK SMILES IDX 17 27 18 28 79 29 19 30 78 31 20 32 21 33 22 34 72 35 23 36
REMARK SMILES IDX 77 37 71 38 73 39 24 40 76 41 70 42 69 43 25 45 57 46 37 47
REMARK SMILES IDX 56 48 38 49 41 50 55 51 74 52 39 53 40 54 54 56 75 57 42 58
REMARK SMILES IDX 26 59 27 60 35 61 28 62 30 63 36 64 29 65 31 66 32 67 33 68
REMARK SMILES IDX 34 69 58 70 59 71 67 72 60 73 62 74 68 75 61 76 63 77 64 78
REMARK SMILES IDX 65 79 66 80 43 81 44 82 52 83 45 84 47 85 53 86 46 87 48 88
REMARK SMILES IDX 49 89 50 90 51 91
REMARK H PARENT 10 6 6 10 14 25 73 44 41 55
REMARK Flexibility Score: inf
ROOT
ATOM      1  C   UNL A   1      35.018  21.848  26.182  1.00  0.00     0.042 C 
ENDROOT
BRANCH   1   2
ATOM      2  C   UNL A   1      33.744  22.147  25.423  1.00  0.00     0.118 C 
BRANCH   2   3
ATOM      3  N   UNL A   1      32.685  22.727  26.237  1.00  0.00    -0.351 N 
ATOM      4  C   UNL A   1      32.314  24.014  26.516  1.00  0.00     0.278 C 
ATOM      5  O   UNL A   1      31.284  24.128  27.195  1.00  0.00    -0.268 OA
ATOM      6  H   UNL A   1      32.119  22.053  26.678  1.00  0.00     0.163 HD
BRANCH   4   7
ATOM      7  C   UNL A   1      33.175  25.249  26.113  1.00  0.00     0.275 C 
ATOM      8  N   UNL A   1      32.319  26.506  26.019  1.00  0.00    -0.320 N 
ATOM      9  C   UNL A   1      32.182  26.789  24.583  1.00  0.00     0.188 C 
ATOM     10  H   UNL A   1      31.374  26.404  26.391  1.00  0.00     0.349 HD
ATOM     11  C   UNL A   1      33.856  25.162  24.751  1.00  0.00     0.085 C 
ATOM     12  C   UNL A   1      33.565  26.461  24.039  1.00  0.00     0.054 C 
ATOM     13  C   UNL A   1      31.070  25.929  23.939  1.00  0.00     0.065 C 
ATOM     14  C   UNL A   1      33.650  26.339  22.520  1.00  0.00     0.010 C 
ATOM     15  C   UNL A   1      31.154  25.960  22.413  1.00  0.00     0.006 C 
ATOM     16  C   UNL A   1      32.523  25.507  21.911  1.00  0.00     0.001 C 
BRANCH   8  17
ATOM     17  C   UNL A   1      32.873  27.585  26.894  1.00  0.00     0.184 C 
ATOM     18  C   UNL A   1      31.638  28.176  27.610  1.00  0.00     0.075 C 
BRANCH  17  19
ATOM     19  C   UNL A   1      33.745  28.741  26.255  1.00  0.00     0.041 C 
ATOM     20  C   UNL A   1      32.971  30.072  26.154  1.00  0.00     0.013 C 
ATOM     21  C   UNL A   1      35.022  29.080  27.049  1.00  0.00     0.013 C 
ENDBRANCH  17  19
ENDBRANCH   8  17
ENDBRANCH   4   7
ENDBRANCH   2   3
ENDBRANCH   1   2
BRANCH   1  22
ATOM     22  C   UNL A   1      36.277  22.135  25.392  1.00  0.00     0.118 C 
BRANCH  22  23
ATOM     23  N   UNL A   1      37.255  21.055  25.484  1.00  0.00    -0.352 N 
ATOM     24  C   UNL A   1      38.592  21.075  25.812  1.00  0.00     0.251 C 
ATOM     25  H   UNL A   1      36.900  20.161  25.275  1.00  0.00     0.163 HD
ATOM     26  O   UNL A   1      39.281  20.084  25.599  1.00  0.00    -0.269 OA
BRANCH  24  27
ATOM     27  C   UNL A   1      39.198  22.290  26.399  1.00  0.00     0.039 A 
ATOM     28  C   UNL A   1      40.282  22.165  27.271  1.00  0.00     0.014 A 
ATOM     29  C   UNL A   1      38.696  23.555  26.093  1.00  0.00     0.014 A 
ATOM     30  C   UNL A   1      40.915  23.312  27.756  1.00  0.00     0.010 A 
ATOM     31  C   UNL A   1      39.399  24.690  26.472  1.00  0.00     0.010 A 
ATOM     32  C   UNL A   1      40.511  24.584  27.315  1.00  0.00    -0.014 A 
BRANCH  32  33
ATOM     33  C   UNL A   1      41.241  25.815  27.706  1.00  0.00     0.031 A 
ATOM     34  C   UNL A   1      40.539  26.905  28.471  1.00  0.00     0.074 A 
ATOM     35  C   UNL A   1      42.506  25.998  27.273  1.00  0.00     0.049 A 
ATOM     36  N   UNL A   1      40.986  28.079  28.830  1.00  0.00    -0.248 NA
ATOM     37  C   UNL A   1      39.137  26.657  28.856  1.00  0.00     0.031 C 
ATOM     38  C   UNL A   1      43.263  25.055  26.445  1.00  0.00     0.029 A 
ATOM     39  N   UNL A   1      43.368  27.052  27.445  1.00  0.00    -0.354 N 
ATOM     40  C   UNL A   1      39.917  28.722  29.444  1.00  0.00     0.074 A 
ATOM     41  C   UNL A   1      38.786  27.824  29.373  1.00  0.00     0.031 C 
ATOM     42  C   UNL A   1      44.477  25.566  26.193  1.00  0.00     0.029 A 
ATOM     43  C   UNL A   1      44.573  26.888  26.802  1.00  0.00     0.049 A 
ATOM     44  H   UNL A   1      43.146  27.849  27.978  1.00  0.00     0.167 HD
ATOM     45  C   UNL A   1      39.887  29.936  30.040  1.00  0.00     0.034 A 
ATOM     46  C   UNL A   1      45.632  27.716  26.702  1.00  0.00     0.034 A 
ATOM     47  C   UNL A   1      41.025  30.808  30.141  1.00  0.00     0.049 A 
ATOM     48  C   UNL A   1      45.583  29.045  27.402  1.00  0.00     0.074 A 
ATOM     49  C   UNL A   1      41.127  32.015  30.809  1.00  0.00     0.029 A 
ATOM     50  N   UNL A   1      42.255  30.573  29.547  1.00  0.00    -0.354 N 
ATOM     51  N   UNL A   1      44.617  29.564  28.121  1.00  0.00    -0.248 NA
ATOM     52  C   UNL A   1      46.781  29.892  27.302  1.00  0.00     0.031 C 
ATOM     53  C   UNL A   1      42.409  32.528  30.586  1.00  0.00     0.029 A 
ATOM     54  C   UNL A   1      43.118  31.622  29.813  1.00  0.00     0.049 A 
ATOM     55  H   UNL A   1      42.482  29.778  29.013  1.00  0.00     0.167 HD
ATOM     56  C   UNL A   1      45.101  30.781  28.586  1.00  0.00     0.074 A 
ATOM     57  C   UNL A   1      46.455  30.909  28.088  1.00  0.00     0.031 C 
ATOM     58  C   UNL A   1      44.476  31.716  29.344  1.00  0.00     0.034 A 
BRANCH  45  59
ATOM     59  C   UNL A   1      38.591  30.376  30.671  1.00  0.00     0.023 A 
ATOM     60  C   UNL A   1      38.295  30.000  31.998  1.00  0.00     0.012 A 
ATOM     61  C   UNL A   1      37.693  31.209  29.975  1.00  0.00     0.148 A 
ATOM     62  C   UNL A   1      37.111  30.411  32.608  1.00  0.00     0.002 A 
ATOM     63  C   UNL A   1      36.538  31.656  30.607  1.00  0.00     0.091 A 
ATOM     64  F   UNL A   1      37.980  31.541  28.708  1.00  0.00    -0.205 F 
ATOM     65  C   UNL A   1      36.239  31.249  31.917  1.00  0.00     0.022 A 
BRANCH  63  66
ATOM     66  S   UNL A   1      35.391  32.804  29.835  1.00  0.00     0.127 S 
ATOM     67  O   UNL A   1      36.257  33.953  29.573  1.00  0.00    -0.237 OA
ATOM     68  O   UNL A   1      34.979  32.067  28.641  1.00  0.00    -0.237 OA
ATOM     69  O   UNL A   1      34.332  33.030  30.807  1.00  0.00    -0.744 OA
ENDBRANCH  63  66
ENDBRANCH  45  59
BRANCH  46  70
ATOM     70  C   UNL A   1      46.846  27.286  25.952  1.00  0.00     0.023 A 
ATOM     71  C   UNL A   1      47.790  26.451  26.580  1.00  0.00     0.012 A 
ATOM     72  C   UNL A   1      47.056  27.674  24.615  1.00  0.00     0.148 A 
ATOM     73  C   UNL A   1      48.939  26.040  25.904  1.00  0.00     0.002 A 
ATOM     74  C   UNL A   1      48.173  27.213  23.927  1.00  0.00     0.091 A 
ATOM     75  F   UNL A   1      46.151  28.475  24.036  1.00  0.00    -0.205 F 
ATOM     76  C   UNL A   1      49.126  26.412  24.576  1.00  0.00     0.022 A 
BRANCH  74  77
ATOM     77  S   UNL A   1      48.426  27.530  22.177  1.00  0.00     0.127 S 
ATOM     78  O   UNL A   1      47.162  28.159  21.801  1.00  0.00    -0.237 OA
ATOM     79  O   UNL A   1      49.581  28.429  22.198  1.00  0.00    -0.237 OA
ATOM     80  O   UNL A   1      48.690  26.230  21.576  1.00  0.00    -0.744 OA
ENDBRANCH  74  77
ENDBRANCH  46  70
BRANCH  58  81
ATOM     81  C   UNL A   1      45.257  32.952  29.710  1.00  0.00     0.023 A 
ATOM     82  C   UNL A   1      46.062  32.958  30.866  1.00  0.00     0.012 A 
ATOM     83  C   UNL A   1      45.246  34.081  28.868  1.00  0.00     0.148 A 
ATOM     84  C   UNL A   1      46.815  34.082  31.198  1.00  0.00     0.002 A 
ATOM     85  C   UNL A   1      46.041  35.177  29.177  1.00  0.00     0.091 A 
ATOM     86  F   UNL A   1      44.460  34.060  27.781  1.00  0.00    -0.205 F 
ATOM     87  C   UNL A   1      46.815  35.186  30.349  1.00  0.00     0.022 A 
BRANCH  85  88
ATOM     88  S   UNL A   1      46.181  36.604  28.094  1.00  0.00     0.127 S 
ATOM     89  O   UNL A   1      44.891  37.262  28.300  1.00  0.00    -0.237 OA
ATOM     90  O   UNL A   1      47.327  37.312  28.664  1.00  0.00    -0.237 OA
ATOM     91  O   UNL A   1      46.402  36.073  26.755  1.00  0.00    -0.744 OA
ENDBRANCH  85  88
ENDBRANCH  58  81
ENDBRANCH  32  33
ENDBRANCH  24  27
ENDBRANCH  22  23
ENDBRANCH   1  22
TORSDOF 15
ENDMDL
