MODEL 1
REMARK VINA RESULT:     -11.7      0.000      0.000
REMARK SMILES O=C(NCCCNC(=O)c1ccc(C[NH2+][C@@H]2CCCc3sccc32)nc1)c1ccc(-c2c3nc(c(-c4cccc(S(=O)(=O)[O-])c4F)c4ccc([nH]4)c(-c4cccc(S(=O)(=O)[O-])c4F)c4nc(c(-c5cccc(S(=O)(=O)[O-])c5F)c5ccc2[nH]5)C=C4)C=C3)cc1
REMARK SMILES IDX 5 1 4 2 3 3 1 4 2 5 27 7 28 8 89 9 29 10 88 11 30 12 31 13
REMARK SMILES IDX 32 14 82 15 33 16 87 17 81 18 83 19 34 20 86 21 80 22 79 23
REMARK SMILES IDX 35 25 67 26 47 27 66 28 48 29 51 30 65 31 84 32 49 33 50 34
REMARK SMILES IDX 64 36 85 37 52 38 36 39 37 40 45 41 38 42 40 43 46 44 39 45
REMARK SMILES IDX 41 46 42 47 43 48 44 49 68 50 69 51 77 52 70 53 72 54 78 55
REMARK SMILES IDX 71 56 73 57 74 58 75 59 76 60 53 61 54 62 62 63 55 64 57 65
REMARK SMILES IDX 63 66 56 67 58 68 59 69 60 70 61 71 6 72 7 73 8 74 9 76
REMARK SMILES IDX 10 77 11 78 26 79 12 80 25 81 13 82 14 83 15 84 16 87 17 88
REMARK SMILES IDX 24 89 18 90 20 91 23 92 19 93 21 94 22 95
REMARK H PARENT 3 6 83 24 51 35 7 75 15 85 15 86
REMARK Flexibility Score: inf
ROOT
ATOM      1  C   UNL A   1      37.923  19.572  25.082  1.00  0.00     0.042 C 
ENDROOT
BRANCH   1   2
ATOM      2  C   UNL A   1      39.090  20.133  25.881  1.00  0.00     0.118 C 
BRANCH   2   3
ATOM      3  N   UNL A   1      40.207  19.204  25.972  1.00  0.00    -0.352 N 
ATOM      4  O   UNL A   1      42.348  18.522  25.976  1.00  0.00    -0.269 OA
ATOM      5  C   UNL A   1      41.553  19.446  26.121  1.00  0.00     0.251 C 
ATOM      6  H   UNL A   1      39.961  18.252  25.919  1.00  0.00     0.163 HD
BRANCH   5   7
ATOM      7  C   UNL A   1      42.035  20.811  26.424  1.00  0.00     0.039 A 
ATOM      8  C   UNL A   1      42.353  21.184  27.732  1.00  0.00     0.014 A 
ATOM      9  C   UNL A   1      42.184  21.728  25.382  1.00  0.00     0.014 A 
ATOM     10  C   UNL A   1      42.650  22.510  28.022  1.00  0.00     0.010 A 
ATOM     11  C   UNL A   1      42.583  23.037  25.663  1.00  0.00     0.010 A 
ATOM     12  C   UNL A   1      42.781  23.449  26.989  1.00  0.00    -0.014 A 
BRANCH  12  13
ATOM     13  C   UNL A   1      43.185  24.843  27.308  1.00  0.00     0.031 A 
ATOM     14  C   UNL A   1      42.220  25.802  27.948  1.00  0.00     0.074 A 
ATOM     15  C   UNL A   1      44.430  25.247  26.989  1.00  0.00     0.049 A 
ATOM     16  N   UNL A   1      42.393  27.062  28.250  1.00  0.00    -0.248 NA
ATOM     17  C   UNL A   1      40.884  25.284  28.283  1.00  0.00     0.031 C 
ATOM     18  C   UNL A   1      45.444  24.414  26.338  1.00  0.00     0.029 A 
ATOM     19  N   UNL A   1      45.050  26.458  27.152  1.00  0.00    -0.354 N 
ATOM     20  C   UNL A   1      41.180  27.503  28.766  1.00  0.00     0.074 A 
ATOM     21  C   UNL A   1      40.275  26.373  28.730  1.00  0.00     0.031 C 
ATOM     22  C   UNL A   1      46.560  25.135  26.163  1.00  0.00     0.029 A 
ATOM     23  C   UNL A   1      46.322  26.495  26.630  1.00  0.00     0.049 A 
ATOM     24  H   UNL A   1      44.627  27.227  27.599  1.00  0.00     0.167 HD
ATOM     25  C   UNL A   1      40.854  28.732  29.235  1.00  0.00     0.034 A 
ATOM     26  C   UNL A   1      47.191  27.515  26.507  1.00  0.00     0.034 A 
ATOM     27  C   UNL A   1      41.769  29.842  29.288  1.00  0.00     0.049 A 
ATOM     28  C   UNL A   1      46.807  28.865  27.035  1.00  0.00     0.074 A 
ATOM     29  C   UNL A   1      41.555  31.108  29.803  1.00  0.00     0.029 A 
ATOM     30  N   UNL A   1      43.066  29.826  28.796  1.00  0.00    -0.354 N 
ATOM     31  N   UNL A   1      45.694  29.233  27.625  1.00  0.00    -0.248 NA
ATOM     32  C   UNL A   1      47.805  29.936  26.910  1.00  0.00     0.031 C 
ATOM     33  C   UNL A   1      42.711  31.868  29.589  1.00  0.00     0.029 A 
ATOM     34  C   UNL A   1      43.660  31.063  28.981  1.00  0.00     0.049 A 
ATOM     35  H   UNL A   1      43.500  29.048  28.376  1.00  0.00     0.167 HD
ATOM     36  C   UNL A   1      45.871  30.565  27.973  1.00  0.00     0.074 A 
ATOM     37  C   UNL A   1      47.203  30.936  27.541  1.00  0.00     0.031 C 
ATOM     38  C   UNL A   1      45.004  31.406  28.590  1.00  0.00     0.034 A 
BRANCH  25  39
ATOM     39  C   UNL A   1      39.449  28.940  29.744  1.00  0.00     0.023 A 
ATOM     40  C   UNL A   1      39.122  28.590  31.070  1.00  0.00     0.012 A 
ATOM     41  C   UNL A   1      38.465  29.527  28.924  1.00  0.00     0.148 A 
ATOM     42  C   UNL A   1      37.830  28.782  31.559  1.00  0.00     0.002 A 
ATOM     43  C   UNL A   1      37.192  29.758  29.433  1.00  0.00     0.091 A 
ATOM     44  F   UNL A   1      38.785  29.837  27.660  1.00  0.00    -0.205 F 
ATOM     45  C   UNL A   1      36.869  29.373  30.744  1.00  0.00     0.022 A 
BRANCH  43  46
ATOM     46  S   UNL A   1      35.909  30.588  28.488  1.00  0.00     0.127 S 
ATOM     47  O   UNL A   1      35.415  29.501  27.644  1.00  0.00    -0.237 OA
ATOM     48  O   UNL A   1      34.981  31.015  29.536  1.00  0.00    -0.237 OA
ATOM     49  O   UNL A   1      36.571  31.678  27.784  1.00  0.00    -0.744 OA
ENDBRANCH  43  46
ENDBRANCH  25  39
BRANCH  26  50
ATOM     50  C   UNL A   1      48.520  27.273  25.880  1.00  0.00     0.023 A 
ATOM     51  C   UNL A   1      49.574  26.766  26.662  1.00  0.00     0.012 A 
ATOM     52  C   UNL A   1      48.722  27.483  24.502  1.00  0.00     0.148 A 
ATOM     53  C   UNL A   1      50.816  26.493  26.086  1.00  0.00     0.002 A 
ATOM     54  C   UNL A   1      49.940  27.154  23.924  1.00  0.00     0.091 A 
ATOM     55  F   UNL A   1      47.703  27.971  23.779  1.00  0.00    -0.205 F 
ATOM     56  C   UNL A   1      50.995  26.676  24.717  1.00  0.00     0.022 A 
BRANCH  54  57
ATOM     57  S   UNL A   1      50.218  27.223  22.151  1.00  0.00     0.127 S 
ATOM     58  O   UNL A   1      50.067  28.651  21.881  1.00  0.00    -0.237 OA
ATOM     59  O   UNL A   1      51.587  26.716  22.042  1.00  0.00    -0.237 OA
ATOM     60  O   UNL A   1      49.207  26.361  21.557  1.00  0.00    -0.744 OA
ENDBRANCH  54  57
ENDBRANCH  26  50
BRANCH  38  61
ATOM     61  C   UNL A   1      45.481  32.804  28.887  1.00  0.00     0.023 A 
ATOM     62  C   UNL A   1      46.171  33.078  30.083  1.00  0.00     0.012 A 
ATOM     63  C   UNL A   1      45.310  33.828  27.934  1.00  0.00     0.148 A 
ATOM     64  C   UNL A   1      46.658  34.359  30.340  1.00  0.00     0.002 A 
ATOM     65  C   UNL A   1      45.845  35.087  28.173  1.00  0.00     0.091 A 
ATOM     66  F   UNL A   1      44.632  33.551  26.811  1.00  0.00    -0.205 F 
ATOM     67  C   UNL A   1      46.508  35.359  29.381  1.00  0.00     0.022 A 
BRANCH  65  68
ATOM     68  S   UNL A   1      45.786  36.406  26.955  1.00  0.00     0.127 S 
ATOM     69  O   UNL A   1      44.351  36.672  26.873  1.00  0.00    -0.237 OA
ATOM     70  O   UNL A   1      46.566  37.460  27.604  1.00  0.00    -0.237 OA
ATOM     71  O   UNL A   1      46.390  35.864  25.745  1.00  0.00    -0.744 OA
ENDBRANCH  65  68
ENDBRANCH  38  61
ENDBRANCH  12  13
ENDBRANCH   5   7
ENDBRANCH   2   3
ENDBRANCH   1   2
BRANCH   1  72
ATOM     72  C   UNL A   1      36.742  20.523  24.955  1.00  0.00     0.118 C 
BRANCH  72  73
ATOM     73  N   UNL A   1      37.017  21.639  24.059  1.00  0.00    -0.352 N 
ATOM     74  C   UNL A   1      36.203  22.675  23.677  1.00  0.00     0.252 C 
ATOM     75  H   UNL A   1      37.922  21.651  23.669  1.00  0.00     0.163 HD
ATOM     76  O   UNL A   1      36.533  23.423  22.761  1.00  0.00    -0.269 OA
BRANCH  74  77
ATOM     77  C   UNL A   1      34.923  22.887  24.363  1.00  0.00     0.058 A 
ATOM     78  C   UNL A   1      33.739  22.314  23.902  1.00  0.00     0.017 A 
ATOM     79  C   UNL A   1      34.880  23.681  25.495  1.00  0.00     0.125 A 
ATOM     80  C   UNL A   1      32.542  22.653  24.520  1.00  0.00     0.030 A 
ATOM     81  N   UNL A   1      33.727  24.011  26.126  1.00  0.00    -0.255 NA
ATOM     82  C   UNL A   1      32.568  23.520  25.612  1.00  0.00     0.094 A 
BRANCH  82  83
ATOM     83  C   UNL A   1      31.254  24.052  26.164  1.00  0.00     0.318 C 
BRANCH  83  84
ATOM     84  N   UNL A   1      31.327  25.424  26.664  1.00  0.00    -0.335 N 
ATOM     85  H   UNL A   1      32.300  25.612  26.900  1.00  0.00     0.347 HD
ATOM     86  H   UNL A   1      30.676  25.452  27.448  1.00  0.00     0.347 HD
BRANCH  84  87
ATOM     87  C   UNL A   1      30.877  26.494  25.762  1.00  0.00     0.215 C 
ATOM     88  C   UNL A   1      29.746  25.969  24.838  1.00  0.00     0.071 C 
ATOM     89  C   UNL A   1      31.973  27.170  24.963  1.00  0.00     0.023 A 
ATOM     90  C   UNL A   1      29.386  26.990  23.748  1.00  0.00     0.012 C 
ATOM     91  C   UNL A   1      31.819  27.471  23.619  1.00  0.00     0.014 A 
ATOM     92  C   UNL A   1      33.229  27.675  25.439  1.00  0.00     0.022 A 
ATOM     93  C   UNL A   1      30.578  27.238  22.814  1.00  0.00     0.047 C 
ATOM     94  S   UNL A   1      33.221  28.132  22.917  1.00  0.00    -0.148 S 
ATOM     95  C   UNL A   1      34.027  28.151  24.422  1.00  0.00     0.065 A 
ENDBRANCH  84  87
ENDBRANCH  83  84
ENDBRANCH  82  83
ENDBRANCH  74  77
ENDBRANCH  72  73
ENDBRANCH   1  72
TORSDOF 16
ENDMDL
MODEL 2
REMARK VINA RESULT:     -11.7      0.981      7.586
REMARK SMILES O=C(NCCCNC(=O)c1ccc(C[NH2+][C@@H]2CCCc3sccc32)nc1)c1ccc(-c2c3nc(c(-c4cccc(S(=O)(=O)[O-])c4F)c4ccc([nH]4)c(-c4cccc(S(=O)(=O)[O-])c4F)c4nc(c(-c5cccc(S(=O)(=O)[O-])c5F)c5ccc2[nH]5)C=C4)C=C3)cc1
REMARK SMILES IDX 5 1 4 2 3 3 1 4 2 5 27 7 28 8 89 9 29 10 88 11 30 12 31 13
REMARK SMILES IDX 32 14 82 15 33 16 87 17 81 18 83 19 34 20 86 21 80 22 79 23
REMARK SMILES IDX 35 25 67 26 47 27 66 28 48 29 51 30 65 31 84 32 49 33 50 34
REMARK SMILES IDX 64 36 85 37 52 38 36 39 37 40 45 41 38 42 40 43 46 44 39 45
REMARK SMILES IDX 41 46 42 47 43 48 44 49 68 50 69 51 77 52 70 53 72 54 78 55
REMARK SMILES IDX 71 56 73 57 74 58 75 59 76 60 53 61 54 62 62 63 55 64 57 65
REMARK SMILES IDX 63 66 56 67 58 68 59 69 60 70 61 71 6 72 7 73 8 74 9 76
REMARK SMILES IDX 10 77 11 78 26 79 12 80 25 81 13 82 14 83 15 84 16 87 17 88
REMARK SMILES IDX 24 89 18 90 20 91 23 92 19 93 21 94 22 95
REMARK H PARENT 3 6 83 24 51 35 7 75 15 85 15 86
REMARK Flexibility Score: inf
ROOT
ATOM      1  C   UNL A   1      38.262  19.919  24.937  1.00  0.00     0.042 C 
ENDROOT
BRANCH   1   2
ATOM      2  C   UNL A   1      39.170  20.016  26.154  1.00  0.00     0.118 C 
BRANCH   2   3
ATOM      3  N   UNL A   1      40.339  19.154  26.054  1.00  0.00    -0.352 N 
ATOM      4  O   UNL A   1      42.494  18.604  25.740  1.00  0.00    -0.269 OA
ATOM      5  C   UNL A   1      41.676  19.472  26.032  1.00  0.00     0.251 C 
ATOM      6  H   UNL A   1      40.141  18.191  25.993  1.00  0.00     0.163 HD
BRANCH   5   7
ATOM      7  C   UNL A   1      42.119  20.852  26.327  1.00  0.00     0.039 A 
ATOM      8  C   UNL A   1      42.375  21.256  27.640  1.00  0.00     0.014 A 
ATOM      9  C   UNL A   1      42.293  21.752  25.274  1.00  0.00     0.014 A 
ATOM     10  C   UNL A   1      42.633  22.594  27.915  1.00  0.00     0.010 A 
ATOM     11  C   UNL A   1      42.654  23.074  25.545  1.00  0.00     0.010 A 
ATOM     12  C   UNL A   1      42.789  23.515  26.870  1.00  0.00    -0.014 A 
BRANCH  12  13
ATOM     13  C   UNL A   1      43.152  24.923  27.178  1.00  0.00     0.031 A 
ATOM     14  C   UNL A   1      44.537  25.442  26.911  1.00  0.00     0.074 A 
ATOM     15  C   UNL A   1      42.221  25.728  27.727  1.00  0.00     0.049 A 
ATOM     16  N   UNL A   1      45.034  26.625  27.161  1.00  0.00    -0.248 NA
ATOM     17  C   UNL A   1      45.494  24.510  26.293  1.00  0.00     0.031 C 
ATOM     18  C   UNL A   1      40.852  25.327  28.059  1.00  0.00     0.029 A 
ATOM     19  N   UNL A   1      42.287  27.039  28.118  1.00  0.00    -0.354 N 
ATOM     20  C   UNL A   1      46.368  26.570  26.778  1.00  0.00     0.074 A 
ATOM     21  C   UNL A   1      46.607  25.230  26.282  1.00  0.00     0.031 C 
ATOM     22  C   UNL A   1      40.206  26.370  28.597  1.00  0.00     0.029 A 
ATOM     23  C   UNL A   1      41.129  27.493  28.706  1.00  0.00     0.049 A 
ATOM     24  H   UNL A   1      43.085  27.602  27.991  1.00  0.00     0.167 HD
ATOM     25  C   UNL A   1      47.306  27.548  26.825  1.00  0.00     0.034 A 
ATOM     26  C   UNL A   1      40.848  28.667  29.299  1.00  0.00     0.034 A 
ATOM     27  C   UNL A   1      47.053  28.884  27.298  1.00  0.00     0.049 A 
ATOM     28  C   UNL A   1      41.902  29.734  29.338  1.00  0.00     0.074 A 
ATOM     29  C   UNL A   1      47.917  29.964  27.328  1.00  0.00     0.029 A 
ATOM     30  N   UNL A   1      45.851  29.319  27.839  1.00  0.00    -0.354 N 
ATOM     31  N   UNL A   1      43.125  29.699  28.865  1.00  0.00    -0.248 NA
ATOM     32  C   UNL A   1      41.532  31.010  29.963  1.00  0.00     0.031 C 
ATOM     33  C   UNL A   1      47.249  31.042  27.920  1.00  0.00     0.029 A 
ATOM     34  C   UNL A   1      45.956  30.648  28.219  1.00  0.00     0.049 A 
ATOM     35  H   UNL A   1      45.043  28.766  27.938  1.00  0.00     0.167 HD
ATOM     36  C   UNL A   1      43.659  30.959  29.103  1.00  0.00     0.074 A 
ATOM     37  C   UNL A   1      42.621  31.737  29.749  1.00  0.00     0.031 C 
ATOM     38  C   UNL A   1      44.900  31.425  28.817  1.00  0.00     0.034 A 
BRANCH  25  39
ATOM     39  C   UNL A   1      48.694  27.214  26.340  1.00  0.00     0.023 A 
ATOM     40  C   UNL A   1      49.605  26.571  27.202  1.00  0.00     0.012 A 
ATOM     41  C   UNL A   1      49.082  27.493  25.013  1.00  0.00     0.148 A 
ATOM     42  C   UNL A   1      50.891  26.248  26.768  1.00  0.00     0.002 A 
ATOM     43  C   UNL A   1      50.349  27.126  24.574  1.00  0.00     0.091 A 
ATOM     44  F   UNL A   1      48.211  28.121  24.210  1.00  0.00    -0.205 F 
ATOM     45  C   UNL A   1      51.259  26.517  25.453  1.00  0.00     0.022 A 
BRANCH  43  46
ATOM     46  S   UNL A   1      50.887  27.357  22.875  1.00  0.00     0.127 S 
ATOM     47  O   UNL A   1      50.934  28.815  22.777  1.00  0.00    -0.237 OA
ATOM     48  O   UNL A   1      52.196  26.703  22.874  1.00  0.00    -0.237 OA
ATOM     49  O   UNL A   1      49.883  26.704  22.045  1.00  0.00    -0.744 OA
ENDBRANCH  43  46
ENDBRANCH  25  39
BRANCH  26  50
ATOM     50  C   UNL A   1      39.492  28.890  29.873  1.00  0.00     0.023 A 
ATOM     51  C   UNL A   1      39.191  28.395  31.155  1.00  0.00     0.012 A 
ATOM     52  C   UNL A   1      38.524  29.644  29.179  1.00  0.00     0.148 A 
ATOM     53  C   UNL A   1      37.941  28.627  31.729  1.00  0.00     0.002 A 
ATOM     54  C   UNL A   1      37.304  29.922  29.781  1.00  0.00     0.091 A 
ATOM     55  F   UNL A   1      38.833  30.102  27.958  1.00  0.00    -0.205 F 
ATOM     56  C   UNL A   1      37.003  29.400  31.048  1.00  0.00     0.022 A 
BRANCH  54  57
ATOM     57  S   UNL A   1      36.092  31.022  29.041  1.00  0.00     0.127 S 
ATOM     58  O   UNL A   1      36.941  32.080  28.499  1.00  0.00    -0.237 OA
ATOM     59  O   UNL A   1      35.472  30.154  28.039  1.00  0.00    -0.237 OA
ATOM     60  O   UNL A   1      35.205  31.421  30.125  1.00  0.00    -0.744 OA
ENDBRANCH  54  57
ENDBRANCH  26  50
BRANCH  38  61
ATOM     61  C   UNL A   1      45.198  32.863  29.151  1.00  0.00     0.023 A 
ATOM     62  C   UNL A   1      45.786  33.196  30.387  1.00  0.00     0.012 A 
ATOM     63  C   UNL A   1      44.967  33.876  28.198  1.00  0.00     0.148 A 
ATOM     64  C   UNL A   1      46.111  34.520  30.681  1.00  0.00     0.002 A 
ATOM     65  C   UNL A   1      45.342  35.183  28.478  1.00  0.00     0.091 A 
ATOM     66  F   UNL A   1      44.388  33.540  27.037  1.00  0.00    -0.205 F 
ATOM     67  C   UNL A   1      45.902  35.510  29.723  1.00  0.00     0.022 A 
BRANCH  65  68
ATOM     68  S   UNL A   1      45.203  36.505  27.268  1.00  0.00     0.127 S 
ATOM     69  O   UNL A   1      45.734  37.646  28.012  1.00  0.00    -0.237 OA
ATOM     70  O   UNL A   1      46.066  36.026  26.188  1.00  0.00    -0.237 OA
ATOM     71  O   UNL A   1      43.791  36.588  26.923  1.00  0.00    -0.744 OA
ENDBRANCH  65  68
ENDBRANCH  38  61
ENDBRANCH  12  13
ENDBRANCH   5   7
ENDBRANCH   2   3
ENDBRANCH   1   2
BRANCH   1  72
ATOM     72  C   UNL A   1      37.502  21.200  24.625  1.00  0.00     0.118 C 
BRANCH  72  73
ATOM     73  N   UNL A   1      37.989  22.340  25.391  1.00  0.00    -0.352 N 
ATOM     74  C   UNL A   1      37.314  23.449  25.835  1.00  0.00     0.252 C 
ATOM     75  H   UNL A   1      38.946  22.311  25.624  1.00  0.00     0.163 HD
ATOM     76  O   UNL A   1      37.925  24.406  26.300  1.00  0.00    -0.269 OA
BRANCH  74  77
ATOM     77  C   UNL A   1      35.850  23.494  25.745  1.00  0.00     0.058 A 
ATOM     78  C   UNL A   1      35.189  24.471  25.004  1.00  0.00     0.017 A 
ATOM     79  C   UNL A   1      35.097  22.548  26.419  1.00  0.00     0.125 A 
ATOM     80  C   UNL A   1      33.802  24.536  25.060  1.00  0.00     0.030 A 
ATOM     81  N   UNL A   1      33.743  22.580  26.474  1.00  0.00    -0.255 NA
ATOM     82  C   UNL A   1      33.113  23.594  25.821  1.00  0.00     0.094 A 
BRANCH  82  83
ATOM     83  C   UNL A   1      31.621  23.778  26.050  1.00  0.00     0.318 C 
BRANCH  83  84
ATOM     84  N   UNL A   1      31.276  24.968  26.826  1.00  0.00    -0.335 N 
ATOM     85  H   UNL A   1      32.146  25.364  27.181  1.00  0.00     0.347 HD
ATOM     86  H   UNL A   1      30.627  24.638  27.539  1.00  0.00     0.347 HD
BRANCH  84  87
ATOM     87  C   UNL A   1      30.556  26.042  26.128  1.00  0.00     0.215 C 
ATOM     88  C   UNL A   1      30.330  25.651  24.642  1.00  0.00     0.071 C 
ATOM     89  C   UNL A   1      31.173  27.421  26.248  1.00  0.00     0.023 A 
ATOM     90  C   UNL A   1      29.760  26.822  23.829  1.00  0.00     0.012 C 
ATOM     91  C   UNL A   1      31.273  28.274  25.160  1.00  0.00     0.014 A 
ATOM     92  C   UNL A   1      31.635  28.080  27.434  1.00  0.00     0.022 A 
ATOM     93  C   UNL A   1      30.752  27.993  23.785  1.00  0.00     0.047 C 
ATOM     94  S   UNL A   1      32.094  29.721  25.519  1.00  0.00    -0.148 S 
ATOM     95  C   UNL A   1      32.224  29.297  27.168  1.00  0.00     0.065 A 
ENDBRANCH  84  87
ENDBRANCH  83  84
ENDBRANCH  82  83
ENDBRANCH  74  77
ENDBRANCH  72  73
ENDBRANCH   1  72
TORSDOF 16
ENDMDL
MODEL 3
REMARK VINA RESULT:     -11.7      5.351      8.756
REMARK SMILES O=C(NCCCNC(=O)c1ccc(C[NH2+][C@@H]2CCCc3sccc32)nc1)c1ccc(-c2c3nc(c(-c4cccc(S(=O)(=O)[O-])c4F)c4ccc([nH]4)c(-c4cccc(S(=O)(=O)[O-])c4F)c4nc(c(-c5cccc(S(=O)(=O)[O-])c5F)c5ccc2[nH]5)C=C4)C=C3)cc1
REMARK SMILES IDX 5 1 4 2 3 3 1 4 2 5 27 7 28 8 89 9 29 10 88 11 30 12 31 13
REMARK SMILES IDX 32 14 82 15 33 16 87 17 81 18 83 19 34 20 86 21 80 22 79 23
REMARK SMILES IDX 35 25 67 26 47 27 66 28 48 29 51 30 65 31 84 32 49 33 50 34
REMARK SMILES IDX 64 36 85 37 52 38 36 39 37 40 45 41 38 42 40 43 46 44 39 45
REMARK SMILES IDX 41 46 42 47 43 48 44 49 68 50 69 51 77 52 70 53 72 54 78 55
REMARK SMILES IDX 71 56 73 57 74 58 75 59 76 60 53 61 54 62 62 63 55 64 57 65
REMARK SMILES IDX 63 66 56 67 58 68 59 69 60 70 61 71 6 72 7 73 8 74 9 76
REMARK SMILES IDX 10 77 11 78 26 79 12 80 25 81 13 82 14 83 15 84 16 87 17 88
REMARK SMILES IDX 24 89 18 90 20 91 23 92 19 93 21 94 22 95
REMARK H PARENT 3 6 83 24 51 35 7 75 15 85 15 86
REMARK Flexibility Score: inf
ROOT
ATOM      1  C   UNL A   1      32.969  28.770  24.987  1.00  0.00     0.042 C 
ENDROOT
BRANCH   1   2
ATOM      2  C   UNL A   1      33.985  29.037  26.088  1.00  0.00     0.118 C 
BRANCH   2   3
ATOM      3  N   UNL A   1      33.821  30.347  26.700  1.00  0.00    -0.352 N 
ATOM      4  O   UNL A   1      34.124  31.995  28.197  1.00  0.00    -0.269 OA
ATOM      5  C   UNL A   1      34.554  30.965  27.686  1.00  0.00     0.251 C 
ATOM      6  H   UNL A   1      33.065  30.876  26.353  1.00  0.00     0.163 HD
BRANCH   5   7
ATOM      7  C   UNL A   1      35.832  30.377  28.142  1.00  0.00     0.039 A 
ATOM      8  C   UNL A   1      35.878  29.546  29.264  1.00  0.00     0.014 A 
ATOM      9  C   UNL A   1      37.001  30.650  27.428  1.00  0.00     0.014 A 
ATOM     10  C   UNL A   1      37.104  29.134  29.772  1.00  0.00     0.010 A 
ATOM     11  C   UNL A   1      38.223  30.148  27.882  1.00  0.00     0.010 A 
ATOM     12  C   UNL A   1      38.290  29.418  29.079  1.00  0.00    -0.014 A 
BRANCH  12  13
ATOM     13  C   UNL A   1      39.583  28.895  29.588  1.00  0.00     0.031 A 
ATOM     14  C   UNL A   1      40.306  29.579  30.716  1.00  0.00     0.074 A 
ATOM     15  C   UNL A   1      40.118  27.805  29.004  1.00  0.00     0.049 A 
ATOM     16  N   UNL A   1      41.462  29.283  31.249  1.00  0.00    -0.248 NA
ATOM     17  C   UNL A   1      39.652  30.753  31.316  1.00  0.00     0.031 C 
ATOM     18  C   UNL A   1      39.523  27.075  27.882  1.00  0.00     0.029 A 
ATOM     19  N   UNL A   1      41.284  27.131  29.257  1.00  0.00    -0.354 N 
ATOM     20  C   UNL A   1      41.700  30.256  32.213  1.00  0.00     0.074 A 
ATOM     21  C   UNL A   1      40.567  31.157  32.186  1.00  0.00     0.031 C 
ATOM     22  C   UNL A   1      40.322  26.053  27.548  1.00  0.00     0.029 A 
ATOM     23  C   UNL A   1      41.514  26.091  28.387  1.00  0.00     0.049 A 
ATOM     24  H   UNL A   1      41.898  27.369  29.990  1.00  0.00     0.167 HD
ATOM     25  C   UNL A   1      42.759  30.381  33.050  1.00  0.00     0.034 A 
ATOM     26  C   UNL A   1      42.577  25.279  28.253  1.00  0.00     0.034 A 
ATOM     27  C   UNL A   1      43.870  29.466  33.084  1.00  0.00     0.049 A 
ATOM     28  C   UNL A   1      43.737  25.437  29.191  1.00  0.00     0.074 A 
ATOM     29  C   UNL A   1      44.960  29.469  33.936  1.00  0.00     0.029 A 
ATOM     30  N   UNL A   1      44.042  28.394  32.220  1.00  0.00    -0.354 N 
ATOM     31  N   UNL A   1      43.891  26.293  30.172  1.00  0.00    -0.248 NA
ATOM     32  C   UNL A   1      44.857  24.500  29.026  1.00  0.00     0.031 C 
ATOM     33  C   UNL A   1      45.809  28.421  33.563  1.00  0.00     0.029 A 
ATOM     34  C   UNL A   1      45.227  27.737  32.508  1.00  0.00     0.049 A 
ATOM     35  H   UNL A   1      43.414  28.138  31.507  1.00  0.00     0.167 HD
ATOM     36  C   UNL A   1      45.106  25.977  30.765  1.00  0.00     0.074 A 
ATOM     37  C   UNL A   1      45.640  24.841  30.041  1.00  0.00     0.031 C 
ATOM     38  C   UNL A   1      45.725  26.578  31.811  1.00  0.00     0.034 A 
BRANCH  25  39
ATOM     39  C   UNL A   1      42.763  31.545  34.009  1.00  0.00     0.023 A 
ATOM     40  C   UNL A   1      43.320  32.778  33.616  1.00  0.00     0.012 A 
ATOM     41  C   UNL A   1      42.171  31.432  35.283  1.00  0.00     0.148 A 
ATOM     42  C   UNL A   1      43.326  33.868  34.487  1.00  0.00     0.002 A 
ATOM     43  C   UNL A   1      42.139  32.535  36.129  1.00  0.00     0.091 A 
ATOM     44  F   UNL A   1      41.661  30.247  35.650  1.00  0.00    -0.205 F 
ATOM     45  C   UNL A   1      42.728  33.748  35.739  1.00  0.00     0.022 A 
BRANCH  43  46
ATOM     46  S   UNL A   1      41.319  32.503  37.728  1.00  0.00     0.127 S 
ATOM     47  O   UNL A   1      42.186  31.600  38.484  1.00  0.00    -0.237 OA
ATOM     48  O   UNL A   1      41.394  33.905  38.140  1.00  0.00    -0.237 OA
ATOM     49  O   UNL A   1      39.970  32.016  37.477  1.00  0.00    -0.744 OA
ENDBRANCH  43  46
ENDBRANCH  25  39
BRANCH  26  50
ATOM     50  C   UNL A   1      42.565  24.226  27.199  1.00  0.00     0.023 A 
ATOM     51  C   UNL A   1      43.250  24.446  25.990  1.00  0.00     0.012 A 
ATOM     52  C   UNL A   1      41.932  22.986  27.418  1.00  0.00     0.148 A 
ATOM     53  C   UNL A   1      43.286  23.458  25.005  1.00  0.00     0.002 A 
ATOM     54  C   UNL A   1      42.021  21.986  26.460  1.00  0.00     0.091 A 
ATOM     55  F   UNL A   1      41.282  22.802  28.576  1.00  0.00    -0.205 F 
ATOM     56  C   UNL A   1      42.683  22.225  25.245  1.00  0.00     0.022 A 
BRANCH  54  57
ATOM     57  S   UNL A   1      41.398  20.325  26.736  1.00  0.00     0.127 S 
ATOM     58  O   UNL A   1      39.969  20.570  26.917  1.00  0.00    -0.237 OA
ATOM     59  O   UNL A   1      41.756  19.657  25.484  1.00  0.00    -0.237 OA
ATOM     60  O   UNL A   1      42.103  19.827  27.908  1.00  0.00    -0.744 OA
ENDBRANCH  54  57
ENDBRANCH  26  50
BRANCH  38  61
ATOM     61  C   UNL A   1      47.032  25.993  32.278  1.00  0.00     0.023 A 
ATOM     62  C   UNL A   1      48.247  26.443  31.727  1.00  0.00     0.012 A 
ATOM     63  C   UNL A   1      47.052  25.050  33.326  1.00  0.00     0.148 A 
ATOM     64  C   UNL A   1      49.462  25.941  32.191  1.00  0.00     0.002 A 
ATOM     65  C   UNL A   1      48.269  24.596  33.819  1.00  0.00     0.091 A 
ATOM     66  F   UNL A   1      45.884  24.620  33.822  1.00  0.00    -0.205 F 
ATOM     67  C   UNL A   1      49.474  25.029  33.245  1.00  0.00     0.022 A 
BRANCH  65  68
ATOM     68  S   UNL A   1      48.383  23.498  35.237  1.00  0.00     0.127 S 
ATOM     69  O   UNL A   1      47.701  24.274  36.270  1.00  0.00    -0.237 OA
ATOM     70  O   UNL A   1      47.650  22.319  34.774  1.00  0.00    -0.237 OA
ATOM     71  O   UNL A   1      49.805  23.276  35.461  1.00  0.00    -0.744 OA
ENDBRANCH  65  68
ENDBRANCH  38  61
ENDBRANCH  12  13
ENDBRANCH   5   7
ENDBRANCH   2   3
ENDBRANCH   1   2
BRANCH   1  72
ATOM     72  C   UNL A   1      31.633  29.468  25.191  1.00  0.00     0.118 C 
BRANCH  72  73
ATOM     73  N   UNL A   1      31.023  29.887  23.935  1.00  0.00    -0.352 N 
ATOM     74  C   UNL A   1      30.632  29.132  22.859  1.00  0.00     0.252 C 
ATOM     75  H   UNL A   1      30.869  30.856  23.846  1.00  0.00     0.163 HD
ATOM     76  O   UNL A   1      30.312  29.670  21.803  1.00  0.00    -0.269 OA
BRANCH  74  77
ATOM     77  C   UNL A   1      30.602  27.669  22.968  1.00  0.00     0.058 A 
ATOM     78  C   UNL A   1      29.687  27.011  23.788  1.00  0.00     0.017 A 
ATOM     79  C   UNL A   1      31.509  26.913  22.246  1.00  0.00     0.125 A 
ATOM     80  C   UNL A   1      29.791  25.635  23.946  1.00  0.00     0.030 A 
ATOM     81  N   UNL A   1      31.617  25.568  22.368  1.00  0.00    -0.255 NA
ATOM     82  C   UNL A   1      30.779  24.948  23.242  1.00  0.00     0.094 A 
BRANCH  82  83
ATOM     83  C   UNL A   1      31.029  23.482  23.560  1.00  0.00     0.318 C 
BRANCH  83  84
ATOM     84  N   UNL A   1      31.895  22.800  22.600  1.00  0.00    -0.335 N 
ATOM     85  H   UNL A   1      32.334  23.516  22.022  1.00  0.00     0.347 HD
ATOM     86  H   UNL A   1      31.279  22.158  22.102  1.00  0.00     0.347 HD
BRANCH  84  87
ATOM     87  C   UNL A   1      32.965  21.952  23.142  1.00  0.00     0.215 C 
ATOM     88  C   UNL A   1      32.354  20.715  23.854  1.00  0.00     0.071 C 
ATOM     89  C   UNL A   1      33.966  22.662  24.032  1.00  0.00     0.023 A 
ATOM     90  C   UNL A   1      33.423  19.909  24.606  1.00  0.00     0.012 C 
ATOM     91  C   UNL A   1      34.419  22.100  25.216  1.00  0.00     0.014 A 
ATOM     92  C   UNL A   1      34.648  23.898  23.781  1.00  0.00     0.022 A 
ATOM     93  C   UNL A   1      34.050  20.744  25.731  1.00  0.00     0.047 C 
ATOM     94  S   UNL A   1      35.455  23.130  26.089  1.00  0.00    -0.148 S 
ATOM     95  C   UNL A   1      35.424  24.300  24.846  1.00  0.00     0.065 A 
ENDBRANCH  84  87
ENDBRANCH  83  84
ENDBRANCH  82  83
ENDBRANCH  74  77
ENDBRANCH  72  73
ENDBRANCH   1  72
TORSDOF 16
ENDMDL
