MODEL 1
REMARK VINA RESULT:     -12.9      0.000      0.000
REMARK SMILES NS(=O)(=O)c1ccc(-n2nc(C(F)(F)F)cc2-c2ccc(C(=O)NCCCNC(=O)c3ccc(-c4c5nc(c(-c6cccc(S(=O)(=O)[O-])c6F)c6ccc([nH]6)c(-c6cccc(S(=O)(=O)[O-])c6F)c6nc(c(-c7cccc(S(=O)(=O)[O-])c7F)c7ccc4[nH]7)C=C6)C=C5)cc3)cc2)cc1
REMARK SMILES IDX 25 1 24 2 22 3 23 4 21 6 18 7 19 8 95 9 20 10 94 11 17 12
REMARK SMILES IDX 9 13 10 14 11 15 16 16 8 17 5 18 6 19 97 20 7 21 96 22 2 23
REMARK SMILES IDX 3 24 4 25 1 26 12 29 13 30 14 31 15 32 26 33 27 34 28 35
REMARK SMILES IDX 29 36 30 38 31 39 32 40 93 41 33 42 92 43 34 44 35 45 36 46
REMARK SMILES IDX 86 47 37 48 91 49 85 50 87 51 38 52 90 53 84 54 83 55 39 57
REMARK SMILES IDX 71 58 51 59 70 60 52 61 55 62 69 63 88 64 53 65 54 66 68 68
REMARK SMILES IDX 89 69 56 70 40 71 41 72 49 73 42 74 44 75 50 76 43 77 45 78
REMARK SMILES IDX 46 79 47 80 48 81 72 82 73 83 81 84 74 85 76 86 82 87 75 88
REMARK SMILES IDX 77 89 78 90 79 91 80 92 57 93 58 94 66 95 59 96 61 97 67 98
REMARK SMILES IDX 60 99 62 100 63 101 64 102 65 103
REMARK H PARENT 24 5 1 27 1 28 28 37 87 56 55 67
REMARK Flexibility Score: inf
ROOT
ATOM      1  C   UNL A   1      34.664  22.418  24.437  1.00  0.00     0.118 C 
ENDROOT
BRANCH   1   2
ATOM      2  N   UNL A   1      33.237  22.369  24.160  1.00  0.00    -0.352 N 
ATOM      3  C   UNL A   1      32.255  23.326  24.235  1.00  0.00     0.251 C 
ATOM      4  O   UNL A   1      31.141  23.047  23.799  1.00  0.00    -0.269 OA
ATOM      5  H   UNL A   1      32.916  21.487  23.863  1.00  0.00     0.163 HD
BRANCH   3   6
ATOM      6  C   UNL A   1      32.504  24.698  24.758  1.00  0.00     0.039 A 
ATOM      7  C   UNL A   1      33.155  27.255  25.711  1.00  0.00     0.000 A 
ATOM      8  C   UNL A   1      33.676  26.809  24.491  1.00  0.00     0.011 A 
ATOM      9  C   UNL A   1      32.285  26.444  26.429  1.00  0.00     0.011 A 
ATOM     10  C   UNL A   1      33.354  25.534  24.020  1.00  0.00     0.014 A 
ATOM     11  C   UNL A   1      31.930  25.200  25.926  1.00  0.00     0.014 A 
BRANCH   7  12
ATOM     12  C   UNL A   1      33.444  28.582  26.223  1.00  0.00     0.075 A 
ATOM     13  N   UNL A   1      32.734  29.727  25.905  1.00  0.00    -0.233 N 
ATOM     14  N   UNL A   1      33.340  30.843  26.389  1.00  0.00    -0.163 NA
ATOM     15  C   UNL A   1      34.306  30.378  27.210  1.00  0.00     0.167 A 
ATOM     16  C   UNL A   1      34.432  28.974  27.097  1.00  0.00     0.064 A 
BRANCH  13  17
ATOM     17  C   UNL A   1      31.521  29.804  25.172  1.00  0.00     0.065 A 
ATOM     18  C   UNL A   1      29.301  30.076  23.516  1.00  0.00     0.082 A 
ATOM     19  C   UNL A   1      30.039  28.893  23.478  1.00  0.00     0.024 A 
ATOM     20  C   UNL A   1      29.635  31.100  24.414  1.00  0.00     0.024 A 
ATOM     21  C   UNL A   1      31.154  28.762  24.304  1.00  0.00     0.030 A 
ATOM     22  C   UNL A   1      30.736  30.956  25.264  1.00  0.00     0.030 A 
BRANCH  18  23
ATOM     23  S   UNL A   1      27.937  30.333  22.417  1.00  0.00     0.238 S 
ATOM     24  O   UNL A   1      28.386  30.052  21.082  1.00  0.00    -0.207 OA
ATOM     25  O   UNL A   1      27.307  31.586  22.786  1.00  0.00    -0.207 OA
BRANCH  23  26
ATOM     26  N   UNL A   1      26.829  29.138  22.823  1.00  0.00    -0.225 NA
ATOM     27  H   UNL A   1      26.710  29.114  23.836  1.00  0.00     0.137 HD
ATOM     28  H   UNL A   1      27.172  28.233  22.500  1.00  0.00     0.137 HD
ENDBRANCH  23  26
ENDBRANCH  18  23
ENDBRANCH  13  17
BRANCH  15  29
ATOM     29  C   UNL A   1      35.126  31.255  28.115  1.00  0.00     0.435 C 
ATOM     30  F   UNL A   1      35.753  32.265  27.461  1.00  0.00    -0.164 F 
ATOM     31  F   UNL A   1      34.376  31.818  29.101  1.00  0.00    -0.164 F 
ATOM     32  F   UNL A   1      36.104  30.544  28.749  1.00  0.00    -0.164 F 
ENDBRANCH  15  29
ENDBRANCH   7  12
ENDBRANCH   3   6
ENDBRANCH   1   2
BRANCH   1  33
ATOM     33  C   UNL A   1      34.957  22.722  25.914  1.00  0.00     0.042 C 
BRANCH  33  34
ATOM     34  C   UNL A   1      36.357  23.262  26.109  1.00  0.00     0.118 C 
BRANCH  34  35
ATOM     35  N   UNL A   1      37.377  22.224  25.933  1.00  0.00    -0.352 N 
ATOM     36  C   UNL A   1      38.739  22.321  26.135  1.00  0.00     0.251 C 
ATOM     37  H   UNL A   1      37.047  21.346  25.631  1.00  0.00     0.163 HD
ATOM     38  O   UNL A   1      39.501  21.508  25.625  1.00  0.00    -0.269 OA
BRANCH  36  39
ATOM     39  C   UNL A   1      39.251  23.420  26.970  1.00  0.00     0.039 A 
ATOM     40  C   UNL A   1      40.385  23.270  27.768  1.00  0.00     0.014 A 
ATOM     41  C   UNL A   1      38.589  24.642  26.902  1.00  0.00     0.014 A 
ATOM     42  C   UNL A   1      40.878  24.388  28.435  1.00  0.00     0.010 A 
ATOM     43  C   UNL A   1      39.202  25.774  27.359  1.00  0.00     0.010 A 
ATOM     44  C   UNL A   1      40.292  25.645  28.201  1.00  0.00    -0.014 A 
BRANCH  44  45
ATOM     45  C   UNL A   1      40.878  26.865  28.736  1.00  0.00     0.031 A 
ATOM     46  C   UNL A   1      42.201  27.179  28.143  1.00  0.00     0.074 A 
ATOM     47  C   UNL A   1      40.211  27.721  29.544  1.00  0.00     0.049 A 
ATOM     48  N   UNL A   1      43.353  27.023  28.705  1.00  0.00    -0.248 NA
ATOM     49  C   UNL A   1      42.279  27.484  26.706  1.00  0.00     0.031 C 
ATOM     50  C   UNL A   1      38.797  27.687  29.944  1.00  0.00     0.029 A 
ATOM     51  N   UNL A   1      40.636  28.893  30.087  1.00  0.00    -0.354 N 
ATOM     52  C   UNL A   1      44.281  27.492  27.782  1.00  0.00     0.074 A 
ATOM     53  C   UNL A   1      43.600  27.516  26.515  1.00  0.00     0.031 C 
ATOM     54  C   UNL A   1      38.431  28.896  30.427  1.00  0.00     0.029 A 
ATOM     55  C   UNL A   1      39.614  29.725  30.543  1.00  0.00     0.049 A 
ATOM     56  H   UNL A   1      41.587  29.135  30.153  1.00  0.00     0.167 HD
ATOM     57  C   UNL A   1      45.424  28.101  28.204  1.00  0.00     0.034 A 
ATOM     58  C   UNL A   1      39.734  31.015  30.950  1.00  0.00     0.034 A 
ATOM     59  C   UNL A   1      45.635  27.865  29.615  1.00  0.00     0.049 A 
ATOM     60  C   UNL A   1      41.157  31.222  31.301  1.00  0.00     0.074 A 
ATOM     61  C   UNL A   1      45.773  26.745  30.412  1.00  0.00     0.029 A 
ATOM     62  N   UNL A   1      45.300  28.895  30.461  1.00  0.00    -0.354 N 
ATOM     63  N   UNL A   1      41.736  30.626  32.305  1.00  0.00    -0.248 NA
ATOM     64  C   UNL A   1      42.042  31.720  30.264  1.00  0.00     0.031 C 
ATOM     65  C   UNL A   1      45.054  27.055  31.605  1.00  0.00     0.029 A 
ATOM     66  C   UNL A   1      44.598  28.371  31.512  1.00  0.00     0.049 A 
ATOM     67  H   UNL A   1      45.526  29.844  30.334  1.00  0.00     0.167 HD
ATOM     68  C   UNL A   1      42.969  30.239  31.797  1.00  0.00     0.074 A 
ATOM     69  C   UNL A   1      43.145  31.034  30.580  1.00  0.00     0.031 C 
ATOM     70  C   UNL A   1      43.582  29.102  32.239  1.00  0.00     0.034 A 
BRANCH  57  71
ATOM     71  C   UNL A   1      46.118  29.248  27.499  1.00  0.00     0.023 A 
ATOM     72  C   UNL A   1      47.533  29.243  27.526  1.00  0.00     0.012 A 
ATOM     73  C   UNL A   1      45.495  30.446  27.083  1.00  0.00     0.148 A 
ATOM     74  C   UNL A   1      48.279  30.391  27.243  1.00  0.00     0.002 A 
ATOM     75  C   UNL A   1      46.243  31.565  26.732  1.00  0.00     0.091 A 
ATOM     76  F   UNL A   1      44.168  30.571  27.133  1.00  0.00    -0.205 F 
ATOM     77  C   UNL A   1      47.634  31.554  26.847  1.00  0.00     0.022 A 
BRANCH  75  78
ATOM     78  S   UNL A   1      45.465  33.088  26.176  1.00  0.00     0.127 S 
ATOM     79  O   UNL A   1      44.777  33.523  27.388  1.00  0.00    -0.237 OA
ATOM     80  O   UNL A   1      46.629  33.892  25.798  1.00  0.00    -0.237 OA
ATOM     81  O   UNL A   1      44.611  32.712  25.056  1.00  0.00    -0.744 OA
ENDBRANCH  75  78
ENDBRANCH  57  71
BRANCH  58  82
ATOM     82  C   UNL A   1      38.799  32.157  30.813  1.00  0.00     0.023 A 
ATOM     83  C   UNL A   1      38.773  32.903  29.615  1.00  0.00     0.012 A 
ATOM     84  C   UNL A   1      37.727  32.318  31.717  1.00  0.00     0.148 A 
ATOM     85  C   UNL A   1      37.696  33.745  29.309  1.00  0.00     0.002 A 
ATOM     86  C   UNL A   1      36.657  33.154  31.407  1.00  0.00     0.091 A 
ATOM     87  F   UNL A   1      37.710  31.577  32.832  1.00  0.00    -0.205 F 
ATOM     88  C   UNL A   1      36.633  33.862  30.199  1.00  0.00     0.022 A 
BRANCH  86  89
ATOM     89  S   UNL A   1      35.224  33.316  32.481  1.00  0.00     0.127 S 
ATOM     90  O   UNL A   1      34.664  34.595  32.044  1.00  0.00    -0.237 OA
ATOM     91  O   UNL A   1      34.437  32.143  32.111  1.00  0.00    -0.237 OA
ATOM     92  O   UNL A   1      35.747  33.320  33.842  1.00  0.00    -0.744 OA
ENDBRANCH  86  89
ENDBRANCH  58  82
BRANCH  70  93
ATOM     93  C   UNL A   1      43.025  28.427  33.468  1.00  0.00     0.023 A 
ATOM     94  C   UNL A   1      41.929  27.537  33.429  1.00  0.00     0.012 A 
ATOM     95  C   UNL A   1      43.739  28.571  34.667  1.00  0.00     0.148 A 
ATOM     96  C   UNL A   1      41.547  26.824  34.571  1.00  0.00     0.002 A 
ATOM     97  C   UNL A   1      43.387  27.827  35.784  1.00  0.00     0.091 A 
ATOM     98  F   UNL A   1      44.778  29.420  34.684  1.00  0.00    -0.205 F 
ATOM     99  C   UNL A   1      42.285  26.958  35.745  1.00  0.00     0.022 A 
BRANCH  97 100
ATOM    100  S   UNL A   1      44.375  27.866  37.279  1.00  0.00     0.127 S 
ATOM    101  O   UNL A   1      44.229  29.257  37.705  1.00  0.00    -0.237 OA
ATOM    102  O   UNL A   1      43.694  26.889  38.132  1.00  0.00    -0.237 OA
ATOM    103  O   UNL A   1      45.721  27.471  36.882  1.00  0.00    -0.744 OA
ENDBRANCH  97 100
ENDBRANCH  70  93
ENDBRANCH  44  45
ENDBRANCH  36  39
ENDBRANCH  34  35
ENDBRANCH  33  34
ENDBRANCH   1  33
TORSDOF 18
ENDMDL
MODEL 2
REMARK VINA RESULT:     -12.7      3.850      7.867
REMARK SMILES NS(=O)(=O)c1ccc(-n2nc(C(F)(F)F)cc2-c2ccc(C(=O)NCCCNC(=O)c3ccc(-c4c5nc(c(-c6cccc(S(=O)(=O)[O-])c6F)c6ccc([nH]6)c(-c6cccc(S(=O)(=O)[O-])c6F)c6nc(c(-c7cccc(S(=O)(=O)[O-])c7F)c7ccc4[nH]7)C=C6)C=C5)cc3)cc2)cc1
REMARK SMILES IDX 25 1 24 2 22 3 23 4 21 6 18 7 19 8 95 9 20 10 94 11 17 12
REMARK SMILES IDX 9 13 10 14 11 15 16 16 8 17 5 18 6 19 97 20 7 21 96 22 2 23
REMARK SMILES IDX 3 24 4 25 1 26 12 29 13 30 14 31 15 32 26 33 27 34 28 35
REMARK SMILES IDX 29 36 30 38 31 39 32 40 93 41 33 42 92 43 34 44 35 45 36 46
REMARK SMILES IDX 86 47 37 48 91 49 85 50 87 51 38 52 90 53 84 54 83 55 39 57
REMARK SMILES IDX 71 58 51 59 70 60 52 61 55 62 69 63 88 64 53 65 54 66 68 68
REMARK SMILES IDX 89 69 56 70 40 71 41 72 49 73 42 74 44 75 50 76 43 77 45 78
REMARK SMILES IDX 46 79 47 80 48 81 72 82 73 83 81 84 74 85 76 86 82 87 75 88
REMARK SMILES IDX 77 89 78 90 79 91 80 92 57 93 58 94 66 95 59 96 61 97 67 98
REMARK SMILES IDX 60 99 62 100 63 101 64 102 65 103
REMARK H PARENT 24 5 1 27 1 28 28 37 87 56 55 67
REMARK Flexibility Score: inf
ROOT
ATOM      1  C   UNL A   1      32.223  28.029  24.279  1.00  0.00     0.118 C 
ENDROOT
BRANCH   1   2
ATOM      2  N   UNL A   1      31.397  26.914  23.842  1.00  0.00    -0.352 N 
ATOM      3  C   UNL A   1      31.605  25.557  23.864  1.00  0.00     0.251 C 
ATOM      4  O   UNL A   1      30.667  24.824  23.559  1.00  0.00    -0.269 OA
ATOM      5  H   UNL A   1      30.530  27.183  23.461  1.00  0.00     0.163 HD
BRANCH   3   6
ATOM      6  C   UNL A   1      32.887  24.943  24.303  1.00  0.00     0.039 A 
ATOM      7  C   UNL A   1      35.282  23.657  24.998  1.00  0.00     0.000 A 
ATOM      8  C   UNL A   1      35.012  23.956  23.658  1.00  0.00     0.011 A 
ATOM      9  C   UNL A   1      34.380  24.033  25.986  1.00  0.00     0.011 A 
ATOM     10  C   UNL A   1      33.816  24.593  23.313  1.00  0.00     0.014 A 
ATOM     11  C   UNL A   1      33.221  24.712  25.638  1.00  0.00     0.014 A 
BRANCH   7  12
ATOM     12  C   UNL A   1      36.522  23.019  25.401  1.00  0.00     0.075 A 
ATOM     13  N   UNL A   1      36.720  21.651  25.480  1.00  0.00    -0.233 N 
ATOM     14  N   UNL A   1      37.915  21.351  26.055  1.00  0.00    -0.163 NA
ATOM     15  C   UNL A   1      38.567  22.532  26.125  1.00  0.00     0.167 A 
ATOM     16  C   UNL A   1      37.713  23.602  25.769  1.00  0.00     0.064 A 
BRANCH  13  17
ATOM     17  C   UNL A   1      35.837  20.633  25.037  1.00  0.00     0.065 A 
ATOM     18  C   UNL A   1      34.071  18.562  24.454  1.00  0.00     0.082 A 
ATOM     19  C   UNL A   1      33.570  19.846  24.665  1.00  0.00     0.024 A 
ATOM     20  C   UNL A   1      35.452  18.319  24.482  1.00  0.00     0.024 A 
ATOM     21  C   UNL A   1      34.456  20.881  24.963  1.00  0.00     0.030 A 
ATOM     22  C   UNL A   1      36.343  19.363  24.751  1.00  0.00     0.030 A 
BRANCH  18  23
ATOM     23  S   UNL A   1      32.982  17.196  24.172  1.00  0.00     0.238 S 
ATOM     24  O   UNL A   1      31.902  17.289  25.114  1.00  0.00    -0.207 OA
ATOM     25  O   UNL A   1      33.799  16.006  24.030  1.00  0.00    -0.207 OA
BRANCH  23  26
ATOM     26  N   UNL A   1      32.329  17.475  22.650  1.00  0.00    -0.225 NA
ATOM     27  H   UNL A   1      32.753  16.837  21.976  1.00  0.00     0.137 HD
ATOM     28  H   UNL A   1      32.518  18.438  22.371  1.00  0.00     0.137 HD
ENDBRANCH  23  26
ENDBRANCH  18  23
ENDBRANCH  13  17
BRANCH  15  29
ATOM     29  C   UNL A   1      40.009  22.667  26.529  1.00  0.00     0.435 C 
ATOM     30  F   UNL A   1      40.875  22.210  25.588  1.00  0.00    -0.164 F 
ATOM     31  F   UNL A   1      40.348  23.957  26.795  1.00  0.00    -0.164 F 
ATOM     32  F   UNL A   1      40.277  21.967  27.668  1.00  0.00    -0.164 F 
ENDBRANCH  15  29
ENDBRANCH   7  12
ENDBRANCH   3   6
ENDBRANCH   1   2
BRANCH   1  33
ATOM     33  C   UNL A   1      31.414  29.081  25.053  1.00  0.00     0.042 C 
BRANCH  33  34
ATOM     34  C   UNL A   1      32.291  29.892  25.981  1.00  0.00     0.118 C 
BRANCH  34  35
ATOM     35  N   UNL A   1      31.919  31.309  25.993  1.00  0.00    -0.352 N 
ATOM     36  C   UNL A   1      32.337  32.296  26.862  1.00  0.00     0.251 C 
ATOM     37  H   UNL A   1      31.290  31.592  25.290  1.00  0.00     0.163 HD
ATOM     38  O   UNL A   1      31.695  33.333  26.978  1.00  0.00    -0.269 OA
BRANCH  36  39
ATOM     39  C   UNL A   1      33.564  32.072  27.645  1.00  0.00     0.039 A 
ATOM     40  C   UNL A   1      33.952  30.796  28.054  1.00  0.00     0.014 A 
ATOM     41  C   UNL A   1      34.358  33.179  27.927  1.00  0.00     0.014 A 
ATOM     42  C   UNL A   1      35.184  30.649  28.684  1.00  0.00     0.010 A 
ATOM     43  C   UNL A   1      35.653  33.003  28.326  1.00  0.00     0.010 A 
ATOM     44  C   UNL A   1      36.041  31.760  28.792  1.00  0.00    -0.014 A 
BRANCH  44  45
ATOM     45  C   UNL A   1      37.404  31.621  29.284  1.00  0.00     0.031 A 
ATOM     46  C   UNL A   1      38.025  30.326  28.909  1.00  0.00     0.074 A 
ATOM     47  C   UNL A   1      38.097  32.631  29.858  1.00  0.00     0.049 A 
ATOM     48  N   UNL A   1      38.217  29.312  29.684  1.00  0.00    -0.248 NA
ATOM     49  C   UNL A   1      38.252  30.036  27.485  1.00  0.00     0.031 C 
ATOM     50  C   UNL A   1      37.709  34.043  29.996  1.00  0.00     0.029 A 
ATOM     51  N   UNL A   1      39.371  32.634  30.334  1.00  0.00    -0.354 N 
ATOM     52  C   UNL A   1      38.861  28.363  28.897  1.00  0.00     0.074 A 
ATOM     53  C   UNL A   1      38.624  28.755  27.534  1.00  0.00     0.031 C 
ATOM     54  C   UNL A   1      38.803  34.791  30.267  1.00  0.00     0.029 A 
ATOM     55  C   UNL A   1      39.924  33.903  30.501  1.00  0.00     0.049 A 
ATOM     56  H   UNL A   1      39.862  31.808  30.544  1.00  0.00     0.167 HD
ATOM     57  C   UNL A   1      39.778  27.521  29.449  1.00  0.00     0.034 A 
ATOM     58  C   UNL A   1      41.221  34.196  30.777  1.00  0.00     0.034 A 
ATOM     59  C   UNL A   1      39.693  27.549  30.891  1.00  0.00     0.049 A 
ATOM     60  C   UNL A   1      41.823  32.973  31.354  1.00  0.00     0.074 A 
ATOM     61  C   UNL A   1      38.701  27.299  31.820  1.00  0.00     0.029 A 
ATOM     62  N   UNL A   1      40.645  28.297  31.543  1.00  0.00    -0.354 N 
ATOM     63  N   UNL A   1      41.465  32.480  32.506  1.00  0.00    -0.248 NA
ATOM     64  C   UNL A   1      42.476  32.048  30.445  1.00  0.00     0.031 C 
ATOM     65  C   UNL A   1      38.879  28.301  32.821  1.00  0.00     0.029 A 
ATOM     66  C   UNL A   1      40.017  29.045  32.501  1.00  0.00     0.049 A 
ATOM     67  H   UNL A   1      41.611  28.295  31.353  1.00  0.00     0.167 HD
ATOM     68  C   UNL A   1      41.393  31.113  32.276  1.00  0.00     0.074 A 
ATOM     69  C   UNL A   1      42.131  30.897  31.030  1.00  0.00     0.031 C 
ATOM     70  C   UNL A   1      40.491  30.337  32.946  1.00  0.00     0.034 A 
BRANCH  57  71
ATOM     71  C   UNL A   1      41.024  27.007  28.756  1.00  0.00     0.023 A 
ATOM     72  C   UNL A   1      41.319  25.634  28.923  1.00  0.00     0.012 A 
ATOM     73  C   UNL A   1      42.051  27.817  28.219  1.00  0.00     0.148 A 
ATOM     74  C   UNL A   1      42.591  25.115  28.656  1.00  0.00     0.002 A 
ATOM     75  C   UNL A   1      43.291  27.284  27.887  1.00  0.00     0.091 A 
ATOM     76  F   UNL A   1      41.893  29.138  28.133  1.00  0.00    -0.205 F 
ATOM     77  C   UNL A   1      43.578  25.941  28.138  1.00  0.00     0.022 A 
BRANCH  75  78
ATOM     78  S   UNL A   1      44.598  28.296  27.179  1.00  0.00     0.127 S 
ATOM     79  O   UNL A   1      44.907  29.192  28.290  1.00  0.00    -0.237 OA
ATOM     80  O   UNL A   1      45.622  27.292  26.885  1.00  0.00    -0.237 OA
ATOM     81  O   UNL A   1      44.020  28.923  25.996  1.00  0.00    -0.744 OA
ENDBRANCH  75  78
ENDBRANCH  57  71
BRANCH  58  82
ATOM     82  C   UNL A   1      42.061  35.339  30.346  1.00  0.00     0.023 A 
ATOM     83  C   UNL A   1      43.133  35.767  31.157  1.00  0.00     0.012 A 
ATOM     84  C   UNL A   1      42.015  35.799  29.012  1.00  0.00     0.148 A 
ATOM     85  C   UNL A   1      44.146  36.590  30.647  1.00  0.00     0.002 A 
ATOM     86  C   UNL A   1      43.025  36.615  28.508  1.00  0.00     0.091 A 
ATOM     87  F   UNL A   1      41.034  35.359  28.214  1.00  0.00    -0.205 F 
ATOM     88  C   UNL A   1      44.098  37.003  29.319  1.00  0.00     0.022 A 
BRANCH  86  89
ATOM     89  S   UNL A   1      43.060  37.147  26.791  1.00  0.00     0.127 S 
ATOM     90  O   UNL A   1      44.338  37.854  26.721  1.00  0.00    -0.237 OA
ATOM     91  O   UNL A   1      43.025  35.871  26.080  1.00  0.00    -0.237 OA
ATOM     92  O   UNL A   1      41.889  37.997  26.614  1.00  0.00    -0.744 OA
ENDBRANCH  86  89
ENDBRANCH  58  82
BRANCH  70  93
ATOM     93  C   UNL A   1      39.767  30.945  34.121  1.00  0.00     0.023 A 
ATOM     94  C   UNL A   1      40.313  30.996  35.422  1.00  0.00     0.012 A 
ATOM     95  C   UNL A   1      38.571  31.632  33.861  1.00  0.00     0.148 A 
ATOM     96  C   UNL A   1      39.666  31.702  36.442  1.00  0.00     0.002 A 
ATOM     97  C   UNL A   1      37.957  32.371  34.863  1.00  0.00     0.091 A 
ATOM     98  F   UNL A   1      38.067  31.573  32.619  1.00  0.00    -0.205 F 
ATOM     99  C   UNL A   1      38.495  32.402  36.159  1.00  0.00     0.022 A 
BRANCH  97 100
ATOM    100  S   UNL A   1      36.521  33.388  34.523  1.00  0.00     0.127 S 
ATOM    101  O   UNL A   1      35.673  32.474  33.758  1.00  0.00    -0.237 OA
ATOM    102  O   UNL A   1      36.030  33.699  35.867  1.00  0.00    -0.237 OA
ATOM    103  O   UNL A   1      37.013  34.547  33.788  1.00  0.00    -0.744 OA
ENDBRANCH  97 100
ENDBRANCH  70  93
ENDBRANCH  44  45
ENDBRANCH  36  39
ENDBRANCH  34  35
ENDBRANCH  33  34
ENDBRANCH   1  33
TORSDOF 18
ENDMDL
MODEL 3
REMARK VINA RESULT:     -12.7      3.420      9.163
REMARK SMILES NS(=O)(=O)c1ccc(-n2nc(C(F)(F)F)cc2-c2ccc(C(=O)NCCCNC(=O)c3ccc(-c4c5nc(c(-c6cccc(S(=O)(=O)[O-])c6F)c6ccc([nH]6)c(-c6cccc(S(=O)(=O)[O-])c6F)c6nc(c(-c7cccc(S(=O)(=O)[O-])c7F)c7ccc4[nH]7)C=C6)C=C5)cc3)cc2)cc1
REMARK SMILES IDX 25 1 24 2 22 3 23 4 21 6 18 7 19 8 95 9 20 10 94 11 17 12
REMARK SMILES IDX 9 13 10 14 11 15 16 16 8 17 5 18 6 19 97 20 7 21 96 22 2 23
REMARK SMILES IDX 3 24 4 25 1 26 12 29 13 30 14 31 15 32 26 33 27 34 28 35
REMARK SMILES IDX 29 36 30 38 31 39 32 40 93 41 33 42 92 43 34 44 35 45 36 46
REMARK SMILES IDX 86 47 37 48 91 49 85 50 87 51 38 52 90 53 84 54 83 55 39 57
REMARK SMILES IDX 71 58 51 59 70 60 52 61 55 62 69 63 88 64 53 65 54 66 68 68
REMARK SMILES IDX 89 69 56 70 40 71 41 72 49 73 42 74 44 75 50 76 43 77 45 78
REMARK SMILES IDX 46 79 47 80 48 81 72 82 73 83 81 84 74 85 76 86 82 87 75 88
REMARK SMILES IDX 77 89 78 90 79 91 80 92 57 93 58 94 66 95 59 96 61 97 67 98
REMARK SMILES IDX 60 99 62 100 63 101 64 102 65 103
REMARK H PARENT 24 5 1 27 1 28 28 37 87 56 55 67
REMARK Flexibility Score: inf
ROOT
ATOM      1  C   UNL A   1      31.789  27.788  25.323  1.00  0.00     0.118 C 
ENDROOT
BRANCH   1   2
ATOM      2  N   UNL A   1      31.093  26.850  24.456  1.00  0.00    -0.352 N 
ATOM      3  C   UNL A   1      31.408  25.581  24.038  1.00  0.00     0.251 C 
ATOM      4  O   UNL A   1      30.559  24.951  23.412  1.00  0.00    -0.269 OA
ATOM      5  H   UNL A   1      30.237  27.189  24.105  1.00  0.00     0.163 HD
BRANCH   3   6
ATOM      6  C   UNL A   1      32.700  24.920  24.368  1.00  0.00     0.039 A 
ATOM      7  C   UNL A   1      35.148  23.786  25.140  1.00  0.00     0.000 A 
ATOM      8  C   UNL A   1      34.127  23.956  26.081  1.00  0.00     0.011 A 
ATOM      9  C   UNL A   1      34.932  24.145  23.814  1.00  0.00     0.011 A 
ATOM     10  C   UNL A   1      32.910  24.525  25.697  1.00  0.00     0.014 A 
ATOM     11  C   UNL A   1      33.701  24.661  23.432  1.00  0.00     0.014 A 
BRANCH   7  12
ATOM     12  C   UNL A   1      36.417  23.178  25.492  1.00  0.00     0.075 A 
ATOM     13  N   UNL A   1      36.666  21.816  25.507  1.00  0.00    -0.233 N 
ATOM     14  N   UNL A   1      37.881  21.535  26.047  1.00  0.00    -0.163 NA
ATOM     15  C   UNL A   1      38.492  22.734  26.158  1.00  0.00     0.167 A 
ATOM     16  C   UNL A   1      37.594  23.787  25.865  1.00  0.00     0.064 A 
BRANCH  13  17
ATOM     17  C   UNL A   1      35.811  20.786  25.036  1.00  0.00     0.065 A 
ATOM     18  C   UNL A   1      34.074  18.707  24.396  1.00  0.00     0.082 A 
ATOM     19  C   UNL A   1      33.576  20.006  24.496  1.00  0.00     0.024 A 
ATOM     20  C   UNL A   1      35.443  18.451  24.563  1.00  0.00     0.024 A 
ATOM     21  C   UNL A   1      34.446  21.044  24.823  1.00  0.00     0.030 A 
ATOM     22  C   UNL A   1      36.322  19.497  24.861  1.00  0.00     0.030 A 
BRANCH  18  23
ATOM     23  S   UNL A   1      32.995  17.340  24.083  1.00  0.00     0.238 S 
ATOM     24  O   UNL A   1      31.954  17.362  25.072  1.00  0.00    -0.207 OA
ATOM     25  O   UNL A   1      33.823  16.174  23.842  1.00  0.00    -0.207 OA
BRANCH  23  26
ATOM     26  N   UNL A   1      32.275  17.692  22.607  1.00  0.00    -0.225 NA
ATOM     27  H   UNL A   1      31.879  16.839  22.210  1.00  0.00     0.137 HD
ATOM     28  H   UNL A   1      32.975  18.070  21.969  1.00  0.00     0.137 HD
ENDBRANCH  23  26
ENDBRANCH  18  23
ENDBRANCH  13  17
BRANCH  15  29
ATOM     29  C   UNL A   1      39.936  22.905  26.541  1.00  0.00     0.435 C 
ATOM     30  F   UNL A   1      40.780  22.136  25.808  1.00  0.00    -0.164 F 
ATOM     31  F   UNL A   1      40.352  24.194  26.413  1.00  0.00    -0.164 F 
ATOM     32  F   UNL A   1      40.149  22.571  27.846  1.00  0.00    -0.164 F 
ENDBRANCH  15  29
ENDBRANCH   7  12
ENDBRANCH   3   6
ENDBRANCH   1   2
BRANCH   1  33
ATOM     33  C   UNL A   1      33.116  28.264  24.714  1.00  0.00     0.042 C 
BRANCH  33  34
ATOM     34  C   UNL A   1      34.053  28.814  25.768  1.00  0.00     0.118 C 
BRANCH  34  35
ATOM     35  N   UNL A   1      33.542  30.050  26.367  1.00  0.00    -0.352 N 
ATOM     36  C   UNL A   1      34.100  30.803  27.380  1.00  0.00     0.251 C 
ATOM     37  H   UNL A   1      32.692  30.385  25.999  1.00  0.00     0.163 HD
ATOM     38  O   UNL A   1      33.413  31.596  28.014  1.00  0.00    -0.269 OA
BRANCH  36  39
ATOM     39  C   UNL A   1      35.530  30.628  27.682  1.00  0.00     0.039 A 
ATOM     40  C   UNL A   1      36.348  31.708  28.018  1.00  0.00     0.014 A 
ATOM     41  C   UNL A   1      36.037  29.333  27.669  1.00  0.00     0.014 A 
ATOM     42  C   UNL A   1      37.658  31.450  28.408  1.00  0.00     0.010 A 
ATOM     43  C   UNL A   1      37.233  29.064  28.271  1.00  0.00     0.010 A 
ATOM     44  C   UNL A   1      38.084  30.117  28.557  1.00  0.00    -0.014 A 
BRANCH  44  45
ATOM     45  C   UNL A   1      39.384  29.796  29.127  1.00  0.00     0.031 A 
ATOM     46  C   UNL A   1      39.523  30.239  30.536  1.00  0.00     0.074 A 
ATOM     47  C   UNL A   1      40.299  29.016  28.507  1.00  0.00     0.049 A 
ATOM     48  N   UNL A   1      40.192  31.259  30.961  1.00  0.00    -0.248 NA
ATOM     49  C   UNL A   1      38.655  29.632  31.558  1.00  0.00     0.031 C 
ATOM     50  C   UNL A   1      40.156  28.258  27.255  1.00  0.00     0.029 A 
ATOM     51  N   UNL A   1      41.529  28.629  28.939  1.00  0.00    -0.354 N 
ATOM     52  C   UNL A   1      40.058  31.238  32.345  1.00  0.00     0.074 A 
ATOM     53  C   UNL A   1      38.925  30.396  32.619  1.00  0.00     0.031 C 
ATOM     54  C   UNL A   1      41.128  27.321  27.177  1.00  0.00     0.029 A 
ATOM     55  C   UNL A   1      42.060  27.529  28.267  1.00  0.00     0.049 A 
ATOM     56  H   UNL A   1      42.005  29.087  29.668  1.00  0.00     0.167 HD
ATOM     57  C   UNL A   1      41.076  31.670  33.140  1.00  0.00     0.034 A 
ATOM     58  C   UNL A   1      43.168  26.822  28.609  1.00  0.00     0.034 A 
ATOM     59  C   UNL A   1      42.050  32.405  32.366  1.00  0.00     0.049 A 
ATOM     60  C   UNL A   1      43.977  27.694  29.490  1.00  0.00     0.074 A 
ATOM     61  C   UNL A   1      42.019  33.527  31.562  1.00  0.00     0.029 A 
ATOM     62  N   UNL A   1      43.196  31.725  32.026  1.00  0.00    -0.354 N 
ATOM     63  N   UNL A   1      44.542  28.794  29.078  1.00  0.00    -0.248 NA
ATOM     64  C   UNL A   1      43.763  27.591  30.922  1.00  0.00     0.031 C 
ATOM     65  C   UNL A   1      42.880  33.216  30.467  1.00  0.00     0.029 A 
ATOM     66  C   UNL A   1      43.459  31.968  30.706  1.00  0.00     0.049 A 
ATOM     67  H   UNL A   1      43.734  31.162  32.628  1.00  0.00     0.167 HD
ATOM     68  C   UNL A   1      44.300  29.698  30.103  1.00  0.00     0.074 A 
ATOM     69  C   UNL A   1      43.918  28.877  31.253  1.00  0.00     0.031 C 
ATOM     70  C   UNL A   1      44.135  31.027  29.839  1.00  0.00     0.034 A 
BRANCH  57  71
ATOM     71  C   UNL A   1      41.439  31.088  34.491  1.00  0.00     0.023 A 
ATOM     72  C   UNL A   1      41.812  32.011  35.496  1.00  0.00     0.012 A 
ATOM     73  C   UNL A   1      41.717  29.726  34.745  1.00  0.00     0.148 A 
ATOM     74  C   UNL A   1      42.503  31.611  36.645  1.00  0.00     0.002 A 
ATOM     75  C   UNL A   1      42.340  29.323  35.922  1.00  0.00     0.091 A 
ATOM     76  F   UNL A   1      41.499  28.806  33.805  1.00  0.00    -0.205 F 
ATOM     77  C   UNL A   1      42.768  30.266  36.857  1.00  0.00     0.022 A 
BRANCH  75  78
ATOM     78  S   UNL A   1      42.678  27.591  36.269  1.00  0.00     0.127 S 
ATOM     79  O   UNL A   1      41.327  27.042  36.350  1.00  0.00    -0.237 OA
ATOM     80  O   UNL A   1      43.441  27.197  35.085  1.00  0.00    -0.237 OA
ATOM     81  O   UNL A   1      43.447  27.577  37.507  1.00  0.00    -0.744 OA
ENDBRANCH  75  78
ENDBRANCH  57  71
BRANCH  58  82
ATOM     82  C   UNL A   1      43.468  25.377  28.468  1.00  0.00     0.023 A 
ATOM     83  C   UNL A   1      43.032  24.470  29.456  1.00  0.00     0.012 A 
ATOM     84  C   UNL A   1      43.895  24.852  27.229  1.00  0.00     0.148 A 
ATOM     85  C   UNL A   1      42.983  23.093  29.206  1.00  0.00     0.002 A 
ATOM     86  C   UNL A   1      43.842  23.482  26.983  1.00  0.00     0.091 A 
ATOM     87  F   UNL A   1      44.260  25.704  26.262  1.00  0.00    -0.205 F 
ATOM     88  C   UNL A   1      43.376  22.600  27.965  1.00  0.00     0.022 A 
BRANCH  86  89
ATOM     89  S   UNL A   1      44.283  22.777  25.389  1.00  0.00     0.127 S 
ATOM     90  O   UNL A   1      44.029  21.353  25.610  1.00  0.00    -0.237 OA
ATOM     91  O   UNL A   1      43.336  23.437  24.495  1.00  0.00    -0.237 OA
ATOM     92  O   UNL A   1      45.686  23.114  25.180  1.00  0.00    -0.744 OA
ENDBRANCH  86  89
ENDBRANCH  58  82
BRANCH  70  93
ATOM     93  C   UNL A   1      44.484  31.525  28.457  1.00  0.00     0.023 A 
ATOM     94  C   UNL A   1      43.565  31.533  27.385  1.00  0.00     0.012 A 
ATOM     95  C   UNL A   1      45.727  32.154  28.290  1.00  0.00     0.148 A 
ATOM     96  C   UNL A   1      43.892  32.141  26.168  1.00  0.00     0.002 A 
ATOM     97  C   UNL A   1      46.029  32.798  27.098  1.00  0.00     0.091 A 
ATOM     98  F   UNL A   1      46.586  32.138  29.320  1.00  0.00    -0.205 F 
ATOM     99  C   UNL A   1      45.119  32.787  26.029  1.00  0.00     0.022 A 
BRANCH  97 100
ATOM    100  S   UNL A   1      47.537  33.749  26.909  1.00  0.00     0.127 S 
ATOM    101  O   UNL A   1      47.419  34.239  25.536  1.00  0.00    -0.237 OA
ATOM    102  O   UNL A   1      47.392  34.777  27.941  1.00  0.00    -0.237 OA
ATOM    103  O   UNL A   1      48.632  32.817  27.148  1.00  0.00    -0.744 OA
ENDBRANCH  97 100
ENDBRANCH  70  93
ENDBRANCH  44  45
ENDBRANCH  36  39
ENDBRANCH  34  35
ENDBRANCH  33  34
ENDBRANCH   1  33
TORSDOF 18
ENDMDL
