MODEL 1
REMARK VINA RESULT:     -14.0      0.000      0.000
REMARK SMILES CC(=O)Nc1cnc(N2CC=C(c3ccccc3C)CC2)c(C(=O)NCCCNC(=O)c2ccc(-c3c4nc(c(-c5cccc(S(=O)(=O)[O-])c5F)c5ccc([nH]5)c(-c5cccc(S(=O)(=O)[O-])c5F)c5nc(c(-c6cccc(S(=O)(=O)[O-])c6F)c6ccc3[nH]6)C=C5)C=C4)cc2)c1
REMARK SMILES IDX 27 1 26 2 25 3 23 4 24 5 22 7 5 8 6 9 95 10 7 11 8 12 4 13
REMARK SMILES IDX 1 14 2 15 3 16 9 18 10 19 21 20 11 21 20 22 12 23 13 24
REMARK SMILES IDX 14 25 18 26 15 27 17 28 19 29 16 30 28 31 29 32 30 33 31 35
REMARK SMILES IDX 32 36 33 37 94 38 34 39 93 40 35 41 36 42 37 43 87 44 38 45
REMARK SMILES IDX 92 46 86 47 88 48 39 49 91 50 85 51 84 52 40 54 72 55 52 56
REMARK SMILES IDX 71 57 53 58 56 59 70 60 89 61 54 62 55 63 69 65 90 66 57 67
REMARK SMILES IDX 41 68 42 69 50 70 43 71 45 72 51 73 44 74 46 75 47 76 48 77
REMARK SMILES IDX 49 78 73 79 74 80 82 81 75 82 77 83 83 84 76 85 78 86 79 87
REMARK SMILES IDX 80 88 81 89 58 90 59 91 67 92 60 93 62 94 68 95 61 96 63 97
REMARK SMILES IDX 64 98 65 99 66 100
REMARK H PARENT 25 6 4 17 29 34 88 53 56 64
REMARK Flexibility Score: inf
ROOT
ATOM      1  C   UNL A   1      36.779  23.330  25.951  1.00  0.00     0.042 C 
ENDROOT
BRANCH   1   2
ATOM      2  C   UNL A   1      36.038  21.988  26.102  1.00  0.00     0.118 C 
BRANCH   2   3
ATOM      3  N   UNL A   1      34.758  22.082  26.793  1.00  0.00    -0.352 N 
ATOM      4  C   UNL A   1      33.579  21.361  26.764  1.00  0.00     0.255 C 
ATOM      5  O   UNL A   1      32.869  21.526  27.754  1.00  0.00    -0.269 OA
ATOM      6  H   UNL A   1      34.724  22.833  27.429  1.00  0.00     0.163 HD
BRANCH   4   7
ATOM      7  C   UNL A   1      33.159  20.422  25.664  1.00  0.00     0.084 A 
ATOM      8  C   UNL A   1      32.564  18.139  24.976  1.00  0.00     0.060 A 
ATOM      9  C   UNL A   1      32.322  18.638  23.719  1.00  0.00     0.139 A 
ATOM     10  C   UNL A   1      32.997  19.056  25.919  1.00  0.00     0.045 A 
ATOM     11  N   UNL A   1      32.431  19.947  23.410  1.00  0.00    -0.236 NA
ATOM     12  C   UNL A   1      32.854  20.843  24.356  1.00  0.00     0.141 A 
BRANCH   8  13
ATOM     13  N   UNL A   1      32.443  16.766  25.254  1.00  0.00    -0.325 N 
ATOM     14  C   UNL A   1      34.838  16.052  25.100  1.00  0.00     0.114 C 
ATOM     15  C   UNL A   1      33.360  15.753  25.164  1.00  0.00     0.221 C 
ATOM     16  O   UNL A   1      32.964  14.587  25.204  1.00  0.00    -0.275 OA
ATOM     17  H   UNL A   1      31.551  16.487  25.565  1.00  0.00     0.169 HD
ENDBRANCH   8  13
BRANCH  12  18
ATOM     18  N   UNL A   1      32.907  22.125  23.873  1.00  0.00    -0.352 N 
ATOM     19  C   UNL A   1      34.164  22.526  23.266  1.00  0.00     0.146 C 
ATOM     20  C   UNL A   1      31.715  22.891  23.535  1.00  0.00     0.123 C 
ATOM     21  C   UNL A   1      34.267  24.026  23.216  1.00  0.00    -0.002 C 
ATOM     22  C   UNL A   1      31.922  24.345  23.981  1.00  0.00     0.057 C 
ATOM     23  C   UNL A   1      33.272  24.871  23.548  1.00  0.00    -0.041 C 
BRANCH  23  24
ATOM     24  C   UNL A   1      33.477  26.331  23.469  1.00  0.00    -0.020 A 
ATOM     25  C   UNL A   1      33.524  26.923  22.193  1.00  0.00     0.008 A 
ATOM     26  C   UNL A   1      33.637  27.146  24.609  1.00  0.00    -0.044 A 
ATOM     27  C   UNL A   1      33.724  28.295  22.042  1.00  0.00     0.001 A 
ATOM     28  C   UNL A   1      33.822  28.531  24.439  1.00  0.00     0.004 A 
ATOM     29  C   UNL A   1      33.603  26.596  26.007  1.00  0.00     0.045 C 
ATOM     30  C   UNL A   1      33.871  29.099  23.166  1.00  0.00     0.000 A 
ENDBRANCH  23  24
ENDBRANCH  12  18
ENDBRANCH   4   7
ENDBRANCH   2   3
ENDBRANCH   1   2
BRANCH   1  31
ATOM     31  C   UNL A   1      38.216  23.202  25.510  1.00  0.00     0.118 C 
BRANCH  31  32
ATOM     32  N   UNL A   1      39.088  22.874  26.644  1.00  0.00    -0.352 N 
ATOM     33  C   UNL A   1      40.022  23.632  27.319  1.00  0.00     0.251 C 
ATOM     34  H   UNL A   1      38.989  21.954  26.980  1.00  0.00     0.163 HD
ATOM     35  O   UNL A   1      40.988  23.041  27.814  1.00  0.00    -0.269 OA
BRANCH  33  36
ATOM     36  C   UNL A   1      39.833  25.081  27.479  1.00  0.00     0.039 A 
ATOM     37  C   UNL A   1      40.311  26.032  26.578  1.00  0.00     0.014 A 
ATOM     38  C   UNL A   1      39.353  25.522  28.700  1.00  0.00     0.014 A 
ATOM     39  C   UNL A   1      40.462  27.342  27.038  1.00  0.00     0.010 A 
ATOM     40  C   UNL A   1      39.060  26.813  28.937  1.00  0.00     0.010 A 
ATOM     41  C   UNL A   1      39.910  27.666  28.276  1.00  0.00    -0.014 A 
BRANCH  41  42
ATOM     42  C   UNL A   1      40.194  28.803  29.118  1.00  0.00     0.031 A 
ATOM     43  C   UNL A   1      39.261  29.915  29.067  1.00  0.00     0.074 A 
ATOM     44  C   UNL A   1      41.045  28.589  30.153  1.00  0.00     0.049 A 
ATOM     45  N   UNL A   1      39.470  31.048  29.625  1.00  0.00    -0.248 NA
ATOM     46  C   UNL A   1      38.009  29.830  28.327  1.00  0.00     0.031 C 
ATOM     47  C   UNL A   1      41.058  29.222  31.466  1.00  0.00     0.029 A 
ATOM     48  N   UNL A   1      42.075  27.672  30.270  1.00  0.00    -0.354 N 
ATOM     49  C   UNL A   1      38.269  31.714  29.603  1.00  0.00     0.074 A 
ATOM     50  C   UNL A   1      37.479  31.017  28.621  1.00  0.00     0.031 C 
ATOM     51  C   UNL A   1      42.186  28.871  32.114  1.00  0.00     0.029 A 
ATOM     52  C   UNL A   1      43.022  28.142  31.175  1.00  0.00     0.049 A 
ATOM     53  H   UNL A   1      42.129  26.818  29.786  1.00  0.00     0.167 HD
ATOM     54  C   UNL A   1      38.042  32.642  30.572  1.00  0.00     0.034 A 
ATOM     55  C   UNL A   1      44.251  28.562  30.730  1.00  0.00     0.034 A 
ATOM     56  C   UNL A   1      39.273  32.840  31.375  1.00  0.00     0.049 A 
ATOM     57  C   UNL A   1      44.391  30.079  30.780  1.00  0.00     0.074 A 
ATOM     58  C   UNL A   1      39.673  32.376  32.619  1.00  0.00     0.029 A 
ATOM     59  N   UNL A   1      40.439  33.281  30.742  1.00  0.00    -0.354 N 
ATOM     60  N   UNL A   1      43.437  30.896  31.142  1.00  0.00    -0.248 NA
ATOM     61  C   UNL A   1      45.614  30.797  30.429  1.00  0.00     0.031 C 
ATOM     62  C   UNL A   1      41.100  32.420  32.669  1.00  0.00     0.029 A 
ATOM     63  C   UNL A   1      41.573  32.949  31.478  1.00  0.00     0.049 A 
ATOM     64  H   UNL A   1      40.457  33.767  29.886  1.00  0.00     0.167 HD
ATOM     65  C   UNL A   1      43.807  32.190  30.911  1.00  0.00     0.074 A 
ATOM     66  C   UNL A   1      45.218  32.076  30.569  1.00  0.00     0.031 C 
ATOM     67  C   UNL A   1      42.915  33.231  30.948  1.00  0.00     0.034 A 
BRANCH  54  68
ATOM     68  C   UNL A   1      36.667  33.155  30.991  1.00  0.00     0.023 A 
ATOM     69  C   UNL A   1      36.239  32.827  32.295  1.00  0.00     0.012 A 
ATOM     70  C   UNL A   1      35.725  33.873  30.207  1.00  0.00     0.148 A 
ATOM     71  C   UNL A   1      34.959  33.145  32.773  1.00  0.00     0.002 A 
ATOM     72  C   UNL A   1      34.449  34.193  30.679  1.00  0.00     0.091 A 
ATOM     73  F   UNL A   1      36.029  34.278  28.981  1.00  0.00    -0.205 F 
ATOM     74  C   UNL A   1      34.060  33.823  31.963  1.00  0.00     0.022 A 
BRANCH  72  75
ATOM     75  S   UNL A   1      33.232  35.074  29.673  1.00  0.00     0.127 S 
ATOM     76  O   UNL A   1      32.836  34.049  28.706  1.00  0.00    -0.237 OA
ATOM     77  O   UNL A   1      32.204  35.413  30.656  1.00  0.00    -0.237 OA
ATOM     78  O   UNL A   1      33.918  36.220  29.087  1.00  0.00    -0.744 OA
ENDBRANCH  72  75
ENDBRANCH  54  68
BRANCH  55  79
ATOM     79  C   UNL A   1      44.770  27.667  29.638  1.00  0.00     0.023 A 
ATOM     80  C   UNL A   1      44.852  26.288  29.962  1.00  0.00     0.012 A 
ATOM     81  C   UNL A   1      44.640  28.034  28.288  1.00  0.00     0.148 A 
ATOM     82  C   UNL A   1      44.530  25.316  29.013  1.00  0.00     0.002 A 
ATOM     83  C   UNL A   1      44.344  27.054  27.340  1.00  0.00     0.091 A 
ATOM     84  F   UNL A   1      44.733  29.328  27.955  1.00  0.00    -0.205 F 
ATOM     85  C   UNL A   1      44.214  25.706  27.715  1.00  0.00     0.022 A 
BRANCH  83  86
ATOM     86  S   UNL A   1      44.009  27.511  25.635  1.00  0.00     0.127 S 
ATOM     87  O   UNL A   1      45.352  27.795  25.138  1.00  0.00    -0.237 OA
ATOM     88  O   UNL A   1      43.404  26.299  25.082  1.00  0.00    -0.237 OA
ATOM     89  O   UNL A   1      43.099  28.643  25.729  1.00  0.00    -0.744 OA
ENDBRANCH  83  86
ENDBRANCH  55  79
BRANCH  67  90
ATOM     90  C   UNL A   1      43.244  34.636  30.477  1.00  0.00     0.023 A 
ATOM     91  C   UNL A   1      43.636  35.658  31.364  1.00  0.00     0.012 A 
ATOM     92  C   UNL A   1      43.288  34.948  29.095  1.00  0.00     0.148 A 
ATOM     93  C   UNL A   1      43.939  36.950  30.922  1.00  0.00     0.002 A 
ATOM     94  C   UNL A   1      43.727  36.191  28.653  1.00  0.00     0.091 A 
ATOM     95  F   UNL A   1      42.880  34.044  28.191  1.00  0.00    -0.205 F 
ATOM     96  C   UNL A   1      44.004  37.212  29.563  1.00  0.00     0.022 A 
BRANCH  94  97
ATOM     97  S   UNL A   1      44.110  36.479  26.921  1.00  0.00     0.127 S 
ATOM     98  O   UNL A   1      42.791  36.388  26.299  1.00  0.00    -0.237 OA
ATOM     99  O   UNL A   1      44.680  37.828  26.948  1.00  0.00    -0.237 OA
ATOM    100  O   UNL A   1      45.064  35.439  26.560  1.00  0.00    -0.744 OA
ENDBRANCH  94  97
ENDBRANCH  67  90
ENDBRANCH  41  42
ENDBRANCH  33  36
ENDBRANCH  31  32
ENDBRANCH   1  31
TORSDOF 16
ENDMDL
MODEL 2
REMARK VINA RESULT:     -13.3      4.538     10.251
REMARK SMILES CC(=O)Nc1cnc(N2CC=C(c3ccccc3C)CC2)c(C(=O)NCCCNC(=O)c2ccc(-c3c4nc(c(-c5cccc(S(=O)(=O)[O-])c5F)c5ccc([nH]5)c(-c5cccc(S(=O)(=O)[O-])c5F)c5nc(c(-c6cccc(S(=O)(=O)[O-])c6F)c6ccc3[nH]6)C=C5)C=C4)cc2)c1
REMARK SMILES IDX 27 1 26 2 25 3 23 4 24 5 22 7 5 8 6 9 95 10 7 11 8 12 4 13
REMARK SMILES IDX 1 14 2 15 3 16 9 18 10 19 21 20 11 21 20 22 12 23 13 24
REMARK SMILES IDX 14 25 18 26 15 27 17 28 19 29 16 30 28 31 29 32 30 33 31 35
REMARK SMILES IDX 32 36 33 37 94 38 34 39 93 40 35 41 36 42 37 43 87 44 38 45
REMARK SMILES IDX 92 46 86 47 88 48 39 49 91 50 85 51 84 52 40 54 72 55 52 56
REMARK SMILES IDX 71 57 53 58 56 59 70 60 89 61 54 62 55 63 69 65 90 66 57 67
REMARK SMILES IDX 41 68 42 69 50 70 43 71 45 72 51 73 44 74 46 75 47 76 48 77
REMARK SMILES IDX 49 78 73 79 74 80 82 81 75 82 77 83 83 84 76 85 78 86 79 87
REMARK SMILES IDX 80 88 81 89 58 90 59 91 67 92 60 93 62 94 68 95 61 96 63 97
REMARK SMILES IDX 64 98 65 99 66 100
REMARK H PARENT 25 6 4 17 29 34 88 53 56 64
REMARK Flexibility Score: inf
ROOT
ATOM      1  C   UNL A   1      33.218  30.074  27.452  1.00  0.00     0.042 C 
ENDROOT
BRANCH   1   2
ATOM      2  C   UNL A   1      32.365  30.202  26.176  1.00  0.00     0.118 C 
BRANCH   2   3
ATOM      3  N   UNL A   1      32.821  29.379  25.062  1.00  0.00    -0.352 N 
ATOM      4  C   UNL A   1      32.280  28.989  23.852  1.00  0.00     0.255 C 
ATOM      5  O   UNL A   1      33.112  28.602  23.034  1.00  0.00    -0.269 OA
ATOM      6  H   UNL A   1      33.725  29.017  25.204  1.00  0.00     0.163 HD
BRANCH   4   7
ATOM      7  C   UNL A   1      30.817  29.037  23.497  1.00  0.00     0.084 A 
ATOM      8  C   UNL A   1      28.855  30.387  22.890  1.00  0.00     0.060 A 
ATOM      9  C   UNL A   1      28.151  29.213  22.770  1.00  0.00     0.139 A 
ATOM     10  C   UNL A   1      30.180  30.263  23.271  1.00  0.00     0.045 A 
ATOM     11  N   UNL A   1      28.708  27.996  22.945  1.00  0.00    -0.236 NA
ATOM     12  C   UNL A   1      30.022  27.890  23.315  1.00  0.00     0.141 A 
BRANCH   8  13
ATOM     13  N   UNL A   1      28.233  31.634  22.704  1.00  0.00    -0.325 N 
ATOM     14  C   UNL A   1      28.144  31.735  20.203  1.00  0.00     0.114 C 
ATOM     15  C   UNL A   1      28.037  32.373  21.567  1.00  0.00     0.221 C 
ATOM     16  O   UNL A   1      27.703  33.554  21.676  1.00  0.00    -0.275 OA
ATOM     17  H   UNL A   1      27.880  32.044  23.527  1.00  0.00     0.169 HD
ENDBRANCH   8  13
BRANCH  12  18
ATOM     18  N   UNL A   1      30.423  26.585  23.449  1.00  0.00    -0.352 N 
ATOM     19  C   UNL A   1      29.989  25.905  24.657  1.00  0.00     0.146 C 
ATOM     20  C   UNL A   1      30.826  25.763  22.315  1.00  0.00     0.123 C 
ATOM     21  C   UNL A   1      30.849  24.699  24.917  1.00  0.00    -0.002 C 
ATOM     22  C   UNL A   1      32.025  24.902  22.735  1.00  0.00     0.057 C 
ATOM     23  C   UNL A   1      31.788  24.233  24.069  1.00  0.00    -0.041 C 
BRANCH  23  24
ATOM     24  C   UNL A   1      32.584  23.041  24.422  1.00  0.00    -0.020 A 
ATOM     25  C   UNL A   1      32.247  21.819  23.813  1.00  0.00     0.008 A 
ATOM     26  C   UNL A   1      33.651  23.076  25.344  1.00  0.00    -0.044 A 
ATOM     27  C   UNL A   1      32.949  20.650  24.105  1.00  0.00     0.001 A 
ATOM     28  C   UNL A   1      34.359  21.891  25.616  1.00  0.00     0.004 A 
ATOM     29  C   UNL A   1      34.074  24.338  26.042  1.00  0.00     0.045 C 
ATOM     30  C   UNL A   1      34.008  20.687  25.006  1.00  0.00     0.000 A 
ENDBRANCH  23  24
ENDBRANCH  12  18
ENDBRANCH   4   7
ENDBRANCH   2   3
ENDBRANCH   1   2
BRANCH   1  31
ATOM     31  C   UNL A   1      34.657  29.695  27.204  1.00  0.00     0.118 C 
BRANCH  31  32
ATOM     32  N   UNL A   1      35.551  30.832  27.449  1.00  0.00    -0.352 N 
ATOM     33  C   UNL A   1      36.679  30.946  28.234  1.00  0.00     0.251 C 
ATOM     34  H   UNL A   1      35.302  31.655  26.971  1.00  0.00     0.163 HD
ATOM     35  O   UNL A   1      36.924  32.052  28.728  1.00  0.00    -0.269 OA
BRANCH  33  36
ATOM     36  C   UNL A   1      37.577  29.796  28.424  1.00  0.00     0.039 A 
ATOM     37  C   UNL A   1      37.515  28.935  29.519  1.00  0.00     0.014 A 
ATOM     38  C   UNL A   1      38.673  29.708  27.585  1.00  0.00     0.014 A 
ATOM     39  C   UNL A   1      38.654  28.180  29.813  1.00  0.00     0.010 A 
ATOM     40  C   UNL A   1      39.517  28.662  27.605  1.00  0.00     0.010 A 
ATOM     41  C   UNL A   1      39.680  28.155  28.872  1.00  0.00    -0.014 A 
BRANCH  41  42
ATOM     42  C   UNL A   1      41.054  27.752  29.050  1.00  0.00     0.031 A 
ATOM     43  C   UNL A   1      41.382  26.367  28.762  1.00  0.00     0.074 A 
ATOM     44  C   UNL A   1      41.976  28.747  29.074  1.00  0.00     0.049 A 
ATOM     45  N   UNL A   1      42.512  25.829  29.033  1.00  0.00    -0.248 NA
ATOM     46  C   UNL A   1      40.411  25.458  28.167  1.00  0.00     0.031 C 
ATOM     47  C   UNL A   1      43.358  28.719  28.613  1.00  0.00     0.029 A 
ATOM     48  N   UNL A   1      41.837  30.066  29.471  1.00  0.00    -0.354 N 
ATOM     49  C   UNL A   1      42.537  24.630  28.364  1.00  0.00     0.074 A 
ATOM     50  C   UNL A   1      41.161  24.365  28.031  1.00  0.00     0.031 C 
ATOM     51  C   UNL A   1      43.977  29.850  29.006  1.00  0.00     0.029 A 
ATOM     52  C   UNL A   1      43.068  30.566  29.884  1.00  0.00     0.049 A 
ATOM     53  H   UNL A   1      40.993  30.573  29.463  1.00  0.00     0.167 HD
ATOM     54  C   UNL A   1      43.751  24.129  28.009  1.00  0.00     0.034 A 
ATOM     55  C   UNL A   1      43.298  30.818  31.214  1.00  0.00     0.034 A 
ATOM     56  C   UNL A   1      44.829  24.962  28.596  1.00  0.00     0.049 A 
ATOM     57  C   UNL A   1      44.229  29.786  31.840  1.00  0.00     0.074 A 
ATOM     58  C   UNL A   1      45.648  25.951  28.072  1.00  0.00     0.029 A 
ATOM     59  N   UNL A   1      44.908  25.100  29.985  1.00  0.00    -0.354 N 
ATOM     60  N   UNL A   1      44.707  28.746  31.210  1.00  0.00    -0.248 NA
ATOM     61  C   UNL A   1      44.699  29.845  33.223  1.00  0.00     0.031 C 
ATOM     62  C   UNL A   1      46.107  26.763  29.155  1.00  0.00     0.029 A 
ATOM     63  C   UNL A   1      45.608  26.249  30.342  1.00  0.00     0.049 A 
ATOM     64  H   UNL A   1      44.519  24.465  30.628  1.00  0.00     0.167 HD
ATOM     65  C   UNL A   1      45.357  27.921  32.083  1.00  0.00     0.074 A 
ATOM     66  C   UNL A   1      45.418  28.710  33.305  1.00  0.00     0.031 C 
ATOM     67  C   UNL A   1      45.726  26.641  31.753  1.00  0.00     0.034 A 
BRANCH  54  68
ATOM     68  C   UNL A   1      43.985  23.089  26.916  1.00  0.00     0.023 A 
ATOM     69  C   UNL A   1      44.798  23.482  25.830  1.00  0.00     0.012 A 
ATOM     70  C   UNL A   1      43.433  21.784  26.818  1.00  0.00     0.148 A 
ATOM     71  C   UNL A   1      45.011  22.664  24.712  1.00  0.00     0.002 A 
ATOM     72  C   UNL A   1      43.644  20.964  25.705  1.00  0.00     0.091 A 
ATOM     73  F   UNL A   1      42.691  21.284  27.798  1.00  0.00    -0.205 F 
ATOM     74  C   UNL A   1      44.428  21.407  24.644  1.00  0.00     0.022 A 
BRANCH  72  75
ATOM     75  S   UNL A   1      42.913  19.318  25.558  1.00  0.00     0.127 S 
ATOM     76  O   UNL A   1      41.483  19.623  25.489  1.00  0.00    -0.237 OA
ATOM     77  O   UNL A   1      43.492  18.832  24.306  1.00  0.00    -0.237 OA
ATOM     78  O   UNL A   1      43.312  18.571  26.745  1.00  0.00    -0.744 OA
ENDBRANCH  72  75
ENDBRANCH  54  68
BRANCH  55  79
ATOM     79  C   UNL A   1      42.087  31.423  31.871  1.00  0.00     0.023 A 
ATOM     80  C   UNL A   1      41.566  32.584  31.245  1.00  0.00     0.012 A 
ATOM     81  C   UNL A   1      41.225  30.634  32.650  1.00  0.00     0.148 A 
ATOM     82  C   UNL A   1      40.187  32.788  31.164  1.00  0.00     0.002 A 
ATOM     83  C   UNL A   1      39.849  30.859  32.585  1.00  0.00     0.091 A 
ATOM     84  F   UNL A   1      41.739  29.636  33.380  1.00  0.00    -0.205 F 
ATOM     85  C   UNL A   1      39.326  31.887  31.783  1.00  0.00     0.022 A 
BRANCH  83  86
ATOM     86  S   UNL A   1      38.708  29.764  33.438  1.00  0.00     0.127 S 
ATOM     87  O   UNL A   1      37.433  30.141  32.834  1.00  0.00    -0.237 OA
ATOM     88  O   UNL A   1      39.185  28.434  33.061  1.00  0.00    -0.237 OA
ATOM     89  O   UNL A   1      38.878  30.082  34.848  1.00  0.00    -0.744 OA
ENDBRANCH  83  86
ENDBRANCH  55  79
BRANCH  67  90
ATOM     90  C   UNL A   1      46.240  25.629  32.762  1.00  0.00     0.023 A 
ATOM     91  C   UNL A   1      47.588  25.588  33.169  1.00  0.00     0.012 A 
ATOM     92  C   UNL A   1      45.350  24.755  33.434  1.00  0.00     0.148 A 
ATOM     93  C   UNL A   1      48.055  24.655  34.100  1.00  0.00     0.002 A 
ATOM     94  C   UNL A   1      45.794  23.927  34.460  1.00  0.00     0.091 A 
ATOM     95  F   UNL A   1      44.061  24.700  33.066  1.00  0.00    -0.205 F 
ATOM     96  C   UNL A   1      47.153  23.836  34.761  1.00  0.00     0.022 A 
BRANCH  94  97
ATOM     97  S   UNL A   1      44.633  23.077  35.536  1.00  0.00     0.127 S 
ATOM     98  O   UNL A   1      44.111  22.034  34.655  1.00  0.00    -0.237 OA
ATOM     99  O   UNL A   1      45.501  22.591  36.610  1.00  0.00    -0.237 OA
ATOM    100  O   UNL A   1      43.682  24.098  35.958  1.00  0.00    -0.744 OA
ENDBRANCH  94  97
ENDBRANCH  67  90
ENDBRANCH  41  42
ENDBRANCH  33  36
ENDBRANCH  31  32
ENDBRANCH   1  31
TORSDOF 16
ENDMDL
MODEL 3
REMARK VINA RESULT:     -13.3      1.807      2.144
REMARK SMILES CC(=O)Nc1cnc(N2CC=C(c3ccccc3C)CC2)c(C(=O)NCCCNC(=O)c2ccc(-c3c4nc(c(-c5cccc(S(=O)(=O)[O-])c5F)c5ccc([nH]5)c(-c5cccc(S(=O)(=O)[O-])c5F)c5nc(c(-c6cccc(S(=O)(=O)[O-])c6F)c6ccc3[nH]6)C=C5)C=C4)cc2)c1
REMARK SMILES IDX 27 1 26 2 25 3 23 4 24 5 22 7 5 8 6 9 95 10 7 11 8 12 4 13
REMARK SMILES IDX 1 14 2 15 3 16 9 18 10 19 21 20 11 21 20 22 12 23 13 24
REMARK SMILES IDX 14 25 18 26 15 27 17 28 19 29 16 30 28 31 29 32 30 33 31 35
REMARK SMILES IDX 32 36 33 37 94 38 34 39 93 40 35 41 36 42 37 43 87 44 38 45
REMARK SMILES IDX 92 46 86 47 88 48 39 49 91 50 85 51 84 52 40 54 72 55 52 56
REMARK SMILES IDX 71 57 53 58 56 59 70 60 89 61 54 62 55 63 69 65 90 66 57 67
REMARK SMILES IDX 41 68 42 69 50 70 43 71 45 72 51 73 44 74 46 75 47 76 48 77
REMARK SMILES IDX 49 78 73 79 74 80 82 81 75 82 77 83 83 84 76 85 78 86 79 87
REMARK SMILES IDX 80 88 81 89 58 90 59 91 67 92 60 93 62 94 68 95 61 96 63 97
REMARK SMILES IDX 64 98 65 99 66 100
REMARK H PARENT 25 6 4 17 29 34 88 53 56 64
REMARK Flexibility Score: inf
ROOT
ATOM      1  C   UNL A   1      36.752  22.789  26.041  1.00  0.00     0.042 C 
ENDROOT
BRANCH   1   2
ATOM      2  C   UNL A   1      35.975  23.963  25.416  1.00  0.00     0.118 C 
BRANCH   2   3
ATOM      3  N   UNL A   1      35.536  23.733  24.044  1.00  0.00    -0.352 N 
ATOM      4  C   UNL A   1      34.519  23.006  23.456  1.00  0.00     0.255 C 
ATOM      5  O   UNL A   1      34.255  23.357  22.307  1.00  0.00    -0.269 OA
ATOM      6  H   UNL A   1      36.093  24.204  23.384  1.00  0.00     0.163 HD
BRANCH   4   7
ATOM      7  C   UNL A   1      33.748  21.893  24.116  1.00  0.00     0.084 A 
ATOM      8  C   UNL A   1      33.726  19.596  24.989  1.00  0.00     0.060 A 
ATOM      9  C   UNL A   1      32.429  19.816  25.387  1.00  0.00     0.139 A 
ATOM     10  C   UNL A   1      34.350  20.650  24.343  1.00  0.00     0.045 A 
ATOM     11  N   UNL A   1      31.798  20.999  25.226  1.00  0.00    -0.236 NA
ATOM     12  C   UNL A   1      32.431  22.033  24.590  1.00  0.00     0.141 A 
BRANCH   8  13
ATOM     13  N   UNL A   1      34.344  18.346  25.172  1.00  0.00    -0.325 N 
ATOM     14  C   UNL A   1      33.683  17.191  23.051  1.00  0.00     0.114 C 
ATOM     15  C   UNL A   1      34.238  17.185  24.455  1.00  0.00     0.221 C 
ATOM     16  O   UNL A   1      34.666  16.140  24.948  1.00  0.00    -0.275 OA
ATOM     17  H   UNL A   1      34.955  18.299  25.943  1.00  0.00     0.169 HD
ENDBRANCH   8  13
BRANCH  12  18
ATOM     18  N   UNL A   1      31.647  23.156  24.513  1.00  0.00    -0.352 N 
ATOM     19  C   UNL A   1      30.901  23.330  23.279  1.00  0.00     0.146 C 
ATOM     20  C   UNL A   1      31.188  23.880  25.692  1.00  0.00     0.123 C 
ATOM     21  C   UNL A   1      30.480  24.765  23.118  1.00  0.00    -0.002 C 
ATOM     22  C   UNL A   1      31.254  25.386  25.399  1.00  0.00     0.057 C 
ATOM     23  C   UNL A   1      30.642  25.718  24.058  1.00  0.00    -0.041 C 
BRANCH  23  24
ATOM     24  C   UNL A   1      30.199  27.102  23.799  1.00  0.00    -0.020 A 
ATOM     25  C   UNL A   1      28.842  27.313  23.489  1.00  0.00     0.008 A 
ATOM     26  C   UNL A   1      31.073  28.208  23.837  1.00  0.00    -0.044 A 
ATOM     27  C   UNL A   1      28.354  28.592  23.223  1.00  0.00     0.001 A 
ATOM     28  C   UNL A   1      30.561  29.493  23.582  1.00  0.00     0.004 A 
ATOM     29  C   UNL A   1      32.535  28.071  24.157  1.00  0.00     0.045 C 
ATOM     30  C   UNL A   1      29.214  29.683  23.272  1.00  0.00     0.000 A 
ENDBRANCH  23  24
ENDBRANCH  12  18
ENDBRANCH   4   7
ENDBRANCH   2   3
ENDBRANCH   1   2
BRANCH   1  31
ATOM     31  C   UNL A   1      38.151  22.613  25.505  1.00  0.00     0.118 C 
BRANCH  31  32
ATOM     32  N   UNL A   1      39.096  22.315  26.587  1.00  0.00    -0.352 N 
ATOM     33  C   UNL A   1      40.097  23.077  27.152  1.00  0.00     0.251 C 
ATOM     34  H   UNL A   1      38.999  21.415  26.975  1.00  0.00     0.163 HD
ATOM     35  O   UNL A   1      41.082  22.483  27.605  1.00  0.00    -0.269 OA
BRANCH  33  36
ATOM     36  C   UNL A   1      39.958  24.537  27.253  1.00  0.00     0.039 A 
ATOM     37  C   UNL A   1      40.546  25.437  26.365  1.00  0.00     0.014 A 
ATOM     38  C   UNL A   1      39.402  25.038  28.418  1.00  0.00     0.014 A 
ATOM     39  C   UNL A   1      40.715  26.755  26.796  1.00  0.00     0.010 A 
ATOM     40  C   UNL A   1      39.147  26.346  28.592  1.00  0.00     0.010 A 
ATOM     41  C   UNL A   1      40.082  27.142  27.975  1.00  0.00    -0.014 A 
BRANCH  41  42
ATOM     42  C   UNL A   1      40.346  28.294  28.802  1.00  0.00     0.031 A 
ATOM     43  C   UNL A   1      39.463  29.437  28.650  1.00  0.00     0.074 A 
ATOM     44  C   UNL A   1      41.110  28.084  29.903  1.00  0.00     0.049 A 
ATOM     45  N   UNL A   1      39.674  30.579  29.187  1.00  0.00    -0.248 NA
ATOM     46  C   UNL A   1      38.267  29.374  27.820  1.00  0.00     0.031 C 
ATOM     47  C   UNL A   1      41.051  28.758  31.194  1.00  0.00     0.029 A 
ATOM     48  N   UNL A   1      42.093  27.134  30.124  1.00  0.00    -0.354 N 
ATOM     49  C   UNL A   1      38.504  31.287  29.057  1.00  0.00     0.074 A 
ATOM     50  C   UNL A   1      37.762  30.588  28.039  1.00  0.00     0.031 C 
ATOM     51  C   UNL A   1      42.114  28.386  31.935  1.00  0.00     0.029 A 
ATOM     52  C   UNL A   1      42.988  27.598  31.083  1.00  0.00     0.049 A 
ATOM     53  H   UNL A   1      42.150  26.263  29.670  1.00  0.00     0.167 HD
ATOM     54  C   UNL A   1      38.243  32.253  29.978  1.00  0.00     0.034 A 
ATOM     55  C   UNL A   1      44.262  27.958  30.718  1.00  0.00     0.034 A 
ATOM     56  C   UNL A   1      39.418  32.432  30.865  1.00  0.00     0.049 A 
ATOM     57  C   UNL A   1      44.456  29.471  30.734  1.00  0.00     0.074 A 
ATOM     58  C   UNL A   1      39.707  31.994  32.148  1.00  0.00     0.029 A 
ATOM     59  N   UNL A   1      40.644  32.811  30.308  1.00  0.00    -0.354 N 
ATOM     60  N   UNL A   1      43.510  30.333  31.000  1.00  0.00    -0.248 NA
ATOM     61  C   UNL A   1      45.728  30.133  30.454  1.00  0.00     0.031 C 
ATOM     62  C   UNL A   1      41.128  31.988  32.303  1.00  0.00     0.029 A 
ATOM     63  C   UNL A   1      41.707  32.461  31.136  1.00  0.00     0.049 A 
ATOM     64  H   UNL A   1      40.742  33.268  29.442  1.00  0.00     0.167 HD
ATOM     65  C   UNL A   1      43.946  31.604  30.759  1.00  0.00     0.074 A 
ATOM     66  C   UNL A   1      45.372  31.428  30.527  1.00  0.00     0.031 C 
ATOM     67  C   UNL A   1      43.094  32.678  30.700  1.00  0.00     0.034 A 
BRANCH  54  68
ATOM     68  C   UNL A   1      36.861  32.829  30.279  1.00  0.00     0.023 A 
ATOM     69  C   UNL A   1      36.012  33.048  29.173  1.00  0.00     0.012 A 
ATOM     70  C   UNL A   1      36.337  33.235  31.535  1.00  0.00     0.148 A 
ATOM     71  C   UNL A   1      34.759  33.665  29.293  1.00  0.00     0.002 A 
ATOM     72  C   UNL A   1      35.088  33.850  31.660  1.00  0.00     0.091 A 
ATOM     73  F   UNL A   1      37.022  33.038  32.654  1.00  0.00    -0.205 F 
ATOM     74  C   UNL A   1      34.298  34.073  30.536  1.00  0.00     0.022 A 
BRANCH  72  75
ATOM     75  S   UNL A   1      34.431  34.404  33.251  1.00  0.00     0.127 S 
ATOM     76  O   UNL A   1      35.318  35.523  33.574  1.00  0.00    -0.237 OA
ATOM     77  O   UNL A   1      33.065  34.792  32.904  1.00  0.00    -0.237 OA
ATOM     78  O   UNL A   1      34.532  33.273  34.166  1.00  0.00    -0.744 OA
ENDBRANCH  72  75
ENDBRANCH  54  68
BRANCH  55  79
ATOM     79  C   UNL A   1      44.825  27.011  29.695  1.00  0.00     0.023 A 
ATOM     80  C   UNL A   1      44.765  25.635  30.035  1.00  0.00     0.012 A 
ATOM     81  C   UNL A   1      44.870  27.367  28.336  1.00  0.00     0.148 A 
ATOM     82  C   UNL A   1      44.473  24.677  29.062  1.00  0.00     0.002 A 
ATOM     83  C   UNL A   1      44.603  26.399  27.368  1.00  0.00     0.091 A 
ATOM     84  F   UNL A   1      45.098  28.645  28.007  1.00  0.00    -0.205 F 
ATOM     85  C   UNL A   1      44.330  25.071  27.736  1.00  0.00     0.022 A 
BRANCH  83  86
ATOM     86  S   UNL A   1      44.490  26.855  25.634  1.00  0.00     0.127 S 
ATOM     87  O   UNL A   1      45.887  27.134  25.312  1.00  0.00    -0.237 OA
ATOM     88  O   UNL A   1      43.956  25.645  25.009  1.00  0.00    -0.237 OA
ATOM     89  O   UNL A   1      43.580  27.990  25.611  1.00  0.00    -0.744 OA
ENDBRANCH  83  86
ENDBRANCH  55  79
BRANCH  67  90
ATOM     90  C   UNL A   1      43.510  34.054  30.213  1.00  0.00     0.023 A 
ATOM     91  C   UNL A   1      43.769  35.121  31.096  1.00  0.00     0.012 A 
ATOM     92  C   UNL A   1      43.777  34.291  28.841  1.00  0.00     0.148 A 
ATOM     93  C   UNL A   1      44.154  36.386  30.641  1.00  0.00     0.002 A 
ATOM     94  C   UNL A   1      44.295  35.507  28.409  1.00  0.00     0.091 A 
ATOM     95  F   UNL A   1      43.506  33.341  27.933  1.00  0.00    -0.205 F 
ATOM     96  C   UNL A   1      44.436  36.574  29.297  1.00  0.00     0.022 A 
BRANCH  94  97
ATOM     97  S   UNL A   1      44.950  35.700  26.748  1.00  0.00     0.127 S 
ATOM     98  O   UNL A   1      43.778  35.410  25.924  1.00  0.00    -0.237 OA
ATOM     99  O   UNL A   1      45.370  37.103  26.739  1.00  0.00    -0.237 OA
ATOM    100  O   UNL A   1      46.051  34.750  26.656  1.00  0.00    -0.744 OA
ENDBRANCH  94  97
ENDBRANCH  67  90
ENDBRANCH  41  42
ENDBRANCH  33  36
ENDBRANCH  31  32
ENDBRANCH   1  31
TORSDOF 16
ENDMDL
