MODEL 1
REMARK VINA RESULT:     -13.6      0.000      0.000
REMARK SMILES C[C@H]1[C@H](C)CC[C@@]2(C(=O)NCCCNC(=O)c3ccc(-c4c5nc(c(-c6cccc(S(=O)(=O)[O-])c6F)c6ccc([nH]6)c(-c6cccc(S(=O)(=O)[O-])c6F)c6nc(c(-c7cccc(S(=O)(=O)[O-])c7F)c7ccc4[nH]7)C=C6)C=C5)cc3)CC[C@@]3(C)C(=CC[C@@H]4[C@@]5(C)CC[C@H](O)C(C)(C)[C@@H]5CC[C@]43C)[C@H]12
REMARK SMILES IDX 13 1 12 2 11 3 10 4 8 5 9 6 7 8 1 9 2 10 3 11 102 12 4 13
REMARK SMILES IDX 5 14 84 15 6 16 80 17 82 18 85 19 81 20 83 21 100 22 86 23
REMARK SMILES IDX 87 24 99 25 101 26 88 27 98 28 89 29 90 30 97 31 91 32 94 33
REMARK SMILES IDX 92 34 95 35 96 36 93 37 14 39 15 40 16 42 17 43 18 44 79 45
REMARK SMILES IDX 19 46 78 47 20 48 21 49 22 50 72 51 23 52 77 53 71 54 73 55
REMARK SMILES IDX 24 56 76 57 70 58 69 59 25 61 57 62 37 63 56 64 38 65 41 66
REMARK SMILES IDX 55 67 74 68 39 69 40 70 54 72 75 73 42 74 26 75 27 76 35 77
REMARK SMILES IDX 28 78 30 79 36 80 29 81 31 82 32 83 33 84 34 85 58 86 59 87
REMARK SMILES IDX 67 88 60 89 62 90 68 91 61 92 63 93 64 94 65 95 66 96 43 97
REMARK SMILES IDX 44 98 52 99 45 100 47 101 53 102 46 103 48 104 49 105 50 106
REMARK SMILES IDX 51 107
REMARK H PARENT 10 7 93 38 14 41 73 60 41 71
REMARK Flexibility Score: inf
ROOT
ATOM      1  C   UNL A   1      34.325  30.883  27.503  1.00  0.00     0.118 C 
ENDROOT
BRANCH   1   2
ATOM      2  C   UNL A   1      35.026  29.524  27.531  1.00  0.00     0.042 C 
BRANCH   2   3
ATOM      3  C   UNL A   1      34.381  28.493  26.605  1.00  0.00     0.117 C 
BRANCH   3   4
ATOM      4  N   UNL A   1      34.055  29.010  25.289  1.00  0.00    -0.356 N 
ATOM      5  C   UNL A   1      32.891  29.117  24.593  1.00  0.00     0.226 C 
ATOM      6  O   UNL A   1      33.062  29.181  23.367  1.00  0.00    -0.274 OA
ATOM      7  H   UNL A   1      34.836  29.353  24.799  1.00  0.00     0.163 HD
BRANCH   5   8
ATOM      8  C   UNL A   1      31.445  29.216  25.208  1.00  0.00     0.056 C 
ATOM      9  C   UNL A   1      28.730  28.837  22.355  1.00  0.00     0.008 C 
ATOM     10  C   UNL A   1      29.856  29.520  23.163  1.00  0.00    -0.003 C 
ATOM     11  C   UNL A   1      29.379  30.893  23.725  1.00  0.00    -0.011 C 
ATOM     12  C   UNL A   1      30.334  28.598  24.313  1.00  0.00     0.034 C 
ATOM     13  C   UNL A   1      29.130  31.934  22.615  1.00  0.00     0.008 C 
ATOM     14  C   UNL A   1      30.312  31.552  24.759  1.00  0.00     0.005 C 
ATOM     15  C   UNL A   1      30.795  27.163  23.997  1.00  0.00    -0.063 C 
ATOM     16  C   UNL A   1      31.124  30.649  25.675  1.00  0.00     0.018 C 
ATOM     17  C   UNL A   1      31.430  28.344  26.529  1.00  0.00     0.018 C 
ATOM     18  C   UNL A   1      30.741  26.167  25.189  1.00  0.00    -0.006 C 
ATOM     19  C   UNL A   1      31.449  26.880  22.852  1.00  0.00    -0.027 C 
ATOM     20  C   UNL A   1      31.540  26.815  26.370  1.00  0.00     0.013 C 
ATOM     21  C   UNL A   1      29.272  25.986  25.661  1.00  0.00     0.017 C 
ATOM     22  C   UNL A   1      31.363  24.713  24.781  1.00  0.00    -0.020 C 
ATOM     23  C   UNL A   1      32.351  25.692  22.665  1.00  0.00     0.032 C 
ATOM     24  C   UNL A   1      32.705  25.013  24.012  1.00  0.00     0.006 C 
ATOM     25  C   UNL A   1      31.613  23.811  26.019  1.00  0.00     0.008 C 
ATOM     26  C   UNL A   1      30.358  23.926  23.882  1.00  0.00     0.012 C 
ATOM     27  C   UNL A   1      33.828  23.894  23.941  1.00  0.00    -0.025 C 
ATOM     28  C   UNL A   1      32.514  22.608  25.726  1.00  0.00     0.005 C 
ATOM     29  C   UNL A   1      33.615  23.000  22.703  1.00  0.00     0.012 C 
ATOM     30  C   UNL A   1      35.211  24.612  23.797  1.00  0.00     0.010 C 
ATOM     31  C   UNL A   1      33.900  23.110  25.302  1.00  0.00     0.003 C 
ATOM     32  C   UNL A   1      36.418  23.681  23.898  1.00  0.00     0.033 C 
ATOM     33  C   UNL A   1      35.072  22.066  25.437  1.00  0.00    -0.006 C 
ATOM     34  C   UNL A   1      36.412  22.814  25.160  1.00  0.00     0.120 C 
ATOM     35  C   UNL A   1      34.920  20.809  24.554  1.00  0.00     0.014 C 
ATOM     36  C   UNL A   1      35.144  21.533  26.898  1.00  0.00     0.014 C 
BRANCH  34  37
ATOM     37  O   UNL A   1      37.508  21.899  25.105  1.00  0.00    -0.393 OA
ATOM     38  H   UNL A   1      37.594  21.550  24.204  1.00  0.00     0.210 HD
ENDBRANCH  34  37
ENDBRANCH   5   8
ENDBRANCH   3   4
ENDBRANCH   2   3
ENDBRANCH   1   2
BRANCH   1  39
ATOM     39  N   UNL A   1      34.299  31.594  28.781  1.00  0.00    -0.352 N 
ATOM     40  C   UNL A   1      35.185  31.658  29.833  1.00  0.00     0.251 C 
ATOM     41  H   UNL A   1      33.488  32.135  28.915  1.00  0.00     0.163 HD
ATOM     42  O   UNL A   1      34.882  32.327  30.821  1.00  0.00    -0.269 OA
BRANCH  40  43
ATOM     43  C   UNL A   1      36.454  30.891  29.835  1.00  0.00     0.039 A 
ATOM     44  C   UNL A   1      37.565  31.415  29.164  1.00  0.00     0.014 A 
ATOM     45  C   UNL A   1      36.577  29.671  30.491  1.00  0.00     0.014 A 
ATOM     46  C   UNL A   1      38.811  30.785  29.266  1.00  0.00     0.010 A 
ATOM     47  C   UNL A   1      37.835  29.118  30.704  1.00  0.00     0.010 A 
ATOM     48  C   UNL A   1      38.976  29.672  30.106  1.00  0.00    -0.014 A 
BRANCH  48  49
ATOM     49  C   UNL A   1      40.312  29.083  30.410  1.00  0.00     0.031 A 
ATOM     50  C   UNL A   1      41.176  29.675  31.498  1.00  0.00     0.074 A 
ATOM     51  C   UNL A   1      40.811  28.111  29.616  1.00  0.00     0.049 A 
ATOM     52  N   UNL A   1      42.435  29.449  31.771  1.00  0.00    -0.248 NA
ATOM     53  C   UNL A   1      40.558  30.700  32.357  1.00  0.00     0.031 C 
ATOM     54  C   UNL A   1      40.125  27.510  28.468  1.00  0.00     0.029 A 
ATOM     55  N   UNL A   1      42.032  27.478  29.631  1.00  0.00    -0.354 N 
ATOM     56  C   UNL A   1      42.775  30.346  32.778  1.00  0.00     0.074 A 
ATOM     57  C   UNL A   1      41.602  31.149  33.040  1.00  0.00     0.031 C 
ATOM     58  C   UNL A   1      40.921  26.584  27.908  1.00  0.00     0.029 A 
ATOM     59  C   UNL A   1      42.190  26.554  28.623  1.00  0.00     0.049 A 
ATOM     60  H   UNL A   1      42.728  27.668  30.301  1.00  0.00     0.167 HD
ATOM     61  C   UNL A   1      43.942  30.465  33.458  1.00  0.00     0.034 A 
ATOM     62  C   UNL A   1      43.242  25.773  28.303  1.00  0.00     0.034 A 
ATOM     63  C   UNL A   1      45.071  29.596  33.269  1.00  0.00     0.049 A 
ATOM     64  C   UNL A   1      44.490  25.857  29.141  1.00  0.00     0.074 A 
ATOM     65  C   UNL A   1      46.265  29.570  33.968  1.00  0.00     0.029 A 
ATOM     66  N   UNL A   1      45.134  28.578  32.330  1.00  0.00    -0.354 N 
ATOM     67  N   UNL A   1      44.741  26.629  30.171  1.00  0.00    -0.248 NA
ATOM     68  C   UNL A   1      45.586  24.941  28.795  1.00  0.00     0.031 C 
ATOM     69  C   UNL A   1      47.047  28.530  33.456  1.00  0.00     0.029 A 
ATOM     70  C   UNL A   1      46.337  27.905  32.444  1.00  0.00     0.049 A 
ATOM     71  H   UNL A   1      44.428  28.366  31.677  1.00  0.00     0.167 HD
ATOM     72  C   UNL A   1      46.004  26.261  30.621  1.00  0.00     0.074 A 
ATOM     73  C   UNL A   1      46.457  25.183  29.765  1.00  0.00     0.031 C 
ATOM     74  C   UNL A   1      46.735  26.781  31.637  1.00  0.00     0.034 A 
BRANCH  61  75
ATOM     75  C   UNL A   1      44.021  31.514  34.539  1.00  0.00     0.023 A 
ATOM     76  C   UNL A   1      44.442  32.817  34.204  1.00  0.00     0.012 A 
ATOM     77  C   UNL A   1      43.628  31.235  35.864  1.00  0.00     0.148 A 
ATOM     78  C   UNL A   1      44.513  33.815  35.173  1.00  0.00     0.002 A 
ATOM     79  C   UNL A   1      43.658  32.250  36.817  1.00  0.00     0.091 A 
ATOM     80  F   UNL A   1      43.242  29.989  36.169  1.00  0.00    -0.205 F 
ATOM     81  C   UNL A   1      44.113  33.534  36.475  1.00  0.00     0.022 A 
BRANCH  79  82
ATOM     82  S   UNL A   1      43.089  32.019  38.505  1.00  0.00     0.127 S 
ATOM     83  O   UNL A   1      43.283  33.354  39.067  1.00  0.00    -0.237 OA
ATOM     84  O   UNL A   1      41.689  31.638  38.308  1.00  0.00    -0.237 OA
ATOM     85  O   UNL A   1      43.928  30.974  39.074  1.00  0.00    -0.744 OA
ENDBRANCH  79  82
ENDBRANCH  61  75
BRANCH  62  86
ATOM     86  C   UNL A   1      43.135  24.776  27.199  1.00  0.00     0.023 A 
ATOM     87  C   UNL A   1      43.734  25.070  25.956  1.00  0.00     0.012 A 
ATOM     88  C   UNL A   1      42.463  23.551  27.359  1.00  0.00     0.148 A 
ATOM     89  C   UNL A   1      43.629  24.183  24.885  1.00  0.00     0.002 A 
ATOM     90  C   UNL A   1      42.409  22.646  26.303  1.00  0.00     0.091 A 
ATOM     91  F   UNL A   1      41.887  23.289  28.541  1.00  0.00    -0.205 F 
ATOM     92  C   UNL A   1      42.975  22.968  25.060  1.00  0.00     0.022 A 
BRANCH  90  93
ATOM     93  S   UNL A   1      41.700  21.005  26.488  1.00  0.00     0.127 S 
ATOM     94  O   UNL A   1      40.278  21.268  26.289  1.00  0.00    -0.237 OA
ATOM     95  O   UNL A   1      42.348  20.264  25.405  1.00  0.00    -0.237 OA
ATOM     96  O   UNL A   1      42.091  20.569  27.823  1.00  0.00    -0.744 OA
ENDBRANCH  90  93
ENDBRANCH  62  86
BRANCH  74  97
ATOM     97  C   UNL A   1      48.076  26.163  31.922  1.00  0.00     0.023 A 
ATOM     98  C   UNL A   1      49.212  26.602  31.214  1.00  0.00     0.012 A 
ATOM     99  C   UNL A   1      48.222  25.210  32.947  1.00  0.00     0.148 A 
ATOM    100  C   UNL A   1      50.471  26.080  31.504  1.00  0.00     0.002 A 
ATOM    101  C   UNL A   1      49.487  24.728  33.263  1.00  0.00     0.091 A 
ATOM    102  F   UNL A   1      47.125  24.791  33.594  1.00  0.00    -0.205 F 
ATOM    103  C   UNL A   1      50.610  25.154  32.536  1.00  0.00     0.022 A 
BRANCH 101 104
ATOM    104  S   UNL A   1      49.771  23.607  34.638  1.00  0.00     0.127 S 
ATOM    105  O   UNL A   1      51.219  23.416  34.572  1.00  0.00    -0.237 OA
ATOM    106  O   UNL A   1      49.311  24.394  35.782  1.00  0.00    -0.237 OA
ATOM    107  O   UNL A   1      48.969  22.423  34.359  1.00  0.00    -0.744 OA
ENDBRANCH 101 104
ENDBRANCH  74  97
ENDBRANCH  48  49
ENDBRANCH  40  43
ENDBRANCH   1  39
TORSDOF 14
ENDMDL
MODEL 2
REMARK VINA RESULT:     -13.3      4.428      9.652
REMARK SMILES C[C@H]1[C@H](C)CC[C@@]2(C(=O)NCCCNC(=O)c3ccc(-c4c5nc(c(-c6cccc(S(=O)(=O)[O-])c6F)c6ccc([nH]6)c(-c6cccc(S(=O)(=O)[O-])c6F)c6nc(c(-c7cccc(S(=O)(=O)[O-])c7F)c7ccc4[nH]7)C=C6)C=C5)cc3)CC[C@@]3(C)C(=CC[C@@H]4[C@@]5(C)CC[C@H](O)C(C)(C)[C@@H]5CC[C@]43C)[C@H]12
REMARK SMILES IDX 13 1 12 2 11 3 10 4 8 5 9 6 7 8 1 9 2 10 3 11 102 12 4 13
REMARK SMILES IDX 5 14 84 15 6 16 80 17 82 18 85 19 81 20 83 21 100 22 86 23
REMARK SMILES IDX 87 24 99 25 101 26 88 27 98 28 89 29 90 30 97 31 91 32 94 33
REMARK SMILES IDX 92 34 95 35 96 36 93 37 14 39 15 40 16 42 17 43 18 44 79 45
REMARK SMILES IDX 19 46 78 47 20 48 21 49 22 50 72 51 23 52 77 53 71 54 73 55
REMARK SMILES IDX 24 56 76 57 70 58 69 59 25 61 57 62 37 63 56 64 38 65 41 66
REMARK SMILES IDX 55 67 74 68 39 69 40 70 54 72 75 73 42 74 26 75 27 76 35 77
REMARK SMILES IDX 28 78 30 79 36 80 29 81 31 82 32 83 33 84 34 85 58 86 59 87
REMARK SMILES IDX 67 88 60 89 62 90 68 91 61 92 63 93 64 94 65 95 66 96 43 97
REMARK SMILES IDX 44 98 52 99 45 100 47 101 53 102 46 103 48 104 49 105 50 106
REMARK SMILES IDX 51 107
REMARK H PARENT 10 7 93 38 14 41 73 60 41 71
REMARK Flexibility Score: inf
ROOT
ATOM      1  C   UNL A   1      38.886  22.217  26.258  1.00  0.00     0.118 C 
ENDROOT
BRANCH   1   2
ATOM      2  C   UNL A   1      38.389  23.663  26.237  1.00  0.00     0.042 C 
BRANCH   2   3
ATOM      3  C   UNL A   1      36.897  23.785  25.925  1.00  0.00     0.117 C 
BRANCH   3   4
ATOM      4  N   UNL A   1      36.077  22.785  26.583  1.00  0.00    -0.356 N 
ATOM      5  C   UNL A   1      35.250  21.808  26.123  1.00  0.00     0.226 C 
ATOM      6  O   UNL A   1      34.395  21.464  26.952  1.00  0.00    -0.274 OA
ATOM      7  H   UNL A   1      36.130  22.822  27.565  1.00  0.00     0.163 HD
BRANCH   5   8
ATOM      8  C   UNL A   1      35.341  21.096  24.721  1.00  0.00     0.056 C 
ATOM      9  C   UNL A   1      32.191  18.766  24.177  1.00  0.00     0.008 C 
ATOM     10  C   UNL A   1      33.533  19.219  24.794  1.00  0.00    -0.003 C 
ATOM     11  C   UNL A   1      34.634  18.136  24.581  1.00  0.00    -0.011 C 
ATOM     12  C   UNL A   1      33.978  20.574  24.188  1.00  0.00     0.034 C 
ATOM     13  C   UNL A   1      34.357  16.845  25.376  1.00  0.00     0.008 C 
ATOM     14  C   UNL A   1      36.073  18.571  24.916  1.00  0.00     0.005 C 
ATOM     15  C   UNL A   1      33.019  21.778  24.229  1.00  0.00    -0.063 C 
ATOM     16  C   UNL A   1      36.453  20.029  24.700  1.00  0.00     0.018 C 
ATOM     17  C   UNL A   1      35.800  22.182  23.666  1.00  0.00     0.018 C 
ATOM     18  C   UNL A   1      33.294  22.887  23.175  1.00  0.00    -0.006 C 
ATOM     19  C   UNL A   1      32.190  21.970  25.275  1.00  0.00    -0.027 C 
ATOM     20  C   UNL A   1      34.797  23.302  23.322  1.00  0.00     0.013 C 
ATOM     21  C   UNL A   1      33.105  22.314  21.743  1.00  0.00     0.017 C 
ATOM     22  C   UNL A   1      32.303  24.168  23.382  1.00  0.00    -0.020 C 
ATOM     23  C   UNL A   1      31.604  23.300  25.657  1.00  0.00     0.032 C 
ATOM     24  C   UNL A   1      32.305  24.475  24.927  1.00  0.00     0.006 C 
ATOM     25  C   UNL A   1      32.758  25.404  22.562  1.00  0.00     0.008 C 
ATOM     26  C   UNL A   1      30.866  23.830  22.873  1.00  0.00     0.012 C 
ATOM     27  C   UNL A   1      31.913  25.926  25.433  1.00  0.00    -0.025 C 
ATOM     28  C   UNL A   1      32.085  26.708  22.998  1.00  0.00     0.005 C 
ATOM     29  C   UNL A   1      30.392  26.016  25.675  1.00  0.00     0.012 C 
ATOM     30  C   UNL A   1      32.642  26.174  26.795  1.00  0.00     0.010 C 
ATOM     31  C   UNL A   1      32.478  27.015  24.449  1.00  0.00     0.003 C 
ATOM     32  C   UNL A   1      32.515  27.599  27.329  1.00  0.00     0.033 C 
ATOM     33  C   UNL A   1      32.298  28.514  24.899  1.00  0.00    -0.006 C 
ATOM     34  C   UNL A   1      32.934  28.667  26.315  1.00  0.00     0.120 C 
ATOM     35  C   UNL A   1      30.842  29.028  24.862  1.00  0.00     0.014 C 
ATOM     36  C   UNL A   1      33.088  29.455  23.943  1.00  0.00     0.014 C 
BRANCH  34  37
ATOM     37  O   UNL A   1      32.668  29.961  26.859  1.00  0.00    -0.393 OA
ATOM     38  H   UNL A   1      33.494  30.468  26.908  1.00  0.00     0.210 HD
ENDBRANCH  34  37
ENDBRANCH   5   8
ENDBRANCH   3   4
ENDBRANCH   2   3
ENDBRANCH   1   2
BRANCH   1  39
ATOM     39  N   UNL A   1      40.294  22.040  25.909  1.00  0.00    -0.352 N 
ATOM     40  C   UNL A   1      41.405  22.838  26.068  1.00  0.00     0.251 C 
ATOM     41  H   UNL A   1      40.488  21.179  25.474  1.00  0.00     0.163 HD
ATOM     42  O   UNL A   1      42.487  22.439  25.639  1.00  0.00    -0.269 OA
BRANCH  40  43
ATOM     43  C   UNL A   1      41.317  24.188  26.676  1.00  0.00     0.039 A 
ATOM     44  C   UNL A   1      41.415  24.313  28.068  1.00  0.00     0.014 A 
ATOM     45  C   UNL A   1      41.150  25.334  25.907  1.00  0.00     0.014 A 
ATOM     46  C   UNL A   1      41.476  25.582  28.658  1.00  0.00     0.010 A 
ATOM     47  C   UNL A   1      41.344  26.588  26.475  1.00  0.00     0.010 A 
ATOM     48  C   UNL A   1      41.524  26.734  27.857  1.00  0.00    -0.014 A 
BRANCH  48  49
ATOM     49  C   UNL A   1      41.789  28.091  28.415  1.00  0.00     0.031 A 
ATOM     50  C   UNL A   1      43.208  28.561  28.636  1.00  0.00     0.074 A 
ATOM     51  C   UNL A   1      40.760  28.845  28.859  1.00  0.00     0.049 A 
ATOM     52  N   UNL A   1      43.642  29.603  29.296  1.00  0.00    -0.248 NA
ATOM     53  C   UNL A   1      44.283  27.714  28.089  1.00  0.00     0.031 C 
ATOM     54  C   UNL A   1      39.343  28.477  28.798  1.00  0.00     0.029 A 
ATOM     55  N   UNL A   1      40.749  30.070  29.484  1.00  0.00    -0.354 N 
ATOM     56  C   UNL A   1      45.029  29.500  29.303  1.00  0.00     0.074 A 
ATOM     57  C   UNL A   1      45.363  28.271  28.618  1.00  0.00     0.031 C 
ATOM     58  C   UNL A   1      38.603  29.459  29.337  1.00  0.00     0.029 A 
ATOM     59  C   UNL A   1      39.488  30.508  29.825  1.00  0.00     0.049 A 
ATOM     60  H   UNL A   1      41.566  30.587  29.670  1.00  0.00     0.167 HD
ATOM     61  C   UNL A   1      45.948  30.367  29.795  1.00  0.00     0.034 A 
ATOM     62  C   UNL A   1      39.089  31.625  30.465  1.00  0.00     0.034 A 
ATOM     63  C   UNL A   1      45.617  31.637  30.382  1.00  0.00     0.049 A 
ATOM     64  C   UNL A   1      40.129  32.618  30.910  1.00  0.00     0.074 A 
ATOM     65  C   UNL A   1      46.471  32.630  30.826  1.00  0.00     0.029 A 
ATOM     66  N   UNL A   1      44.326  32.103  30.578  1.00  0.00    -0.354 N 
ATOM     67  N   UNL A   1      41.433  32.555  30.793  1.00  0.00    -0.248 NA
ATOM     68  C   UNL A   1      39.642  33.852  31.545  1.00  0.00     0.031 C 
ATOM     69  C   UNL A   1      45.696  33.700  31.283  1.00  0.00     0.029 A 
ATOM     70  C   UNL A   1      44.360  33.376  31.117  1.00  0.00     0.049 A 
ATOM     71  H   UNL A   1      43.506  31.600  30.366  1.00  0.00     0.167 HD
ATOM     72  C   UNL A   1      41.918  33.755  31.298  1.00  0.00     0.074 A 
ATOM     73  C   UNL A   1      40.767  34.536  31.703  1.00  0.00     0.031 C 
ATOM     74  C   UNL A   1      43.202  34.168  31.437  1.00  0.00     0.034 A 
BRANCH  61  75
ATOM     75  C   UNL A   1      47.405  30.015  29.631  1.00  0.00     0.023 A 
ATOM     76  C   UNL A   1      48.092  29.409  30.704  1.00  0.00     0.012 A 
ATOM     77  C   UNL A   1      48.079  30.223  28.411  1.00  0.00     0.148 A 
ATOM     78  C   UNL A   1      49.433  29.056  30.583  1.00  0.00     0.002 A 
ATOM     79  C   UNL A   1      49.407  29.826  28.283  1.00  0.00     0.091 A 
ATOM     80  F   UNL A   1      47.417  30.811  27.405  1.00  0.00    -0.205 F 
ATOM     81  C   UNL A   1      50.088  29.255  29.372  1.00  0.00     0.022 A 
BRANCH  79  82
ATOM     82  S   UNL A   1      50.322  29.963  26.744  1.00  0.00     0.127 S 
ATOM     83  O   UNL A   1      49.556  29.080  25.866  1.00  0.00    -0.237 OA
ATOM     84  O   UNL A   1      50.194  31.388  26.437  1.00  0.00    -0.237 OA
ATOM     85  O   UNL A   1      51.678  29.524  27.040  1.00  0.00    -0.744 OA
ENDBRANCH  79  82
ENDBRANCH  61  75
BRANCH  62  86
ATOM     86  C   UNL A   1      37.637  31.916  30.643  1.00  0.00     0.023 A 
ATOM     87  C   UNL A   1      37.062  31.759  31.921  1.00  0.00     0.012 A 
ATOM     88  C   UNL A   1      36.824  32.349  29.578  1.00  0.00     0.148 A 
ATOM     89  C   UNL A   1      35.702  31.985  32.126  1.00  0.00     0.002 A 
ATOM     90  C   UNL A   1      35.479  32.626  29.801  1.00  0.00     0.091 A 
ATOM     91  F   UNL A   1      37.379  32.483  28.365  1.00  0.00    -0.205 F 
ATOM     92  C   UNL A   1      34.912  32.427  31.069  1.00  0.00     0.022 A 
BRANCH  90  93
ATOM     93  S   UNL A   1      34.425  33.326  28.524  1.00  0.00     0.127 S 
ATOM     94  O   UNL A   1      33.971  32.130  27.822  1.00  0.00    -0.237 OA
ATOM     95  O   UNL A   1      33.396  34.007  29.311  1.00  0.00    -0.237 OA
ATOM     96  O   UNL A   1      35.287  34.226  27.769  1.00  0.00    -0.744 OA
ENDBRANCH  90  93
ENDBRANCH  62  86
BRANCH  74  97
ATOM     97  C   UNL A   1      43.437  35.544  31.998  1.00  0.00     0.023 A 
ATOM     98  C   UNL A   1      43.474  35.732  33.394  1.00  0.00     0.012 A 
ATOM     99  C   UNL A   1      43.704  36.630  31.144  1.00  0.00     0.148 A 
ATOM    100  C   UNL A   1      43.746  36.989  33.930  1.00  0.00     0.002 A 
ATOM    101  C   UNL A   1      44.021  37.870  31.686  1.00  0.00     0.091 A 
ATOM    102  F   UNL A   1      43.643  36.434  29.819  1.00  0.00    -0.205 F 
ATOM    103  C   UNL A   1      44.032  38.054  33.079  1.00  0.00     0.022 A 
BRANCH 101 104
ATOM    104  S   UNL A   1      44.495  39.271  30.666  1.00  0.00     0.127 S 
ATOM    105  O   UNL A   1      43.267  39.522  29.915  1.00  0.00    -0.237 OA
ATOM    106  O   UNL A   1      44.818  40.289  31.666  1.00  0.00    -0.237 OA
ATOM    107  O   UNL A   1      45.633  38.821  29.876  1.00  0.00    -0.744 OA
ENDBRANCH 101 104
ENDBRANCH  74  97
ENDBRANCH  48  49
ENDBRANCH  40  43
ENDBRANCH   1  39
TORSDOF 14
ENDMDL
MODEL 3
REMARK VINA RESULT:     -13.1      3.910      9.445
REMARK SMILES C[C@H]1[C@H](C)CC[C@@]2(C(=O)NCCCNC(=O)c3ccc(-c4c5nc(c(-c6cccc(S(=O)(=O)[O-])c6F)c6ccc([nH]6)c(-c6cccc(S(=O)(=O)[O-])c6F)c6nc(c(-c7cccc(S(=O)(=O)[O-])c7F)c7ccc4[nH]7)C=C6)C=C5)cc3)CC[C@@]3(C)C(=CC[C@@H]4[C@@]5(C)CC[C@H](O)C(C)(C)[C@@H]5CC[C@]43C)[C@H]12
REMARK SMILES IDX 13 1 12 2 11 3 10 4 8 5 9 6 7 8 1 9 2 10 3 11 102 12 4 13
REMARK SMILES IDX 5 14 84 15 6 16 80 17 82 18 85 19 81 20 83 21 100 22 86 23
REMARK SMILES IDX 87 24 99 25 101 26 88 27 98 28 89 29 90 30 97 31 91 32 94 33
REMARK SMILES IDX 92 34 95 35 96 36 93 37 14 39 15 40 16 42 17 43 18 44 79 45
REMARK SMILES IDX 19 46 78 47 20 48 21 49 22 50 72 51 23 52 77 53 71 54 73 55
REMARK SMILES IDX 24 56 76 57 70 58 69 59 25 61 57 62 37 63 56 64 38 65 41 66
REMARK SMILES IDX 55 67 74 68 39 69 40 70 54 72 75 73 42 74 26 75 27 76 35 77
REMARK SMILES IDX 28 78 30 79 36 80 29 81 31 82 32 83 33 84 34 85 58 86 59 87
REMARK SMILES IDX 67 88 60 89 62 90 68 91 61 92 63 93 64 94 65 95 66 96 43 97
REMARK SMILES IDX 44 98 52 99 45 100 47 101 53 102 46 103 48 104 49 105 50 106
REMARK SMILES IDX 51 107
REMARK H PARENT 10 7 93 38 14 41 73 60 41 71
REMARK Flexibility Score: inf
ROOT
ATOM      1  C   UNL A   1      38.972  22.142  26.194  1.00  0.00     0.118 C 
ENDROOT
BRANCH   1   2
ATOM      2  C   UNL A   1      38.503  23.592  26.326  1.00  0.00     0.042 C 
BRANCH   2   3
ATOM      3  C   UNL A   1      37.024  23.781  25.990  1.00  0.00     0.117 C 
BRANCH   3   4
ATOM      4  N   UNL A   1      36.150  22.811  26.623  1.00  0.00    -0.356 N 
ATOM      5  C   UNL A   1      35.291  21.874  26.138  1.00  0.00     0.226 C 
ATOM      6  O   UNL A   1      34.406  21.559  26.947  1.00  0.00    -0.274 OA
ATOM      7  H   UNL A   1      36.185  22.837  27.606  1.00  0.00     0.163 HD
BRANCH   5   8
ATOM      8  C   UNL A   1      35.379  21.172  24.730  1.00  0.00     0.056 C 
ATOM      9  C   UNL A   1      32.193  18.901  24.148  1.00  0.00     0.008 C 
ATOM     10  C   UNL A   1      33.538  19.325  24.777  1.00  0.00    -0.003 C 
ATOM     11  C   UNL A   1      34.621  18.226  24.561  1.00  0.00    -0.011 C 
ATOM     12  C   UNL A   1      34.010  20.678  24.185  1.00  0.00     0.034 C 
ATOM     13  C   UNL A   1      34.318  16.933  25.344  1.00  0.00     0.008 C 
ATOM     14  C   UNL A   1      36.066  18.634  24.908  1.00  0.00     0.005 C 
ATOM     15  C   UNL A   1      33.071  21.898  24.229  1.00  0.00    -0.063 C 
ATOM     16  C   UNL A   1      36.472  20.086  24.707  1.00  0.00     0.018 C 
ATOM     17  C   UNL A   1      35.862  22.259  23.687  1.00  0.00     0.018 C 
ATOM     18  C   UNL A   1      33.372  23.010  23.186  1.00  0.00    -0.006 C 
ATOM     19  C   UNL A   1      32.240  22.095  25.271  1.00  0.00    -0.027 C 
ATOM     20  C   UNL A   1      34.881  23.399  23.346  1.00  0.00     0.013 C 
ATOM     21  C   UNL A   1      33.183  22.452  21.749  1.00  0.00     0.017 C 
ATOM     22  C   UNL A   1      32.402  24.306  23.398  1.00  0.00    -0.020 C 
ATOM     23  C   UNL A   1      31.674  23.433  25.661  1.00  0.00     0.032 C 
ATOM     24  C   UNL A   1      32.399  24.601  24.945  1.00  0.00     0.006 C 
ATOM     25  C   UNL A   1      32.884  25.541  22.591  1.00  0.00     0.008 C 
ATOM     26  C   UNL A   1      30.963  23.997  22.877  1.00  0.00     0.012 C 
ATOM     27  C   UNL A   1      32.029  26.055  25.460  1.00  0.00    -0.025 C 
ATOM     28  C   UNL A   1      32.230  26.853  23.033  1.00  0.00     0.005 C 
ATOM     29  C   UNL A   1      30.509  26.169  25.694  1.00  0.00     0.012 C 
ATOM     30  C   UNL A   1      32.754  26.278  26.829  1.00  0.00     0.010 C 
ATOM     31  C   UNL A   1      32.619  27.142  24.489  1.00  0.00     0.003 C 
ATOM     32  C   UNL A   1      32.648  27.702  27.373  1.00  0.00     0.033 C 
ATOM     33  C   UNL A   1      32.462  28.640  24.950  1.00  0.00    -0.006 C 
ATOM     34  C   UNL A   1      33.092  28.770  26.371  1.00  0.00     0.120 C 
ATOM     35  C   UNL A   1      31.016  29.178  24.908  1.00  0.00     0.014 C 
ATOM     36  C   UNL A   1      33.273  29.575  24.007  1.00  0.00     0.014 C 
BRANCH  34  37
ATOM     37  O   UNL A   1      32.844  30.064  26.924  1.00  0.00    -0.393 OA
ATOM     38  H   UNL A   1      32.219  30.544  26.359  1.00  0.00     0.210 HD
ENDBRANCH  34  37
ENDBRANCH   5   8
ENDBRANCH   3   4
ENDBRANCH   2   3
ENDBRANCH   1   2
BRANCH   1  39
ATOM     39  N   UNL A   1      40.366  21.976  25.789  1.00  0.00    -0.352 N 
ATOM     40  C   UNL A   1      41.481  22.772  25.926  1.00  0.00     0.251 C 
ATOM     41  H   UNL A   1      40.545  21.125  25.327  1.00  0.00     0.163 HD
ATOM     42  O   UNL A   1      42.548  22.385  25.448  1.00  0.00    -0.269 OA
BRANCH  40  43
ATOM     43  C   UNL A   1      41.415  24.107  26.568  1.00  0.00     0.039 A 
ATOM     44  C   UNL A   1      41.558  24.199  27.958  1.00  0.00     0.014 A 
ATOM     45  C   UNL A   1      41.224  25.271  25.832  1.00  0.00     0.014 A 
ATOM     46  C   UNL A   1      41.641  25.454  28.576  1.00  0.00     0.010 A 
ATOM     47  C   UNL A   1      41.438  26.512  26.423  1.00  0.00     0.010 A 
ATOM     48  C   UNL A   1      41.663  26.625  27.802  1.00  0.00    -0.014 A 
BRANCH  48  49
ATOM     49  C   UNL A   1      41.947  27.968  28.382  1.00  0.00     0.031 A 
ATOM     50  C   UNL A   1      43.373  28.425  28.584  1.00  0.00     0.074 A 
ATOM     51  C   UNL A   1      40.932  28.719  28.863  1.00  0.00     0.049 A 
ATOM     52  N   UNL A   1      43.826  29.451  29.257  1.00  0.00    -0.248 NA
ATOM     53  C   UNL A   1      44.432  27.584  27.998  1.00  0.00     0.031 C 
ATOM     54  C   UNL A   1      39.511  28.359  28.822  1.00  0.00     0.029 A 
ATOM     55  N   UNL A   1      40.941  29.930  29.513  1.00  0.00    -0.354 N 
ATOM     56  C   UNL A   1      45.213  29.339  29.234  1.00  0.00     0.074 A 
ATOM     57  C   UNL A   1      45.526  28.124  28.517  1.00  0.00     0.031 C 
ATOM     58  C   UNL A   1      38.788  29.334  29.397  1.00  0.00     0.029 A 
ATOM     59  C   UNL A   1      39.690  30.368  29.889  1.00  0.00     0.049 A 
ATOM     60  H   UNL A   1      41.765  30.438  29.694  1.00  0.00     0.167 HD
ATOM     61  C   UNL A   1      46.147  30.191  29.725  1.00  0.00     0.034 A 
ATOM     62  C   UNL A   1      39.310  31.473  30.560  1.00  0.00     0.034 A 
ATOM     63  C   UNL A   1      45.835  31.450  30.345  1.00  0.00     0.049 A 
ATOM     64  C   UNL A   1      40.365  32.451  31.005  1.00  0.00     0.074 A 
ATOM     65  C   UNL A   1      46.705  32.429  30.792  1.00  0.00     0.029 A 
ATOM     66  N   UNL A   1      44.551  31.919  30.577  1.00  0.00    -0.354 N 
ATOM     67  N   UNL A   1      41.666  32.383  30.860  1.00  0.00    -0.248 NA
ATOM     68  C   UNL A   1      39.898  33.674  31.676  1.00  0.00     0.031 C 
ATOM     69  C   UNL A   1      45.946  33.494  31.288  1.00  0.00     0.029 A 
ATOM     70  C   UNL A   1      44.604  33.180  31.142  1.00  0.00     0.049 A 
ATOM     71  H   UNL A   1      43.724  31.426  30.371  1.00  0.00     0.167 HD
ATOM     72  C   UNL A   1      42.169  33.569  31.381  1.00  0.00     0.074 A 
ATOM     73  C   UNL A   1      41.030  34.348  31.825  1.00  0.00     0.031 C 
ATOM     74  C   UNL A   1      43.457  33.972  31.502  1.00  0.00     0.034 A 
BRANCH  61  75
ATOM     75  C   UNL A   1      47.598  29.834  29.525  1.00  0.00     0.023 A 
ATOM     76  C   UNL A   1      48.267  29.088  30.517  1.00  0.00     0.012 A 
ATOM     77  C   UNL A   1      48.283  30.178  28.342  1.00  0.00     0.148 A 
ATOM     78  C   UNL A   1      49.603  28.727  30.359  1.00  0.00     0.002 A 
ATOM     79  C   UNL A   1      49.604  29.774  28.171  1.00  0.00     0.091 A 
ATOM     80  F   UNL A   1      47.638  30.898  27.413  1.00  0.00    -0.205 F 
ATOM     81  C   UNL A   1      50.268  29.062  29.184  1.00  0.00     0.022 A 
BRANCH  79  82
ATOM     82  S   UNL A   1      50.531  30.082  26.663  1.00  0.00     0.127 S 
ATOM     83  O   UNL A   1      51.896  29.780  27.089  1.00  0.00    -0.237 OA
ATOM     84  O   UNL A   1      49.950  29.106  25.741  1.00  0.00    -0.237 OA
ATOM     85  O   UNL A   1      50.281  31.473  26.313  1.00  0.00    -0.744 OA
ENDBRANCH  79  82
ENDBRANCH  61  75
BRANCH  62  86
ATOM     86  C   UNL A   1      37.864  31.769  30.773  1.00  0.00     0.023 A 
ATOM     87  C   UNL A   1      37.284  31.468  32.023  1.00  0.00     0.012 A 
ATOM     88  C   UNL A   1      37.062  32.344  29.770  1.00  0.00     0.148 A 
ATOM     89  C   UNL A   1      35.928  31.694  32.255  1.00  0.00     0.002 A 
ATOM     90  C   UNL A   1      35.722  32.619  30.026  1.00  0.00     0.091 A 
ATOM     91  F   UNL A   1      37.621  32.614  28.582  1.00  0.00    -0.205 F 
ATOM     92  C   UNL A   1      35.148  32.277  31.261  1.00  0.00     0.022 A 
BRANCH  90  93
ATOM     93  S   UNL A   1      34.684  33.489  28.846  1.00  0.00     0.127 S 
ATOM     94  O   UNL A   1      34.471  32.468  27.824  1.00  0.00    -0.237 OA
ATOM     95  O   UNL A   1      33.504  33.812  29.650  1.00  0.00    -0.237 OA
ATOM     96  O   UNL A   1      35.461  34.653  28.439  1.00  0.00    -0.744 OA
ENDBRANCH  90  93
ENDBRANCH  62  86
BRANCH  74  97
ATOM     97  C   UNL A   1      43.712  35.335  32.087  1.00  0.00     0.023 A 
ATOM     98  C   UNL A   1      43.827  36.450  31.235  1.00  0.00     0.012 A 
ATOM     99  C   UNL A   1      43.753  35.518  33.482  1.00  0.00     0.148 A 
ATOM    100  C   UNL A   1      44.008  37.727  31.764  1.00  0.00     0.002 A 
ATOM    101  C   UNL A   1      43.886  36.800  34.003  1.00  0.00     0.091 A 
ATOM    102  F   UNL A   1      43.662  34.440  34.274  1.00  0.00    -0.205 F 
ATOM    103  C   UNL A   1      44.024  37.904  33.145  1.00  0.00     0.022 A 
BRANCH 101 104
ATOM    104  S   UNL A   1      43.821  37.130  35.768  1.00  0.00     0.127 S 
ATOM    105  O   UNL A   1      44.033  38.576  35.808  1.00  0.00    -0.237 OA
ATOM    106  O   UNL A   1      42.466  36.702  36.115  1.00  0.00    -0.237 OA
ATOM    107  O   UNL A   1      44.878  36.324  36.363  1.00  0.00    -0.744 OA
ENDBRANCH 101 104
ENDBRANCH  74  97
ENDBRANCH  48  49
ENDBRANCH  40  43
ENDBRANCH   1  39
TORSDOF 14
ENDMDL
