MODEL 1
REMARK VINA RESULT:     -12.0      0.000      0.000
REMARK SMILES C[C@@H](C(=O)NCCCNC(=O)c1ccc(-c2c3nc(c(-c4cccc(S(=O)(=O)[O-])c4F)c4ccc([nH]4)c(-c4cccc(S(=O)(=O)[O-])c4F)c4nc(c(-c5cccc(S(=O)(=O)[O-])c5F)c5ccc2[nH]5)C=C4)C=C3)cc1)c1ccc(C[C@H]2CCCC2=O)c(Br)c1
REMARK SMILES IDX 7 1 6 2 5 3 3 4 4 5 2 7 1 8 75 9 76 10 88 11 77 12 86 13
REMARK SMILES IDX 78 14 87 15 79 16 80 17 81 18 84 19 82 20 83 21 85 22 8 23
REMARK SMILES IDX 9 24 10 25 11 27 12 28 13 29 74 30 14 31 73 32 15 33 16 34
REMARK SMILES IDX 17 35 67 36 18 37 72 38 66 39 68 40 19 41 71 42 65 43 64 44
REMARK SMILES IDX 20 46 52 47 32 48 51 49 33 50 36 51 50 52 69 53 34 54 35 55
REMARK SMILES IDX 49 57 70 58 37 59 21 60 22 61 30 62 23 63 25 64 31 65 24 66
REMARK SMILES IDX 26 67 27 68 28 69 29 70 53 71 54 72 62 73 55 74 57 75 63 76
REMARK SMILES IDX 56 77 58 78 59 79 60 80 61 81 38 82 39 83 47 84 40 85 42 86
REMARK SMILES IDX 48 87 41 88 43 89 44 90 45 91 46 92
REMARK H PARENT 5 6 9 26 68 45 36 56
REMARK Flexibility Score: inf
ROOT
ATOM      1  C   UNL A   1      33.151  27.634  26.628  1.00  0.00     0.042 C 
ENDROOT
BRANCH   1   2
ATOM      2  C   UNL A   1      31.663  27.831  26.345  1.00  0.00     0.117 C 
BRANCH   2   3
ATOM      3  N   UNL A   1      30.882  26.662  26.705  1.00  0.00    -0.356 N 
ATOM      4  C   UNL A   1      30.632  25.514  26.014  1.00  0.00     0.227 C 
ATOM      5  O   UNL A   1      29.885  24.697  26.557  1.00  0.00    -0.274 OA
ATOM      6  H   UNL A   1      30.464  26.706  27.595  1.00  0.00     0.163 HD
BRANCH   4   7
ATOM      7  C   UNL A   1      31.299  25.271  24.650  1.00  0.00     0.105 C 
ATOM      8  C   UNL A   1      30.280  25.126  23.516  1.00  0.00     0.023 C 
BRANCH   7   9
ATOM      9  C   UNL A   1      32.215  24.050  24.651  1.00  0.00    -0.035 A 
ATOM     10  C   UNL A   1      32.506  23.382  23.458  1.00  0.00     0.005 A 
ATOM     11  C   UNL A   1      32.758  23.551  25.846  1.00  0.00     0.020 A 
ATOM     12  C   UNL A   1      33.282  22.222  23.470  1.00  0.00     0.005 A 
ATOM     13  C   UNL A   1      33.530  22.384  25.861  1.00  0.00     0.021 A 
ATOM     14  C   UNL A   1      33.775  21.680  24.673  1.00  0.00    -0.033 A 
ATOM     15  Br  UNL A   1      34.199  21.832  27.552  1.00  0.00    -0.051 Br
BRANCH  14  16
ATOM     16  C   UNL A   1      34.508  20.357  24.616  1.00  0.00     0.048 C 
BRANCH  16  17
ATOM     17  C   UNL A   1      33.648  19.096  24.792  1.00  0.00     0.060 C 
ATOM     18  C   UNL A   1      32.294  19.058  24.076  1.00  0.00     0.012 C 
ATOM     19  C   UNL A   1      34.322  17.858  24.243  1.00  0.00     0.136 C 
ATOM     20  C   UNL A   1      32.518  18.294  22.777  1.00  0.00     0.009 C 
ATOM     21  C   UNL A   1      33.554  17.230  23.110  1.00  0.00     0.076 C 
ATOM     22  O   UNL A   1      35.372  17.401  24.684  1.00  0.00    -0.299 OA
ENDBRANCH  16  17
ENDBRANCH  14  16
ENDBRANCH   7   9
ENDBRANCH   4   7
ENDBRANCH   2   3
ENDBRANCH   1   2
BRANCH   1  23
ATOM     23  C   UNL A   1      34.070  28.649  25.949  1.00  0.00     0.118 C 
BRANCH  23  24
ATOM     24  N   UNL A   1      33.854  30.007  26.421  1.00  0.00    -0.352 N 
ATOM     25  C   UNL A   1      34.544  30.749  27.346  1.00  0.00     0.251 C 
ATOM     26  H   UNL A   1      33.088  30.469  26.011  1.00  0.00     0.163 HD
ATOM     27  O   UNL A   1      34.066  31.821  27.716  1.00  0.00    -0.269 OA
BRANCH  25  28
ATOM     28  C   UNL A   1      35.830  30.282  27.913  1.00  0.00     0.039 A 
ATOM     29  C   UNL A   1      35.823  29.710  29.188  1.00  0.00     0.014 A 
ATOM     30  C   UNL A   1      37.043  30.446  27.236  1.00  0.00     0.014 A 
ATOM     31  C   UNL A   1      37.015  29.262  29.761  1.00  0.00     0.010 A 
ATOM     32  C   UNL A   1      38.223  29.933  27.778  1.00  0.00     0.010 A 
ATOM     33  C   UNL A   1      38.225  29.342  29.050  1.00  0.00    -0.014 A 
BRANCH  33  34
ATOM     34  C   UNL A   1      39.475  28.778  29.623  1.00  0.00     0.031 A 
ATOM     35  C   UNL A   1      40.102  29.371  30.857  1.00  0.00     0.074 A 
ATOM     36  C   UNL A   1      40.079  27.748  28.996  1.00  0.00     0.049 A 
ATOM     37  N   UNL A   1      41.169  28.979  31.506  1.00  0.00    -0.248 NA
ATOM     38  C   UNL A   1      39.467  30.571  31.423  1.00  0.00     0.031 C 
ATOM     39  C   UNL A   1      39.626  27.145  27.740  1.00  0.00     0.029 A 
ATOM     40  N   UNL A   1      41.207  27.038  29.318  1.00  0.00    -0.354 N 
ATOM     41  C   UNL A   1      41.346  29.891  32.540  1.00  0.00     0.074 A 
ATOM     42  C   UNL A   1      40.297  30.881  32.408  1.00  0.00     0.031 C 
ATOM     43  C   UNL A   1      40.461  26.149  27.405  1.00  0.00     0.029 A 
ATOM     44  C   UNL A   1      41.516  26.053  28.408  1.00  0.00     0.049 A 
ATOM     45  H   UNL A   1      41.745  27.215  30.122  1.00  0.00     0.167 HD
ATOM     46  C   UNL A   1      42.273  29.887  33.529  1.00  0.00     0.034 A 
ATOM     47  C   UNL A   1      42.530  25.167  28.385  1.00  0.00     0.034 A 
ATOM     48  C   UNL A   1      43.294  28.883  33.678  1.00  0.00     0.049 A 
ATOM     49  C   UNL A   1      43.510  25.147  29.526  1.00  0.00     0.074 A 
ATOM     50  C   UNL A   1      44.225  28.746  34.693  1.00  0.00     0.029 A 
ATOM     51  N   UNL A   1      43.523  27.848  32.784  1.00  0.00    -0.354 N 
ATOM     52  N   UNL A   1      43.552  25.910  30.591  1.00  0.00    -0.248 NA
ATOM     53  C   UNL A   1      44.554  24.114  29.485  1.00  0.00     0.031 C 
ATOM     54  C   UNL A   1      45.030  27.637  34.404  1.00  0.00     0.029 A 
ATOM     55  C   UNL A   1      44.585  27.072  33.220  1.00  0.00     0.049 A 
ATOM     56  H   UNL A   1      43.007  27.688  31.962  1.00  0.00     0.167 HD
ATOM     57  C   UNL A   1      44.611  25.437  31.358  1.00  0.00     0.074 A 
ATOM     58  C   UNL A   1      45.160  24.298  30.651  1.00  0.00     0.031 C 
ATOM     59  C   UNL A   1      45.098  25.916  32.528  1.00  0.00     0.034 A 
BRANCH  46  60
ATOM     60  C   UNL A   1      42.186  30.974  34.572  1.00  0.00     0.023 A 
ATOM     61  C   UNL A   1      41.457  30.735  35.756  1.00  0.00     0.012 A 
ATOM     62  C   UNL A   1      42.870  32.195  34.417  1.00  0.00     0.148 A 
ATOM     63  C   UNL A   1      41.383  31.705  36.754  1.00  0.00     0.002 A 
ATOM     64  C   UNL A   1      42.825  33.141  35.436  1.00  0.00     0.091 A 
ATOM     65  F   UNL A   1      43.541  32.414  33.278  1.00  0.00    -0.205 F 
ATOM     66  C   UNL A   1      42.073  32.903  36.599  1.00  0.00     0.022 A 
BRANCH  64  67
ATOM     67  S   UNL A   1      43.743  34.684  35.367  1.00  0.00     0.127 S 
ATOM     68  O   UNL A   1      45.122  34.203  35.286  1.00  0.00    -0.237 OA
ATOM     69  O   UNL A   1      43.237  35.290  34.135  1.00  0.00    -0.237 OA
ATOM     70  O   UNL A   1      43.404  35.409  36.584  1.00  0.00    -0.744 OA
ENDBRANCH  64  67
ENDBRANCH  46  60
BRANCH  47  71
ATOM     71  C   UNL A   1      42.621  24.175  27.277  1.00  0.00     0.023 A 
ATOM     72  C   UNL A   1      43.393  24.478  26.137  1.00  0.00     0.012 A 
ATOM     73  C   UNL A   1      41.986  22.921  27.362  1.00  0.00     0.148 A 
ATOM     74  C   UNL A   1      43.503  23.562  25.090  1.00  0.00     0.002 A 
ATOM     75  C   UNL A   1      42.148  21.992  26.342  1.00  0.00     0.091 A 
ATOM     76  F   UNL A   1      41.245  22.657  28.449  1.00  0.00    -0.205 F 
ATOM     77  C   UNL A   1      42.891  22.316  25.197  1.00  0.00     0.022 A 
BRANCH  75  78
ATOM     78  S   UNL A   1      41.516  20.315  26.467  1.00  0.00     0.127 S 
ATOM     79  O   UNL A   1      40.074  20.530  26.362  1.00  0.00    -0.237 OA
ATOM     80  O   UNL A   1      42.128  19.672  25.302  1.00  0.00    -0.237 OA
ATOM     81  O   UNL A   1      41.992  19.811  27.746  1.00  0.00    -0.744 OA
ENDBRANCH  75  78
ENDBRANCH  47  71
BRANCH  59  82
ATOM     82  C   UNL A   1      46.284  25.202  33.126  1.00  0.00     0.023 A 
ATOM     83  C   UNL A   1      47.587  25.666  32.852  1.00  0.00     0.012 A 
ATOM     84  C   UNL A   1      46.110  24.104  33.991  1.00  0.00     0.148 A 
ATOM     85  C   UNL A   1      48.698  25.021  33.394  1.00  0.00     0.002 A 
ATOM     86  C   UNL A   1      47.221  23.496  34.565  1.00  0.00     0.091 A 
ATOM     87  F   UNL A   1      44.865  23.662  34.225  1.00  0.00    -0.205 F 
ATOM     88  C   UNL A   1      48.515  23.944  34.257  1.00  0.00     0.022 A 
BRANCH  86  89
ATOM     89  S   UNL A   1      47.072  22.160  35.758  1.00  0.00     0.127 S 
ATOM     90  O   UNL A   1      48.469  21.912  36.105  1.00  0.00    -0.237 OA
ATOM     91  O   UNL A   1      46.279  22.777  36.823  1.00  0.00    -0.237 OA
ATOM     92  O   UNL A   1      46.395  21.078  35.056  1.00  0.00    -0.744 OA
ENDBRANCH  86  89
ENDBRANCH  59  82
ENDBRANCH  33  34
ENDBRANCH  25  28
ENDBRANCH  23  24
ENDBRANCH   1  23
TORSDOF 16
ENDMDL
MODEL 2
REMARK VINA RESULT:     -11.9      2.191      2.554
REMARK SMILES C[C@@H](C(=O)NCCCNC(=O)c1ccc(-c2c3nc(c(-c4cccc(S(=O)(=O)[O-])c4F)c4ccc([nH]4)c(-c4cccc(S(=O)(=O)[O-])c4F)c4nc(c(-c5cccc(S(=O)(=O)[O-])c5F)c5ccc2[nH]5)C=C4)C=C3)cc1)c1ccc(C[C@H]2CCCC2=O)c(Br)c1
REMARK SMILES IDX 7 1 6 2 5 3 3 4 4 5 2 7 1 8 75 9 76 10 88 11 77 12 86 13
REMARK SMILES IDX 78 14 87 15 79 16 80 17 81 18 84 19 82 20 83 21 85 22 8 23
REMARK SMILES IDX 9 24 10 25 11 27 12 28 13 29 74 30 14 31 73 32 15 33 16 34
REMARK SMILES IDX 17 35 67 36 18 37 72 38 66 39 68 40 19 41 71 42 65 43 64 44
REMARK SMILES IDX 20 46 52 47 32 48 51 49 33 50 36 51 50 52 69 53 34 54 35 55
REMARK SMILES IDX 49 57 70 58 37 59 21 60 22 61 30 62 23 63 25 64 31 65 24 66
REMARK SMILES IDX 26 67 27 68 28 69 29 70 53 71 54 72 62 73 55 74 57 75 63 76
REMARK SMILES IDX 56 77 58 78 59 79 60 80 61 81 38 82 39 83 47 84 40 85 42 86
REMARK SMILES IDX 48 87 41 88 43 89 44 90 45 91 46 92
REMARK H PARENT 5 6 9 26 68 45 36 56
REMARK Flexibility Score: inf
ROOT
ATOM      1  C   UNL A   1      32.595  28.332  26.157  1.00  0.00     0.042 C 
ENDROOT
BRANCH   1   2
ATOM      2  C   UNL A   1      33.066  26.883  26.037  1.00  0.00     0.117 C 
BRANCH   2   3
ATOM      3  N   UNL A   1      32.084  25.949  26.554  1.00  0.00    -0.356 N 
ATOM      4  C   UNL A   1      31.458  24.896  25.955  1.00  0.00     0.227 C 
ATOM      5  O   UNL A   1      30.622  24.294  26.632  1.00  0.00    -0.274 OA
ATOM      6  H   UNL A   1      31.826  26.100  27.492  1.00  0.00     0.163 HD
BRANCH   4   7
ATOM      7  C   UNL A   1      31.834  24.487  24.521  1.00  0.00     0.105 C 
ATOM      8  C   UNL A   1      30.622  24.439  23.587  1.00  0.00     0.023 C 
BRANCH   7   9
ATOM      9  C   UNL A   1      32.557  23.143  24.462  1.00  0.00    -0.035 A 
ATOM     10  C   UNL A   1      31.875  21.989  24.066  1.00  0.00     0.005 A 
ATOM     11  C   UNL A   1      33.907  23.028  24.834  1.00  0.00     0.020 A 
ATOM     12  C   UNL A   1      32.516  20.749  24.085  1.00  0.00     0.005 A 
ATOM     13  C   UNL A   1      34.548  21.785  24.861  1.00  0.00     0.021 A 
ATOM     14  C   UNL A   1      33.849  20.617  24.520  1.00  0.00    -0.033 A 
ATOM     15  Br  UNL A   1      36.376  21.785  25.382  1.00  0.00    -0.051 Br
BRANCH  14  16
ATOM     16  C   UNL A   1      34.435  19.226  24.623  1.00  0.00     0.048 C 
BRANCH  16  17
ATOM     17  C   UNL A   1      33.526  18.071  24.174  1.00  0.00     0.060 C 
ATOM     18  C   UNL A   1      34.172  16.933  23.377  1.00  0.00     0.012 C 
ATOM     19  C   UNL A   1      32.922  17.325  25.343  1.00  0.00     0.136 C 
ATOM     20  C   UNL A   1      34.482  15.829  24.381  1.00  0.00     0.009 C 
ATOM     21  C   UNL A   1      33.351  15.882  25.398  1.00  0.00     0.076 C 
ATOM     22  O   UNL A   1      32.152  17.833  26.152  1.00  0.00    -0.299 OA
ENDBRANCH  16  17
ENDBRANCH  14  16
ENDBRANCH   7   9
ENDBRANCH   4   7
ENDBRANCH   2   3
ENDBRANCH   1   2
BRANCH   1  23
ATOM     23  C   UNL A   1      33.653  29.378  25.810  1.00  0.00     0.118 C 
BRANCH  23  24
ATOM     24  N   UNL A   1      33.297  30.712  26.266  1.00  0.00    -0.352 N 
ATOM     25  C   UNL A   1      33.823  31.479  27.275  1.00  0.00     0.251 C 
ATOM     26  H   UNL A   1      32.558  31.133  25.771  1.00  0.00     0.163 HD
ATOM     27  O   UNL A   1      33.238  32.513  27.595  1.00  0.00    -0.269 OA
BRANCH  25  28
ATOM     28  C   UNL A   1      35.059  31.082  27.988  1.00  0.00     0.039 A 
ATOM     29  C   UNL A   1      35.042  29.900  28.735  1.00  0.00     0.014 A 
ATOM     30  C   UNL A   1      36.211  31.876  27.976  1.00  0.00     0.014 A 
ATOM     31  C   UNL A   1      36.185  29.493  29.426  1.00  0.00     0.010 A 
ATOM     32  C   UNL A   1      37.374  31.432  28.609  1.00  0.00     0.010 A 
ATOM     33  C   UNL A   1      37.373  30.240  29.346  1.00  0.00    -0.014 A 
BRANCH  33  34
ATOM     34  C   UNL A   1      38.614  29.755  30.006  1.00  0.00     0.031 A 
ATOM     35  C   UNL A   1      39.037  30.281  31.352  1.00  0.00     0.074 A 
ATOM     36  C   UNL A   1      39.394  28.864  29.362  1.00  0.00     0.049 A 
ATOM     37  N   UNL A   1      40.069  29.938  32.080  1.00  0.00    -0.248 NA
ATOM     38  C   UNL A   1      38.212  31.344  31.947  1.00  0.00     0.031 C 
ATOM     39  C   UNL A   1      39.147  28.349  28.012  1.00  0.00     0.029 A 
ATOM     40  N   UNL A   1      40.558  28.247  29.744  1.00  0.00    -0.354 N 
ATOM     41  C   UNL A   1      40.031  30.753  33.206  1.00  0.00     0.074 A 
ATOM     42  C   UNL A   1      38.895  31.635  33.046  1.00  0.00     0.031 C 
ATOM     43  C   UNL A   1      40.121  27.486  27.686  1.00  0.00     0.029 A 
ATOM     44  C   UNL A   1      41.071  27.399  28.791  1.00  0.00     0.049 A 
ATOM     45  H   UNL A   1      40.985  28.396  30.618  1.00  0.00     0.167 HD
ATOM     46  C   UNL A   1      40.846  30.745  34.290  1.00  0.00     0.034 A 
ATOM     47  C   UNL A   1      42.178  26.631  28.804  1.00  0.00     0.034 A 
ATOM     48  C   UNL A   1      41.954  29.844  34.464  1.00  0.00     0.049 A 
ATOM     49  C   UNL A   1      43.030  26.597  30.043  1.00  0.00     0.074 A 
ATOM     50  C   UNL A   1      42.784  29.701  35.562  1.00  0.00     0.029 A 
ATOM     51  N   UNL A   1      42.393  28.935  33.512  1.00  0.00    -0.354 N 
ATOM     52  N   UNL A   1      42.873  27.247  31.170  1.00  0.00    -0.248 NA
ATOM     53  C   UNL A   1      44.185  25.689  30.028  1.00  0.00     0.031 C 
ATOM     54  C   UNL A   1      43.738  28.718  35.267  1.00  0.00     0.029 A 
ATOM     55  C   UNL A   1      43.486  28.234  33.994  1.00  0.00     0.049 A 
ATOM     56  H   UNL A   1      41.987  28.807  32.625  1.00  0.00     0.167 HD
ATOM     57  C   UNL A   1      43.894  26.812  32.007  1.00  0.00     0.074 A 
ATOM     58  C   UNL A   1      44.641  25.814  31.268  1.00  0.00     0.031 C 
ATOM     59  C   UNL A   1      44.199  27.216  33.264  1.00  0.00     0.034 A 
BRANCH  46  60
ATOM     60  C   UNL A   1      40.525  31.703  35.411  1.00  0.00     0.023 A 
ATOM     61  C   UNL A   1      41.343  32.836  35.604  1.00  0.00     0.012 A 
ATOM     62  C   UNL A   1      39.389  31.526  36.225  1.00  0.00     0.148 A 
ATOM     63  C   UNL A   1      41.057  33.758  36.609  1.00  0.00     0.002 A 
ATOM     64  C   UNL A   1      39.087  32.472  37.198  1.00  0.00     0.091 A 
ATOM     65  F   UNL A   1      38.634  30.434  36.041  1.00  0.00    -0.205 F 
ATOM     66  C   UNL A   1      39.925  33.581  37.399  1.00  0.00     0.022 A 
BRANCH  64  67
ATOM     67  S   UNL A   1      37.609  32.378  38.216  1.00  0.00     0.127 S 
ATOM     68  O   UNL A   1      36.634  33.084  37.385  1.00  0.00    -0.237 OA
ATOM     69  O   UNL A   1      37.392  30.934  38.313  1.00  0.00    -0.237 OA
ATOM     70  O   UNL A   1      37.946  33.027  39.475  1.00  0.00    -0.744 OA
ENDBRANCH  64  67
ENDBRANCH  46  60
BRANCH  47  71
ATOM     71  C   UNL A   1      42.497  25.773  27.628  1.00  0.00     0.023 A 
ATOM     72  C   UNL A   1      43.351  26.266  26.622  1.00  0.00     0.012 A 
ATOM     73  C   UNL A   1      41.997  24.461  27.521  1.00  0.00     0.148 A 
ATOM     74  C   UNL A   1      43.675  25.480  25.516  1.00  0.00     0.002 A 
ATOM     75  C   UNL A   1      42.370  23.663  26.446  1.00  0.00     0.091 A 
ATOM     76  F   UNL A   1      41.174  24.015  28.482  1.00  0.00    -0.205 F 
ATOM     77  C   UNL A   1      43.194  24.175  25.434  1.00  0.00     0.022 A 
BRANCH  75  78
ATOM     78  S   UNL A   1      41.914  21.929  26.340  1.00  0.00     0.127 S 
ATOM     79  O   UNL A   1      40.479  22.012  26.078  1.00  0.00    -0.237 OA
ATOM     80  O   UNL A   1      42.721  21.471  25.206  1.00  0.00    -0.237 OA
ATOM     81  O   UNL A   1      42.295  21.345  27.617  1.00  0.00    -0.744 OA
ENDBRANCH  75  78
ENDBRANCH  47  71
BRANCH  59  82
ATOM     82  C   UNL A   1      45.390  26.573  33.927  1.00  0.00     0.023 A 
ATOM     83  C   UNL A   1      46.657  27.182  33.824  1.00  0.00     0.012 A 
ATOM     84  C   UNL A   1      45.252  25.393  34.684  1.00  0.00     0.148 A 
ATOM     85  C   UNL A   1      47.774  26.606  34.428  1.00  0.00     0.002 A 
ATOM     86  C   UNL A   1      46.360  24.850  35.323  1.00  0.00     0.091 A 
ATOM     87  F   UNL A   1      44.044  24.814  34.755  1.00  0.00    -0.205 F 
ATOM     88  C   UNL A   1      47.623  25.447  35.185  1.00  0.00     0.022 A 
BRANCH  86  89
ATOM     89  S   UNL A   1      46.240  23.410  36.392  1.00  0.00     0.127 S 
ATOM     90  O   UNL A   1      45.317  23.879  37.423  1.00  0.00    -0.237 OA
ATOM     91  O   UNL A   1      45.685  22.397  35.491  1.00  0.00    -0.237 OA
ATOM     92  O   UNL A   1      47.599  23.135  36.839  1.00  0.00    -0.744 OA
ENDBRANCH  86  89
ENDBRANCH  59  82
ENDBRANCH  33  34
ENDBRANCH  25  28
ENDBRANCH  23  24
ENDBRANCH   1  23
TORSDOF 16
ENDMDL
MODEL 3
REMARK VINA RESULT:     -11.8      2.508      3.033
REMARK SMILES C[C@@H](C(=O)NCCCNC(=O)c1ccc(-c2c3nc(c(-c4cccc(S(=O)(=O)[O-])c4F)c4ccc([nH]4)c(-c4cccc(S(=O)(=O)[O-])c4F)c4nc(c(-c5cccc(S(=O)(=O)[O-])c5F)c5ccc2[nH]5)C=C4)C=C3)cc1)c1ccc(C[C@H]2CCCC2=O)c(Br)c1
REMARK SMILES IDX 7 1 6 2 5 3 3 4 4 5 2 7 1 8 75 9 76 10 88 11 77 12 86 13
REMARK SMILES IDX 78 14 87 15 79 16 80 17 81 18 84 19 82 20 83 21 85 22 8 23
REMARK SMILES IDX 9 24 10 25 11 27 12 28 13 29 74 30 14 31 73 32 15 33 16 34
REMARK SMILES IDX 17 35 67 36 18 37 72 38 66 39 68 40 19 41 71 42 65 43 64 44
REMARK SMILES IDX 20 46 52 47 32 48 51 49 33 50 36 51 50 52 69 53 34 54 35 55
REMARK SMILES IDX 49 57 70 58 37 59 21 60 22 61 30 62 23 63 25 64 31 65 24 66
REMARK SMILES IDX 26 67 27 68 28 69 29 70 53 71 54 72 62 73 55 74 57 75 63 76
REMARK SMILES IDX 56 77 58 78 59 79 60 80 61 81 38 82 39 83 47 84 40 85 42 86
REMARK SMILES IDX 48 87 41 88 43 89 44 90 45 91 46 92
REMARK H PARENT 5 6 9 26 68 45 36 56
REMARK Flexibility Score: inf
ROOT
ATOM      1  C   UNL A   1      31.737  29.388  26.953  1.00  0.00     0.042 C 
ENDROOT
BRANCH   1   2
ATOM      2  C   UNL A   1      31.514  28.007  26.337  1.00  0.00     0.117 C 
BRANCH   2   3
ATOM      3  N   UNL A   1      31.038  28.092  24.969  1.00  0.00    -0.356 N 
ATOM      4  C   UNL A   1      31.720  28.072  23.789  1.00  0.00     0.227 C 
ATOM      5  O   UNL A   1      31.050  28.210  22.764  1.00  0.00    -0.274 OA
ATOM      6  H   UNL A   1      30.062  28.180  24.879  1.00  0.00     0.163 HD
BRANCH   4   7
ATOM      7  C   UNL A   1      33.241  27.846  23.778  1.00  0.00     0.105 C 
ATOM      8  C   UNL A   1      33.897  28.326  22.480  1.00  0.00     0.023 C 
BRANCH   7   9
ATOM      9  C   UNL A   1      33.621  26.385  24.013  1.00  0.00    -0.035 A 
ATOM     10  C   UNL A   1      34.391  26.024  25.122  1.00  0.00     0.005 A 
ATOM     11  C   UNL A   1      33.237  25.381  23.109  1.00  0.00     0.020 A 
ATOM     12  C   UNL A   1      34.802  24.701  25.295  1.00  0.00     0.005 A 
ATOM     13  C   UNL A   1      33.653  24.056  23.277  1.00  0.00     0.021 A 
ATOM     14  C   UNL A   1      34.475  23.701  24.358  1.00  0.00    -0.033 A 
ATOM     15  Br  UNL A   1      33.053  22.807  21.976  1.00  0.00    -0.051 Br
BRANCH  14  16
ATOM     16  C   UNL A   1      35.054  22.318  24.554  1.00  0.00     0.048 C 
BRANCH  16  17
ATOM     17  C   UNL A   1      34.316  21.407  25.548  1.00  0.00     0.060 C 
ATOM     18  C   UNL A   1      32.934  21.861  26.030  1.00  0.00     0.012 C 
ATOM     19  C   UNL A   1      34.007  20.047  24.964  1.00  0.00     0.136 C 
ATOM     20  C   UNL A   1      31.917  21.137  25.156  1.00  0.00     0.009 C 
ATOM     21  C   UNL A   1      32.529  19.772  24.875  1.00  0.00     0.076 C 
ATOM     22  O   UNL A   1      34.867  19.244  24.615  1.00  0.00    -0.299 OA
ENDBRANCH  16  17
ENDBRANCH  14  16
ENDBRANCH   7   9
ENDBRANCH   4   7
ENDBRANCH   2   3
ENDBRANCH   1   2
BRANCH   1  23
ATOM     23  C   UNL A   1      33.000  30.103  26.474  1.00  0.00     0.118 C 
BRANCH  23  24
ATOM     24  N   UNL A   1      33.008  31.517  26.811  1.00  0.00    -0.352 N 
ATOM     25  C   UNL A   1      33.827  32.229  27.649  1.00  0.00     0.251 C 
ATOM     26  H   UNL A   1      32.311  32.051  26.364  1.00  0.00     0.163 HD
ATOM     27  O   UNL A   1      33.529  33.393  27.916  1.00  0.00    -0.269 OA
BRANCH  25  28
ATOM     28  C   UNL A   1      35.041  31.626  28.246  1.00  0.00     0.039 A 
ATOM     29  C   UNL A   1      36.217  32.382  28.260  1.00  0.00     0.014 A 
ATOM     30  C   UNL A   1      35.055  30.317  28.738  1.00  0.00     0.014 A 
ATOM     31  C   UNL A   1      37.386  31.848  28.809  1.00  0.00     0.010 A 
ATOM     32  C   UNL A   1      36.204  29.811  29.350  1.00  0.00     0.010 A 
ATOM     33  C   UNL A   1      37.383  30.567  29.386  1.00  0.00    -0.014 A 
BRANCH  33  34
ATOM     34  C   UNL A   1      38.603  30.039  30.052  1.00  0.00     0.031 A 
ATOM     35  C   UNL A   1      39.005  30.507  31.426  1.00  0.00     0.074 A 
ATOM     36  C   UNL A   1      39.385  29.163  29.391  1.00  0.00     0.049 A 
ATOM     37  N   UNL A   1      40.016  30.122  32.162  1.00  0.00    -0.248 NA
ATOM     38  C   UNL A   1      38.181  31.558  32.045  1.00  0.00     0.031 C 
ATOM     39  C   UNL A   1      39.160  28.703  28.017  1.00  0.00     0.029 A 
ATOM     40  N   UNL A   1      40.532  28.514  29.773  1.00  0.00    -0.354 N 
ATOM     41  C   UNL A   1      39.965  30.894  33.317  1.00  0.00     0.074 A 
ATOM     42  C   UNL A   1      38.844  31.798  33.168  1.00  0.00     0.031 C 
ATOM     43  C   UNL A   1      40.129  27.839  27.678  1.00  0.00     0.029 A 
ATOM     44  C   UNL A   1      41.053  27.696  28.799  1.00  0.00     0.049 A 
ATOM     45  H   UNL A   1      40.942  28.624  30.661  1.00  0.00     0.167 HD
ATOM     46  C   UNL A   1      40.756  30.833  34.417  1.00  0.00     0.034 A 
ATOM     47  C   UNL A   1      42.150  26.912  28.805  1.00  0.00     0.034 A 
ATOM     48  C   UNL A   1      41.848  29.910  34.579  1.00  0.00     0.049 A 
ATOM     49  C   UNL A   1      42.974  26.819  30.060  1.00  0.00     0.074 A 
ATOM     50  C   UNL A   1      42.653  29.713  35.688  1.00  0.00     0.029 A 
ATOM     51  N   UNL A   1      42.295  29.032  33.602  1.00  0.00    -0.354 N 
ATOM     52  N   UNL A   1      42.802  27.428  31.208  1.00  0.00    -0.248 NA
ATOM     53  C   UNL A   1      44.117  25.896  30.034  1.00  0.00     0.031 C 
ATOM     54  C   UNL A   1      43.599  28.729  35.376  1.00  0.00     0.029 A 
ATOM     55  C   UNL A   1      43.368  28.298  34.080  1.00  0.00     0.049 A 
ATOM     56  H   UNL A   1      41.906  28.944  32.702  1.00  0.00     0.167 HD
ATOM     57  C   UNL A   1      43.799  26.946  32.048  1.00  0.00     0.074 A 
ATOM     58  C   UNL A   1      44.548  25.967  31.287  1.00  0.00     0.031 C 
ATOM     59  C   UNL A   1      44.083  27.298  33.326  1.00  0.00     0.034 A 
BRANCH  46  60
ATOM     60  C   UNL A   1      40.425  31.752  35.567  1.00  0.00     0.023 A 
ATOM     61  C   UNL A   1      41.237  32.881  35.803  1.00  0.00     0.012 A 
ATOM     62  C   UNL A   1      39.285  31.543  36.367  1.00  0.00     0.148 A 
ATOM     63  C   UNL A   1      40.940  33.768  36.836  1.00  0.00     0.002 A 
ATOM     64  C   UNL A   1      38.972  32.455  37.370  1.00  0.00     0.091 A 
ATOM     65  F   UNL A   1      38.535  30.454  36.142  1.00  0.00    -0.205 F 
ATOM     66  C   UNL A   1      39.804  33.561  37.613  1.00  0.00     0.022 A 
BRANCH  64  67
ATOM     67  S   UNL A   1      37.488  32.321  38.375  1.00  0.00     0.127 S 
ATOM     68  O   UNL A   1      37.885  33.043  39.583  1.00  0.00    -0.237 OA
ATOM     69  O   UNL A   1      36.495  33.013  37.552  1.00  0.00    -0.237 OA
ATOM     70  O   UNL A   1      37.248  30.896  38.548  1.00  0.00    -0.744 OA
ENDBRANCH  64  67
ENDBRANCH  46  60
BRANCH  47  71
ATOM     71  C   UNL A   1      42.482  26.096  27.604  1.00  0.00     0.023 A 
ATOM     72  C   UNL A   1      43.281  26.654  26.586  1.00  0.00     0.012 A 
ATOM     73  C   UNL A   1      42.050  24.761  27.483  1.00  0.00     0.148 A 
ATOM     74  C   UNL A   1      43.617  25.907  25.456  1.00  0.00     0.002 A 
ATOM     75  C   UNL A   1      42.436  24.005  26.383  1.00  0.00     0.091 A 
ATOM     76  F   UNL A   1      41.279  24.253  28.456  1.00  0.00    -0.205 F 
ATOM     77  C   UNL A   1      43.204  24.581  25.360  1.00  0.00     0.022 A 
BRANCH  75  78
ATOM     78  S   UNL A   1      42.071  22.251  26.253  1.00  0.00     0.127 S 
ATOM     79  O   UNL A   1      42.556  21.748  27.536  1.00  0.00    -0.237 OA
ATOM     80  O   UNL A   1      40.614  22.254  26.103  1.00  0.00    -0.237 OA
ATOM     81  O   UNL A   1      42.791  21.788  25.076  1.00  0.00    -0.744 OA
ENDBRANCH  75  78
ENDBRANCH  47  71
BRANCH  59  82
ATOM     82  C   UNL A   1      45.251  26.613  33.988  1.00  0.00     0.023 A 
ATOM     83  C   UNL A   1      46.537  27.183  33.893  1.00  0.00     0.012 A 
ATOM     84  C   UNL A   1      45.072  25.434  34.737  1.00  0.00     0.148 A 
ATOM     85  C   UNL A   1      47.632  26.567  34.497  1.00  0.00     0.002 A 
ATOM     86  C   UNL A   1      46.161  24.852  35.377  1.00  0.00     0.091 A 
ATOM     87  F   UNL A   1      43.846  24.893  34.801  1.00  0.00    -0.205 F 
ATOM     88  C   UNL A   1      47.443  25.409  35.246  1.00  0.00     0.022 A 
BRANCH  86  89
ATOM     89  S   UNL A   1      45.991  23.409  36.435  1.00  0.00     0.127 S 
ATOM     90  O   UNL A   1      47.330  23.301  37.010  1.00  0.00    -0.237 OA
ATOM     91  O   UNL A   1      44.954  23.833  37.378  1.00  0.00    -0.237 OA
ATOM     92  O   UNL A   1      45.593  22.318  35.555  1.00  0.00    -0.744 OA
ENDBRANCH  86  89
ENDBRANCH  59  82
ENDBRANCH  33  34
ENDBRANCH  25  28
ENDBRANCH  23  24
ENDBRANCH   1  23
TORSDOF 16
ENDMDL
