MODEL 1
REMARK VINA RESULT:     -11.6      0.000      0.000
REMARK SMILES Cc1oc2c(c1C(=O)NCCCC(=O)NCCCNC(=O)c1ccc(-c3c4nc(c(-c5cccc(S(=O)(=O)[O-])c5F)c5ccc([nH]5)c(-c5cccc(S(=O)(=O)[O-])c5F)c5nc(c(-c6cccc(S(=O)(=O)[O-])c6F)c6ccc3[nH]6)C=C5)C=C4)cc1)CCCC2
REMARK SMILES IDX 16 1 15 2 13 3 14 4 12 6 11 7 10 8 9 9 7 10 8 11 6 13 1 14
REMARK SMILES IDX 2 15 3 16 4 17 5 18 88 19 85 20 87 21 86 22 17 23 18 24
REMARK SMILES IDX 19 25 20 26 21 28 22 29 23 30 84 31 24 32 83 33 25 34 26 35
REMARK SMILES IDX 27 36 77 37 28 38 82 39 76 40 78 41 29 42 81 43 75 44 74 45
REMARK SMILES IDX 30 47 62 48 42 49 61 50 43 51 46 52 60 53 79 54 44 55 45 56
REMARK SMILES IDX 59 58 80 59 47 60 31 61 32 62 40 63 33 64 35 65 41 66 34 67
REMARK SMILES IDX 36 68 37 69 38 70 39 71 63 72 64 73 72 74 65 75 67 76 73 77
REMARK SMILES IDX 66 78 68 79 69 80 70 81 71 82 48 83 49 84 57 85 50 86 52 87
REMARK SMILES IDX 58 88 51 89 53 90 54 91 55 92 56 93
REMARK H PARENT 15 5 9 12 19 27 78 46 46 57
REMARK Flexibility Score: inf
ROOT
ATOM      1  C   UNL A   1      36.749  20.798  24.965  1.00  0.00     0.117 C 
ENDROOT
BRANCH   1   2
ATOM      2  N   UNL A   1      35.412  20.221  24.963  1.00  0.00    -0.356 N 
ATOM      3  C   UNL A   1      34.341  20.453  25.769  1.00  0.00     0.220 C 
ATOM      4  O   UNL A   1      33.300  19.831  25.559  1.00  0.00    -0.275 OA
ATOM      5  H   UNL A   1      35.257  19.550  24.259  1.00  0.00     0.163 HD
BRANCH   3   6
ATOM      6  C   UNL A   1      34.406  21.470  26.887  1.00  0.00     0.102 C 
BRANCH   6   7
ATOM      7  C   UNL A   1      33.927  22.870  26.493  1.00  0.00     0.031 C 
BRANCH   7   8
ATOM      8  C   UNL A   1      34.965  23.794  25.861  1.00  0.00     0.116 C 
BRANCH   8   9
ATOM      9  N   UNL A   1      34.533  24.413  24.627  1.00  0.00    -0.352 N 
ATOM     10  C   UNL A   1      33.618  25.394  24.354  1.00  0.00     0.255 C 
ATOM     11  O   UNL A   1      33.564  25.735  23.168  1.00  0.00    -0.269 OA
ATOM     12  H   UNL A   1      34.986  24.060  23.827  1.00  0.00     0.163 HD
BRANCH  10  13
ATOM     13  C   UNL A   1      32.697  25.962  25.337  1.00  0.00     0.084 A 
ATOM     14  C   UNL A   1      30.669  24.283  25.856  1.00  0.00     0.088 C 
ATOM     15  C   UNL A   1      31.495  25.510  25.888  1.00  0.00     0.114 A 
ATOM     16  O   UNL A   1      30.959  26.459  26.717  1.00  0.00    -0.465 OA
ATOM     17  C   UNL A   1      31.836  27.469  26.779  1.00  0.00     0.108 A 
ATOM     18  C   UNL A   1      32.953  27.204  26.028  1.00  0.00     0.007 A 
ATOM     19  C   UNL A   1      31.548  28.649  27.617  1.00  0.00     0.076 C 
ATOM     20  C   UNL A   1      34.106  28.152  25.993  1.00  0.00     0.040 C 
ATOM     21  C   UNL A   1      32.546  29.764  27.253  1.00  0.00     0.008 C 
ATOM     22  C   UNL A   1      33.983  29.222  27.105  1.00  0.00     0.005 C 
ENDBRANCH  10  13
ENDBRANCH   8   9
ENDBRANCH   7   8
ENDBRANCH   6   7
ENDBRANCH   3   6
ENDBRANCH   1   2
BRANCH   1  23
ATOM     23  C   UNL A   1      37.843  19.728  25.011  1.00  0.00     0.042 C 
BRANCH  23  24
ATOM     24  C   UNL A   1      39.037  20.121  25.851  1.00  0.00     0.118 C 
BRANCH  24  25
ATOM     25  N   UNL A   1      40.142  19.169  25.746  1.00  0.00    -0.352 N 
ATOM     26  C   UNL A   1      41.498  19.438  25.864  1.00  0.00     0.251 C 
ATOM     27  H   UNL A   1      39.896  18.233  25.573  1.00  0.00     0.163 HD
ATOM     28  O   UNL A   1      42.330  18.666  25.425  1.00  0.00    -0.269 OA
BRANCH  26  29
ATOM     29  C   UNL A   1      41.898  20.701  26.518  1.00  0.00     0.039 A 
ATOM     30  C   UNL A   1      42.332  21.799  25.775  1.00  0.00     0.014 A 
ATOM     31  C   UNL A   1      41.745  20.792  27.896  1.00  0.00     0.014 A 
ATOM     32  C   UNL A   1      42.521  23.012  26.432  1.00  0.00     0.010 A 
ATOM     33  C   UNL A   1      41.715  22.025  28.490  1.00  0.00     0.010 A 
ATOM     34  C   UNL A   1      42.180  23.129  27.790  1.00  0.00    -0.014 A 
BRANCH  34  35
ATOM     35  C   UNL A   1      42.241  24.417  28.471  1.00  0.00     0.031 A 
ATOM     36  C   UNL A   1      41.055  25.291  28.277  1.00  0.00     0.074 A 
ATOM     37  C   UNL A   1      43.216  24.759  29.343  1.00  0.00     0.049 A 
ATOM     38  N   UNL A   1      41.000  26.367  27.565  1.00  0.00    -0.248 NA
ATOM     39  C   UNL A   1      39.753  24.855  28.801  1.00  0.00     0.031 C 
ATOM     40  C   UNL A   1      44.293  23.924  29.892  1.00  0.00     0.029 A 
ATOM     41  N   UNL A   1      43.355  25.917  30.044  1.00  0.00    -0.354 N 
ATOM     42  C   UNL A   1      39.720  26.881  27.751  1.00  0.00     0.074 A 
ATOM     43  C   UNL A   1      38.949  25.818  28.342  1.00  0.00     0.031 C 
ATOM     44  C   UNL A   1      44.769  24.492  31.020  1.00  0.00     0.029 A 
ATOM     45  C   UNL A   1      44.176  25.806  31.159  1.00  0.00     0.049 A 
ATOM     46  H   UNL A   1      42.915  26.757  29.783  1.00  0.00     0.167 HD
ATOM     47  C   UNL A   1      39.479  28.217  27.629  1.00  0.00     0.034 A 
ATOM     48  C   UNL A   1      44.316  26.712  32.155  1.00  0.00     0.034 A 
ATOM     49  C   UNL A   1      40.587  28.895  26.999  1.00  0.00     0.049 A 
ATOM     50  C   UNL A   1      43.900  28.026  31.610  1.00  0.00     0.074 A 
ATOM     51  C   UNL A   1      41.278  28.739  25.812  1.00  0.00     0.029 A 
ATOM     52  N   UNL A   1      41.406  29.649  27.808  1.00  0.00    -0.354 N 
ATOM     53  N   UNL A   1      44.554  28.649  30.669  1.00  0.00    -0.248 NA
ATOM     54  C   UNL A   1      42.512  28.427  31.778  1.00  0.00     0.031 C 
ATOM     55  C   UNL A   1      42.646  28.950  26.160  1.00  0.00     0.029 A 
ATOM     56  C   UNL A   1      42.697  29.303  27.510  1.00  0.00     0.049 A 
ATOM     57  H   UNL A   1      41.117  30.312  28.476  1.00  0.00     0.167 HD
ATOM     58  C   UNL A   1      43.562  29.143  29.832  1.00  0.00     0.074 A 
ATOM     59  C   UNL A   1      42.333  29.077  30.624  1.00  0.00     0.031 C 
ATOM     60  C   UNL A   1      43.764  29.276  28.486  1.00  0.00     0.034 A 
BRANCH  47  61
ATOM     61  C   UNL A   1      38.429  28.993  28.394  1.00  0.00     0.023 A 
ATOM     62  C   UNL A   1      37.671  29.939  27.665  1.00  0.00     0.012 A 
ATOM     63  C   UNL A   1      38.344  29.057  29.803  1.00  0.00     0.148 A 
ATOM     64  C   UNL A   1      36.933  30.940  28.302  1.00  0.00     0.002 A 
ATOM     65  C   UNL A   1      37.545  30.006  30.432  1.00  0.00     0.091 A 
ATOM     66  F   UNL A   1      39.134  28.293  30.560  1.00  0.00    -0.205 F 
ATOM     67  C   UNL A   1      36.867  30.974  29.688  1.00  0.00     0.022 A 
BRANCH  65  68
ATOM     68  S   UNL A   1      37.385  30.062  32.221  1.00  0.00     0.127 S 
ATOM     69  O   UNL A   1      38.709  30.531  32.619  1.00  0.00    -0.237 OA
ATOM     70  O   UNL A   1      36.304  31.033  32.394  1.00  0.00    -0.237 OA
ATOM     71  O   UNL A   1      37.036  28.706  32.624  1.00  0.00    -0.744 OA
ENDBRANCH  65  68
ENDBRANCH  47  61
BRANCH  48  72
ATOM     72  C   UNL A   1      44.557  26.477  33.596  1.00  0.00     0.023 A 
ATOM     73  C   UNL A   1      45.845  26.662  34.132  1.00  0.00     0.012 A 
ATOM     74  C   UNL A   1      43.476  26.329  34.497  1.00  0.00     0.148 A 
ATOM     75  C   UNL A   1      46.047  26.726  35.516  1.00  0.00     0.002 A 
ATOM     76  C   UNL A   1      43.684  26.378  35.871  1.00  0.00     0.091 A 
ATOM     77  F   UNL A   1      42.232  26.235  34.007  1.00  0.00    -0.205 F 
ATOM     78  C   UNL A   1      44.968  26.590  36.385  1.00  0.00     0.022 A 
BRANCH  76  79
ATOM     79  S   UNL A   1      42.330  26.221  37.043  1.00  0.00     0.127 S 
ATOM     80  O   UNL A   1      41.487  27.364  36.692  1.00  0.00    -0.237 OA
ATOM     81  O   UNL A   1      41.773  24.917  36.691  1.00  0.00    -0.237 OA
ATOM     82  O   UNL A   1      42.942  26.314  38.363  1.00  0.00    -0.744 OA
ENDBRANCH  76  79
ENDBRANCH  48  72
BRANCH  60  83
ATOM     83  C   UNL A   1      45.165  29.114  27.942  1.00  0.00     0.023 A 
ATOM     84  C   UNL A   1      46.111  30.161  27.957  1.00  0.00     0.012 A 
ATOM     85  C   UNL A   1      45.591  27.828  27.564  1.00  0.00     0.148 A 
ATOM     86  C   UNL A   1      47.437  29.938  27.576  1.00  0.00     0.002 A 
ATOM     87  C   UNL A   1      46.921  27.600  27.231  1.00  0.00     0.091 A 
ATOM     88  F   UNL A   1      44.688  26.835  27.555  1.00  0.00    -0.205 F 
ATOM     89  C   UNL A   1      47.846  28.655  27.224  1.00  0.00     0.022 A 
BRANCH  87  90
ATOM     90  S   UNL A   1      47.527  25.945  26.894  1.00  0.00     0.127 S 
ATOM     91  O   UNL A   1      48.963  26.171  26.740  1.00  0.00    -0.237 OA
ATOM     92  O   UNL A   1      47.150  25.212  28.104  1.00  0.00    -0.237 OA
ATOM     93  O   UNL A   1      46.825  25.504  25.694  1.00  0.00    -0.744 OA
ENDBRANCH  87  90
ENDBRANCH  60  83
ENDBRANCH  34  35
ENDBRANCH  26  29
ENDBRANCH  24  25
ENDBRANCH  23  24
ENDBRANCH   1  23
TORSDOF 17
ENDMDL
MODEL 2
REMARK VINA RESULT:     -11.1      3.141      7.965
REMARK SMILES Cc1oc2c(c1C(=O)NCCCC(=O)NCCCNC(=O)c1ccc(-c3c4nc(c(-c5cccc(S(=O)(=O)[O-])c5F)c5ccc([nH]5)c(-c5cccc(S(=O)(=O)[O-])c5F)c5nc(c(-c6cccc(S(=O)(=O)[O-])c6F)c6ccc3[nH]6)C=C5)C=C4)cc1)CCCC2
REMARK SMILES IDX 16 1 15 2 13 3 14 4 12 6 11 7 10 8 9 9 7 10 8 11 6 13 1 14
REMARK SMILES IDX 2 15 3 16 4 17 5 18 88 19 85 20 87 21 86 22 17 23 18 24
REMARK SMILES IDX 19 25 20 26 21 28 22 29 23 30 84 31 24 32 83 33 25 34 26 35
REMARK SMILES IDX 27 36 77 37 28 38 82 39 76 40 78 41 29 42 81 43 75 44 74 45
REMARK SMILES IDX 30 47 62 48 42 49 61 50 43 51 46 52 60 53 79 54 44 55 45 56
REMARK SMILES IDX 59 58 80 59 47 60 31 61 32 62 40 63 33 64 35 65 41 66 34 67
REMARK SMILES IDX 36 68 37 69 38 70 39 71 63 72 64 73 72 74 65 75 67 76 73 77
REMARK SMILES IDX 66 78 68 79 69 80 70 81 71 82 48 83 49 84 57 85 50 86 52 87
REMARK SMILES IDX 58 88 51 89 53 90 54 91 55 92 56 93
REMARK H PARENT 15 5 9 12 19 27 78 46 46 57
REMARK Flexibility Score: inf
ROOT
ATOM      1  C   UNL A   1      34.362  29.481  27.136  1.00  0.00     0.117 C 
ENDROOT
BRANCH   1   2
ATOM      2  N   UNL A   1      34.105  29.125  25.748  1.00  0.00    -0.356 N 
ATOM      3  C   UNL A   1      33.582  27.994  25.200  1.00  0.00     0.220 C 
ATOM      4  O   UNL A   1      33.460  27.935  23.978  1.00  0.00    -0.275 OA
ATOM      5  H   UNL A   1      34.350  29.820  25.095  1.00  0.00     0.163 HD
BRANCH   3   6
ATOM      6  C   UNL A   1      33.135  26.837  26.067  1.00  0.00     0.102 C 
BRANCH   6   7
ATOM      7  C   UNL A   1      31.700  26.959  26.586  1.00  0.00     0.031 C 
BRANCH   7   8
ATOM      8  C   UNL A   1      30.623  26.221  25.794  1.00  0.00     0.116 C 
BRANCH   8   9
ATOM      9  N   UNL A   1      30.089  25.056  26.465  1.00  0.00    -0.352 N 
ATOM     10  C   UNL A   1      30.617  23.824  26.745  1.00  0.00     0.255 C 
ATOM     11  O   UNL A   1      29.888  23.089  27.418  1.00  0.00    -0.269 OA
ATOM     12  H   UNL A   1      29.164  25.171  26.782  1.00  0.00     0.163 HD
BRANCH  10  13
ATOM     13  C   UNL A   1      31.902  23.343  26.240  1.00  0.00     0.084 A 
ATOM     14  C   UNL A   1      33.511  22.569  28.243  1.00  0.00     0.088 C 
ATOM     15  C   UNL A   1      33.063  22.887  26.870  1.00  0.00     0.114 A 
ATOM     16  O   UNL A   1      34.042  22.629  25.947  1.00  0.00    -0.465 OA
ATOM     17  C   UNL A   1      33.502  22.823  24.736  1.00  0.00     0.108 A 
ATOM     18  C   UNL A   1      32.182  23.182  24.832  1.00  0.00     0.007 A 
ATOM     19  C   UNL A   1      34.313  22.604  23.522  1.00  0.00     0.076 C 
ATOM     20  C   UNL A   1      31.345  23.386  23.613  1.00  0.00     0.040 C 
ATOM     21  C   UNL A   1      33.560  23.199  22.318  1.00  0.00     0.008 C 
ATOM     22  C   UNL A   1      32.058  22.848  22.348  1.00  0.00     0.005 C 
ENDBRANCH  10  13
ENDBRANCH   8   9
ENDBRANCH   7   8
ENDBRANCH   6   7
ENDBRANCH   3   6
ENDBRANCH   1   2
BRANCH   1  23
ATOM     23  C   UNL A   1      33.508  30.663  27.600  1.00  0.00     0.042 C 
BRANCH  23  24
ATOM     24  C   UNL A   1      34.295  31.940  27.792  1.00  0.00     0.118 C 
BRANCH  24  25
ATOM     25  N   UNL A   1      34.259  32.428  29.169  1.00  0.00    -0.352 N 
ATOM     26  C   UNL A   1      35.087  32.053  30.217  1.00  0.00     0.251 C 
ATOM     27  H   UNL A   1      33.570  33.099  29.376  1.00  0.00     0.163 HD
ATOM     28  O   UNL A   1      34.762  32.248  31.373  1.00  0.00    -0.269 OA
BRANCH  26  29
ATOM     29  C   UNL A   1      36.363  31.388  29.885  1.00  0.00     0.039 A 
ATOM     30  C   UNL A   1      37.510  32.124  29.581  1.00  0.00     0.014 A 
ATOM     31  C   UNL A   1      36.412  30.002  29.968  1.00  0.00     0.014 A 
ATOM     32  C   UNL A   1      38.720  31.446  29.454  1.00  0.00     0.010 A 
ATOM     33  C   UNL A   1      37.625  29.375  30.063  1.00  0.00     0.010 A 
ATOM     34  C   UNL A   1      38.778  30.069  29.728  1.00  0.00    -0.014 A 
BRANCH  34  35
ATOM     35  C   UNL A   1      40.052  29.359  29.733  1.00  0.00     0.031 A 
ATOM     36  C   UNL A   1      40.628  29.103  31.079  1.00  0.00     0.074 A 
ATOM     37  C   UNL A   1      40.617  28.825  28.627  1.00  0.00     0.049 A 
ATOM     38  N   UNL A   1      41.656  29.686  31.600  1.00  0.00    -0.248 NA
ATOM     39  C   UNL A   1      39.908  28.220  32.007  1.00  0.00     0.031 C 
ATOM     40  C   UNL A   1      40.057  28.708  27.273  1.00  0.00     0.029 A 
ATOM     41  N   UNL A   1      41.781  28.129  28.525  1.00  0.00    -0.354 N 
ATOM     42  C   UNL A   1      41.862  29.065  32.828  1.00  0.00     0.074 A 
ATOM     43  C   UNL A   1      40.656  28.331  33.108  1.00  0.00     0.031 C 
ATOM     44  C   UNL A   1      40.729  27.756  26.592  1.00  0.00     0.029 A 
ATOM     45  C   UNL A   1      41.872  27.346  27.381  1.00  0.00     0.049 A 
ATOM     46  H   UNL A   1      42.496  28.178  29.200  1.00  0.00     0.167 HD
ATOM     47  C   UNL A   1      43.106  29.013  33.384  1.00  0.00     0.034 A 
ATOM     48  C   UNL A   1      42.796  26.389  27.126  1.00  0.00     0.034 A 
ATOM     49  C   UNL A   1      44.015  29.918  32.722  1.00  0.00     0.049 A 
ATOM     50  C   UNL A   1      43.973  26.682  27.977  1.00  0.00     0.074 A 
ATOM     51  C   UNL A   1      44.012  31.272  32.441  1.00  0.00     0.029 A 
ATOM     52  N   UNL A   1      44.945  29.366  31.870  1.00  0.00    -0.354 N 
ATOM     53  N   UNL A   1      44.722  27.739  27.821  1.00  0.00    -0.248 NA
ATOM     54  C   UNL A   1      44.045  26.051  29.285  1.00  0.00     0.031 C 
ATOM     55  C   UNL A   1      44.536  31.367  31.117  1.00  0.00     0.029 A 
ATOM     56  C   UNL A   1      44.902  30.084  30.706  1.00  0.00     0.049 A 
ATOM     57  H   UNL A   1      45.530  28.598  32.063  1.00  0.00     0.167 HD
ATOM     58  C   UNL A   1      44.966  28.178  29.115  1.00  0.00     0.074 A 
ATOM     59  C   UNL A   1      44.626  27.040  29.970  1.00  0.00     0.031 C 
ATOM     60  C   UNL A   1      45.131  29.506  29.399  1.00  0.00     0.034 A 
BRANCH  47  61
ATOM     61  C   UNL A   1      43.626  27.901  34.269  1.00  0.00     0.023 A 
ATOM     62  C   UNL A   1      44.330  28.285  35.434  1.00  0.00     0.012 A 
ATOM     63  C   UNL A   1      43.715  26.545  33.887  1.00  0.00     0.148 A 
ATOM     64  C   UNL A   1      45.141  27.386  36.134  1.00  0.00     0.002 A 
ATOM     65  C   UNL A   1      44.460  25.636  34.631  1.00  0.00     0.091 A 
ATOM     66  F   UNL A   1      43.196  26.137  32.727  1.00  0.00    -0.205 F 
ATOM     67  C   UNL A   1      45.205  26.058  35.734  1.00  0.00     0.022 A 
BRANCH  65  68
ATOM     68  S   UNL A   1      44.537  23.896  34.187  1.00  0.00     0.127 S 
ATOM     69  O   UNL A   1      43.148  23.485  34.374  1.00  0.00    -0.237 OA
ATOM     70  O   UNL A   1      44.983  23.963  32.795  1.00  0.00    -0.237 OA
ATOM     71  O   UNL A   1      45.510  23.304  35.095  1.00  0.00    -0.744 OA
ENDBRANCH  65  68
ENDBRANCH  47  61
BRANCH  48  72
ATOM     72  C   UNL A   1      42.635  25.120  26.381  1.00  0.00     0.023 A 
ATOM     73  C   UNL A   1      43.563  24.770  25.384  1.00  0.00     0.012 A 
ATOM     74  C   UNL A   1      41.727  24.130  26.824  1.00  0.00     0.148 A 
ATOM     75  C   UNL A   1      43.608  23.470  24.866  1.00  0.00     0.002 A 
ATOM     76  C   UNL A   1      41.765  22.844  26.296  1.00  0.00     0.091 A 
ATOM     77  F   UNL A   1      40.892  24.420  27.830  1.00  0.00    -0.205 F 
ATOM     78  C   UNL A   1      42.714  22.505  25.324  1.00  0.00     0.022 A 
BRANCH  76  79
ATOM     79  S   UNL A   1      40.645  21.554  26.855  1.00  0.00     0.127 S 
ATOM     80  O   UNL A   1      39.342  22.086  26.455  1.00  0.00    -0.237 OA
ATOM     81  O   UNL A   1      41.100  20.401  26.083  1.00  0.00    -0.237 OA
ATOM     82  O   UNL A   1      40.837  21.467  28.298  1.00  0.00    -0.744 OA
ENDBRANCH  76  79
ENDBRANCH  48  72
BRANCH  60  83
ATOM     83  C   UNL A   1      45.291  30.481  28.255  1.00  0.00     0.023 A 
ATOM     84  C   UNL A   1      44.190  31.012  27.550  1.00  0.00     0.012 A 
ATOM     85  C   UNL A   1      46.571  31.005  27.998  1.00  0.00     0.148 A 
ATOM     86  C   UNL A   1      44.365  32.015  26.593  1.00  0.00     0.002 A 
ATOM     87  C   UNL A   1      46.734  32.035  27.080  1.00  0.00     0.091 A 
ATOM     88  F   UNL A   1      47.614  30.500  28.675  1.00  0.00    -0.205 F 
ATOM     89  C   UNL A   1      45.635  32.536  26.365  1.00  0.00     0.022 A 
BRANCH  87  90
ATOM     90  S   UNL A   1      48.327  32.828  26.842  1.00  0.00     0.127 S 
ATOM     91  O   UNL A   1      48.028  33.807  25.798  1.00  0.00    -0.237 OA
ATOM     92  O   UNL A   1      48.599  33.404  28.160  1.00  0.00    -0.237 OA
ATOM     93  O   UNL A   1      49.246  31.762  26.462  1.00  0.00    -0.744 OA
ENDBRANCH  87  90
ENDBRANCH  60  83
ENDBRANCH  34  35
ENDBRANCH  26  29
ENDBRANCH  24  25
ENDBRANCH  23  24
ENDBRANCH   1  23
TORSDOF 17
ENDMDL
MODEL 3
REMARK VINA RESULT:     -11.0      2.782      7.950
REMARK SMILES Cc1oc2c(c1C(=O)NCCCC(=O)NCCCNC(=O)c1ccc(-c3c4nc(c(-c5cccc(S(=O)(=O)[O-])c5F)c5ccc([nH]5)c(-c5cccc(S(=O)(=O)[O-])c5F)c5nc(c(-c6cccc(S(=O)(=O)[O-])c6F)c6ccc3[nH]6)C=C5)C=C4)cc1)CCCC2
REMARK SMILES IDX 16 1 15 2 13 3 14 4 12 6 11 7 10 8 9 9 7 10 8 11 6 13 1 14
REMARK SMILES IDX 2 15 3 16 4 17 5 18 88 19 85 20 87 21 86 22 17 23 18 24
REMARK SMILES IDX 19 25 20 26 21 28 22 29 23 30 84 31 24 32 83 33 25 34 26 35
REMARK SMILES IDX 27 36 77 37 28 38 82 39 76 40 78 41 29 42 81 43 75 44 74 45
REMARK SMILES IDX 30 47 62 48 42 49 61 50 43 51 46 52 60 53 79 54 44 55 45 56
REMARK SMILES IDX 59 58 80 59 47 60 31 61 32 62 40 63 33 64 35 65 41 66 34 67
REMARK SMILES IDX 36 68 37 69 38 70 39 71 63 72 64 73 72 74 65 75 67 76 73 77
REMARK SMILES IDX 66 78 68 79 69 80 70 81 71 82 48 83 49 84 57 85 50 86 52 87
REMARK SMILES IDX 58 88 51 89 53 90 54 91 55 92 56 93
REMARK H PARENT 15 5 9 12 19 27 78 46 46 57
REMARK Flexibility Score: inf
ROOT
ATOM      1  C   UNL A   1      32.568  29.349  25.537  1.00  0.00     0.117 C 
ENDROOT
BRANCH   1   2
ATOM      2  N   UNL A   1      33.294  29.345  24.275  1.00  0.00    -0.356 N 
ATOM      3  C   UNL A   1      33.793  28.315  23.538  1.00  0.00     0.220 C 
ATOM      4  O   UNL A   1      34.375  28.574  22.485  1.00  0.00    -0.275 OA
ATOM      5  H   UNL A   1      33.449  30.238  23.889  1.00  0.00     0.163 HD
BRANCH   3   6
ATOM      6  C   UNL A   1      33.622  26.879  23.980  1.00  0.00     0.102 C 
BRANCH   6   7
ATOM      7  C   UNL A   1      33.419  25.888  22.831  1.00  0.00     0.031 C 
BRANCH   7   8
ATOM      8  C   UNL A   1      32.447  24.737  23.086  1.00  0.00     0.116 C 
BRANCH   8   9
ATOM      9  N   UNL A   1      32.150  24.513  24.484  1.00  0.00    -0.352 N 
ATOM     10  C   UNL A   1      32.676  23.663  25.419  1.00  0.00     0.255 C 
ATOM     11  O   UNL A   1      32.223  23.803  26.559  1.00  0.00    -0.269 OA
ATOM     12  H   UNL A   1      31.426  25.085  24.831  1.00  0.00     0.163 HD
BRANCH  10  13
ATOM     13  C   UNL A   1      33.638  22.603  25.122  1.00  0.00     0.084 A 
ATOM     14  C   UNL A   1      32.417  20.427  24.136  1.00  0.00     0.088 C 
ATOM     15  C   UNL A   1      33.499  21.295  24.650  1.00  0.00     0.114 A 
ATOM     16  O   UNL A   1      34.713  20.662  24.621  1.00  0.00    -0.465 OA
ATOM     17  C   UNL A   1      35.636  21.564  24.978  1.00  0.00     0.108 A 
ATOM     18  C   UNL A   1      35.067  22.788  25.221  1.00  0.00     0.007 A 
ATOM     19  C   UNL A   1      37.061  21.183  25.025  1.00  0.00     0.076 C 
ATOM     20  C   UNL A   1      35.903  23.975  25.570  1.00  0.00     0.040 C 
ATOM     21  C   UNL A   1      37.839  22.291  25.760  1.00  0.00     0.008 C 
ATOM     22  C   UNL A   1      37.404  23.699  25.304  1.00  0.00     0.005 C 
ENDBRANCH  10  13
ENDBRANCH   8   9
ENDBRANCH   7   8
ENDBRANCH   6   7
ENDBRANCH   3   6
ENDBRANCH   1   2
BRANCH   1  23
ATOM     23  C   UNL A   1      33.468  29.004  26.726  1.00  0.00     0.042 C 
BRANCH  23  24
ATOM     24  C   UNL A   1      34.747  29.808  26.770  1.00  0.00     0.118 C 
BRANCH  24  25
ATOM     25  N   UNL A   1      34.562  31.137  27.351  1.00  0.00    -0.352 N 
ATOM     26  C   UNL A   1      35.128  31.632  28.517  1.00  0.00     0.251 C 
ATOM     27  H   UNL A   1      33.969  31.750  26.860  1.00  0.00     0.163 HD
ATOM     28  O   UNL A   1      34.651  32.596  29.086  1.00  0.00    -0.269 OA
BRANCH  26  29
ATOM     29  C   UNL A   1      36.314  30.937  29.058  1.00  0.00     0.039 A 
ATOM     30  C   UNL A   1      36.251  29.607  29.476  1.00  0.00     0.014 A 
ATOM     31  C   UNL A   1      37.522  31.623  29.058  1.00  0.00     0.014 A 
ATOM     32  C   UNL A   1      37.437  28.956  29.805  1.00  0.00     0.010 A 
ATOM     33  C   UNL A   1      38.694  30.923  29.165  1.00  0.00     0.010 A 
ATOM     34  C   UNL A   1      38.665  29.612  29.617  1.00  0.00    -0.014 A 
BRANCH  34  35
ATOM     35  C   UNL A   1      39.928  28.914  29.827  1.00  0.00     0.031 A 
ATOM     36  C   UNL A   1      40.385  28.845  31.239  1.00  0.00     0.074 A 
ATOM     37  C   UNL A   1      40.580  28.236  28.855  1.00  0.00     0.049 A 
ATOM     38  N   UNL A   1      41.370  29.496  31.762  1.00  0.00    -0.248 NA
ATOM     39  C   UNL A   1      39.582  28.093  32.213  1.00  0.00     0.031 C 
ATOM     40  C   UNL A   1      40.137  27.935  27.487  1.00  0.00     0.029 A 
ATOM     41  N   UNL A   1      41.744  27.537  28.948  1.00  0.00    -0.354 N 
ATOM     42  C   UNL A   1      41.466  29.047  33.076  1.00  0.00     0.074 A 
ATOM     43  C   UNL A   1      40.234  28.354  33.349  1.00  0.00     0.031 C 
ATOM     44  C   UNL A   1      40.856  26.902  27.001  1.00  0.00     0.029 A 
ATOM     45  C   UNL A   1      41.925  26.606  27.933  1.00  0.00     0.049 A 
ATOM     46  H   UNL A   1      42.398  27.679  29.669  1.00  0.00     0.167 HD
ATOM     47  C   UNL A   1      42.657  29.076  33.738  1.00  0.00     0.034 A 
ATOM     48  C   UNL A   1      42.858  25.626  27.890  1.00  0.00     0.034 A 
ATOM     49  C   UNL A   1      43.627  29.885  33.040  1.00  0.00     0.049 A 
ATOM     50  C   UNL A   1      43.962  26.036  28.790  1.00  0.00     0.074 A 
ATOM     51  C   UNL A   1      43.659  31.188  32.579  1.00  0.00     0.029 A 
ATOM     52  N   UNL A   1      44.621  29.225  32.353  1.00  0.00    -0.354 N 
ATOM     53  N   UNL A   1      44.730  27.064  28.557  1.00  0.00    -0.248 NA
ATOM     54  C   UNL A   1      43.917  25.588  30.173  1.00  0.00     0.031 C 
ATOM     55  C   UNL A   1      44.295  31.105  31.304  1.00  0.00     0.029 A 
ATOM     56  C   UNL A   1      44.684  29.779  31.103  1.00  0.00     0.049 A 
ATOM     57  H   UNL A   1      45.181  28.493  32.698  1.00  0.00     0.167 HD
ATOM     58  C   UNL A   1      44.867  27.676  29.796  1.00  0.00     0.074 A 
ATOM     59  C   UNL A   1      44.446  26.663  30.765  1.00  0.00     0.031 C 
ATOM     60  C   UNL A   1      45.018  29.031  29.911  1.00  0.00     0.034 A 
BRANCH  47  61
ATOM     61  C   UNL A   1      43.091  28.096  34.806  1.00  0.00     0.023 A 
ATOM     62  C   UNL A   1      43.660  28.638  35.983  1.00  0.00     0.012 A 
ATOM     63  C   UNL A   1      43.237  26.704  34.610  1.00  0.00     0.148 A 
ATOM     64  C   UNL A   1      44.400  27.854  36.873  1.00  0.00     0.002 A 
ATOM     65  C   UNL A   1      43.907  25.914  35.539  1.00  0.00     0.091 A 
ATOM     66  F   UNL A   1      42.852  26.143  33.463  1.00  0.00    -0.205 F 
ATOM     67  C   UNL A   1      44.522  26.489  36.653  1.00  0.00     0.022 A 
BRANCH  65  68
ATOM     68  S   UNL A   1      44.051  24.135  35.328  1.00  0.00     0.127 S 
ATOM     69  O   UNL A   1      44.725  23.748  36.564  1.00  0.00    -0.237 OA
ATOM     70  O   UNL A   1      42.648  23.731  35.232  1.00  0.00    -0.237 OA
ATOM     71  O   UNL A   1      44.809  23.948  34.097  1.00  0.00    -0.744 OA
ENDBRANCH  65  68
ENDBRANCH  47  61
BRANCH  48  72
ATOM     72  C   UNL A   1      42.751  24.268  27.312  1.00  0.00     0.023 A 
ATOM     73  C   UNL A   1      41.524  23.580  27.362  1.00  0.00     0.012 A 
ATOM     74  C   UNL A   1      43.771  23.751  26.480  1.00  0.00     0.148 A 
ATOM     75  C   UNL A   1      41.310  22.433  26.588  1.00  0.00     0.002 A 
ATOM     76  C   UNL A   1      43.559  22.603  25.724  1.00  0.00     0.091 A 
ATOM     77  F   UNL A   1      44.915  24.437  26.355  1.00  0.00    -0.205 F 
ATOM     78  C   UNL A   1      42.324  21.947  25.765  1.00  0.00     0.022 A 
BRANCH  76  79
ATOM     79  S   UNL A   1      44.824  21.935  24.636  1.00  0.00     0.127 S 
ATOM     80  O   UNL A   1      44.228  20.665  24.218  1.00  0.00    -0.237 OA
ATOM     81  O   UNL A   1      44.895  22.952  23.591  1.00  0.00    -0.237 OA
ATOM     82  O   UNL A   1      46.016  21.791  25.464  1.00  0.00    -0.744 OA
ENDBRANCH  76  79
ENDBRANCH  48  72
BRANCH  60  83
ATOM     83  C   UNL A   1      45.283  29.841  28.664  1.00  0.00     0.023 A 
ATOM     84  C   UNL A   1      44.247  30.314  27.831  1.00  0.00     0.012 A 
ATOM     85  C   UNL A   1      46.597  30.283  28.420  1.00  0.00     0.148 A 
ATOM     86  C   UNL A   1      44.518  31.177  26.765  1.00  0.00     0.002 A 
ATOM     87  C   UNL A   1      46.854  31.179  27.389  1.00  0.00     0.091 A 
ATOM     88  F   UNL A   1      47.577  29.834  29.219  1.00  0.00    -0.205 F 
ATOM     89  C   UNL A   1      45.819  31.620  26.551  1.00  0.00     0.022 A 
BRANCH  87  90
ATOM     90  S   UNL A   1      48.490  31.878  27.149  1.00  0.00     0.127 S 
ATOM     91  O   UNL A   1      49.252  30.720  26.686  1.00  0.00    -0.237 OA
ATOM     92  O   UNL A   1      48.254  32.903  26.131  1.00  0.00    -0.237 OA
ATOM     93  O   UNL A   1      48.884  32.415  28.446  1.00  0.00    -0.744 OA
ENDBRANCH  87  90
ENDBRANCH  60  83
ENDBRANCH  34  35
ENDBRANCH  26  29
ENDBRANCH  24  25
ENDBRANCH  23  24
ENDBRANCH   1  23
TORSDOF 17
ENDMDL
