MODEL 1
REMARK VINA RESULT:     -11.8      0.000      0.000
REMARK SMILES Cc1cc(C(F)(F)CC(C)(C)CC(=O)NCCCNC(=O)c2ccc(-c3c4nc(c(-c5cccc(S(=O)(=O)[O-])c5F)c5ccc([nH]5)c(-c5cccc(S(=O)(=O)[O-])c5F)c5nc(c(-c6cccc(S(=O)(=O)[O-])c6F)c6ccc3[nH]6)C=C5)C=C4)cc2)sc1Br
REMARK SMILES IDX 16 1 15 2 13 3 14 4 12 6 9 7 10 8 11 9 8 10 5 11 6 12 7 13
REMARK SMILES IDX 4 14 1 15 2 16 3 17 86 18 85 19 87 20 17 21 18 22 19 23
REMARK SMILES IDX 20 24 21 26 22 27 23 28 84 29 24 30 83 31 25 32 26 33 27 34
REMARK SMILES IDX 77 35 28 36 82 37 76 38 78 39 29 40 81 41 75 42 74 43 30 45
REMARK SMILES IDX 62 46 42 47 61 48 43 49 46 50 60 51 79 52 44 53 45 54 59 56
REMARK SMILES IDX 80 57 47 58 31 59 32 60 40 61 33 62 35 63 41 64 34 65 36 66
REMARK SMILES IDX 37 67 38 68 39 69 63 70 64 71 72 72 65 73 67 74 73 75 66 76
REMARK SMILES IDX 68 77 69 78 70 79 71 80 48 81 49 82 57 83 50 84 52 85 58 86
REMARK SMILES IDX 51 87 53 88 54 89 55 90 56 91
REMARK H PARENT 15 5 19 25 78 44 46 55
REMARK Flexibility Score: inf
ROOT
ATOM      1  C   UNL A   1      31.840  30.423  25.740  1.00  0.00     0.117 C 
ENDROOT
BRANCH   1   2
ATOM      2  N   UNL A   1      31.421  29.197  26.400  1.00  0.00    -0.356 N 
ATOM      3  C   UNL A   1      31.669  27.897  26.085  1.00  0.00     0.220 C 
ATOM      4  O   UNL A   1      31.373  27.026  26.899  1.00  0.00    -0.275 OA
ATOM      5  H   UNL A   1      30.868  29.329  27.204  1.00  0.00     0.163 HD
BRANCH   3   6
ATOM      6  C   UNL A   1      32.338  27.531  24.783  1.00  0.00     0.106 C 
BRANCH   6   7
ATOM      7  C   UNL A   1      31.451  27.418  23.515  1.00  0.00    -0.021 C 
ATOM      8  C   UNL A   1      31.774  28.690  22.708  1.00  0.00     0.012 C 
ATOM      9  C   UNL A   1      29.946  27.518  23.801  1.00  0.00     0.012 C 
BRANCH   7  10
ATOM     10  C   UNL A   1      31.613  26.030  22.795  1.00  0.00     0.090 C 
BRANCH  10  11
ATOM     11  C   UNL A   1      32.996  25.480  22.434  1.00  0.00     0.282 C 
ATOM     12  F   UNL A   1      33.835  26.538  22.266  1.00  0.00    -0.200 F 
ATOM     13  F   UNL A   1      32.912  24.850  21.233  1.00  0.00    -0.200 F 
BRANCH  11  14
ATOM     14  C   UNL A   1      33.562  24.570  23.489  1.00  0.00     0.075 A 
ATOM     15  C   UNL A   1      36.358  23.854  25.826  1.00  0.00     0.046 C 
ATOM     16  C   UNL A   1      35.049  23.800  25.113  1.00  0.00    -0.025 A 
ATOM     17  C   UNL A   1      34.884  24.266  23.766  1.00  0.00     0.026 A 
ATOM     18  C   UNL A   1      33.828  23.408  25.619  1.00  0.00     0.073 A 
ATOM     19  S   UNL A   1      32.525  23.774  24.596  1.00  0.00    -0.127 S 
ATOM     20  Br  UNL A   1      33.560  22.631  27.305  1.00  0.00    -0.039 Br
ENDBRANCH  11  14
ENDBRANCH  10  11
ENDBRANCH   7  10
ENDBRANCH   6   7
ENDBRANCH   3   6
ENDBRANCH   1   2
BRANCH   1  21
ATOM     21  C   UNL A   1      31.401  31.699  26.467  1.00  0.00     0.042 C 
BRANCH  21  22
ATOM     22  C   UNL A   1      32.502  32.316  27.279  1.00  0.00     0.118 C 
BRANCH  22  23
ATOM     23  N   UNL A   1      32.345  33.760  27.467  1.00  0.00    -0.352 N 
ATOM     24  C   UNL A   1      33.004  34.553  28.400  1.00  0.00     0.251 C 
ATOM     25  H   UNL A   1      31.708  34.216  26.870  1.00  0.00     0.163 HD
ATOM     26  O   UNL A   1      32.571  35.644  28.725  1.00  0.00    -0.269 OA
BRANCH  24  27
ATOM     27  C   UNL A   1      34.261  34.022  28.966  1.00  0.00     0.039 A 
ATOM     28  C   UNL A   1      34.400  33.553  30.273  1.00  0.00     0.014 A 
ATOM     29  C   UNL A   1      35.316  33.928  28.076  1.00  0.00     0.014 A 
ATOM     30  C   UNL A   1      35.628  32.998  30.637  1.00  0.00     0.010 A 
ATOM     31  C   UNL A   1      36.281  33.011  28.308  1.00  0.00     0.010 A 
ATOM     32  C   UNL A   1      36.572  32.760  29.629  1.00  0.00    -0.014 A 
BRANCH  32  33
ATOM     33  C   UNL A   1      37.900  32.217  29.840  1.00  0.00     0.031 A 
ATOM     34  C   UNL A   1      38.023  30.819  29.379  1.00  0.00     0.074 A 
ATOM     35  C   UNL A   1      38.951  33.032  30.104  1.00  0.00     0.049 A 
ATOM     36  N   UNL A   1      38.099  29.756  30.108  1.00  0.00    -0.248 NA
ATOM     37  C   UNL A   1      37.803  30.548  27.948  1.00  0.00     0.031 C 
ATOM     38  C   UNL A   1      38.968  34.507  30.188  1.00  0.00     0.029 A 
ATOM     39  N   UNL A   1      40.272  32.733  30.181  1.00  0.00    -0.354 N 
ATOM     40  C   UNL A   1      38.249  28.716  29.194  1.00  0.00     0.074 A 
ATOM     41  C   UNL A   1      37.741  29.214  27.947  1.00  0.00     0.031 C 
ATOM     42  C   UNL A   1      40.233  34.960  30.037  1.00  0.00     0.029 A 
ATOM     43  C   UNL A   1      41.129  33.822  30.017  1.00  0.00     0.049 A 
ATOM     44  H   UNL A   1      40.600  31.819  30.342  1.00  0.00     0.167 HD
ATOM     45  C   UNL A   1      39.108  27.690  29.448  1.00  0.00     0.034 A 
ATOM     46  C   UNL A   1      42.471  33.775  29.816  1.00  0.00     0.034 A 
ATOM     47  C   UNL A   1      39.518  27.696  30.836  1.00  0.00     0.049 A 
ATOM     48  C   UNL A   1      42.920  32.430  30.247  1.00  0.00     0.074 A 
ATOM     49  C   UNL A   1      38.862  27.672  32.051  1.00  0.00     0.029 A 
ATOM     50  N   UNL A   1      40.780  28.176  31.099  1.00  0.00    -0.354 N 
ATOM     51  N   UNL A   1      42.848  32.014  31.481  1.00  0.00    -0.248 NA
ATOM     52  C   UNL A   1      42.982  31.390  29.234  1.00  0.00     0.031 C 
ATOM     53  C   UNL A   1      39.590  28.581  32.878  1.00  0.00     0.029 A 
ATOM     54  C   UNL A   1      40.696  29.038  32.159  1.00  0.00     0.049 A 
ATOM     55  H   UNL A   1      41.602  27.939  30.611  1.00  0.00     0.167 HD
ATOM     56  C   UNL A   1      42.374  30.712  31.373  1.00  0.00     0.074 A 
ATOM     57  C   UNL A   1      42.580  30.348  29.969  1.00  0.00     0.031 C 
ATOM     58  C   UNL A   1      41.576  30.172  32.342  1.00  0.00     0.034 A 
BRANCH  45  59
ATOM     59  C   UNL A   1      39.931  26.958  28.401  1.00  0.00     0.023 A 
ATOM     60  C   UNL A   1      39.922  25.547  28.472  1.00  0.00     0.012 A 
ATOM     61  C   UNL A   1      40.910  27.542  27.562  1.00  0.00     0.148 A 
ATOM     62  C   UNL A   1      40.889  24.769  27.828  1.00  0.00     0.002 A 
ATOM     63  C   UNL A   1      41.826  26.762  26.867  1.00  0.00     0.091 A 
ATOM     64  F   UNL A   1      41.063  28.864  27.511  1.00  0.00    -0.205 F 
ATOM     65  C   UNL A   1      41.845  25.377  27.025  1.00  0.00     0.022 A 
BRANCH  63  66
ATOM     66  S   UNL A   1      43.064  27.499  25.789  1.00  0.00     0.127 S 
ATOM     67  O   UNL A   1      43.744  28.405  26.708  1.00  0.00    -0.237 OA
ATOM     68  O   UNL A   1      43.838  26.325  25.382  1.00  0.00    -0.237 OA
ATOM     69  O   UNL A   1      42.319  28.124  24.703  1.00  0.00    -0.744 OA
ENDBRANCH  63  66
ENDBRANCH  45  59
BRANCH  46  70
ATOM     70  C   UNL A   1      43.345  34.667  29.012  1.00  0.00     0.023 A 
ATOM     71  C   UNL A   1      43.899  35.828  29.591  1.00  0.00     0.012 A 
ATOM     72  C   UNL A   1      43.870  34.231  27.776  1.00  0.00     0.148 A 
ATOM     73  C   UNL A   1      44.958  36.512  28.976  1.00  0.00     0.002 A 
ATOM     74  C   UNL A   1      44.919  34.915  27.166  1.00  0.00     0.091 A 
ATOM     75  F   UNL A   1      43.402  33.093  27.246  1.00  0.00    -0.205 F 
ATOM     76  C   UNL A   1      45.474  36.051  27.768  1.00  0.00     0.022 A 
BRANCH  74  77
ATOM     77  S   UNL A   1      45.659  34.359  25.625  1.00  0.00     0.127 S 
ATOM     78  O   UNL A   1      44.524  34.442  24.704  1.00  0.00    -0.237 OA
ATOM     79  O   UNL A   1      46.697  35.365  25.412  1.00  0.00    -0.237 OA
ATOM     80  O   UNL A   1      46.129  33.006  25.887  1.00  0.00    -0.744 OA
ENDBRANCH  74  77
ENDBRANCH  46  70
BRANCH  58  81
ATOM     81  C   UNL A   1      41.414  30.937  33.635  1.00  0.00     0.023 A 
ATOM     82  C   UNL A   1      40.285  31.738  33.913  1.00  0.00     0.012 A 
ATOM     83  C   UNL A   1      42.338  30.694  34.662  1.00  0.00     0.148 A 
ATOM     84  C   UNL A   1      40.094  32.297  35.182  1.00  0.00     0.002 A 
ATOM     85  C   UNL A   1      42.124  31.214  35.932  1.00  0.00     0.091 A 
ATOM     86  F   UNL A   1      43.401  29.924  34.384  1.00  0.00    -0.205 F 
ATOM     87  C   UNL A   1      41.008  32.024  36.195  1.00  0.00     0.022 A 
BRANCH  85  88
ATOM     88  S   UNL A   1      43.198  30.796  37.305  1.00  0.00     0.127 S 
ATOM     89  O   UNL A   1      42.472  31.357  38.442  1.00  0.00    -0.237 OA
ATOM     90  O   UNL A   1      43.219  29.333  37.253  1.00  0.00    -0.237 OA
ATOM     91  O   UNL A   1      44.484  31.418  37.014  1.00  0.00    -0.744 OA
ENDBRANCH  85  88
ENDBRANCH  58  81
ENDBRANCH  32  33
ENDBRANCH  24  27
ENDBRANCH  22  23
ENDBRANCH  21  22
ENDBRANCH   1  21
TORSDOF 17
ENDMDL
MODEL 2
REMARK VINA RESULT:     -11.8      3.373      7.340
REMARK SMILES Cc1cc(C(F)(F)CC(C)(C)CC(=O)NCCCNC(=O)c2ccc(-c3c4nc(c(-c5cccc(S(=O)(=O)[O-])c5F)c5ccc([nH]5)c(-c5cccc(S(=O)(=O)[O-])c5F)c5nc(c(-c6cccc(S(=O)(=O)[O-])c6F)c6ccc3[nH]6)C=C5)C=C4)cc2)sc1Br
REMARK SMILES IDX 16 1 15 2 13 3 14 4 12 6 9 7 10 8 11 9 8 10 5 11 6 12 7 13
REMARK SMILES IDX 4 14 1 15 2 16 3 17 86 18 85 19 87 20 17 21 18 22 19 23
REMARK SMILES IDX 20 24 21 26 22 27 23 28 84 29 24 30 83 31 25 32 26 33 27 34
REMARK SMILES IDX 77 35 28 36 82 37 76 38 78 39 29 40 81 41 75 42 74 43 30 45
REMARK SMILES IDX 62 46 42 47 61 48 43 49 46 50 60 51 79 52 44 53 45 54 59 56
REMARK SMILES IDX 80 57 47 58 31 59 32 60 40 61 33 62 35 63 41 64 34 65 36 66
REMARK SMILES IDX 37 67 38 68 39 69 63 70 64 71 72 72 65 73 67 74 73 75 66 76
REMARK SMILES IDX 68 77 69 78 70 79 71 80 48 81 49 82 57 83 50 84 52 85 58 86
REMARK SMILES IDX 51 87 53 88 54 89 55 90 56 91
REMARK H PARENT 15 5 19 25 78 44 46 55
REMARK Flexibility Score: inf
ROOT
ATOM      1  C   UNL A   1      32.742  30.233  25.975  1.00  0.00     0.117 C 
ENDROOT
BRANCH   1   2
ATOM      2  N   UNL A   1      33.351  29.565  24.835  1.00  0.00    -0.356 N 
ATOM      3  C   UNL A   1      32.791  28.799  23.860  1.00  0.00     0.220 C 
ATOM      4  O   UNL A   1      33.472  28.495  22.884  1.00  0.00    -0.275 OA
ATOM      5  H   UNL A   1      34.325  29.687  24.757  1.00  0.00     0.163 HD
BRANCH   3   6
ATOM      6  C   UNL A   1      31.348  28.367  23.949  1.00  0.00     0.106 C 
BRANCH   6   7
ATOM      7  C   UNL A   1      31.035  27.008  24.630  1.00  0.00    -0.021 C 
ATOM      8  C   UNL A   1      29.569  26.720  24.251  1.00  0.00     0.012 C 
ATOM      9  C   UNL A   1      31.028  27.070  26.164  1.00  0.00     0.012 C 
BRANCH   7  10
ATOM     10  C   UNL A   1      32.110  25.911  24.295  1.00  0.00     0.090 C 
BRANCH  10  11
ATOM     11  C   UNL A   1      31.697  24.490  23.901  1.00  0.00     0.282 C 
ATOM     12  F   UNL A   1      31.035  24.561  22.715  1.00  0.00    -0.200 F 
ATOM     13  F   UNL A   1      30.810  24.027  24.820  1.00  0.00    -0.200 F 
BRANCH  11  14
ATOM     14  C   UNL A   1      32.866  23.556  23.753  1.00  0.00     0.075 A 
ATOM     15  C   UNL A   1      36.552  23.178  23.500  1.00  0.00     0.046 C 
ATOM     16  C   UNL A   1      35.096  22.881  23.624  1.00  0.00    -0.025 A 
ATOM     17  C   UNL A   1      34.083  23.767  23.126  1.00  0.00     0.026 A 
ATOM     18  C   UNL A   1      34.502  21.822  24.277  1.00  0.00     0.073 A 
ATOM     19  S   UNL A   1      32.824  21.994  24.456  1.00  0.00    -0.127 S 
ATOM     20  Br  UNL A   1      35.418  20.354  25.002  1.00  0.00    -0.039 Br
ENDBRANCH  11  14
ENDBRANCH  10  11
ENDBRANCH   7  10
ENDBRANCH   6   7
ENDBRANCH   3   6
ENDBRANCH   1   2
BRANCH   1  21
ATOM     21  C   UNL A   1      33.544  30.093  27.274  1.00  0.00     0.042 C 
BRANCH  21  22
ATOM     22  C   UNL A   1      34.657  31.095  27.383  1.00  0.00     0.118 C 
BRANCH  22  23
ATOM     23  N   UNL A   1      34.486  32.034  28.493  1.00  0.00    -0.352 N 
ATOM     24  C   UNL A   1      35.075  31.950  29.751  1.00  0.00     0.251 C 
ATOM     25  H   UNL A   1      33.893  32.803  28.334  1.00  0.00     0.163 HD
ATOM     26  O   UNL A   1      34.619  32.549  30.707  1.00  0.00    -0.269 OA
BRANCH  24  27
ATOM     27  C   UNL A   1      36.288  31.115  29.870  1.00  0.00     0.039 A 
ATOM     28  C   UNL A   1      36.279  29.725  29.999  1.00  0.00     0.014 A 
ATOM     29  C   UNL A   1      37.487  31.796  29.757  1.00  0.00     0.014 A 
ATOM     30  C   UNL A   1      37.509  29.066  30.012  1.00  0.00     0.010 A 
ATOM     31  C   UNL A   1      38.577  31.125  29.325  1.00  0.00     0.010 A 
ATOM     32  C   UNL A   1      38.658  29.802  29.696  1.00  0.00    -0.014 A 
BRANCH  32  33
ATOM     33  C   UNL A   1      40.011  29.278  29.689  1.00  0.00     0.031 A 
ATOM     34  C   UNL A   1      40.552  29.081  31.049  1.00  0.00     0.074 A 
ATOM     35  C   UNL A   1      40.536  28.727  28.566  1.00  0.00     0.049 A 
ATOM     36  N   UNL A   1      41.447  29.793  31.649  1.00  0.00    -0.248 NA
ATOM     37  C   UNL A   1      39.857  28.128  31.931  1.00  0.00     0.031 C 
ATOM     38  C   UNL A   1      39.891  28.531  27.252  1.00  0.00     0.029 A 
ATOM     39  N   UNL A   1      41.707  28.060  28.404  1.00  0.00    -0.354 N 
ATOM     40  C   UNL A   1      41.631  29.161  32.875  1.00  0.00     0.074 A 
ATOM     41  C   UNL A   1      40.441  28.391  33.102  1.00  0.00     0.031 C 
ATOM     42  C   UNL A   1      40.558  27.589  26.550  1.00  0.00     0.029 A 
ATOM     43  C   UNL A   1      41.761  27.238  27.278  1.00  0.00     0.049 A 
ATOM     44  H   UNL A   1      42.459  28.149  29.032  1.00  0.00     0.167 HD
ATOM     45  C   UNL A   1      42.879  29.029  33.406  1.00  0.00     0.034 A 
ATOM     46  C   UNL A   1      42.700  26.296  27.005  1.00  0.00     0.034 A 
ATOM     47  C   UNL A   1      43.822  29.882  32.714  1.00  0.00     0.049 A 
ATOM     48  C   UNL A   1      43.871  26.601  27.860  1.00  0.00     0.074 A 
ATOM     49  C   UNL A   1      43.899  31.232  32.433  1.00  0.00     0.029 A 
ATOM     50  N   UNL A   1      44.665  29.263  31.821  1.00  0.00    -0.354 N 
ATOM     51  N   UNL A   1      44.581  27.689  27.738  1.00  0.00    -0.248 NA
ATOM     52  C   UNL A   1      43.944  25.943  29.154  1.00  0.00     0.031 C 
ATOM     53  C   UNL A   1      44.396  31.300  31.097  1.00  0.00     0.029 A 
ATOM     54  C   UNL A   1      44.682  30.002  30.669  1.00  0.00     0.049 A 
ATOM     55  H   UNL A   1      45.170  28.434  31.982  1.00  0.00     0.167 HD
ATOM     56  C   UNL A   1      44.790  28.106  29.047  1.00  0.00     0.074 A 
ATOM     57  C   UNL A   1      44.472  26.939  29.873  1.00  0.00     0.031 C 
ATOM     58  C   UNL A   1      44.891  29.433  29.354  1.00  0.00     0.034 A 
BRANCH  45  59
ATOM     59  C   UNL A   1      43.362  27.843  34.223  1.00  0.00     0.023 A 
ATOM     60  C   UNL A   1      43.986  28.144  35.454  1.00  0.00     0.012 A 
ATOM     61  C   UNL A   1      43.504  26.517  33.750  1.00  0.00     0.148 A 
ATOM     62  C   UNL A   1      44.784  27.211  36.125  1.00  0.00     0.002 A 
ATOM     63  C   UNL A   1      44.240  25.571  34.455  1.00  0.00     0.091 A 
ATOM     64  F   UNL A   1      43.040  26.166  32.551  1.00  0.00    -0.205 F 
ATOM     65  C   UNL A   1      44.914  25.923  35.624  1.00  0.00     0.022 A 
BRANCH  63  66
ATOM     66  S   UNL A   1      44.412  23.880  33.865  1.00  0.00     0.127 S 
ATOM     67  O   UNL A   1      45.399  23.348  34.798  1.00  0.00    -0.237 OA
ATOM     68  O   UNL A   1      43.051  23.367  34.036  1.00  0.00    -0.237 OA
ATOM     69  O   UNL A   1      44.835  23.989  32.474  1.00  0.00    -0.744 OA
ENDBRANCH  63  66
ENDBRANCH  45  59
BRANCH  46  70
ATOM     70  C   UNL A   1      42.566  24.994  26.304  1.00  0.00     0.023 A 
ATOM     71  C   UNL A   1      43.565  24.565  25.405  1.00  0.00     0.012 A 
ATOM     72  C   UNL A   1      41.612  24.045  26.732  1.00  0.00     0.148 A 
ATOM     73  C   UNL A   1      43.630  23.232  24.973  1.00  0.00     0.002 A 
ATOM     74  C   UNL A   1      41.678  22.723  26.298  1.00  0.00     0.091 A 
ATOM     75  F   UNL A   1      40.698  24.418  27.637  1.00  0.00    -0.205 F 
ATOM     76  C   UNL A   1      42.692  22.309  25.427  1.00  0.00     0.022 A 
BRANCH  74  77
ATOM     77  S   UNL A   1      40.523  21.468  26.867  1.00  0.00     0.127 S 
ATOM     78  O   UNL A   1      40.992  20.284  26.146  1.00  0.00    -0.237 OA
ATOM     79  O   UNL A   1      40.781  21.454  28.304  1.00  0.00    -0.237 OA
ATOM     80  O   UNL A   1      39.206  21.941  26.463  1.00  0.00    -0.744 OA
ENDBRANCH  74  77
ENDBRANCH  46  70
BRANCH  58  81
ATOM     81  C   UNL A   1      45.001  30.419  28.214  1.00  0.00     0.023 A 
ATOM     82  C   UNL A   1      43.877  30.906  27.512  1.00  0.00     0.012 A 
ATOM     83  C   UNL A   1      46.254  31.001  27.969  1.00  0.00     0.148 A 
ATOM     84  C   UNL A   1      44.005  31.938  26.575  1.00  0.00     0.002 A 
ATOM     85  C   UNL A   1      46.371  32.054  27.071  1.00  0.00     0.091 A 
ATOM     86  F   UNL A   1      47.311  30.533  28.650  1.00  0.00    -0.205 F 
ATOM     87  C   UNL A   1      45.251  32.520  26.365  1.00  0.00     0.022 A 
BRANCH  85  88
ATOM     88  S   UNL A   1      47.923  32.924  26.850  1.00  0.00     0.127 S 
ATOM     89  O   UNL A   1      48.835  31.837  26.501  1.00  0.00    -0.237 OA
ATOM     90  O   UNL A   1      47.615  33.841  25.751  1.00  0.00    -0.237 OA
ATOM     91  O   UNL A   1      48.196  33.589  28.118  1.00  0.00    -0.744 OA
ENDBRANCH  85  88
ENDBRANCH  58  81
ENDBRANCH  32  33
ENDBRANCH  24  27
ENDBRANCH  22  23
ENDBRANCH  21  22
ENDBRANCH   1  21
TORSDOF 17
ENDMDL
MODEL 3
REMARK VINA RESULT:     -11.7      1.750      2.153
REMARK SMILES Cc1cc(C(F)(F)CC(C)(C)CC(=O)NCCCNC(=O)c2ccc(-c3c4nc(c(-c5cccc(S(=O)(=O)[O-])c5F)c5ccc([nH]5)c(-c5cccc(S(=O)(=O)[O-])c5F)c5nc(c(-c6cccc(S(=O)(=O)[O-])c6F)c6ccc3[nH]6)C=C5)C=C4)cc2)sc1Br
REMARK SMILES IDX 16 1 15 2 13 3 14 4 12 6 9 7 10 8 11 9 8 10 5 11 6 12 7 13
REMARK SMILES IDX 4 14 1 15 2 16 3 17 86 18 85 19 87 20 17 21 18 22 19 23
REMARK SMILES IDX 20 24 21 26 22 27 23 28 84 29 24 30 83 31 25 32 26 33 27 34
REMARK SMILES IDX 77 35 28 36 82 37 76 38 78 39 29 40 81 41 75 42 74 43 30 45
REMARK SMILES IDX 62 46 42 47 61 48 43 49 46 50 60 51 79 52 44 53 45 54 59 56
REMARK SMILES IDX 80 57 47 58 31 59 32 60 40 61 33 62 35 63 41 64 34 65 36 66
REMARK SMILES IDX 37 67 38 68 39 69 63 70 64 71 72 72 65 73 67 74 73 75 66 76
REMARK SMILES IDX 68 77 69 78 70 79 71 80 48 81 49 82 57 83 50 84 52 85 58 86
REMARK SMILES IDX 51 87 53 88 54 89 55 90 56 91
REMARK H PARENT 15 5 19 25 78 44 46 55
REMARK Flexibility Score: inf
ROOT
ATOM      1  C   UNL A   1      31.691  30.638  26.069  1.00  0.00     0.117 C 
ENDROOT
BRANCH   1   2
ATOM      2  N   UNL A   1      31.396  29.608  27.052  1.00  0.00    -0.356 N 
ATOM      3  C   UNL A   1      31.925  28.364  27.212  1.00  0.00     0.220 C 
ATOM      4  O   UNL A   1      31.660  27.737  28.234  1.00  0.00    -0.275 OA
ATOM      5  H   UNL A   1      30.702  29.849  27.708  1.00  0.00     0.163 HD
BRANCH   3   6
ATOM      6  C   UNL A   1      32.858  27.782  26.178  1.00  0.00     0.106 C 
BRANCH   6   7
ATOM      7  C   UNL A   1      32.291  26.714  25.205  1.00  0.00    -0.021 C 
ATOM      8  C   UNL A   1      33.046  26.962  23.885  1.00  0.00     0.012 C 
ATOM      9  C   UNL A   1      30.814  26.923  24.847  1.00  0.00     0.012 C 
BRANCH   7  10
ATOM     10  C   UNL A   1      32.337  25.266  25.817  1.00  0.00     0.090 C 
BRANCH  10  11
ATOM     11  C   UNL A   1      32.040  24.033  24.960  1.00  0.00     0.282 C 
ATOM     12  F   UNL A   1      32.119  24.404  23.653  1.00  0.00    -0.200 F 
ATOM     13  F   UNL A   1      30.756  23.649  25.183  1.00  0.00    -0.200 F 
BRANCH  11  14
ATOM     14  C   UNL A   1      32.999  22.900  25.205  1.00  0.00     0.075 A 
ATOM     15  C   UNL A   1      33.867  19.347  24.561  1.00  0.00     0.046 C 
ATOM     16  C   UNL A   1      33.925  20.768  25.011  1.00  0.00    -0.025 A 
ATOM     17  C   UNL A   1      32.747  21.541  25.282  1.00  0.00     0.026 A 
ATOM     18  C   UNL A   1      35.042  21.567  25.146  1.00  0.00     0.073 A 
ATOM     19  S   UNL A   1      34.675  23.205  25.385  1.00  0.00    -0.127 S 
ATOM     20  Br  UNL A   1      36.815  20.973  24.994  1.00  0.00    -0.039 Br
ENDBRANCH  11  14
ENDBRANCH  10  11
ENDBRANCH   7  10
ENDBRANCH   6   7
ENDBRANCH   3   6
ENDBRANCH   1   2
BRANCH   1  21
ATOM     21  C   UNL A   1      31.446  32.064  26.575  1.00  0.00     0.042 C 
BRANCH  21  22
ATOM     22  C   UNL A   1      32.627  32.635  27.306  1.00  0.00     0.118 C 
BRANCH  22  23
ATOM     23  N   UNL A   1      32.491  34.063  27.599  1.00  0.00    -0.352 N 
ATOM     24  C   UNL A   1      33.143  34.770  28.605  1.00  0.00     0.251 C 
ATOM     25  H   UNL A   1      31.876  34.576  27.026  1.00  0.00     0.163 HD
ATOM     26  O   UNL A   1      32.722  35.842  29.003  1.00  0.00    -0.269 OA
BRANCH  24  27
ATOM     27  C   UNL A   1      34.376  34.173  29.156  1.00  0.00     0.039 A 
ATOM     28  C   UNL A   1      34.465  33.564  30.409  1.00  0.00     0.014 A 
ATOM     29  C   UNL A   1      35.464  34.169  28.301  1.00  0.00     0.014 A 
ATOM     30  C   UNL A   1      35.677  32.965  30.755  1.00  0.00     0.010 A 
ATOM     31  C   UNL A   1      36.417  33.226  28.467  1.00  0.00     0.010 A 
ATOM     32  C   UNL A   1      36.658  32.832  29.764  1.00  0.00    -0.014 A 
BRANCH  32  33
ATOM     33  C   UNL A   1      37.975  32.260  29.963  1.00  0.00     0.031 A 
ATOM     34  C   UNL A   1      38.073  30.870  29.474  1.00  0.00     0.074 A 
ATOM     35  C   UNL A   1      39.041  33.052  30.243  1.00  0.00     0.049 A 
ATOM     36  N   UNL A   1      38.130  29.791  30.181  1.00  0.00    -0.248 NA
ATOM     37  C   UNL A   1      37.848  30.633  28.038  1.00  0.00     0.031 C 
ATOM     38  C   UNL A   1      39.085  34.524  30.357  1.00  0.00     0.029 A 
ATOM     39  N   UNL A   1      40.356  32.727  30.314  1.00  0.00    -0.354 N 
ATOM     40  C   UNL A   1      38.261  28.768  29.246  1.00  0.00     0.074 A 
ATOM     41  C   UNL A   1      37.763  29.300  28.009  1.00  0.00     0.031 C 
ATOM     42  C   UNL A   1      40.357  34.956  30.215  1.00  0.00     0.029 A 
ATOM     43  C   UNL A   1      41.233  33.804  30.172  1.00  0.00     0.049 A 
ATOM     44  H   UNL A   1      40.668  31.804  30.456  1.00  0.00     0.167 HD
ATOM     45  C   UNL A   1      39.102  27.721  29.479  1.00  0.00     0.034 A 
ATOM     46  C   UNL A   1      42.574  33.736  29.970  1.00  0.00     0.034 A 
ATOM     47  C   UNL A   1      39.511  27.692  30.867  1.00  0.00     0.049 A 
ATOM     48  C   UNL A   1      42.998  32.375  30.373  1.00  0.00     0.074 A 
ATOM     49  C   UNL A   1      38.855  27.655  32.081  1.00  0.00     0.029 A 
ATOM     50  N   UNL A   1      40.782  28.144  31.139  1.00  0.00    -0.354 N 
ATOM     51  N   UNL A   1      42.919  31.935  31.599  1.00  0.00    -0.248 NA
ATOM     52  C   UNL A   1      43.042  31.354  29.340  1.00  0.00     0.031 C 
ATOM     53  C   UNL A   1      39.598  28.534  32.926  1.00  0.00     0.029 A 
ATOM     54  C   UNL A   1      40.713  28.985  32.217  1.00  0.00     0.049 A 
ATOM     55  H   UNL A   1      41.599  27.902  30.646  1.00  0.00     0.167 HD
ATOM     56  C   UNL A   1      42.421  30.645  31.465  1.00  0.00     0.074 A 
ATOM     57  C   UNL A   1      42.620  30.306  30.054  1.00  0.00     0.031 C 
ATOM     58  C   UNL A   1      41.613  30.099  32.422  1.00  0.00     0.034 A 
BRANCH  45  59
ATOM     59  C   UNL A   1      39.911  26.996  28.417  1.00  0.00     0.023 A 
ATOM     60  C   UNL A   1      39.887  25.584  28.468  1.00  0.00     0.012 A 
ATOM     61  C   UNL A   1      40.893  27.582  27.583  1.00  0.00     0.148 A 
ATOM     62  C   UNL A   1      40.842  24.805  27.807  1.00  0.00     0.002 A 
ATOM     63  C   UNL A   1      41.797  26.802  26.871  1.00  0.00     0.091 A 
ATOM     64  F   UNL A   1      41.061  28.903  27.550  1.00  0.00    -0.205 F 
ATOM     65  C   UNL A   1      41.801  25.415  27.009  1.00  0.00     0.022 A 
BRANCH  63  66
ATOM     66  S   UNL A   1      43.038  27.541  25.798  1.00  0.00     0.127 S 
ATOM     67  O   UNL A   1      43.801  26.367  25.388  1.00  0.00    -0.237 OA
ATOM     68  O   UNL A   1      42.206  28.141  24.753  1.00  0.00    -0.237 OA
ATOM     69  O   UNL A   1      43.745  28.512  26.624  1.00  0.00    -0.744 OA
ENDBRANCH  63  66
ENDBRANCH  45  59
BRANCH  46  70
ATOM     70  C   UNL A   1      43.464  34.628  29.184  1.00  0.00     0.023 A 
ATOM     71  C   UNL A   1      44.095  35.727  29.805  1.00  0.00     0.012 A 
ATOM     72  C   UNL A   1      43.925  34.237  27.908  1.00  0.00     0.148 A 
ATOM     73  C   UNL A   1      45.165  36.393  29.189  1.00  0.00     0.002 A 
ATOM     74  C   UNL A   1      44.986  34.903  27.298  1.00  0.00     0.091 A 
ATOM     75  F   UNL A   1      43.383  33.154  27.335  1.00  0.00    -0.205 F 
ATOM     76  C   UNL A   1      45.616  35.975  27.940  1.00  0.00     0.022 A 
BRANCH  74  77
ATOM     77  S   UNL A   1      45.645  34.398  25.704  1.00  0.00     0.127 S 
ATOM     78  O   UNL A   1      46.625  35.453  25.441  1.00  0.00    -0.237 OA
ATOM     79  O   UNL A   1      46.217  33.092  26.017  1.00  0.00    -0.237 OA
ATOM     80  O   UNL A   1      44.505  34.392  24.798  1.00  0.00    -0.744 OA
ENDBRANCH  74  77
ENDBRANCH  46  70
BRANCH  58  81
ATOM     81  C   UNL A   1      41.465  30.841  33.731  1.00  0.00     0.023 A 
ATOM     82  C   UNL A   1      42.448  30.811  34.743  1.00  0.00     0.012 A 
ATOM     83  C   UNL A   1      40.389  31.733  33.860  1.00  0.00     0.148 A 
ATOM     84  C   UNL A   1      42.349  31.638  35.868  1.00  0.00     0.002 A 
ATOM     85  C   UNL A   1      40.317  32.584  34.956  1.00  0.00     0.091 A 
ATOM     86  F   UNL A   1      39.468  31.756  32.885  1.00  0.00    -0.205 F 
ATOM     87  C   UNL A   1      41.290  32.534  35.967  1.00  0.00     0.022 A 
BRANCH  85  88
ATOM     88  S   UNL A   1      39.046  33.843  35.077  1.00  0.00     0.127 S 
ATOM     89  O   UNL A   1      39.374  34.485  36.348  1.00  0.00    -0.237 OA
ATOM     90  O   UNL A   1      39.302  34.663  33.892  1.00  0.00    -0.237 OA
ATOM     91  O   UNL A   1      37.772  33.133  35.043  1.00  0.00    -0.744 OA
ENDBRANCH  85  88
ENDBRANCH  58  81
ENDBRANCH  32  33
ENDBRANCH  24  27
ENDBRANCH  22  23
ENDBRANCH  21  22
ENDBRANCH   1  21
TORSDOF 17
ENDMDL
