MODEL 1
REMARK VINA RESULT:     -12.0      0.000      0.000
REMARK SMILES CC(C)(C)OC(=O)C1=C(C(=O)NCCCNC(=O)c2ccc(-c3c4nc(c(-c5cccc(S(=O)(=O)[O-])c5F)c5ccc([nH]5)c(-c5cccc(S(=O)(=O)[O-])c5F)c5nc(c(-c6cccc(S(=O)(=O)[O-])c6F)c6ccc3[nH]6)C=C5)C=C4)cc2)C[C@@H]([NH3+])C=C1
REMARK SMILES IDX 14 1 13 2 12 3 10 4 11 5 9 7 8 8 86 9 82 10 85 11 83 12 6 13
REMARK SMILES IDX 7 14 5 15 2 16 1 17 3 18 4 19 84 20 15 24 16 25 17 26 18 28
REMARK SMILES IDX 19 29 20 30 81 31 21 32 80 33 22 34 23 35 24 36 74 37 25 38
REMARK SMILES IDX 79 39 73 40 75 41 26 42 78 43 72 44 71 45 27 47 59 48 39 49
REMARK SMILES IDX 58 50 40 51 43 52 57 53 76 54 41 55 42 56 56 58 77 59 44 60
REMARK SMILES IDX 28 61 29 62 37 63 30 64 32 65 38 66 31 67 33 68 34 69 35 70
REMARK SMILES IDX 36 71 60 72 61 73 69 74 62 75 64 76 70 77 63 78 65 79 66 80
REMARK SMILES IDX 67 81 68 82 45 83 46 84 54 85 47 86 49 87 55 88 48 89 50 90
REMARK SMILES IDX 51 91 52 92 53 93
REMARK H PARENT 12 6 84 21 84 22 84 23 16 27 75 46 43 57
REMARK Flexibility Score: inf
ROOT
ATOM      1  C   UNL A   1      31.465  32.114  26.538  1.00  0.00     0.042 C 
ENDROOT
BRANCH   1   2
ATOM      2  C   UNL A   1      31.417  30.591  26.508  1.00  0.00     0.118 C 
BRANCH   2   3
ATOM      3  N   UNL A   1      32.378  30.008  25.584  1.00  0.00    -0.352 N 
ATOM      4  C   UNL A   1      32.390  29.011  24.663  1.00  0.00     0.248 C 
ATOM      5  O   UNL A   1      33.388  29.007  23.940  1.00  0.00    -0.270 OA
ATOM      6  H   UNL A   1      33.253  30.456  25.643  1.00  0.00     0.163 HD
BRANCH   4   7
ATOM      7  C   UNL A   1      31.274  28.029  24.446  1.00  0.00     0.038 C 
ATOM      8  C   UNL A   1      30.259  28.335  23.599  1.00  0.00     0.068 C 
ATOM      9  C   UNL A   1      29.085  27.479  23.484  1.00  0.00     0.018 C 
ATOM     10  C   UNL A   1      31.232  26.747  25.237  1.00  0.00     0.111 C 
ATOM     11  C   UNL A   1      28.971  26.314  24.133  1.00  0.00     0.038 C 
ATOM     12  C   UNL A   1      30.050  25.773  25.006  1.00  0.00     0.209 C 
BRANCH   8  13
ATOM     13  C   UNL A   1      30.263  29.557  22.740  1.00  0.00     0.339 C 
ATOM     14  O   UNL A   1      30.707  29.591  21.602  1.00  0.00    -0.246 OA
BRANCH  13  15
ATOM     15  O   UNL A   1      29.607  30.541  23.406  1.00  0.00    -0.456 OA
BRANCH  15  16
ATOM     16  C   UNL A   1      28.435  31.172  22.831  1.00  0.00     0.104 C 
ATOM     17  C   UNL A   1      28.887  32.601  22.496  1.00  0.00     0.056 C 
ATOM     18  C   UNL A   1      27.256  31.259  23.807  1.00  0.00     0.056 C 
ATOM     19  C   UNL A   1      28.045  30.455  21.534  1.00  0.00     0.056 C 
ENDBRANCH  15  16
ENDBRANCH  13  15
ENDBRANCH   8  13
BRANCH  12  20
ATOM     20  N   UNL A   1      29.456  25.350  26.277  1.00  0.00    -0.352 N 
ATOM     21  H   UNL A   1      30.182  25.303  26.992  1.00  0.00     0.345 HD
ATOM     22  H   UNL A   1      29.029  24.431  26.163  1.00  0.00     0.345 HD
ATOM     23  H   UNL A   1      28.743  26.023  26.560  1.00  0.00     0.345 HD
ENDBRANCH  12  20
ENDBRANCH   4   7
ENDBRANCH   2   3
ENDBRANCH   1   2
BRANCH   1  24
ATOM     24  C   UNL A   1      32.726  32.673  27.195  1.00  0.00     0.118 C 
BRANCH  24  25
ATOM     25  N   UNL A   1      32.565  34.065  27.605  1.00  0.00    -0.352 N 
ATOM     26  C   UNL A   1      33.128  34.770  28.640  1.00  0.00     0.251 C 
ATOM     27  H   UNL A   1      31.948  34.588  27.043  1.00  0.00     0.163 HD
ATOM     28  O   UNL A   1      32.652  35.860  28.951  1.00  0.00    -0.269 OA
BRANCH  26  29
ATOM     29  C   UNL A   1      34.295  34.237  29.377  1.00  0.00     0.039 A 
ATOM     30  C   UNL A   1      34.080  33.443  30.509  1.00  0.00     0.014 A 
ATOM     31  C   UNL A   1      35.596  34.565  28.994  1.00  0.00     0.014 A 
ATOM     32  C   UNL A   1      35.171  32.925  31.213  1.00  0.00     0.010 A 
ATOM     33  C   UNL A   1      36.680  33.985  29.647  1.00  0.00     0.010 A 
ATOM     34  C   UNL A   1      36.480  33.165  30.767  1.00  0.00    -0.014 A 
BRANCH  34  35
ATOM     35  C   UNL A   1      37.658  32.563  31.441  1.00  0.00     0.031 A 
ATOM     36  C   UNL A   1      38.393  31.417  30.802  1.00  0.00     0.074 A 
ATOM     37  C   UNL A   1      37.990  32.974  32.681  1.00  0.00     0.049 A 
ATOM     38  N   UNL A   1      39.370  30.692  31.283  1.00  0.00    -0.248 NA
ATOM     39  C   UNL A   1      37.953  31.008  29.457  1.00  0.00     0.031 C 
ATOM     40  C   UNL A   1      37.300  34.020  33.439  1.00  0.00     0.029 A 
ATOM     41  N   UNL A   1      38.968  32.534  33.537  1.00  0.00    -0.354 N 
ATOM     42  C   UNL A   1      39.631  29.719  30.326  1.00  0.00     0.074 A 
ATOM     43  C   UNL A   1      38.691  29.928  29.245  1.00  0.00     0.031 C 
ATOM     44  C   UNL A   1      37.873  34.138  34.647  1.00  0.00     0.029 A 
ATOM     45  C   UNL A   1      38.949  33.160  34.763  1.00  0.00     0.049 A 
ATOM     46  H   UNL A   1      39.622  31.838  33.298  1.00  0.00     0.167 HD
ATOM     47  C   UNL A   1      40.585  28.758  30.330  1.00  0.00     0.034 A 
ATOM     48  C   UNL A   1      39.704  32.961  35.860  1.00  0.00     0.034 A 
ATOM     49  C   UNL A   1      41.553  28.592  31.381  1.00  0.00     0.049 A 
ATOM     50  C   UNL A   1      40.793  31.923  35.817  1.00  0.00     0.074 A 
ATOM     51  C   UNL A   1      42.622  27.715  31.434  1.00  0.00     0.029 A 
ATOM     52  N   UNL A   1      41.570  29.316  32.563  1.00  0.00    -0.354 N 
ATOM     53  N   UNL A   1      41.130  31.122  34.835  1.00  0.00    -0.248 NA
ATOM     54  C   UNL A   1      41.630  31.788  37.017  1.00  0.00     0.031 C 
ATOM     55  C   UNL A   1      43.278  27.901  32.656  1.00  0.00     0.029 A 
ATOM     56  C   UNL A   1      42.626  28.905  33.356  1.00  0.00     0.049 A 
ATOM     57  H   UNL A   1      40.925  30.020  32.803  1.00  0.00     0.167 HD
ATOM     58  C   UNL A   1      42.236  30.410  35.286  1.00  0.00     0.074 A 
ATOM     59  C   UNL A   1      42.526  30.892  36.621  1.00  0.00     0.031 C 
ATOM     60  C   UNL A   1      42.935  29.433  34.659  1.00  0.00     0.034 A 
BRANCH  47  61
ATOM     61  C   UNL A   1      40.671  27.850  29.131  1.00  0.00     0.023 A 
ATOM     62  C   UNL A   1      39.813  26.734  29.046  1.00  0.00     0.012 A 
ATOM     63  C   UNL A   1      41.552  28.126  28.067  1.00  0.00     0.148 A 
ATOM     64  C   UNL A   1      39.851  25.890  27.938  1.00  0.00     0.002 A 
ATOM     65  C   UNL A   1      41.554  27.302  26.946  1.00  0.00     0.091 A 
ATOM     66  F   UNL A   1      42.376  29.177  28.174  1.00  0.00    -0.205 F 
ATOM     67  C   UNL A   1      40.714  26.179  26.885  1.00  0.00     0.022 A 
BRANCH  65  68
ATOM     68  S   UNL A   1      42.574  27.634  25.504  1.00  0.00     0.127 S 
ATOM     69  O   UNL A   1      42.304  26.459  24.676  1.00  0.00    -0.237 OA
ATOM     70  O   UNL A   1      41.997  28.881  24.998  1.00  0.00    -0.237 OA
ATOM     71  O   UNL A   1      43.938  27.754  25.997  1.00  0.00    -0.744 OA
ENDBRANCH  65  68
ENDBRANCH  47  61
BRANCH  48  72
ATOM     72  C   UNL A   1      39.503  33.815  37.064  1.00  0.00     0.023 A 
ATOM     73  C   UNL A   1      39.946  35.152  37.040  1.00  0.00     0.012 A 
ATOM     74  C   UNL A   1      38.844  33.330  38.211  1.00  0.00     0.148 A 
ATOM     75  C   UNL A   1      39.762  35.983  38.145  1.00  0.00     0.002 A 
ATOM     76  C   UNL A   1      38.616  34.180  39.288  1.00  0.00     0.091 A 
ATOM     77  F   UNL A   1      38.443  32.051  38.221  1.00  0.00    -0.205 F 
ATOM     78  C   UNL A   1      39.087  35.501  39.264  1.00  0.00     0.022 A 
BRANCH  76  79
ATOM     79  S   UNL A   1      37.635  33.683  40.709  1.00  0.00     0.127 S 
ATOM     80  O   UNL A   1      36.433  33.151  40.073  1.00  0.00    -0.237 OA
ATOM     81  O   UNL A   1      38.496  32.682  41.340  1.00  0.00    -0.237 OA
ATOM     82  O   UNL A   1      37.454  34.895  41.500  1.00  0.00    -0.744 OA
ENDBRANCH  76  79
ENDBRANCH  48  72
BRANCH  60  83
ATOM     83  C   UNL A   1      44.103  28.832  35.395  1.00  0.00     0.023 A 
ATOM     84  C   UNL A   1      45.389  29.381  35.225  1.00  0.00     0.012 A 
ATOM     85  C   UNL A   1      43.914  27.777  36.309  1.00  0.00     0.148 A 
ATOM     86  C   UNL A   1      46.476  28.870  35.935  1.00  0.00     0.002 A 
ATOM     87  C   UNL A   1      44.994  27.304  37.047  1.00  0.00     0.091 A 
ATOM     88  F   UNL A   1      42.686  27.256  36.441  1.00  0.00    -0.205 F 
ATOM     89  C   UNL A   1      46.276  27.841  36.853  1.00  0.00     0.022 A 
BRANCH  87  90
ATOM     90  S   UNL A   1      44.810  26.046  38.316  1.00  0.00     0.127 S 
ATOM     91  O   UNL A   1      43.946  26.722  39.282  1.00  0.00    -0.237 OA
ATOM     92  O   UNL A   1      44.167  24.954  37.583  1.00  0.00    -0.237 OA
ATOM     93  O   UNL A   1      46.158  25.747  38.780  1.00  0.00    -0.744 OA
ENDBRANCH  87  90
ENDBRANCH  60  83
ENDBRANCH  34  35
ENDBRANCH  26  29
ENDBRANCH  24  25
ENDBRANCH   1  24
TORSDOF 17
ENDMDL
MODEL 2
REMARK VINA RESULT:     -11.6      7.328     12.512
REMARK SMILES CC(C)(C)OC(=O)C1=C(C(=O)NCCCNC(=O)c2ccc(-c3c4nc(c(-c5cccc(S(=O)(=O)[O-])c5F)c5ccc([nH]5)c(-c5cccc(S(=O)(=O)[O-])c5F)c5nc(c(-c6cccc(S(=O)(=O)[O-])c6F)c6ccc3[nH]6)C=C5)C=C4)cc2)C[C@@H]([NH3+])C=C1
REMARK SMILES IDX 14 1 13 2 12 3 10 4 11 5 9 7 8 8 86 9 82 10 85 11 83 12 6 13
REMARK SMILES IDX 7 14 5 15 2 16 1 17 3 18 4 19 84 20 15 24 16 25 17 26 18 28
REMARK SMILES IDX 19 29 20 30 81 31 21 32 80 33 22 34 23 35 24 36 74 37 25 38
REMARK SMILES IDX 79 39 73 40 75 41 26 42 78 43 72 44 71 45 27 47 59 48 39 49
REMARK SMILES IDX 58 50 40 51 43 52 57 53 76 54 41 55 42 56 56 58 77 59 44 60
REMARK SMILES IDX 28 61 29 62 37 63 30 64 32 65 38 66 31 67 33 68 34 69 35 70
REMARK SMILES IDX 36 71 60 72 61 73 69 74 62 75 64 76 70 77 63 78 65 79 66 80
REMARK SMILES IDX 67 81 68 82 45 83 46 84 54 85 47 86 49 87 55 88 48 89 50 90
REMARK SMILES IDX 51 91 52 92 53 93
REMARK H PARENT 12 6 84 21 84 22 84 23 16 27 75 46 43 57
REMARK Flexibility Score: inf
ROOT
ATOM      1  C   UNL A   1      37.897  19.590  25.013  1.00  0.00     0.042 C 
ENDROOT
BRANCH   1   2
ATOM      2  C   UNL A   1      36.905  20.658  24.571  1.00  0.00     0.118 C 
BRANCH   2   3
ATOM      3  N   UNL A   1      36.028  21.103  25.644  1.00  0.00    -0.352 N 
ATOM      4  C   UNL A   1      34.701  21.330  25.811  1.00  0.00     0.248 C 
ATOM      5  O   UNL A   1      34.363  21.499  26.984  1.00  0.00    -0.270 OA
ATOM      6  H   UNL A   1      36.533  21.287  26.469  1.00  0.00     0.163 HD
BRANCH   4   7
ATOM      7  C   UNL A   1      33.679  21.305  24.708  1.00  0.00     0.038 C 
ATOM      8  C   UNL A   1      33.068  20.140  24.380  1.00  0.00     0.068 C 
ATOM      9  C   UNL A   1      32.193  20.045  23.219  1.00  0.00     0.018 C 
ATOM     10  C   UNL A   1      33.404  22.550  23.906  1.00  0.00     0.111 C 
ATOM     11  C   UNL A   1      31.876  21.101  22.461  1.00  0.00     0.038 C 
ATOM     12  C   UNL A   1      32.365  22.477  22.759  1.00  0.00     0.209 C 
BRANCH   8  13
ATOM     13  C   UNL A   1      33.248  18.882  25.167  1.00  0.00     0.339 C 
ATOM     14  O   UNL A   1      32.528  18.550  26.098  1.00  0.00    -0.246 OA
BRANCH  13  15
ATOM     15  O   UNL A   1      34.252  18.169  24.596  1.00  0.00    -0.456 OA
BRANCH  15  16
ATOM     16  C   UNL A   1      34.124  16.739  24.396  1.00  0.00     0.104 C 
ATOM     17  C   UNL A   1      34.378  16.532  22.896  1.00  0.00     0.056 C 
ATOM     18  C   UNL A   1      32.725  16.206  24.724  1.00  0.00     0.056 C 
ATOM     19  C   UNL A   1      35.210  16.007  25.191  1.00  0.00     0.056 C 
ENDBRANCH  15  16
ENDBRANCH  13  15
ENDBRANCH   8  13
BRANCH  12  20
ATOM     20  N   UNL A   1      32.897  23.062  21.525  1.00  0.00    -0.352 N 
ATOM     21  H   UNL A   1      32.647  24.051  21.484  1.00  0.00     0.345 HD
ATOM     22  H   UNL A   1      32.500  22.577  20.721  1.00  0.00     0.345 HD
ATOM     23  H   UNL A   1      33.912  22.967  21.514  1.00  0.00     0.345 HD
ENDBRANCH  12  20
ENDBRANCH   4   7
ENDBRANCH   2   3
ENDBRANCH   1   2
BRANCH   1  24
ATOM     24  C   UNL A   1      38.987  20.116  25.945  1.00  0.00     0.118 C 
BRANCH  24  25
ATOM     25  N   UNL A   1      40.119  19.199  26.045  1.00  0.00    -0.352 N 
ATOM     26  C   UNL A   1      41.468  19.440  26.132  1.00  0.00     0.251 C 
ATOM     27  H   UNL A   1      39.874  18.246  26.052  1.00  0.00     0.163 HD
ATOM     28  O   UNL A   1      42.255  18.514  25.947  1.00  0.00    -0.269 OA
BRANCH  26  29
ATOM     29  C   UNL A   1      41.981  20.792  26.447  1.00  0.00     0.039 A 
ATOM     30  C   UNL A   1      42.182  21.703  25.404  1.00  0.00     0.014 A 
ATOM     31  C   UNL A   1      42.319  21.145  27.754  1.00  0.00     0.014 A 
ATOM     32  C   UNL A   1      42.658  22.987  25.683  1.00  0.00     0.010 A 
ATOM     33  C   UNL A   1      42.717  22.447  28.041  1.00  0.00     0.010 A 
ATOM     34  C   UNL A   1      42.898  23.380  27.009  1.00  0.00    -0.014 A 
BRANCH  34  35
ATOM     35  C   UNL A   1      43.325  24.761  27.351  1.00  0.00     0.031 A 
ATOM     36  C   UNL A   1      42.345  25.729  27.955  1.00  0.00     0.074 A 
ATOM     37  C   UNL A   1      44.561  25.174  27.007  1.00  0.00     0.049 A 
ATOM     38  N   UNL A   1      42.499  27.001  28.218  1.00  0.00    -0.248 NA
ATOM     39  C   UNL A   1      41.005  25.210  28.278  1.00  0.00     0.031 C 
ATOM     40  C   UNL A   1      45.573  24.350  26.340  1.00  0.00     0.029 A 
ATOM     41  N   UNL A   1      45.164  26.399  27.136  1.00  0.00    -0.354 N 
ATOM     42  C   UNL A   1      41.270  27.443  28.693  1.00  0.00     0.074 A 
ATOM     43  C   UNL A   1      40.371  26.310  28.657  1.00  0.00     0.031 C 
ATOM     44  C   UNL A   1      46.666  25.094  26.115  1.00  0.00     0.029 A 
ATOM     45  C   UNL A   1      46.427  26.452  26.593  1.00  0.00     0.049 A 
ATOM     46  H   UNL A   1      44.733  27.168  27.575  1.00  0.00     0.167 HD
ATOM     47  C   UNL A   1      40.927  28.673  29.147  1.00  0.00     0.034 A 
ATOM     48  C   UNL A   1      47.290  27.480  26.481  1.00  0.00     0.034 A 
ATOM     49  C   UNL A   1      41.840  29.780  29.234  1.00  0.00     0.049 A 
ATOM     50  C   UNL A   1      46.904  28.820  27.043  1.00  0.00     0.074 A 
ATOM     51  C   UNL A   1      41.620  31.036  29.772  1.00  0.00     0.029 A 
ATOM     52  N   UNL A   1      43.147  29.766  28.772  1.00  0.00    -0.354 N 
ATOM     53  N   UNL A   1      45.790  29.175  27.639  1.00  0.00    -0.248 NA
ATOM     54  C   UNL A   1      47.905  29.893  26.953  1.00  0.00     0.031 C 
ATOM     55  C   UNL A   1      42.792  31.786  29.622  1.00  0.00     0.029 A 
ATOM     56  C   UNL A   1      43.746  30.991  29.005  1.00  0.00     0.049 A 
ATOM     57  H   UNL A   1      43.585  28.997  28.340  1.00  0.00     0.167 HD
ATOM     58  C   UNL A   1      45.967  30.500  28.022  1.00  0.00     0.074 A 
ATOM     59  C   UNL A   1      47.305  30.877  27.612  1.00  0.00     0.031 C 
ATOM     60  C   UNL A   1      45.096  31.333  28.641  1.00  0.00     0.034 A 
BRANCH  47  61
ATOM     61  C   UNL A   1      39.518  28.869  29.645  1.00  0.00     0.023 A 
ATOM     62  C   UNL A   1      39.188  28.474  30.958  1.00  0.00     0.012 A 
ATOM     63  C   UNL A   1      38.541  29.491  28.844  1.00  0.00     0.148 A 
ATOM     64  C   UNL A   1      37.901  28.666  31.455  1.00  0.00     0.002 A 
ATOM     65  C   UNL A   1      37.270  29.717  29.362  1.00  0.00     0.091 A 
ATOM     66  F   UNL A   1      38.866  29.840  27.591  1.00  0.00    -0.205 F 
ATOM     67  C   UNL A   1      36.945  29.295  30.662  1.00  0.00     0.022 A 
BRANCH  65  68
ATOM     68  S   UNL A   1      35.993  30.589  28.448  1.00  0.00     0.127 S 
ATOM     69  O   UNL A   1      35.062  30.952  29.516  1.00  0.00    -0.237 OA
ATOM     70  O   UNL A   1      36.735  31.715  27.878  1.00  0.00    -0.237 OA
ATOM     71  O   UNL A   1      35.484  29.641  27.468  1.00  0.00    -0.744 OA
ENDBRANCH  65  68
ENDBRANCH  47  61
BRANCH  48  72
ATOM     72  C   UNL A   1      48.633  27.258  25.876  1.00  0.00     0.023 A 
ATOM     73  C   UNL A   1      49.678  26.767  26.683  1.00  0.00     0.012 A 
ATOM     74  C   UNL A   1      48.874  27.488  24.508  1.00  0.00     0.148 A 
ATOM     75  C   UNL A   1      50.945  26.535  26.147  1.00  0.00     0.002 A 
ATOM     76  C   UNL A   1      50.123  27.203  23.967  1.00  0.00     0.091 A 
ATOM     77  F   UNL A   1      47.871  27.969  23.758  1.00  0.00    -0.205 F 
ATOM     78  C   UNL A   1      51.164  26.742  24.787  1.00  0.00     0.022 A 
BRANCH  76  79
ATOM     79  S   UNL A   1      50.452  27.308  22.204  1.00  0.00     0.127 S 
ATOM     80  O   UNL A   1      50.261  28.734  21.948  1.00  0.00    -0.237 OA
ATOM     81  O   UNL A   1      51.838  26.846  22.124  1.00  0.00    -0.237 OA
ATOM     82  O   UNL A   1      49.489  26.413  21.574  1.00  0.00    -0.744 OA
ENDBRANCH  76  79
ENDBRANCH  48  72
BRANCH  60  83
ATOM     83  C   UNL A   1      45.564  32.733  28.939  1.00  0.00     0.023 A 
ATOM     84  C   UNL A   1      46.250  32.996  30.140  1.00  0.00     0.012 A 
ATOM     85  C   UNL A   1      45.393  33.767  27.998  1.00  0.00     0.148 A 
ATOM     86  C   UNL A   1      46.735  34.275  30.414  1.00  0.00     0.002 A 
ATOM     87  C   UNL A   1      45.918  35.028  28.257  1.00  0.00     0.091 A 
ATOM     88  F   UNL A   1      44.719  33.500  26.869  1.00  0.00    -0.205 F 
ATOM     89  C   UNL A   1      46.579  35.286  29.468  1.00  0.00     0.022 A 
BRANCH  87  90
ATOM     90  S   UNL A   1      45.845  36.362  27.056  1.00  0.00     0.127 S 
ATOM     91  O   UNL A   1      46.434  35.732  25.875  1.00  0.00    -0.237 OA
ATOM     92  O   UNL A   1      44.407  36.616  26.958  1.00  0.00    -0.237 OA
ATOM     93  O   UNL A   1      46.612  37.458  27.631  1.00  0.00    -0.744 OA
ENDBRANCH  87  90
ENDBRANCH  60  83
ENDBRANCH  34  35
ENDBRANCH  26  29
ENDBRANCH  24  25
ENDBRANCH   1  24
TORSDOF 17
ENDMDL
MODEL 3
REMARK VINA RESULT:     -11.5      3.763      9.224
REMARK SMILES CC(C)(C)OC(=O)C1=C(C(=O)NCCCNC(=O)c2ccc(-c3c4nc(c(-c5cccc(S(=O)(=O)[O-])c5F)c5ccc([nH]5)c(-c5cccc(S(=O)(=O)[O-])c5F)c5nc(c(-c6cccc(S(=O)(=O)[O-])c6F)c6ccc3[nH]6)C=C5)C=C4)cc2)C[C@@H]([NH3+])C=C1
REMARK SMILES IDX 14 1 13 2 12 3 10 4 11 5 9 7 8 8 86 9 82 10 85 11 83 12 6 13
REMARK SMILES IDX 7 14 5 15 2 16 1 17 3 18 4 19 84 20 15 24 16 25 17 26 18 28
REMARK SMILES IDX 19 29 20 30 81 31 21 32 80 33 22 34 23 35 24 36 74 37 25 38
REMARK SMILES IDX 79 39 73 40 75 41 26 42 78 43 72 44 71 45 27 47 59 48 39 49
REMARK SMILES IDX 58 50 40 51 43 52 57 53 76 54 41 55 42 56 56 58 77 59 44 60
REMARK SMILES IDX 28 61 29 62 37 63 30 64 32 65 38 66 31 67 33 68 34 69 35 70
REMARK SMILES IDX 36 71 60 72 61 73 69 74 62 75 64 76 70 77 63 78 65 79 66 80
REMARK SMILES IDX 67 81 68 82 45 83 46 84 54 85 47 86 49 87 55 88 48 89 50 90
REMARK SMILES IDX 51 91 52 92 53 93
REMARK H PARENT 12 6 84 21 84 22 84 23 16 27 75 46 43 57
REMARK Flexibility Score: inf
ROOT
ATOM      1  C   UNL A   1      33.356  28.031  27.034  1.00  0.00     0.042 C 
ENDROOT
BRANCH   1   2
ATOM      2  C   UNL A   1      31.868  28.157  27.334  1.00  0.00     0.118 C 
BRANCH   2   3
ATOM      3  N   UNL A   1      31.136  26.916  27.123  1.00  0.00    -0.352 N 
ATOM      4  C   UNL A   1      30.913  26.059  26.095  1.00  0.00     0.248 C 
ATOM      5  O   UNL A   1      30.394  24.993  26.433  1.00  0.00    -0.270 OA
ATOM      6  H   UNL A   1      30.683  26.620  27.946  1.00  0.00     0.163 HD
BRANCH   4   7
ATOM      7  C   UNL A   1      31.321  26.303  24.669  1.00  0.00     0.038 C 
ATOM      8  C   UNL A   1      32.459  25.744  24.186  1.00  0.00     0.068 C 
ATOM      9  C   UNL A   1      32.967  26.084  22.863  1.00  0.00     0.018 C 
ATOM     10  C   UNL A   1      30.519  27.241  23.805  1.00  0.00     0.111 C 
ATOM     11  C   UNL A   1      32.312  26.891  22.021  1.00  0.00     0.038 C 
ATOM     12  C   UNL A   1      30.988  27.489  22.349  1.00  0.00     0.209 C 
BRANCH   8  13
ATOM     13  C   UNL A   1      33.271  24.760  24.965  1.00  0.00     0.339 C 
ATOM     14  O   UNL A   1      34.139  25.074  25.766  1.00  0.00    -0.246 OA
BRANCH  13  15
ATOM     15  O   UNL A   1      32.796  23.518  24.697  1.00  0.00    -0.456 OA
BRANCH  15  16
ATOM     16  C   UNL A   1      33.558  22.593  23.882  1.00  0.00     0.104 C 
ATOM     17  C   UNL A   1      32.815  22.558  22.537  1.00  0.00     0.056 C 
ATOM     18  C   UNL A   1      33.586  21.170  24.450  1.00  0.00     0.056 C 
ATOM     19  C   UNL A   1      34.969  23.142  23.658  1.00  0.00     0.056 C 
ENDBRANCH  15  16
ENDBRANCH  13  15
ENDBRANCH   8  13
BRANCH  12  20
ATOM     20  N   UNL A   1      31.032  28.922  22.044  1.00  0.00    -0.352 N 
ATOM     21  H   UNL A   1      30.907  29.059  21.041  1.00  0.00     0.345 HD
ATOM     22  H   UNL A   1      31.934  29.302  22.330  1.00  0.00     0.345 HD
ATOM     23  H   UNL A   1      30.286  29.400  22.548  1.00  0.00     0.345 HD
ENDBRANCH  12  20
ENDBRANCH   4   7
ENDBRANCH   2   3
ENDBRANCH   1   2
BRANCH   1  24
ATOM     24  C   UNL A   1      33.889  29.128  26.114  1.00  0.00     0.118 C 
BRANCH  24  25
ATOM     25  N   UNL A   1      33.812  30.451  26.728  1.00  0.00    -0.352 N 
ATOM     26  C   UNL A   1      34.541  31.016  27.745  1.00  0.00     0.251 C 
ATOM     27  H   UNL A   1      33.119  31.038  26.347  1.00  0.00     0.163 HD
ATOM     28  O   UNL A   1      34.134  32.049  28.271  1.00  0.00    -0.269 OA
BRANCH  26  29
ATOM     29  C   UNL A   1      35.805  30.400  28.206  1.00  0.00     0.039 A 
ATOM     30  C   UNL A   1      36.939  30.482  27.390  1.00  0.00     0.014 A 
ATOM     31  C   UNL A   1      35.862  29.695  29.409  1.00  0.00     0.014 A 
ATOM     32  C   UNL A   1      38.143  29.912  27.814  1.00  0.00     0.010 A 
ATOM     33  C   UNL A   1      37.079  29.198  29.866  1.00  0.00     0.010 A 
ATOM     34  C   UNL A   1      38.231  29.295  29.071  1.00  0.00    -0.014 A 
BRANCH  34  35
ATOM     35  C   UNL A   1      39.513  28.753  29.589  1.00  0.00     0.031 A 
ATOM     36  C   UNL A   1      40.243  29.462  30.696  1.00  0.00     0.074 A 
ATOM     37  C   UNL A   1      40.074  27.689  28.979  1.00  0.00     0.049 A 
ATOM     38  N   UNL A   1      41.422  29.207  31.203  1.00  0.00    -0.248 NA
ATOM     39  C   UNL A   1      39.577  30.633  31.293  1.00  0.00     0.031 C 
ATOM     40  C   UNL A   1      39.502  26.968  27.841  1.00  0.00     0.029 A 
ATOM     41  N   UNL A   1      41.268  27.054  29.208  1.00  0.00    -0.354 N 
ATOM     42  C   UNL A   1      41.658  30.204  32.141  1.00  0.00     0.074 A 
ATOM     43  C   UNL A   1      40.511  31.088  32.116  1.00  0.00     0.031 C 
ATOM     44  C   UNL A   1      40.346  25.994  27.468  1.00  0.00     0.029 A 
ATOM     45  C   UNL A   1      41.531  26.037  28.319  1.00  0.00     0.049 A 
ATOM     46  H   UNL A   1      41.880  27.302  29.939  1.00  0.00     0.167 HD
ATOM     47  C   UNL A   1      42.717  30.356  32.971  1.00  0.00     0.034 A 
ATOM     48  C   UNL A   1      42.607  25.238  28.195  1.00  0.00     0.034 A 
ATOM     49  C   UNL A   1      43.827  29.444  33.032  1.00  0.00     0.049 A 
ATOM     50  C   UNL A   1      43.746  25.394  29.165  1.00  0.00     0.074 A 
ATOM     51  C   UNL A   1      44.900  29.451  33.906  1.00  0.00     0.029 A 
ATOM     52  N   UNL A   1      44.007  28.360  32.186  1.00  0.00    -0.354 N 
ATOM     53  N   UNL A   1      43.875  26.244  30.156  1.00  0.00    -0.248 NA
ATOM     54  C   UNL A   1      44.870  24.457  29.027  1.00  0.00     0.031 C 
ATOM     55  C   UNL A   1      45.736  28.378  33.578  1.00  0.00     0.029 A 
ATOM     56  C   UNL A   1      45.176  27.694  32.511  1.00  0.00     0.049 A 
ATOM     57  H   UNL A   1      43.394  28.102  31.460  1.00  0.00     0.167 HD
ATOM     58  C   UNL A   1      45.078  25.926  30.777  1.00  0.00     0.074 A 
ATOM     59  C   UNL A   1      45.627  24.789  30.066  1.00  0.00     0.031 C 
ATOM     60  C   UNL A   1      45.681  26.531  31.829  1.00  0.00     0.034 A 
BRANCH  47  61
ATOM     61  C   UNL A   1      42.698  31.520  33.928  1.00  0.00     0.023 A 
ATOM     62  C   UNL A   1      43.225  32.762  33.517  1.00  0.00     0.012 A 
ATOM     63  C   UNL A   1      42.112  31.408  35.204  1.00  0.00     0.148 A 
ATOM     64  C   UNL A   1      43.199  33.863  34.369  1.00  0.00     0.002 A 
ATOM     65  C   UNL A   1      42.052  32.522  36.033  1.00  0.00     0.091 A 
ATOM     66  F   UNL A   1      41.637  30.214  35.587  1.00  0.00    -0.205 F 
ATOM     67  C   UNL A   1      42.604  33.747  35.623  1.00  0.00     0.022 A 
BRANCH  65  68
ATOM     68  S   UNL A   1      41.238  32.494  37.635  1.00  0.00     0.127 S 
ATOM     69  O   UNL A   1      41.258  33.910  38.000  1.00  0.00    -0.237 OA
ATOM     70  O   UNL A   1      39.913  31.971  37.299  1.00  0.00    -0.237 OA
ATOM     71  O   UNL A   1      42.040  31.618  38.476  1.00  0.00    -0.744 OA
ENDBRANCH  65  68
ENDBRANCH  47  61
BRANCH  48  72
ATOM     72  C   UNL A   1      42.624  24.171  27.155  1.00  0.00     0.023 A 
ATOM     73  C   UNL A   1      43.307  24.400  25.946  1.00  0.00     0.012 A 
ATOM     74  C   UNL A   1      42.007  22.923  27.369  1.00  0.00     0.148 A 
ATOM     75  C   UNL A   1      43.354  23.418  24.956  1.00  0.00     0.002 A 
ATOM     76  C   UNL A   1      42.103  21.929  26.401  1.00  0.00     0.091 A 
ATOM     77  F   UNL A   1      41.348  22.728  28.521  1.00  0.00    -0.205 F 
ATOM     78  C   UNL A   1      42.762  22.179  25.188  1.00  0.00     0.022 A 
BRANCH  76  79
ATOM     79  S   UNL A   1      41.491  20.262  26.675  1.00  0.00     0.127 S 
ATOM     80  O   UNL A   1      40.054  20.487  26.802  1.00  0.00    -0.237 OA
ATOM     81  O   UNL A   1      41.904  19.580  25.447  1.00  0.00    -0.237 OA
ATOM     82  O   UNL A   1      42.171  19.790  27.875  1.00  0.00    -0.744 OA
ENDBRANCH  76  79
ENDBRANCH  48  72
BRANCH  60  83
ATOM     83  C   UNL A   1      46.994  25.964  32.298  1.00  0.00     0.023 A 
ATOM     84  C   UNL A   1      48.197  26.438  31.739  1.00  0.00     0.012 A 
ATOM     85  C   UNL A   1      47.041  25.020  33.343  1.00  0.00     0.148 A 
ATOM     86  C   UNL A   1      49.426  25.961  32.193  1.00  0.00     0.002 A 
ATOM     87  C   UNL A   1      48.270  24.584  33.822  1.00  0.00     0.091 A 
ATOM     88  F   UNL A   1      45.884  24.567  33.848  1.00  0.00    -0.205 F 
ATOM     89  C   UNL A   1      49.463  25.044  33.241  1.00  0.00     0.022 A 
BRANCH  87  90
ATOM     90  S   UNL A   1      48.413  23.476  35.229  1.00  0.00     0.127 S 
ATOM     91  O   UNL A   1      49.862  23.402  35.405  1.00  0.00    -0.237 OA
ATOM     92  O   UNL A   1      47.708  24.212  36.279  1.00  0.00    -0.237 OA
ATOM     93  O   UNL A   1      47.765  22.235  34.827  1.00  0.00    -0.744 OA
ENDBRANCH  87  90
ENDBRANCH  60  83
ENDBRANCH  34  35
ENDBRANCH  26  29
ENDBRANCH  24  25
ENDBRANCH   1  24
TORSDOF 17
ENDMDL
