MODEL 1
REMARK VINA RESULT:     -11.3      0.000      0.000
REMARK SMILES CC(C)[NH2+][C@]1(C(=O)NCCCNC(=O)c2ccc(-c3c4nc(c(-c5cccc(S(=O)(=O)[O-])c5F)c5ccc([nH]5)c(-c5cccc(S(=O)(=O)[O-])c5F)c5nc(c(-c6cccc(S(=O)(=O)[O-])c6F)c6ccc3[nH]6)C=C5)C=C4)cc2)CC[C@@H]([N@@H+](C)[C@@H](C)C(C)C)C1
REMARK SMILES IDX 10 1 9 2 8 3 6 4 7 5 5 7 78 8 88 9 79 10 80 11 4 12 2 15
REMARK SMILES IDX 1 16 3 17 81 18 82 19 83 21 84 22 85 23 86 24 87 25 11 26
REMARK SMILES IDX 12 27 13 28 14 30 15 31 16 32 77 33 17 34 76 35 18 36 19 37
REMARK SMILES IDX 20 38 70 39 21 40 75 41 69 42 71 43 22 44 74 45 68 46 67 47
REMARK SMILES IDX 23 49 55 50 35 51 54 52 36 53 39 54 53 55 72 56 37 57 38 58
REMARK SMILES IDX 52 60 73 61 40 62 24 63 25 64 33 65 26 66 28 67 34 68 27 69
REMARK SMILES IDX 29 70 30 71 31 72 32 73 56 74 57 75 65 76 58 77 60 78 66 79
REMARK SMILES IDX 59 80 61 81 62 82 63 83 64 84 41 85 42 86 50 87 43 88 45 89
REMARK SMILES IDX 51 90 44 91 46 92 47 93 48 94 49 95
REMARK H PARENT 8 6 4 13 4 14 81 20 12 29 71 48 39 59
REMARK Flexibility Score: inf
ROOT
ATOM      1  C   UNL A   1      32.480  29.648  24.783  1.00  0.00     0.042 C 
ENDROOT
BRANCH   1   2
ATOM      2  C   UNL A   1      33.460  28.474  24.765  1.00  0.00     0.118 C 
BRANCH   2   3
ATOM      3  N   UNL A   1      33.709  28.036  23.405  1.00  0.00    -0.351 N 
ATOM      4  C   UNL A   1      33.387  26.920  22.701  1.00  0.00     0.281 C 
ATOM      5  O   UNL A   1      33.956  26.841  21.600  1.00  0.00    -0.268 OA
ATOM      6  H   UNL A   1      34.220  28.691  22.877  1.00  0.00     0.163 HD
BRANCH   4   7
ATOM      7  C   UNL A   1      32.318  25.844  23.115  1.00  0.00     0.181 C 
ATOM      8  C   UNL A   1      32.689  24.589  22.270  1.00  0.00     0.085 C 
ATOM      9  C   UNL A   1      32.316  25.231  24.522  1.00  0.00     0.144 C 
ATOM     10  C   UNL A   1      31.978  23.407  22.910  1.00  0.00     0.072 C 
ATOM     11  C   UNL A   1      31.941  23.735  24.404  1.00  0.00     0.191 C 
BRANCH   7  12
ATOM     12  N   UNL A   1      30.966  26.289  22.682  1.00  0.00    -0.331 N 
ATOM     13  H   UNL A   1      31.089  26.883  21.862  1.00  0.00     0.347 HD
ATOM     14  H   UNL A   1      30.450  25.423  22.525  1.00  0.00     0.347 HD
BRANCH  12  15
ATOM     15  C   UNL A   1      30.152  27.035  23.644  1.00  0.00     0.176 C 
ATOM     16  C   UNL A   1      29.728  28.337  22.955  1.00  0.00     0.075 C 
ATOM     17  C   UNL A   1      28.903  26.278  24.098  1.00  0.00     0.075 C 
ENDBRANCH  12  15
ENDBRANCH   7  12
BRANCH  11  18
ATOM     18  N   UNL A   1      32.562  22.815  25.376  1.00  0.00    -0.332 N 
ATOM     19  C   UNL A   1      32.057  21.446  25.218  1.00  0.00     0.333 C 
ATOM     20  H   UNL A   1      32.243  23.281  26.225  1.00  0.00     0.348 HD
BRANCH  18  21
ATOM     21  C   UNL A   1      34.028  22.808  25.664  1.00  0.00     0.183 C 
ATOM     22  C   UNL A   1      34.410  22.494  27.115  1.00  0.00     0.075 C 
BRANCH  21  23
ATOM     23  C   UNL A   1      34.857  21.979  24.642  1.00  0.00     0.041 C 
ATOM     24  C   UNL A   1      35.661  22.908  23.717  1.00  0.00     0.013 C 
ATOM     25  C   UNL A   1      35.810  20.949  25.255  1.00  0.00     0.013 C 
ENDBRANCH  21  23
ENDBRANCH  18  21
ENDBRANCH  11  18
ENDBRANCH   4   7
ENDBRANCH   2   3
ENDBRANCH   1   2
BRANCH   1  26
ATOM     26  C   UNL A   1      31.951  30.012  26.167  1.00  0.00     0.118 C 
BRANCH  26  27
ATOM     27  N   UNL A   1      31.982  31.450  26.393  1.00  0.00    -0.352 N 
ATOM     28  C   UNL A   1      32.734  32.229  27.240  1.00  0.00     0.251 C 
ATOM     29  H   UNL A   1      31.348  31.958  25.838  1.00  0.00     0.163 HD
ATOM     30  O   UNL A   1      32.362  33.386  27.439  1.00  0.00    -0.269 OA
BRANCH  28  31
ATOM     31  C   UNL A   1      33.966  31.735  27.910  1.00  0.00     0.039 A 
ATOM     32  C   UNL A   1      34.110  30.354  28.109  1.00  0.00     0.014 A 
ATOM     33  C   UNL A   1      34.930  32.593  28.438  1.00  0.00     0.014 A 
ATOM     34  C   UNL A   1      35.220  29.845  28.795  1.00  0.00     0.010 A 
ATOM     35  C   UNL A   1      36.084  32.081  29.036  1.00  0.00     0.010 A 
ATOM     36  C   UNL A   1      36.235  30.702  29.246  1.00  0.00    -0.014 A 
BRANCH  36  37
ATOM     37  C   UNL A   1      37.441  30.190  29.954  1.00  0.00     0.031 A 
ATOM     38  C   UNL A   1      37.738  30.627  31.369  1.00  0.00     0.074 A 
ATOM     39  C   UNL A   1      38.321  29.403  29.302  1.00  0.00     0.049 A 
ATOM     40  N   UNL A   1      38.787  30.374  32.110  1.00  0.00    -0.248 NA
ATOM     41  C   UNL A   1      36.739  31.486  32.027  1.00  0.00     0.031 C 
ATOM     42  C   UNL A   1      38.190  28.959  27.914  1.00  0.00     0.029 A 
ATOM     43  N   UNL A   1      39.517  28.864  29.710  1.00  0.00    -0.354 N 
ATOM     44  C   UNL A   1      38.598  31.080  33.295  1.00  0.00     0.074 A 
ATOM     45  C   UNL A   1      37.348  31.795  33.162  1.00  0.00     0.031 C 
ATOM     46  C   UNL A   1      39.260  28.217  27.585  1.00  0.00     0.029 A 
ATOM     47  C   UNL A   1      40.173  28.165  28.722  1.00  0.00     0.049 A 
ATOM     48  H   UNL A   1      39.872  28.969  30.623  1.00  0.00     0.167 HD
ATOM     49  C   UNL A   1      39.377  31.111  34.403  1.00  0.00     0.034 A 
ATOM     50  C   UNL A   1      41.379  27.563  28.723  1.00  0.00     0.034 A 
ATOM     51  C   UNL A   1      40.593  30.358  34.554  1.00  0.00     0.049 A 
ATOM     52  C   UNL A   1      42.208  27.580  29.980  1.00  0.00     0.074 A 
ATOM     53  C   UNL A   1      41.405  30.251  35.670  1.00  0.00     0.029 A 
ATOM     54  N   UNL A   1      41.177  29.587  33.561  1.00  0.00    -0.354 N 
ATOM     55  N   UNL A   1      41.941  28.136  31.137  1.00  0.00    -0.248 NA
ATOM     56  C   UNL A   1      43.487  26.856  29.944  1.00  0.00     0.031 C 
ATOM     57  C   UNL A   1      42.495  29.437  35.342  1.00  0.00     0.029 A 
ATOM     58  C   UNL A   1      42.343  29.009  34.034  1.00  0.00     0.049 A 
ATOM     59  H   UNL A   1      40.815  29.468  32.654  1.00  0.00     0.167 HD
ATOM     60  C   UNL A   1      42.996  27.795  31.976  1.00  0.00     0.074 A 
ATOM     61  C   UNL A   1      43.899  26.971  31.199  1.00  0.00     0.031 C 
ATOM     62  C   UNL A   1      43.204  28.144  33.270  1.00  0.00     0.034 A 
BRANCH  49  63
ATOM     63  C   UNL A   1      38.915  31.954  35.566  1.00  0.00     0.023 A 
ATOM     64  C   UNL A   1      39.100  33.351  35.534  1.00  0.00     0.012 A 
ATOM     65  C   UNL A   1      38.240  31.374  36.659  1.00  0.00     0.148 A 
ATOM     66  C   UNL A   1      38.661  34.153  36.587  1.00  0.00     0.002 A 
ATOM     67  C   UNL A   1      37.762  32.185  37.683  1.00  0.00     0.091 A 
ATOM     68  F   UNL A   1      38.086  30.043  36.683  1.00  0.00    -0.205 F 
ATOM     69  C   UNL A   1      37.983  33.572  37.655  1.00  0.00     0.022 A 
BRANCH  67  70
ATOM     70  S   UNL A   1      36.803  31.544  39.059  1.00  0.00     0.127 S 
ATOM     71  O   UNL A   1      36.340  30.262  38.525  1.00  0.00    -0.237 OA
ATOM     72  O   UNL A   1      37.815  31.431  40.112  1.00  0.00    -0.237 OA
ATOM     73  O   UNL A   1      35.763  32.525  39.319  1.00  0.00    -0.744 OA
ENDBRANCH  67  70
ENDBRANCH  49  63
BRANCH  50  74
ATOM     74  C   UNL A   1      41.852  26.843  27.507  1.00  0.00     0.023 A 
ATOM     75  C   UNL A   1      42.453  27.570  26.461  1.00  0.00     0.012 A 
ATOM     76  C   UNL A   1      41.735  25.444  27.390  1.00  0.00     0.148 A 
ATOM     77  C   UNL A   1      42.900  26.923  25.308  1.00  0.00     0.002 A 
ATOM     78  C   UNL A   1      42.233  24.799  26.264  1.00  0.00     0.091 A 
ATOM     79  F   UNL A   1      41.150  24.770  28.391  1.00  0.00    -0.205 F 
ATOM     80  C   UNL A   1      42.799  25.538  25.214  1.00  0.00     0.022 A 
BRANCH  78  81
ATOM     81  S   UNL A   1      42.269  23.008  26.116  1.00  0.00     0.127 S 
ATOM     82  O   UNL A   1      42.890  22.829  24.806  1.00  0.00    -0.237 OA
ATOM     83  O   UNL A   1      43.107  22.629  27.253  1.00  0.00    -0.237 OA
ATOM     84  O   UNL A   1      40.882  22.576  26.223  1.00  0.00    -0.744 OA
ENDBRANCH  78  81
ENDBRANCH  50  74
BRANCH  62  85
ATOM     85  C   UNL A   1      44.428  27.598  33.957  1.00  0.00     0.023 A 
ATOM     86  C   UNL A   1      45.625  28.342  33.965  1.00  0.00     0.012 A 
ATOM     87  C   UNL A   1      44.367  26.380  34.662  1.00  0.00     0.148 A 
ATOM     88  C   UNL A   1      46.750  27.867  34.638  1.00  0.00     0.002 A 
ATOM     89  C   UNL A   1      45.476  25.938  35.374  1.00  0.00     0.091 A 
ATOM     90  F   UNL A   1      43.225  25.677  34.627  1.00  0.00    -0.205 F 
ATOM     91  C   UNL A   1      46.672  26.673  35.352  1.00  0.00     0.022 A 
BRANCH  89  92
ATOM     92  S   UNL A   1      45.436  24.466  36.402  1.00  0.00     0.127 S 
ATOM     93  O   UNL A   1      44.337  24.770  37.316  1.00  0.00    -0.237 OA
ATOM     94  O   UNL A   1      45.144  23.414  35.427  1.00  0.00    -0.237 OA
ATOM     95  O   UNL A   1      46.752  24.370  37.019  1.00  0.00    -0.744 OA
ENDBRANCH  89  92
ENDBRANCH  62  85
ENDBRANCH  36  37
ENDBRANCH  28  31
ENDBRANCH  26  27
ENDBRANCH   1  26
TORSDOF 18
ENDMDL
MODEL 2
REMARK VINA RESULT:     -11.0      2.469      3.371
REMARK SMILES CC(C)[NH2+][C@]1(C(=O)NCCCNC(=O)c2ccc(-c3c4nc(c(-c5cccc(S(=O)(=O)[O-])c5F)c5ccc([nH]5)c(-c5cccc(S(=O)(=O)[O-])c5F)c5nc(c(-c6cccc(S(=O)(=O)[O-])c6F)c6ccc3[nH]6)C=C5)C=C4)cc2)CC[C@@H]([N@@H+](C)[C@@H](C)C(C)C)C1
REMARK SMILES IDX 10 1 9 2 8 3 6 4 7 5 5 7 78 8 88 9 79 10 80 11 4 12 2 15
REMARK SMILES IDX 1 16 3 17 81 18 82 19 83 21 84 22 85 23 86 24 87 25 11 26
REMARK SMILES IDX 12 27 13 28 14 30 15 31 16 32 77 33 17 34 76 35 18 36 19 37
REMARK SMILES IDX 20 38 70 39 21 40 75 41 69 42 71 43 22 44 74 45 68 46 67 47
REMARK SMILES IDX 23 49 55 50 35 51 54 52 36 53 39 54 53 55 72 56 37 57 38 58
REMARK SMILES IDX 52 60 73 61 40 62 24 63 25 64 33 65 26 66 28 67 34 68 27 69
REMARK SMILES IDX 29 70 30 71 31 72 32 73 56 74 57 75 65 76 58 77 60 78 66 79
REMARK SMILES IDX 59 80 61 81 62 82 63 83 64 84 41 85 42 86 50 87 43 88 45 89
REMARK SMILES IDX 51 90 44 91 46 92 47 93 48 94 49 95
REMARK H PARENT 8 6 4 13 4 14 81 20 12 29 71 48 39 59
REMARK Flexibility Score: inf
ROOT
ATOM      1  C   UNL A   1      32.874  28.196  27.212  1.00  0.00     0.042 C 
ENDROOT
BRANCH   1   2
ATOM      2  C   UNL A   1      31.546  27.776  26.578  1.00  0.00     0.118 C 
BRANCH   2   3
ATOM      3  N   UNL A   1      31.242  26.395  26.896  1.00  0.00    -0.351 N 
ATOM      4  C   UNL A   1      31.494  25.209  26.285  1.00  0.00     0.281 C 
ATOM      5  O   UNL A   1      30.892  24.247  26.789  1.00  0.00    -0.268 OA
ATOM      6  H   UNL A   1      30.746  26.294  27.741  1.00  0.00     0.163 HD
BRANCH   4   7
ATOM      7  C   UNL A   1      32.525  24.972  25.122  1.00  0.00     0.181 C 
ATOM      8  C   UNL A   1      33.916  25.147  25.800  1.00  0.00     0.085 C 
ATOM      9  C   UNL A   1      32.704  23.584  24.493  1.00  0.00     0.144 C 
ATOM     10  C   UNL A   1      34.941  24.535  24.859  1.00  0.00     0.072 C 
ATOM     11  C   UNL A   1      34.205  23.379  24.178  1.00  0.00     0.191 C 
BRANCH   7  12
ATOM     12  N   UNL A   1      32.387  26.049  24.104  1.00  0.00    -0.331 N 
ATOM     13  H   UNL A   1      32.117  26.899  24.596  1.00  0.00     0.347 HD
ATOM     14  H   UNL A   1      33.295  26.079  23.639  1.00  0.00     0.347 HD
BRANCH  12  15
ATOM     15  C   UNL A   1      31.424  25.844  23.020  1.00  0.00     0.176 C 
ATOM     16  C   UNL A   1      30.356  26.934  23.161  1.00  0.00     0.075 C 
ATOM     17  C   UNL A   1      32.050  25.932  21.627  1.00  0.00     0.075 C 
ENDBRANCH  12  15
ENDBRANCH   7  12
BRANCH  11  18
ATOM     18  N   UNL A   1      34.727  22.002  24.295  1.00  0.00    -0.332 N 
ATOM     19  C   UNL A   1      36.194  21.984  24.306  1.00  0.00     0.333 C 
ATOM     20  H   UNL A   1      34.312  21.629  23.441  1.00  0.00     0.348 HD
BRANCH  18  21
ATOM     21  C   UNL A   1      34.178  21.006  25.262  1.00  0.00     0.183 C 
ATOM     22  C   UNL A   1      33.359  21.595  26.416  1.00  0.00     0.075 C 
BRANCH  21  23
ATOM     23  C   UNL A   1      33.460  19.807  24.579  1.00  0.00     0.041 C 
ATOM     24  C   UNL A   1      32.839  18.876  25.633  1.00  0.00     0.013 C 
ATOM     25  C   UNL A   1      32.382  20.185  23.559  1.00  0.00     0.013 C 
ENDBRANCH  21  23
ENDBRANCH  18  21
ENDBRANCH  11  18
ENDBRANCH   4   7
ENDBRANCH   2   3
ENDBRANCH   1   2
BRANCH   1  26
ATOM     26  C   UNL A   1      33.741  29.092  26.333  1.00  0.00     0.118 C 
BRANCH  26  27
ATOM     27  N   UNL A   1      33.728  30.474  26.794  1.00  0.00    -0.352 N 
ATOM     28  C   UNL A   1      34.477  31.131  27.740  1.00  0.00     0.251 C 
ATOM     29  H   UNL A   1      33.060  31.040  26.346  1.00  0.00     0.163 HD
ATOM     30  O   UNL A   1      34.071  32.223  28.138  1.00  0.00    -0.269 OA
BRANCH  28  31
ATOM     31  C   UNL A   1      35.746  30.583  28.289  1.00  0.00     0.039 A 
ATOM     32  C   UNL A   1      36.939  30.840  27.598  1.00  0.00     0.014 A 
ATOM     33  C   UNL A   1      35.781  29.740  29.400  1.00  0.00     0.014 A 
ATOM     34  C   UNL A   1      38.149  30.289  28.038  1.00  0.00     0.010 A 
ATOM     35  C   UNL A   1      37.000  29.270  29.894  1.00  0.00     0.010 A 
ATOM     36  C   UNL A   1      38.198  29.517  29.208  1.00  0.00    -0.014 A 
BRANCH  36  37
ATOM     37  C   UNL A   1      39.474  28.940  29.717  1.00  0.00     0.031 A 
ATOM     38  C   UNL A   1      40.221  29.615  30.843  1.00  0.00     0.074 A 
ATOM     39  C   UNL A   1      40.012  27.860  29.114  1.00  0.00     0.049 A 
ATOM     40  N   UNL A   1      41.393  29.324  31.350  1.00  0.00    -0.248 NA
ATOM     41  C   UNL A   1      39.581  30.788  31.461  1.00  0.00     0.031 C 
ATOM     42  C   UNL A   1      39.429  27.150  27.975  1.00  0.00     0.029 A 
ATOM     43  N   UNL A   1      41.188  27.192  29.353  1.00  0.00    -0.354 N 
ATOM     44  C   UNL A   1      41.650  30.303  32.305  1.00  0.00     0.074 A 
ATOM     45  C   UNL A   1      40.527  31.213  32.286  1.00  0.00     0.031 C 
ATOM     46  C   UNL A   1      40.246  26.148  27.615  1.00  0.00     0.029 A 
ATOM     47  C   UNL A   1      41.430  26.166  28.468  1.00  0.00     0.049 A 
ATOM     48  H   UNL A   1      41.801  27.424  30.089  1.00  0.00     0.167 HD
ATOM     49  C   UNL A   1      42.711  30.422  33.140  1.00  0.00     0.034 A 
ATOM     50  C   UNL A   1      42.490  25.343  28.343  1.00  0.00     0.034 A 
ATOM     51  C   UNL A   1      43.803  29.487  33.195  1.00  0.00     0.049 A 
ATOM     52  C   UNL A   1      43.638  25.472  29.309  1.00  0.00     0.074 A 
ATOM     53  C   UNL A   1      44.877  29.470  34.067  1.00  0.00     0.029 A 
ATOM     54  N   UNL A   1      43.964  28.408  32.341  1.00  0.00    -0.354 N 
ATOM     55  N   UNL A   1      43.793  26.318  30.298  1.00  0.00    -0.248 NA
ATOM     56  C   UNL A   1      44.740  24.509  29.166  1.00  0.00     0.031 C 
ATOM     57  C   UNL A   1      45.703  28.395  33.722  1.00  0.00     0.029 A 
ATOM     58  C   UNL A   1      45.125  27.722  32.658  1.00  0.00     0.049 A 
ATOM     59  H   UNL A   1      43.345  28.164  31.616  1.00  0.00     0.167 HD
ATOM     60  C   UNL A   1      44.987  25.965  30.918  1.00  0.00     0.074 A 
ATOM     61  C   UNL A   1      45.506  24.818  30.204  1.00  0.00     0.031 C 
ATOM     62  C   UNL A   1      45.602  26.547  31.977  1.00  0.00     0.034 A 
BRANCH  49  63
ATOM     63  C   UNL A   1      42.723  31.584  34.103  1.00  0.00     0.023 A 
ATOM     64  C   UNL A   1      43.256  32.824  33.696  1.00  0.00     0.012 A 
ATOM     65  C   UNL A   1      42.149  31.469  35.385  1.00  0.00     0.148 A 
ATOM     66  C   UNL A   1      43.257  33.918  34.560  1.00  0.00     0.002 A 
ATOM     67  C   UNL A   1      42.109  32.578  36.224  1.00  0.00     0.091 A 
ATOM     68  F   UNL A   1      41.661  30.280  35.763  1.00  0.00    -0.205 F 
ATOM     69  C   UNL A   1      42.674  33.798  35.819  1.00  0.00     0.022 A 
BRANCH  67  70
ATOM     70  S   UNL A   1      41.306  32.549  37.831  1.00  0.00     0.127 S 
ATOM     71  O   UNL A   1      41.363  33.961  38.214  1.00  0.00    -0.237 OA
ATOM     72  O   UNL A   1      39.965  32.066  37.495  1.00  0.00    -0.237 OA
ATOM     73  O   UNL A   1      42.088  31.645  38.657  1.00  0.00    -0.744 OA
ENDBRANCH  67  70
ENDBRANCH  49  63
BRANCH  50  74
ATOM     74  C   UNL A   1      42.491  24.283  27.295  1.00  0.00     0.023 A 
ATOM     75  C   UNL A   1      43.283  24.450  26.142  1.00  0.00     0.012 A 
ATOM     76  C   UNL A   1      41.735  23.104  27.442  1.00  0.00     0.148 A 
ATOM     77  C   UNL A   1      43.298  23.477  25.142  1.00  0.00     0.002 A 
ATOM     78  C   UNL A   1      41.798  22.115  26.469  1.00  0.00     0.091 A 
ATOM     79  F   UNL A   1      40.978  22.969  28.541  1.00  0.00    -0.205 F 
ATOM     80  C   UNL A   1      42.564  22.307  25.309  1.00  0.00     0.022 A 
BRANCH  78  81
ATOM     81  S   UNL A   1      40.994  20.519  26.662  1.00  0.00     0.127 S 
ATOM     82  O   UNL A   1      39.705  20.753  26.018  1.00  0.00    -0.237 OA
ATOM     83  O   UNL A   1      41.900  19.635  25.927  1.00  0.00    -0.237 OA
ATOM     84  O   UNL A   1      40.949  20.272  28.097  1.00  0.00    -0.744 OA
ENDBRANCH  78  81
ENDBRANCH  50  74
BRANCH  62  85
ATOM     85  C   UNL A   1      46.884  25.929  32.471  1.00  0.00     0.023 A 
ATOM     86  C   UNL A   1      48.124  26.391  31.986  1.00  0.00     0.012 A 
ATOM     87  C   UNL A   1      46.859  24.943  33.477  1.00  0.00     0.148 A 
ATOM     88  C   UNL A   1      49.317  25.857  32.472  1.00  0.00     0.002 A 
ATOM     89  C   UNL A   1      48.052  24.453  33.993  1.00  0.00     0.091 A 
ATOM     90  F   UNL A   1      45.669  24.503  33.912  1.00  0.00    -0.205 F 
ATOM     91  C   UNL A   1      49.283  24.899  33.484  1.00  0.00     0.022 A 
BRANCH  89  92
ATOM     92  S   UNL A   1      48.105  23.293  35.363  1.00  0.00     0.127 S 
ATOM     93  O   UNL A   1      47.562  24.098  36.457  1.00  0.00    -0.237 OA
ATOM     94  O   UNL A   1      47.222  22.223  34.899  1.00  0.00    -0.237 OA
ATOM     95  O   UNL A   1      49.501  22.904  35.509  1.00  0.00    -0.744 OA
ENDBRANCH  89  92
ENDBRANCH  62  85
ENDBRANCH  36  37
ENDBRANCH  28  31
ENDBRANCH  26  27
ENDBRANCH   1  26
TORSDOF 18
ENDMDL
MODEL 3
REMARK VINA RESULT:     -11.0      0.879      7.625
REMARK SMILES CC(C)[NH2+][C@]1(C(=O)NCCCNC(=O)c2ccc(-c3c4nc(c(-c5cccc(S(=O)(=O)[O-])c5F)c5ccc([nH]5)c(-c5cccc(S(=O)(=O)[O-])c5F)c5nc(c(-c6cccc(S(=O)(=O)[O-])c6F)c6ccc3[nH]6)C=C5)C=C4)cc2)CC[C@@H]([N@@H+](C)[C@@H](C)C(C)C)C1
REMARK SMILES IDX 10 1 9 2 8 3 6 4 7 5 5 7 78 8 88 9 79 10 80 11 4 12 2 15
REMARK SMILES IDX 1 16 3 17 81 18 82 19 83 21 84 22 85 23 86 24 87 25 11 26
REMARK SMILES IDX 12 27 13 28 14 30 15 31 16 32 77 33 17 34 76 35 18 36 19 37
REMARK SMILES IDX 20 38 70 39 21 40 75 41 69 42 71 43 22 44 74 45 68 46 67 47
REMARK SMILES IDX 23 49 55 50 35 51 54 52 36 53 39 54 53 55 72 56 37 57 38 58
REMARK SMILES IDX 52 60 73 61 40 62 24 63 25 64 33 65 26 66 28 67 34 68 27 69
REMARK SMILES IDX 29 70 30 71 31 72 32 73 56 74 57 75 65 76 58 77 60 78 66 79
REMARK SMILES IDX 59 80 61 81 62 82 63 83 64 84 41 85 42 86 50 87 43 88 45 89
REMARK SMILES IDX 51 90 44 91 46 92 47 93 48 94 49 95
REMARK H PARENT 8 6 4 13 4 14 81 20 12 29 71 48 39 59
REMARK Flexibility Score: inf
ROOT
ATOM      1  C   UNL A   1      33.028  28.927  24.514  1.00  0.00     0.042 C 
ENDROOT
BRANCH   1   2
ATOM      2  C   UNL A   1      32.051  28.745  23.351  1.00  0.00     0.118 C 
BRANCH   2   3
ATOM      3  N   UNL A   1      32.632  27.907  22.320  1.00  0.00    -0.351 N 
ATOM      4  C   UNL A   1      33.014  26.606  22.268  1.00  0.00     0.281 C 
ATOM      5  O   UNL A   1      33.653  26.312  21.244  1.00  0.00    -0.268 OA
ATOM      6  H   UNL A   1      32.779  28.387  21.472  1.00  0.00     0.163 HD
BRANCH   4   7
ATOM      7  C   UNL A   1      32.625  25.488  23.303  1.00  0.00     0.181 C 
ATOM      8  C   UNL A   1      33.116  24.165  22.643  1.00  0.00     0.085 C 
ATOM      9  C   UNL A   1      33.330  25.389  24.663  1.00  0.00     0.144 C 
ATOM     10  C   UNL A   1      33.153  23.117  23.743  1.00  0.00     0.072 C 
ATOM     11  C   UNL A   1      33.513  23.892  25.012  1.00  0.00     0.191 C 
BRANCH   7  12
ATOM     12  N   UNL A   1      31.144  25.406  23.418  1.00  0.00    -0.331 N 
ATOM     13  H   UNL A   1      30.751  25.773  22.552  1.00  0.00     0.347 HD
ATOM     14  H   UNL A   1      30.956  24.420  23.603  1.00  0.00     0.347 HD
BRANCH  12  15
ATOM     15  C   UNL A   1      30.504  26.118  24.526  1.00  0.00     0.176 C 
ATOM     16  C   UNL A   1      29.203  26.717  23.980  1.00  0.00     0.075 C 
ATOM     17  C   UNL A   1      30.180  25.218  25.719  1.00  0.00     0.075 C 
ENDBRANCH  12  15
ENDBRANCH   7  12
BRANCH  11  18
ATOM     18  N   UNL A   1      34.721  23.532  25.780  1.00  0.00    -0.332 N 
ATOM     19  C   UNL A   1      34.376  22.852  27.033  1.00  0.00     0.333 C 
ATOM     20  H   UNL A   1      35.087  24.476  25.905  1.00  0.00     0.348 HD
BRANCH  18  21
ATOM     21  C   UNL A   1      35.924  22.908  25.153  1.00  0.00     0.183 C 
ATOM     22  C   UNL A   1      37.225  23.705  25.295  1.00  0.00     0.075 C 
BRANCH  21  23
ATOM     23  C   UNL A   1      36.106  21.407  25.519  1.00  0.00     0.041 C 
ATOM     24  C   UNL A   1      34.923  20.575  25.000  1.00  0.00     0.013 C 
ATOM     25  C   UNL A   1      37.410  20.769  25.030  1.00  0.00     0.013 C 
ENDBRANCH  21  23
ENDBRANCH  18  21
ENDBRANCH  11  18
ENDBRANCH   4   7
ENDBRANCH   2   3
ENDBRANCH   1   2
BRANCH   1  26
ATOM     26  C   UNL A   1      32.370  29.226  25.857  1.00  0.00     0.118 C 
BRANCH  26  27
ATOM     27  N   UNL A   1      32.170  30.655  26.051  1.00  0.00    -0.352 N 
ATOM     28  C   UNL A   1      32.769  31.558  26.897  1.00  0.00     0.251 C 
ATOM     29  H   UNL A   1      31.479  31.047  25.470  1.00  0.00     0.163 HD
ATOM     30  O   UNL A   1      32.216  32.645  27.062  1.00  0.00    -0.269 OA
BRANCH  28  31
ATOM     31  C   UNL A   1      34.045  31.275  27.606  1.00  0.00     0.039 A 
ATOM     32  C   UNL A   1      34.315  29.955  27.995  1.00  0.00     0.014 A 
ATOM     33  C   UNL A   1      34.931  32.282  27.989  1.00  0.00     0.014 A 
ATOM     34  C   UNL A   1      35.471  29.649  28.724  1.00  0.00     0.010 A 
ATOM     35  C   UNL A   1      36.130  31.965  28.630  1.00  0.00     0.010 A 
ATOM     36  C   UNL A   1      36.407  30.648  29.029  1.00  0.00    -0.014 A 
BRANCH  36  37
ATOM     37  C   UNL A   1      37.660  30.351  29.779  1.00  0.00     0.031 A 
ATOM     38  C   UNL A   1      38.698  29.424  29.193  1.00  0.00     0.074 A 
ATOM     39  C   UNL A   1      37.830  30.840  31.024  1.00  0.00     0.049 A 
ATOM     40  N   UNL A   1      39.797  28.965  29.736  1.00  0.00    -0.248 NA
ATOM     41  C   UNL A   1      38.454  28.924  27.830  1.00  0.00     0.031 C 
ATOM     42  C   UNL A   1      36.878  31.695  31.735  1.00  0.00     0.029 A 
ATOM     43  N   UNL A   1      38.850  30.662  31.927  1.00  0.00    -0.354 N 
ATOM     44  C   UNL A   1      40.346  28.088  28.805  1.00  0.00     0.074 A 
ATOM     45  C   UNL A   1      39.443  28.056  27.676  1.00  0.00     0.031 C 
ATOM     46  C   UNL A   1      37.356  31.966  32.959  1.00  0.00     0.029 A 
ATOM     47  C   UNL A   1      38.629  31.274  33.140  1.00  0.00     0.049 A 
ATOM     48  H   UNL A   1      39.664  30.144  31.725  1.00  0.00     0.167 HD
ATOM     49  C   UNL A   1      41.506  27.391  28.871  1.00  0.00     0.034 A 
ATOM     50  C   UNL A   1      39.356  31.267  34.274  1.00  0.00     0.034 A 
ATOM     51  C   UNL A   1      42.429  27.463  29.972  1.00  0.00     0.049 A 
ATOM     52  C   UNL A   1      40.660  30.517  34.307  1.00  0.00     0.074 A 
ATOM     53  C   UNL A   1      43.673  26.868  30.092  1.00  0.00     0.029 A 
ATOM     54  N   UNL A   1      42.209  28.169  31.144  1.00  0.00    -0.354 N 
ATOM     55  N   UNL A   1      41.229  29.809  33.361  1.00  0.00    -0.248 NA
ATOM     56  C   UNL A   1      41.442  30.594  35.550  1.00  0.00     0.031 C 
ATOM     57  C   UNL A   1      44.193  27.191  31.350  1.00  0.00     0.029 A 
ATOM     58  C   UNL A   1      43.289  28.017  31.998  1.00  0.00     0.049 A 
ATOM     59  H   UNL A   1      41.405  28.700  31.340  1.00  0.00     0.167 HD
ATOM     60  C   UNL A   1      42.450  29.391  33.879  1.00  0.00     0.074 A 
ATOM     61  C   UNL A   1      42.546  29.940  35.216  1.00  0.00     0.031 C 
ATOM     62  C   UNL A   1      43.400  28.614  33.303  1.00  0.00     0.034 A 
BRANCH  49  63
ATOM     63  C   UNL A   1      41.873  26.520  27.694  1.00  0.00     0.023 A 
ATOM     64  C   UNL A   1      42.554  27.081  26.594  1.00  0.00     0.012 A 
ATOM     65  C   UNL A   1      41.601  25.137  27.703  1.00  0.00     0.148 A 
ATOM     66  C   UNL A   1      42.923  26.291  25.506  1.00  0.00     0.002 A 
ATOM     67  C   UNL A   1      42.015  24.346  26.636  1.00  0.00     0.091 A 
ATOM     68  F   UNL A   1      40.939  24.622  28.748  1.00  0.00    -0.205 F 
ATOM     69  C   UNL A   1      42.664  24.923  25.532  1.00  0.00     0.022 A 
BRANCH  67  70
ATOM     70  S   UNL A   1      41.804  22.563  26.612  1.00  0.00     0.127 S 
ATOM     71  O   UNL A   1      40.346  22.439  26.648  1.00  0.00    -0.237 OA
ATOM     72  O   UNL A   1      42.412  22.199  25.330  1.00  0.00    -0.237 OA
ATOM     73  O   UNL A   1      42.503  22.057  27.781  1.00  0.00    -0.744 OA
ENDBRANCH  67  70
ENDBRANCH  49  63
BRANCH  50  74
ATOM     74  C   UNL A   1      38.893  32.045  35.459  1.00  0.00     0.023 A 
ATOM     75  C   UNL A   1      39.040  33.446  35.468  1.00  0.00     0.012 A 
ATOM     76  C   UNL A   1      38.286  31.412  36.561  1.00  0.00     0.148 A 
ATOM     77  C   UNL A   1      38.622  34.199  36.566  1.00  0.00     0.002 A 
ATOM     78  C   UNL A   1      37.820  32.174  37.626  1.00  0.00     0.091 A 
ATOM     79  F   UNL A   1      38.164  30.077  36.539  1.00  0.00    -0.205 F 
ATOM     80  C   UNL A   1      38.003  33.564  37.640  1.00  0.00     0.022 A 
BRANCH  78  81
ATOM     81  S   UNL A   1      36.891  31.458  38.989  1.00  0.00     0.127 S 
ATOM     82  O   UNL A   1      35.715  32.324  39.037  1.00  0.00    -0.237 OA
ATOM     83  O   UNL A   1      36.639  30.102  38.501  1.00  0.00    -0.237 OA
ATOM     84  O   UNL A   1      37.774  31.525  40.145  1.00  0.00    -0.744 OA
ENDBRANCH  78  81
ENDBRANCH  50  74
BRANCH  62  85
ATOM     85  C   UNL A   1      44.658  28.345  34.087  1.00  0.00     0.023 A 
ATOM     86  C   UNL A   1      45.748  29.233  34.000  1.00  0.00     0.012 A 
ATOM     87  C   UNL A   1      44.726  27.251  34.973  1.00  0.00     0.148 A 
ATOM     88  C   UNL A   1      46.898  29.019  34.758  1.00  0.00     0.002 A 
ATOM     89  C   UNL A   1      45.855  27.073  35.763  1.00  0.00     0.091 A 
ATOM     90  F   UNL A   1      43.685  26.407  35.028  1.00  0.00    -0.205 F 
ATOM     91  C   UNL A   1      46.947  27.947  35.648  1.00  0.00     0.022 A 
BRANCH  89  92
ATOM     92  S   UNL A   1      45.965  25.782  37.007  1.00  0.00     0.127 S 
ATOM     93  O   UNL A   1      47.378  25.845  37.377  1.00  0.00    -0.237 OA
ATOM     94  O   UNL A   1      45.044  26.263  38.037  1.00  0.00    -0.237 OA
ATOM     95  O   UNL A   1      45.548  24.551  36.349  1.00  0.00    -0.744 OA
ENDBRANCH  89  92
ENDBRANCH  62  85
ENDBRANCH  36  37
ENDBRANCH  28  31
ENDBRANCH  26  27
ENDBRANCH   1  26
TORSDOF 18
ENDMDL
