MODEL 1
REMARK VINA RESULT:     -13.7      0.000      0.000
REMARK SMILES CC(C)CCn1nc(C(=O)NCCCNC(=O)c2ccc(-c3c4nc(c(-c5cccc(S(=O)(=O)[O-])c5F)c5ccc([nH]5)c(-c5cccc(S(=O)(=O)[O-])c5F)c5nc(c(-c6cccc(S(=O)(=O)[O-])c6F)c6ccc3[nH]6)C=C5)C=C4)cc2)c2c1CCN(C(=O)[C@@H]1CCc3nn(C)c(=O)n3C1)C2
REMARK SMILES IDX 13 1 12 2 11 3 9 4 10 5 8 7 6 8 7 9 82 10 81 11 83 12 99 13
REMARK SMILES IDX 84 14 85 15 5 16 4 17 2 18 1 19 3 20 86 21 87 22 88 23 89 24
REMARK SMILES IDX 98 25 90 26 97 27 91 28 95 29 92 30 93 31 96 32 94 33 14 34
REMARK SMILES IDX 15 35 16 36 17 38 18 39 19 40 80 41 20 42 79 43 21 44 22 45
REMARK SMILES IDX 23 46 73 47 24 48 78 49 72 50 74 51 25 52 77 53 71 54 70 55
REMARK SMILES IDX 26 57 58 58 38 59 57 60 39 61 42 62 56 63 75 64 40 65 41 66
REMARK SMILES IDX 55 68 76 69 43 70 27 71 28 72 36 73 29 74 31 75 37 76 30 77
REMARK SMILES IDX 32 78 33 79 34 80 35 81 59 82 60 83 68 84 61 85 63 86 69 87
REMARK SMILES IDX 62 88 64 89 65 90 66 91 67 92 44 93 45 94 53 95 46 96 48 97
REMARK SMILES IDX 54 98 47 99 49 100 50 101 51 102 52 103
REMARK H PARENT 11 6 15 37 74 56 42 67
REMARK Flexibility Score: inf
ROOT
ATOM      1  C   UNL A   1      38.825  20.392  25.340  1.00  0.00     0.042 C 
ENDROOT
BRANCH   1   2
ATOM      2  C   UNL A   1      37.870  21.578  25.516  1.00  0.00     0.118 C 
BRANCH   2   3
ATOM      3  N   UNL A   1      37.532  22.189  24.241  1.00  0.00    -0.351 N 
ATOM      4  C   UNL A   1      36.351  22.561  23.632  1.00  0.00     0.272 C 
ATOM      5  O   UNL A   1      36.496  23.212  22.593  1.00  0.00    -0.267 OA
ATOM      6  H   UNL A   1      38.323  22.382  23.689  1.00  0.00     0.163 HD
BRANCH   4   7
ATOM      7  C   UNL A   1      34.994  22.263  24.165  1.00  0.00     0.155 A 
ATOM      8  N   UNL A   1      33.409  20.964  24.840  1.00  0.00    -0.268 N 
ATOM      9  N   UNL A   1      34.619  20.966  24.259  1.00  0.00    -0.167 NA
ATOM     10  C   UNL A   1      32.876  22.211  24.911  1.00  0.00     0.046 A 
ATOM     11  C   UNL A   1      33.937  23.063  24.689  1.00  0.00     0.026 A 
ATOM     12  C   UNL A   1      31.500  22.667  25.265  1.00  0.00     0.078 C 
ATOM     13  C   UNL A   1      33.814  24.500  24.951  1.00  0.00     0.159 C 
ATOM     14  C   UNL A   1      31.421  24.201  25.099  1.00  0.00     0.126 C 
ATOM     15  N   UNL A   1      32.602  24.855  25.670  1.00  0.00    -0.338 N 
BRANCH   8  16
ATOM     16  C   UNL A   1      32.938  19.716  25.408  1.00  0.00     0.145 C 
BRANCH  16  17
ATOM     17  C   UNL A   1      32.719  18.569  24.425  1.00  0.00     0.027 C 
BRANCH  17  18
ATOM     18  C   UNL A   1      33.615  17.346  24.685  1.00  0.00    -0.016 C 
ATOM     19  C   UNL A   1      32.952  16.350  25.632  1.00  0.00     0.007 C 
ATOM     20  C   UNL A   1      33.987  16.685  23.359  1.00  0.00     0.007 C 
ENDBRANCH  17  18
ENDBRANCH  16  17
ENDBRANCH   8  16
BRANCH  15  21
ATOM     21  C   UNL A   1      32.577  26.185  26.063  1.00  0.00     0.227 C 
ATOM     22  O   UNL A   1      31.787  26.588  26.918  1.00  0.00    -0.274 OA
BRANCH  21  23
ATOM     23  C   UNL A   1      33.498  27.181  25.360  1.00  0.00     0.099 C 
ATOM     24  C   UNL A   1      33.839  28.463  26.124  1.00  0.00     0.023 C 
ATOM     25  C   UNL A   1      33.005  27.483  23.957  1.00  0.00     0.142 C 
ATOM     26  C   UNL A   1      32.737  29.517  26.122  1.00  0.00     0.078 C 
ATOM     27  N   UNL A   1      32.004  28.518  23.976  1.00  0.00    -0.278 N 
ATOM     28  C   UNL A   1      31.819  29.445  24.935  1.00  0.00     0.133 A 
ATOM     29  C   UNL A   1      30.963  28.646  23.095  1.00  0.00     0.345 A 
ATOM     30  N   UNL A   1      30.746  30.169  24.786  1.00  0.00    -0.155 NA
ATOM     31  N   UNL A   1      30.178  29.672  23.631  1.00  0.00    -0.216 N 
ATOM     32  O   UNL A   1      30.742  27.978  22.104  1.00  0.00    -0.246 OA
ATOM     33  C   UNL A   1      28.887  30.079  23.152  1.00  0.00     0.179 C 
ENDBRANCH  21  23
ENDBRANCH  15  21
ENDBRANCH   4   7
ENDBRANCH   2   3
ENDBRANCH   1   2
BRANCH   1  34
ATOM     34  C   UNL A   1      39.815  20.153  26.436  1.00  0.00     0.118 C 
BRANCH  34  35
ATOM     35  N   UNL A   1      40.938  19.304  26.003  1.00  0.00    -0.352 N 
ATOM     36  C   UNL A   1      42.228  19.723  25.681  1.00  0.00     0.251 C 
ATOM     37  H   UNL A   1      40.760  18.339  25.936  1.00  0.00     0.163 HD
ATOM     38  O   UNL A   1      42.963  19.058  24.982  1.00  0.00    -0.269 OA
BRANCH  36  39
ATOM     39  C   UNL A   1      42.646  21.027  26.227  1.00  0.00     0.039 A 
ATOM     40  C   UNL A   1      42.757  22.185  25.459  1.00  0.00     0.014 A 
ATOM     41  C   UNL A   1      42.723  21.079  27.606  1.00  0.00     0.014 A 
ATOM     42  C   UNL A   1      42.847  23.400  26.136  1.00  0.00     0.010 A 
ATOM     43  C   UNL A   1      42.368  22.246  28.201  1.00  0.00     0.010 A 
ATOM     44  C   UNL A   1      42.615  23.417  27.522  1.00  0.00    -0.014 A 
BRANCH  44  45
ATOM     45  C   UNL A   1      42.533  24.628  28.319  1.00  0.00     0.031 A 
ATOM     46  C   UNL A   1      41.255  25.345  28.140  1.00  0.00     0.074 A 
ATOM     47  C   UNL A   1      43.429  24.941  29.286  1.00  0.00     0.049 A 
ATOM     48  N   UNL A   1      41.017  26.299  27.302  1.00  0.00    -0.248 NA
ATOM     49  C   UNL A   1      40.045  24.789  28.768  1.00  0.00     0.031 C 
ATOM     50  C   UNL A   1      44.521  24.104  29.825  1.00  0.00     0.029 A 
ATOM     51  N   UNL A   1      43.492  26.038  30.088  1.00  0.00    -0.354 N 
ATOM     52  C   UNL A   1      39.714  26.688  27.586  1.00  0.00     0.074 A 
ATOM     53  C   UNL A   1      39.098  25.554  28.217  1.00  0.00     0.031 C 
ATOM     54  C   UNL A   1      44.956  24.611  30.999  1.00  0.00     0.029 A 
ATOM     55  C   UNL A   1      44.346  25.909  31.180  1.00  0.00     0.049 A 
ATOM     56  H   UNL A   1      42.976  26.857  29.910  1.00  0.00     0.167 HD
ATOM     57  C   UNL A   1      39.411  28.014  27.667  1.00  0.00     0.034 A 
ATOM     58  C   UNL A   1      44.552  26.818  32.161  1.00  0.00     0.034 A 
ATOM     59  C   UNL A   1      40.530  28.806  27.206  1.00  0.00     0.049 A 
ATOM     60  C   UNL A   1      44.170  28.133  31.607  1.00  0.00     0.074 A 
ATOM     61  C   UNL A   1      41.134  29.102  26.005  1.00  0.00     0.029 A 
ATOM     62  N   UNL A   1      41.433  29.080  28.202  1.00  0.00    -0.354 N 
ATOM     63  N   UNL A   1      44.807  28.701  30.621  1.00  0.00    -0.248 NA
ATOM     64  C   UNL A   1      42.849  28.672  31.899  1.00  0.00     0.031 C 
ATOM     65  C   UNL A   1      42.488  29.432  26.312  1.00  0.00     0.029 A 
ATOM     66  C   UNL A   1      42.667  29.380  27.693  1.00  0.00     0.049 A 
ATOM     67  H   UNL A   1      41.220  29.064  29.163  1.00  0.00     0.167 HD
ATOM     68  C   UNL A   1      43.804  29.318  29.899  1.00  0.00     0.074 A 
ATOM     69  C   UNL A   1      42.680  29.436  30.817  1.00  0.00     0.031 C 
ATOM     70  C   UNL A   1      43.844  29.357  28.537  1.00  0.00     0.034 A 
BRANCH  57  71
ATOM     71  C   UNL A   1      38.390  28.653  28.593  1.00  0.00     0.023 A 
ATOM     72  C   UNL A   1      37.409  29.468  27.980  1.00  0.00     0.012 A 
ATOM     73  C   UNL A   1      38.488  28.738  30.001  1.00  0.00     0.148 A 
ATOM     74  C   UNL A   1      36.614  30.354  28.714  1.00  0.00     0.002 A 
ATOM     75  C   UNL A   1      37.650  29.569  30.736  1.00  0.00     0.091 A 
ATOM     76  F   UNL A   1      39.475  28.119  30.648  1.00  0.00    -0.205 F 
ATOM     77  C   UNL A   1      36.732  30.403  30.097  1.00  0.00     0.022 A 
BRANCH  75  78
ATOM     78  S   UNL A   1      37.738  29.650  32.532  1.00  0.00     0.127 S 
ATOM     79  O   UNL A   1      37.477  28.262  32.899  1.00  0.00    -0.237 OA
ATOM     80  O   UNL A   1      39.115  30.101  32.738  1.00  0.00    -0.237 OA
ATOM     81  O   UNL A   1      36.728  30.620  32.933  1.00  0.00    -0.744 OA
ENDBRANCH  75  78
ENDBRANCH  57  71
BRANCH  58  82
ATOM     82  C   UNL A   1      44.905  26.652  33.585  1.00  0.00     0.023 A 
ATOM     83  C   UNL A   1      46.166  27.080  34.047  1.00  0.00     0.012 A 
ATOM     84  C   UNL A   1      43.897  26.383  34.535  1.00  0.00     0.148 A 
ATOM     85  C   UNL A   1      46.398  27.293  35.410  1.00  0.00     0.002 A 
ATOM     86  C   UNL A   1      44.130  26.605  35.889  1.00  0.00     0.091 A 
ATOM     87  F   UNL A   1      42.690  26.000  34.095  1.00  0.00    -0.205 F 
ATOM     88  C   UNL A   1      45.376  27.074  36.329  1.00  0.00     0.022 A 
BRANCH  86  89
ATOM     89  S   UNL A   1      42.852  26.402  37.138  1.00  0.00     0.127 S 
ATOM     90  O   UNL A   1      41.906  27.456  36.771  1.00  0.00    -0.237 OA
ATOM     91  O   UNL A   1      42.388  25.042  36.874  1.00  0.00    -0.237 OA
ATOM     92  O   UNL A   1      43.518  26.604  38.419  1.00  0.00    -0.744 OA
ENDBRANCH  86  89
ENDBRANCH  58  82
BRANCH  70  93
ATOM     93  C   UNL A   1      45.182  29.230  27.873  1.00  0.00     0.023 A 
ATOM     94  C   UNL A   1      46.178  30.225  27.926  1.00  0.00     0.012 A 
ATOM     95  C   UNL A   1      45.469  28.005  27.250  1.00  0.00     0.148 A 
ATOM     96  C   UNL A   1      47.436  29.997  27.356  1.00  0.00     0.002 A 
ATOM     97  C   UNL A   1      46.731  27.767  26.727  1.00  0.00     0.091 A 
ATOM     98  F   UNL A   1      44.497  27.081  27.197  1.00  0.00    -0.205 F 
ATOM     99  C   UNL A   1      47.716  28.764  26.769  1.00  0.00     0.022 A 
BRANCH  97 100
ATOM    100  S   UNL A   1      47.171  26.160  26.066  1.00  0.00     0.127 S 
ATOM    101  O   UNL A   1      46.389  26.112  24.832  1.00  0.00    -0.237 OA
ATOM    102  O   UNL A   1      48.616  26.287  25.872  1.00  0.00    -0.237 OA
ATOM    103  O   UNL A   1      46.792  25.189  27.086  1.00  0.00    -0.744 OA
ENDBRANCH  97 100
ENDBRANCH  70  93
ENDBRANCH  44  45
ENDBRANCH  36  39
ENDBRANCH  34  35
ENDBRANCH   1  34
TORSDOF 18
ENDMDL
MODEL 2
REMARK VINA RESULT:     -13.2      3.633      9.801
REMARK SMILES CC(C)CCn1nc(C(=O)NCCCNC(=O)c2ccc(-c3c4nc(c(-c5cccc(S(=O)(=O)[O-])c5F)c5ccc([nH]5)c(-c5cccc(S(=O)(=O)[O-])c5F)c5nc(c(-c6cccc(S(=O)(=O)[O-])c6F)c6ccc3[nH]6)C=C5)C=C4)cc2)c2c1CCN(C(=O)[C@@H]1CCc3nn(C)c(=O)n3C1)C2
REMARK SMILES IDX 13 1 12 2 11 3 9 4 10 5 8 7 6 8 7 9 82 10 81 11 83 12 99 13
REMARK SMILES IDX 84 14 85 15 5 16 4 17 2 18 1 19 3 20 86 21 87 22 88 23 89 24
REMARK SMILES IDX 98 25 90 26 97 27 91 28 95 29 92 30 93 31 96 32 94 33 14 34
REMARK SMILES IDX 15 35 16 36 17 38 18 39 19 40 80 41 20 42 79 43 21 44 22 45
REMARK SMILES IDX 23 46 73 47 24 48 78 49 72 50 74 51 25 52 77 53 71 54 70 55
REMARK SMILES IDX 26 57 58 58 38 59 57 60 39 61 42 62 56 63 75 64 40 65 41 66
REMARK SMILES IDX 55 68 76 69 43 70 27 71 28 72 36 73 29 74 31 75 37 76 30 77
REMARK SMILES IDX 32 78 33 79 34 80 35 81 59 82 60 83 68 84 61 85 63 86 69 87
REMARK SMILES IDX 62 88 64 89 65 90 66 91 67 92 44 93 45 94 53 95 46 96 48 97
REMARK SMILES IDX 54 98 47 99 49 100 50 101 51 102 52 103
REMARK H PARENT 11 6 15 37 74 56 42 67
REMARK Flexibility Score: inf
ROOT
ATOM      1  C   UNL A   1      32.092  31.928  26.928  1.00  0.00     0.042 C 
ENDROOT
BRANCH   1   2
ATOM      2  C   UNL A   1      32.332  30.415  26.905  1.00  0.00     0.118 C 
BRANCH   2   3
ATOM      3  N   UNL A   1      33.160  30.020  25.776  1.00  0.00    -0.351 N 
ATOM      4  C   UNL A   1      32.919  29.366  24.585  1.00  0.00     0.272 C 
ATOM      5  O   UNL A   1      33.873  29.365  23.802  1.00  0.00    -0.267 OA
ATOM      6  H   UNL A   1      34.103  30.275  25.887  1.00  0.00     0.163 HD
BRANCH   4   7
ATOM      7  C   UNL A   1      31.622  28.740  24.212  1.00  0.00     0.155 A 
ATOM      8  N   UNL A   1      29.629  28.732  23.384  1.00  0.00    -0.268 N 
ATOM      9  N   UNL A   1      30.649  29.540  23.717  1.00  0.00    -0.167 NA
ATOM     10  C   UNL A   1      29.801  27.472  23.859  1.00  0.00     0.046 A 
ATOM     11  C   UNL A   1      31.136  27.400  24.197  1.00  0.00     0.026 A 
ATOM     12  C   UNL A   1      28.859  26.317  23.928  1.00  0.00     0.078 C 
ATOM     13  C   UNL A   1      31.766  26.111  24.499  1.00  0.00     0.159 C 
ATOM     14  C   UNL A   1      29.557  25.142  24.650  1.00  0.00     0.126 C 
ATOM     15  N   UNL A   1      30.930  24.969  24.169  1.00  0.00    -0.338 N 
BRANCH   8  16
ATOM     16  C   UNL A   1      28.620  29.260  22.487  1.00  0.00     0.145 C 
BRANCH  16  17
ATOM     17  C   UNL A   1      27.668  30.295  23.081  1.00  0.00     0.027 C 
BRANCH  17  18
ATOM     18  C   UNL A   1      27.785  31.689  22.440  1.00  0.00    -0.016 C 
ATOM     19  C   UNL A   1      28.748  32.587  23.210  1.00  0.00     0.007 C 
ATOM     20  C   UNL A   1      28.204  31.553  20.977  1.00  0.00     0.007 C 
ENDBRANCH  17  18
ENDBRANCH  16  17
ENDBRANCH   8  16
BRANCH  15  21
ATOM     21  C   UNL A   1      31.596  23.758  24.296  1.00  0.00     0.227 C 
ATOM     22  O   UNL A   1      32.317  23.324  23.396  1.00  0.00    -0.274 OA
BRANCH  21  23
ATOM     23  C   UNL A   1      31.363  22.914  25.548  1.00  0.00     0.099 C 
ATOM     24  C   UNL A   1      31.864  23.494  26.873  1.00  0.00     0.023 C 
ATOM     25  C   UNL A   1      31.848  21.491  25.344  1.00  0.00     0.142 C 
ATOM     26  C   UNL A   1      33.368  23.366  27.096  1.00  0.00     0.078 C 
ATOM     27  N   UNL A   1      33.259  21.385  25.611  1.00  0.00    -0.278 N 
ATOM     28  C   UNL A   1      34.001  22.213  26.371  1.00  0.00     0.133 A 
ATOM     29  C   UNL A   1      34.127  20.510  25.014  1.00  0.00     0.345 A 
ATOM     30  N   UNL A   1      35.282  21.984  26.325  1.00  0.00    -0.155 NA
ATOM     31  N   UNL A   1      35.390  20.914  25.459  1.00  0.00    -0.216 N 
ATOM     32  O   UNL A   1      33.862  19.621  24.228  1.00  0.00    -0.246 OA
ATOM     33  C   UNL A   1      36.647  20.404  24.993  1.00  0.00     0.179 C 
ENDBRANCH  21  23
ENDBRANCH  15  21
ENDBRANCH   4   7
ENDBRANCH   2   3
ENDBRANCH   1   2
BRANCH   1  34
ATOM     34  C   UNL A   1      33.238  32.788  27.359  1.00  0.00     0.118 C 
BRANCH  34  35
ATOM     35  N   UNL A   1      32.793  34.065  27.944  1.00  0.00    -0.352 N 
ATOM     36  C   UNL A   1      33.219  34.627  29.146  1.00  0.00     0.251 C 
ATOM     37  H   UNL A   1      32.126  34.575  27.432  1.00  0.00     0.163 HD
ATOM     38  O   UNL A   1      32.554  35.450  29.742  1.00  0.00    -0.269 OA
BRANCH  36  39
ATOM     39  C   UNL A   1      34.519  34.159  29.662  1.00  0.00     0.039 A 
ATOM     40  C   UNL A   1      34.650  33.222  30.685  1.00  0.00     0.014 A 
ATOM     41  C   UNL A   1      35.614  34.556  28.918  1.00  0.00     0.014 A 
ATOM     42  C   UNL A   1      35.900  32.632  30.861  1.00  0.00     0.010 A 
ATOM     43  C   UNL A   1      36.644  33.679  28.818  1.00  0.00     0.010 A 
ATOM     44  C   UNL A   1      36.890  32.849  29.887  1.00  0.00    -0.014 A 
BRANCH  44  45
ATOM     45  C   UNL A   1      38.178  32.179  29.872  1.00  0.00     0.031 A 
ATOM     46  C   UNL A   1      38.117  30.834  29.268  1.00  0.00     0.074 A 
ATOM     47  C   UNL A   1      39.343  32.806  30.168  1.00  0.00     0.049 A 
ATOM     48  N   UNL A   1      37.937  29.717  29.890  1.00  0.00    -0.248 NA
ATOM     49  C   UNL A   1      37.988  30.728  27.805  1.00  0.00     0.031 C 
ATOM     50  C   UNL A   1      39.572  34.248  30.398  1.00  0.00     0.029 A 
ATOM     51  N   UNL A   1      40.607  32.308  30.218  1.00  0.00    -0.354 N 
ATOM     52  C   UNL A   1      38.048  28.750  28.899  1.00  0.00     0.074 A 
ATOM     53  C   UNL A   1      37.746  29.421  27.665  1.00  0.00     0.031 C 
ATOM     54  C   UNL A   1      40.890  34.527  30.309  1.00  0.00     0.029 A 
ATOM     55  C   UNL A   1      41.610  33.274  30.248  1.00  0.00     0.049 A 
ATOM     56  H   UNL A   1      40.799  31.343  30.232  1.00  0.00     0.167 HD
ATOM     57  C   UNL A   1      38.783  27.626  29.135  1.00  0.00     0.034 A 
ATOM     58  C   UNL A   1      42.945  33.058  30.241  1.00  0.00     0.034 A 
ATOM     59  C   UNL A   1      39.153  27.562  30.531  1.00  0.00     0.049 A 
ATOM     60  C   UNL A   1      43.155  31.686  30.743  1.00  0.00     0.074 A 
ATOM     61  C   UNL A   1      38.531  27.307  31.732  1.00  0.00     0.029 A 
ATOM     62  N   UNL A   1      40.320  28.230  30.803  1.00  0.00    -0.354 N 
ATOM     63  N   UNL A   1      42.864  31.323  31.962  1.00  0.00    -0.248 NA
ATOM     64  C   UNL A   1      43.353  30.601  29.792  1.00  0.00     0.031 C 
ATOM     65  C   UNL A   1      39.304  27.975  32.729  1.00  0.00     0.029 A 
ATOM     66  C   UNL A   1      40.404  28.578  32.123  1.00  0.00     0.049 A 
ATOM     67  H   UNL A   1      41.010  28.434  30.132  1.00  0.00     0.167 HD
ATOM     68  C   UNL A   1      42.390  30.034  31.813  1.00  0.00     0.074 A 
ATOM     69  C   UNL A   1      42.892  29.583  30.521  1.00  0.00     0.031 C 
ATOM     70  C   UNL A   1      41.353  29.576  32.569  1.00  0.00     0.034 A 
BRANCH  57  71
ATOM     71  C   UNL A   1      39.610  26.859  28.118  1.00  0.00     0.023 A 
ATOM     72  C   UNL A   1      39.478  25.450  28.136  1.00  0.00     0.012 A 
ATOM     73  C   UNL A   1      40.685  27.380  27.362  1.00  0.00     0.148 A 
ATOM     74  C   UNL A   1      40.390  24.610  27.489  1.00  0.00     0.002 A 
ATOM     75  C   UNL A   1      41.551  26.546  26.663  1.00  0.00     0.091 A 
ATOM     76  F   UNL A   1      40.973  28.680  27.404  1.00  0.00    -0.205 F 
ATOM     77  C   UNL A   1      41.428  25.158  26.747  1.00  0.00     0.022 A 
BRANCH  75  78
ATOM     78  S   UNL A   1      42.894  27.203  25.662  1.00  0.00     0.127 S 
ATOM     79  O   UNL A   1      43.732  27.835  26.676  1.00  0.00    -0.237 OA
ATOM     80  O   UNL A   1      43.445  25.983  25.072  1.00  0.00    -0.237 OA
ATOM     81  O   UNL A   1      42.267  28.100  24.699  1.00  0.00    -0.744 OA
ENDBRANCH  75  78
ENDBRANCH  57  71
BRANCH  58  82
ATOM     82  C   UNL A   1      44.059  33.864  29.701  1.00  0.00     0.023 A 
ATOM     83  C   UNL A   1      44.953  34.500  30.585  1.00  0.00     0.012 A 
ATOM     84  C   UNL A   1      44.431  33.735  28.346  1.00  0.00     0.148 A 
ATOM     85  C   UNL A   1      46.207  34.941  30.147  1.00  0.00     0.002 A 
ATOM     86  C   UNL A   1      45.683  34.167  27.917  1.00  0.00     0.091 A 
ATOM     87  F   UNL A   1      43.593  33.107  27.511  1.00  0.00    -0.205 F 
ATOM     88  C   UNL A   1      46.580  34.758  28.818  1.00  0.00     0.022 A 
BRANCH  86  89
ATOM     89  S   UNL A   1      46.268  33.921  26.234  1.00  0.00     0.127 S 
ATOM     90  O   UNL A   1      46.072  32.482  26.058  1.00  0.00    -0.237 OA
ATOM     91  O   UNL A   1      45.349  34.762  25.471  1.00  0.00    -0.237 OA
ATOM     92  O   UNL A   1      47.661  34.347  26.236  1.00  0.00    -0.744 OA
ENDBRANCH  86  89
ENDBRANCH  58  82
BRANCH  70  93
ATOM     93  C   UNL A   1      41.101  30.247  33.887  1.00  0.00     0.023 A 
ATOM     94  C   UNL A   1      41.957  30.129  34.999  1.00  0.00     0.012 A 
ATOM     95  C   UNL A   1      39.996  31.108  33.961  1.00  0.00     0.148 A 
ATOM     96  C   UNL A   1      41.701  30.856  36.168  1.00  0.00     0.002 A 
ATOM     97  C   UNL A   1      39.772  31.861  35.103  1.00  0.00     0.091 A 
ATOM     98  F   UNL A   1      39.186  31.188  32.893  1.00  0.00    -0.205 F 
ATOM     99  C   UNL A   1      40.617  31.732  36.215  1.00  0.00     0.022 A 
BRANCH  97 100
ATOM    100  S   UNL A   1      38.459  33.080  35.167  1.00  0.00     0.127 S 
ATOM    101  O   UNL A   1      38.691  33.712  36.465  1.00  0.00    -0.237 OA
ATOM    102  O   UNL A   1      38.762  33.926  34.011  1.00  0.00    -0.237 OA
ATOM    103  O   UNL A   1      37.212  32.335  35.046  1.00  0.00    -0.744 OA
ENDBRANCH  97 100
ENDBRANCH  70  93
ENDBRANCH  44  45
ENDBRANCH  36  39
ENDBRANCH  34  35
ENDBRANCH   1  34
TORSDOF 18
ENDMDL
MODEL 3
REMARK VINA RESULT:     -12.6      2.820      8.596
REMARK SMILES CC(C)CCn1nc(C(=O)NCCCNC(=O)c2ccc(-c3c4nc(c(-c5cccc(S(=O)(=O)[O-])c5F)c5ccc([nH]5)c(-c5cccc(S(=O)(=O)[O-])c5F)c5nc(c(-c6cccc(S(=O)(=O)[O-])c6F)c6ccc3[nH]6)C=C5)C=C4)cc2)c2c1CCN(C(=O)[C@@H]1CCc3nn(C)c(=O)n3C1)C2
REMARK SMILES IDX 13 1 12 2 11 3 9 4 10 5 8 7 6 8 7 9 82 10 81 11 83 12 99 13
REMARK SMILES IDX 84 14 85 15 5 16 4 17 2 18 1 19 3 20 86 21 87 22 88 23 89 24
REMARK SMILES IDX 98 25 90 26 97 27 91 28 95 29 92 30 93 31 96 32 94 33 14 34
REMARK SMILES IDX 15 35 16 36 17 38 18 39 19 40 80 41 20 42 79 43 21 44 22 45
REMARK SMILES IDX 23 46 73 47 24 48 78 49 72 50 74 51 25 52 77 53 71 54 70 55
REMARK SMILES IDX 26 57 58 58 38 59 57 60 39 61 42 62 56 63 75 64 40 65 41 66
REMARK SMILES IDX 55 68 76 69 43 70 27 71 28 72 36 73 29 74 31 75 37 76 30 77
REMARK SMILES IDX 32 78 33 79 34 80 35 81 59 82 60 83 68 84 61 85 63 86 69 87
REMARK SMILES IDX 62 88 64 89 65 90 66 91 67 92 44 93 45 94 53 95 46 96 48 97
REMARK SMILES IDX 54 98 47 99 49 100 50 101 51 102 52 103
REMARK H PARENT 11 6 15 37 74 56 42 67
REMARK Flexibility Score: inf
ROOT
ATOM      1  C   UNL A   1      34.959  30.227  27.572  1.00  0.00     0.042 C 
ENDROOT
BRANCH   1   2
ATOM      2  C   UNL A   1      33.560  30.503  27.010  1.00  0.00     0.118 C 
BRANCH   2   3
ATOM      3  N   UNL A   1      32.566  29.606  27.578  1.00  0.00    -0.351 N 
ATOM      4  C   UNL A   1      31.770  28.602  27.068  1.00  0.00     0.272 C 
ATOM      5  O   UNL A   1      31.161  27.949  27.922  1.00  0.00    -0.267 OA
ATOM      6  H   UNL A   1      32.432  29.747  28.542  1.00  0.00     0.163 HD
BRANCH   4   7
ATOM      7  C   UNL A   1      31.655  28.265  25.623  1.00  0.00     0.155 A 
ATOM      8  N   UNL A   1      31.094  28.644  23.574  1.00  0.00    -0.268 N 
ATOM      9  N   UNL A   1      30.981  29.124  24.822  1.00  0.00    -0.167 NA
ATOM     10  C   UNL A   1      31.607  27.386  23.556  1.00  0.00     0.046 A 
ATOM     11  C   UNL A   1      32.161  27.213  24.806  1.00  0.00     0.026 A 
ATOM     12  C   UNL A   1      31.710  26.389  22.451  1.00  0.00     0.078 C 
ATOM     13  C   UNL A   1      33.046  26.077  25.084  1.00  0.00     0.159 C 
ATOM     14  C   UNL A   1      32.305  25.078  23.012  1.00  0.00     0.126 C 
ATOM     15  N   UNL A   1      33.446  25.351  23.891  1.00  0.00    -0.338 N 
BRANCH   8  16
ATOM     16  C   UNL A   1      30.804  29.547  22.478  1.00  0.00     0.145 C 
BRANCH  16  17
ATOM     17  C   UNL A   1      29.333  29.694  22.098  1.00  0.00     0.027 C 
BRANCH  17  18
ATOM     18  C   UNL A   1      28.802  31.134  22.205  1.00  0.00    -0.016 C 
ATOM     19  C   UNL A   1      28.086  31.570  20.931  1.00  0.00     0.007 C 
ATOM     20  C   UNL A   1      27.889  31.259  23.424  1.00  0.00     0.007 C 
ENDBRANCH  17  18
ENDBRANCH  16  17
ENDBRANCH   8  16
BRANCH  15  21
ATOM     21  C   UNL A   1      34.415  24.390  24.143  1.00  0.00     0.227 C 
ATOM     22  O   UNL A   1      35.038  23.850  23.227  1.00  0.00    -0.274 OA
BRANCH  21  23
ATOM     23  C   UNL A   1      34.652  23.940  25.583  1.00  0.00     0.099 C 
ATOM     24  C   UNL A   1      36.076  23.506  25.944  1.00  0.00     0.023 C 
ATOM     25  C   UNL A   1      33.630  22.903  26.006  1.00  0.00     0.142 C 
ATOM     26  C   UNL A   1      36.453  22.106  25.470  1.00  0.00     0.078 C 
ATOM     27  N   UNL A   1      34.034  21.584  25.594  1.00  0.00    -0.278 N 
ATOM     28  C   UNL A   1      35.286  21.174  25.314  1.00  0.00     0.133 A 
ATOM     29  C   UNL A   1      33.196  20.552  25.263  1.00  0.00     0.345 A 
ATOM     30  N   UNL A   1      35.361  19.974  24.814  1.00  0.00    -0.155 NA
ATOM     31  N   UNL A   1      34.045  19.562  24.759  1.00  0.00    -0.216 N 
ATOM     32  O   UNL A   1      31.983  20.528  25.336  1.00  0.00    -0.246 OA
ATOM     33  C   UNL A   1      33.631  18.338  24.135  1.00  0.00     0.179 C 
ENDBRANCH  21  23
ENDBRANCH  15  21
ENDBRANCH   4   7
ENDBRANCH   2   3
ENDBRANCH   1   2
BRANCH   1  34
ATOM     34  C   UNL A   1      35.888  31.394  27.677  1.00  0.00     0.118 C 
BRANCH  34  35
ATOM     35  N   UNL A   1      35.459  32.363  28.701  1.00  0.00    -0.352 N 
ATOM     36  C   UNL A   1      35.676  32.278  30.075  1.00  0.00     0.251 C 
ATOM     37  H   UNL A   1      34.970  33.154  28.381  1.00  0.00     0.163 HD
ATOM     38  O   UNL A   1      34.985  32.879  30.872  1.00  0.00    -0.269 OA
BRANCH  36  39
ATOM     39  C   UNL A   1      36.784  31.407  30.509  1.00  0.00     0.039 A 
ATOM     40  C   UNL A   1      36.616  30.076  30.886  1.00  0.00     0.014 A 
ATOM     41  C   UNL A   1      38.045  31.938  30.318  1.00  0.00     0.014 A 
ATOM     42  C   UNL A   1      37.758  29.281  30.965  1.00  0.00     0.010 A 
ATOM     43  C   UNL A   1      39.034  31.074  29.974  1.00  0.00     0.010 A 
ATOM     44  C   UNL A   1      38.969  29.792  30.468  1.00  0.00    -0.014 A 
BRANCH  44  45
ATOM     45  C   UNL A   1      40.194  29.019  30.355  1.00  0.00     0.031 A 
ATOM     46  C   UNL A   1      40.829  28.759  31.661  1.00  0.00     0.074 A 
ATOM     47  C   UNL A   1      40.583  28.412  29.207  1.00  0.00     0.049 A 
ATOM     48  N   UNL A   1      41.746  29.470  32.228  1.00  0.00    -0.248 NA
ATOM     49  C   UNL A   1      40.219  27.757  32.550  1.00  0.00     0.031 C 
ATOM     50  C   UNL A   1      39.827  28.271  27.946  1.00  0.00     0.029 A 
ATOM     51  N   UNL A   1      41.702  27.683  28.949  1.00  0.00    -0.354 N 
ATOM     52  C   UNL A   1      42.064  28.764  33.381  1.00  0.00     0.074 A 
ATOM     53  C   UNL A   1      40.913  27.958  33.675  1.00  0.00     0.031 C 
ATOM     54  C   UNL A   1      40.387  27.315  27.175  1.00  0.00     0.029 A 
ATOM     55  C   UNL A   1      41.652  26.943  27.770  1.00  0.00     0.049 A 
ATOM     56  H   UNL A   1      42.484  27.680  29.545  1.00  0.00     0.167 HD
ATOM     57  C   UNL A   1      43.372  28.592  33.724  1.00  0.00     0.034 A 
ATOM     58  C   UNL A   1      42.595  26.093  27.305  1.00  0.00     0.034 A 
ATOM     59  C   UNL A   1      44.217  29.406  32.879  1.00  0.00     0.049 A 
ATOM     60  C   UNL A   1      43.871  26.490  27.934  1.00  0.00     0.074 A 
ATOM     61  C   UNL A   1      44.518  30.742  32.735  1.00  0.00     0.029 A 
ATOM     62  N   UNL A   1      44.569  28.775  31.713  1.00  0.00    -0.354 N 
ATOM     63  N   UNL A   1      44.450  27.637  27.704  1.00  0.00    -0.248 NA
ATOM     64  C   UNL A   1      44.339  25.771  29.111  1.00  0.00     0.031 C 
ATOM     65  C   UNL A   1      44.934  30.911  31.380  1.00  0.00     0.029 A 
ATOM     66  C   UNL A   1      44.928  29.672  30.744  1.00  0.00     0.049 A 
ATOM     67  H   UNL A   1      44.564  27.799  31.588  1.00  0.00     0.167 HD
ATOM     68  C   UNL A   1      44.989  27.980  28.929  1.00  0.00     0.074 A 
ATOM     69  C   UNL A   1      45.064  26.736  29.683  1.00  0.00     0.031 C 
ATOM     70  C   UNL A   1      44.996  29.275  29.353  1.00  0.00     0.034 A 
BRANCH  57  71
ATOM     71  C   UNL A   1      43.972  27.377  34.412  1.00  0.00     0.023 A 
ATOM     72  C   UNL A   1      44.862  27.638  35.481  1.00  0.00     0.012 A 
ATOM     73  C   UNL A   1      43.949  26.052  33.921  1.00  0.00     0.148 A 
ATOM     74  C   UNL A   1      45.717  26.656  35.992  1.00  0.00     0.002 A 
ATOM     75  C   UNL A   1      44.750  25.060  34.477  1.00  0.00     0.091 A 
ATOM     76  F   UNL A   1      43.252  25.748  32.827  1.00  0.00    -0.205 F 
ATOM     77  C   UNL A   1      45.659  25.362  35.492  1.00  0.00     0.022 A 
BRANCH  75  78
ATOM     78  S   UNL A   1      44.694  23.360  33.888  1.00  0.00     0.127 S 
ATOM     79  O   UNL A   1      45.857  22.782  34.554  1.00  0.00    -0.237 OA
ATOM     80  O   UNL A   1      43.398  22.915  34.401  1.00  0.00    -0.237 OA
ATOM     81  O   UNL A   1      44.762  23.443  32.435  1.00  0.00    -0.744 OA
ENDBRANCH  75  78
ENDBRANCH  57  71
BRANCH  58  82
ATOM     82  C   UNL A   1      42.486  24.871  26.482  1.00  0.00     0.023 A 
ATOM     83  C   UNL A   1      43.321  24.709  25.359  1.00  0.00     0.012 A 
ATOM     84  C   UNL A   1      41.809  23.741  26.986  1.00  0.00     0.148 A 
ATOM     85  C   UNL A   1      43.523  23.447  24.789  1.00  0.00     0.002 A 
ATOM     86  C   UNL A   1      42.020  22.486  26.422  1.00  0.00     0.091 A 
ATOM     87  F   UNL A   1      41.036  23.890  28.070  1.00  0.00    -0.205 F 
ATOM     88  C   UNL A   1      42.889  22.333  25.332  1.00  0.00     0.022 A 
BRANCH  86  89
ATOM     89  S   UNL A   1      41.287  20.987  27.091  1.00  0.00     0.127 S 
ATOM     90  O   UNL A   1      40.327  20.632  26.045  1.00  0.00    -0.237 OA
ATOM     91  O   UNL A   1      42.445  20.102  27.186  1.00  0.00    -0.237 OA
ATOM     92  O   UNL A   1      40.684  21.376  28.359  1.00  0.00    -0.744 OA
ENDBRANCH  86  89
ENDBRANCH  58  82
BRANCH  70  93
ATOM     93  C   UNL A   1      44.931  30.351  28.311  1.00  0.00     0.023 A 
ATOM     94  C   UNL A   1      43.730  30.809  27.736  1.00  0.00     0.012 A 
ATOM     95  C   UNL A   1      46.137  30.986  27.976  1.00  0.00     0.148 A 
ATOM     96  C   UNL A   1      43.741  31.880  26.833  1.00  0.00     0.002 A 
ATOM     97  C   UNL A   1      46.139  32.074  27.117  1.00  0.00     0.091 A 
ATOM     98  F   UNL A   1      47.270  30.518  28.524  1.00  0.00    -0.205 F 
ATOM     99  C   UNL A   1      44.943  32.520  26.535  1.00  0.00     0.022 A 
BRANCH  97 100
ATOM    100  S   UNL A   1      47.641  32.997  26.794  1.00  0.00     0.127 S 
ATOM    101  O   UNL A   1      47.218  33.909  25.732  1.00  0.00    -0.237 OA
ATOM    102  O   UNL A   1      47.898  33.638  28.085  1.00  0.00    -0.237 OA
ATOM    103  O   UNL A   1      48.644  32.011  26.411  1.00  0.00    -0.744 OA
ENDBRANCH  97 100
ENDBRANCH  70  93
ENDBRANCH  44  45
ENDBRANCH  36  39
ENDBRANCH  34  35
ENDBRANCH   1  34
TORSDOF 18
ENDMDL
