MODEL 1
REMARK VINA RESULT:     -11.0      0.000      0.000
REMARK SMILES CCCC[N@H+](CC)[C@H]1CCC[C@]([NH3+])(C(=O)NCCCNC(=O)c2ccc(-c3c4nc(c(-c5cccc(S(=O)(=O)[O-])c5F)c5ccc([nH]5)c(-c5cccc(S(=O)(=O)[O-])c5F)c5nc(c(-c6cccc(S(=O)(=O)[O-])c6F)c6ccc3[nH]6)C=C5)C=C4)cc2)C1
REMARK SMILES IDX 17 1 16 2 14 3 15 4 12 6 8 7 9 8 86 9 10 10 11 11 5 12 4 14
REMARK SMILES IDX 3 15 2 16 1 17 6 18 7 19 13 20 18 24 19 25 20 26 21 27 22 29
REMARK SMILES IDX 23 30 24 31 85 32 25 33 84 34 26 35 27 36 28 37 78 38 29 39
REMARK SMILES IDX 83 40 77 41 79 42 30 43 82 44 76 45 75 46 31 48 63 49 43 50
REMARK SMILES IDX 62 51 44 52 47 53 61 54 80 55 45 56 46 57 60 59 81 60 48 61
REMARK SMILES IDX 32 62 33 63 41 64 34 65 36 66 42 67 35 68 37 69 38 70 39 71
REMARK SMILES IDX 40 72 64 73 65 74 73 75 66 76 68 77 74 78 67 79 69 80 70 81
REMARK SMILES IDX 71 82 72 83 49 84 50 85 58 86 51 87 53 88 59 89 52 90 54 91
REMARK SMILES IDX 55 92 56 93 57 94
REMARK H PARENT 16 5 5 13 13 21 13 22 13 23 20 28 79 47 47 58
REMARK Flexibility Score: inf
ROOT
ATOM      1  C   UNL A   1      31.404  27.639  26.295  1.00  0.00     0.118 C 
ENDROOT
BRANCH   1   2
ATOM      2  N   UNL A   1      31.383  26.312  26.881  1.00  0.00    -0.351 N 
ATOM      3  C   UNL A   1      31.328  25.063  26.348  1.00  0.00     0.281 C 
ATOM      4  O   UNL A   1      31.387  24.138  27.167  1.00  0.00    -0.268 OA
ATOM      5  H   UNL A   1      31.415  26.318  27.865  1.00  0.00     0.163 HD
BRANCH   3   6
ATOM      6  C   UNL A   1      31.311  24.789  24.803  1.00  0.00     0.179 C 
ATOM      7  C   UNL A   1      33.186  23.026  24.719  1.00  0.00     0.190 C 
ATOM      8  C   UNL A   1      34.129  24.059  24.066  1.00  0.00     0.065 C 
ATOM      9  C   UNL A   1      31.712  23.362  24.389  1.00  0.00     0.144 C 
ATOM     10  C   UNL A   1      33.733  25.501  24.373  1.00  0.00     0.013 C 
ATOM     11  C   UNL A   1      32.257  25.779  24.085  1.00  0.00     0.079 C 
BRANCH   7  12
ATOM     12  N   UNL A   1      33.502  21.606  24.445  1.00  0.00    -0.333 N 
ATOM     13  H   UNL A   1      34.132  21.763  23.659  1.00  0.00     0.348 HD
BRANCH  12  14
ATOM     14  C   UNL A   1      32.389  20.790  23.938  1.00  0.00     0.262 C 
BRANCH  14  15
ATOM     15  C   UNL A   1      32.546  19.301  24.274  1.00  0.00     0.061 C 
BRANCH  15  16
ATOM     16  C   UNL A   1      32.533  18.364  23.060  1.00  0.00     0.002 C 
ATOM     17  C   UNL A   1      33.557  17.240  23.147  1.00  0.00     0.004 C 
ENDBRANCH  15  16
ENDBRANCH  14  15
ENDBRANCH  12  14
BRANCH  12  18
ATOM     18  C   UNL A   1      34.361  20.873  25.380  1.00  0.00     0.258 C 
ATOM     19  C   UNL A   1      34.472  21.432  26.791  1.00  0.00     0.071 C 
ENDBRANCH  12  18
ENDBRANCH   7  12
BRANCH   6  20
ATOM     20  N   UNL A   1      29.942  25.100  24.305  1.00  0.00    -0.345 N 
ATOM     21  H   UNL A   1      29.267  24.957  25.056  1.00  0.00     0.345 HD
ATOM     22  H   UNL A   1      29.718  24.485  23.523  1.00  0.00     0.345 HD
ATOM     23  H   UNL A   1      29.906  26.071  23.995  1.00  0.00     0.345 HD
ENDBRANCH   6  20
ENDBRANCH   3   6
ENDBRANCH   1   2
BRANCH   1  24
ATOM     24  C   UNL A   1      32.216  28.630  27.122  1.00  0.00     0.042 C 
BRANCH  24  25
ATOM     25  C   UNL A   1      33.212  29.458  26.316  1.00  0.00     0.118 C 
BRANCH  25  26
ATOM     26  N   UNL A   1      33.089  30.886  26.573  1.00  0.00    -0.352 N 
ATOM     27  C   UNL A   1      33.795  31.706  27.418  1.00  0.00     0.251 C 
ATOM     28  H   UNL A   1      32.383  31.338  26.057  1.00  0.00     0.163 HD
ATOM     29  O   UNL A   1      33.373  32.841  27.629  1.00  0.00    -0.269 OA
BRANCH  27  30
ATOM     30  C   UNL A   1      35.043  31.249  28.071  1.00  0.00     0.039 A 
ATOM     31  C   UNL A   1      35.031  30.029  28.755  1.00  0.00     0.014 A 
ATOM     32  C   UNL A   1      36.198  32.037  28.079  1.00  0.00     0.014 A 
ATOM     33  C   UNL A   1      36.182  29.586  29.412  1.00  0.00     0.010 A 
ATOM     34  C   UNL A   1      37.368  31.556  28.667  1.00  0.00     0.010 A 
ATOM     35  C   UNL A   1      37.367  30.337  29.358  1.00  0.00    -0.014 A 
BRANCH  35  36
ATOM     36  C   UNL A   1      38.602  29.859  30.034  1.00  0.00     0.031 A 
ATOM     37  C   UNL A   1      38.977  30.374  31.398  1.00  0.00     0.074 A 
ATOM     38  C   UNL A   1      39.418  29.000  29.392  1.00  0.00     0.049 A 
ATOM     39  N   UNL A   1      40.007  30.060  32.142  1.00  0.00    -0.248 NA
ATOM     40  C   UNL A   1      38.097  31.391  31.997  1.00  0.00     0.031 C 
ATOM     41  C   UNL A   1      39.215  28.497  28.032  1.00  0.00     0.029 A 
ATOM     42  N   UNL A   1      40.591  28.410  29.793  1.00  0.00    -0.354 N 
ATOM     43  C   UNL A   1      39.917  30.860  33.276  1.00  0.00     0.074 A 
ATOM     44  C   UNL A   1      38.754  31.703  33.106  1.00  0.00     0.031 C 
ATOM     45  C   UNL A   1      40.221  27.666  27.716  1.00  0.00     0.029 A 
ATOM     46  C   UNL A   1      41.149  27.589  28.840  1.00  0.00     0.049 A 
ATOM     47  H   UNL A   1      40.995  28.560  30.677  1.00  0.00     0.167 HD
ATOM     48  C   UNL A   1      40.710  30.873  34.375  1.00  0.00     0.034 A 
ATOM     49  C   UNL A   1      42.275  26.851  28.872  1.00  0.00     0.034 A 
ATOM     50  C   UNL A   1      41.839  30.002  34.564  1.00  0.00     0.049 A 
ATOM     51  C   UNL A   1      43.098  26.828  30.133  1.00  0.00     0.074 A 
ATOM     52  C   UNL A   1      42.654  29.874  35.675  1.00  0.00     0.029 A 
ATOM     53  N   UNL A   1      42.317  29.110  33.615  1.00  0.00    -0.354 N 
ATOM     54  N   UNL A   1      42.898  27.465  31.260  1.00  0.00    -0.248 NA
ATOM     55  C   UNL A   1      44.274  25.948  30.140  1.00  0.00     0.031 C 
ATOM     56  C   UNL A   1      43.634  28.915  35.393  1.00  0.00     0.029 A 
ATOM     57  C   UNL A   1      43.416  28.430  34.114  1.00  0.00     0.049 A 
ATOM     58  H   UNL A   1      41.931  28.979  32.719  1.00  0.00     0.167 HD
ATOM     59  C   UNL A   1      43.903  27.038  32.122  1.00  0.00     0.074 A 
ATOM     60  C   UNL A   1      44.690  26.065  31.393  1.00  0.00     0.031 C 
ATOM     61  C   UNL A   1      44.160  27.427  33.396  1.00  0.00     0.034 A 
BRANCH  48  62
ATOM     62  C   UNL A   1      40.344  31.819  35.491  1.00  0.00     0.023 A 
ATOM     63  C   UNL A   1      41.084  33.005  35.665  1.00  0.00     0.012 A 
ATOM     64  C   UNL A   1      39.240  31.565  36.330  1.00  0.00     0.148 A 
ATOM     65  C   UNL A   1      40.758  33.907  36.678  1.00  0.00     0.002 A 
ATOM     66  C   UNL A   1      38.894  32.490  37.308  1.00  0.00     0.091 A 
ATOM     67  F   UNL A   1      38.559  30.422  36.165  1.00  0.00    -0.205 F 
ATOM     68  C   UNL A   1      39.658  33.655  37.491  1.00  0.00     0.022 A 
BRANCH  66  69
ATOM     69  S   UNL A   1      37.448  32.296  38.357  1.00  0.00     0.127 S 
ATOM     70  O   UNL A   1      37.322  30.841  38.420  1.00  0.00    -0.237 OA
ATOM     71  O   UNL A   1      37.885  32.924  39.605  1.00  0.00    -0.237 OA
ATOM     72  O   UNL A   1      36.364  32.991  37.677  1.00  0.00    -0.744 OA
ENDBRANCH  66  69
ENDBRANCH  48  62
BRANCH  49  73
ATOM     73  C   UNL A   1      42.641  26.003  27.703  1.00  0.00     0.023 A 
ATOM     74  C   UNL A   1      43.532  26.508  26.736  1.00  0.00     0.012 A 
ATOM     75  C   UNL A   1      42.140  24.696  27.559  1.00  0.00     0.148 A 
ATOM     76  C   UNL A   1      43.889  25.741  25.627  1.00  0.00     0.002 A 
ATOM     77  C   UNL A   1      42.543  23.916  26.480  1.00  0.00     0.091 A 
ATOM     78  F   UNL A   1      41.285  24.237  28.483  1.00  0.00    -0.205 F 
ATOM     79  C   UNL A   1      43.404  24.442  25.505  1.00  0.00     0.022 A 
BRANCH  77  80
ATOM     80  S   UNL A   1      42.074  22.190  26.313  1.00  0.00     0.127 S 
ATOM     81  O   UNL A   1      42.464  21.646  27.609  1.00  0.00    -0.237 OA
ATOM     82  O   UNL A   1      40.632  22.287  26.092  1.00  0.00    -0.237 OA
ATOM     83  O   UNL A   1      42.821  21.693  25.163  1.00  0.00    -0.744 OA
ENDBRANCH  77  80
ENDBRANCH  49  73
BRANCH  61  84
ATOM     84  C   UNL A   1      45.326  26.779  34.096  1.00  0.00     0.023 A 
ATOM     85  C   UNL A   1      46.611  27.347  33.990  1.00  0.00     0.012 A 
ATOM     86  C   UNL A   1      45.141  25.636  34.898  1.00  0.00     0.148 A 
ATOM     87  C   UNL A   1      47.701  26.763  34.635  1.00  0.00     0.002 A 
ATOM     88  C   UNL A   1      46.223  25.088  35.579  1.00  0.00     0.091 A 
ATOM     89  F   UNL A   1      43.917  25.094  34.972  1.00  0.00    -0.205 F 
ATOM     90  C   UNL A   1      47.506  25.642  35.437  1.00  0.00     0.022 A 
BRANCH  88  91
ATOM     91  S   UNL A   1      46.037  23.702  36.706  1.00  0.00     0.127 S 
ATOM     92  O   UNL A   1      47.409  23.509  37.171  1.00  0.00    -0.237 OA
ATOM     93  O   UNL A   1      45.121  24.237  37.715  1.00  0.00    -0.237 OA
ATOM     94  O   UNL A   1      45.481  22.617  35.909  1.00  0.00    -0.744 OA
ENDBRANCH  88  91
ENDBRANCH  61  84
ENDBRANCH  35  36
ENDBRANCH  27  30
ENDBRANCH  25  26
ENDBRANCH  24  25
ENDBRANCH   1  24
TORSDOF 19
ENDMDL
MODEL 2
REMARK VINA RESULT:     -10.9      1.497      1.875
REMARK SMILES CCCC[N@H+](CC)[C@H]1CCC[C@]([NH3+])(C(=O)NCCCNC(=O)c2ccc(-c3c4nc(c(-c5cccc(S(=O)(=O)[O-])c5F)c5ccc([nH]5)c(-c5cccc(S(=O)(=O)[O-])c5F)c5nc(c(-c6cccc(S(=O)(=O)[O-])c6F)c6ccc3[nH]6)C=C5)C=C4)cc2)C1
REMARK SMILES IDX 17 1 16 2 14 3 15 4 12 6 8 7 9 8 86 9 10 10 11 11 5 12 4 14
REMARK SMILES IDX 3 15 2 16 1 17 6 18 7 19 13 20 18 24 19 25 20 26 21 27 22 29
REMARK SMILES IDX 23 30 24 31 85 32 25 33 84 34 26 35 27 36 28 37 78 38 29 39
REMARK SMILES IDX 83 40 77 41 79 42 30 43 82 44 76 45 75 46 31 48 63 49 43 50
REMARK SMILES IDX 62 51 44 52 47 53 61 54 80 55 45 56 46 57 60 59 81 60 48 61
REMARK SMILES IDX 32 62 33 63 41 64 34 65 36 66 42 67 35 68 37 69 38 70 39 71
REMARK SMILES IDX 40 72 64 73 65 74 73 75 66 76 68 77 74 78 67 79 69 80 70 81
REMARK SMILES IDX 71 82 72 83 49 84 50 85 58 86 51 87 53 88 59 89 52 90 54 91
REMARK SMILES IDX 55 92 56 93 57 94
REMARK H PARENT 16 5 5 13 13 21 13 22 13 23 20 28 79 47 47 58
REMARK Flexibility Score: inf
ROOT
ATOM      1  C   UNL A   1      31.749  27.449  24.325  1.00  0.00     0.118 C 
ENDROOT
BRANCH   1   2
ATOM      2  N   UNL A   1      32.588  26.566  25.113  1.00  0.00    -0.351 N 
ATOM      3  C   UNL A   1      32.584  25.223  25.320  1.00  0.00     0.281 C 
ATOM      4  O   UNL A   1      33.506  24.796  26.026  1.00  0.00    -0.268 OA
ATOM      5  H   UNL A   1      33.306  27.036  25.596  1.00  0.00     0.163 HD
BRANCH   3   6
ATOM      6  C   UNL A   1      31.564  24.251  24.629  1.00  0.00     0.179 C 
ATOM      7  C   UNL A   1      33.197  22.341  24.066  1.00  0.00     0.190 C 
ATOM      8  C   UNL A   1      33.140  22.732  22.574  1.00  0.00     0.065 C 
ATOM      9  C   UNL A   1      31.886  22.754  24.778  1.00  0.00     0.144 C 
ATOM     10  C   UNL A   1      32.742  24.190  22.357  1.00  0.00     0.013 C 
ATOM     11  C   UNL A   1      31.474  24.573  23.119  1.00  0.00     0.079 C 
BRANCH   7  12
ATOM     12  N   UNL A   1      33.557  20.933  24.347  1.00  0.00    -0.333 N 
ATOM     13  H   UNL A   1      33.748  20.654  23.385  1.00  0.00     0.348 HD
BRANCH  12  14
ATOM     14  C   UNL A   1      32.463  20.077  24.827  1.00  0.00     0.262 C 
BRANCH  14  15
ATOM     15  C   UNL A   1      32.936  18.667  25.204  1.00  0.00     0.061 C 
BRANCH  15  16
ATOM     16  C   UNL A   1      32.546  17.570  24.206  1.00  0.00     0.002 C 
ATOM     17  C   UNL A   1      33.651  17.227  23.216  1.00  0.00     0.004 C 
ENDBRANCH  15  16
ENDBRANCH  14  15
ENDBRANCH  12  14
BRANCH  12  18
ATOM     18  C   UNL A   1      34.834  20.642  25.005  1.00  0.00     0.258 C 
ATOM     19  C   UNL A   1      35.787  21.811  25.202  1.00  0.00     0.071 C 
ENDBRANCH  12  18
ENDBRANCH   7  12
BRANCH   6  20
ATOM     20  N   UNL A   1      30.215  24.541  25.189  1.00  0.00    -0.345 N 
ATOM     21  H   UNL A   1      30.172  24.222  26.156  1.00  0.00     0.345 HD
ATOM     22  H   UNL A   1      29.508  24.055  24.638  1.00  0.00     0.345 HD
ATOM     23  H   UNL A   1      30.041  25.546  25.154  1.00  0.00     0.345 HD
ENDBRANCH   6  20
ENDBRANCH   3   6
ENDBRANCH   1   2
BRANCH   1  24
ATOM     24  C   UNL A   1      31.467  28.770  25.032  1.00  0.00     0.042 C 
BRANCH  24  25
ATOM     25  C   UNL A   1      32.704  29.456  25.606  1.00  0.00     0.118 C 
BRANCH  25  26
ATOM     26  N   UNL A   1      32.456  30.845  25.967  1.00  0.00    -0.352 N 
ATOM     27  C   UNL A   1      33.028  31.632  26.934  1.00  0.00     0.251 C 
ATOM     28  H   UNL A   1      31.763  31.293  25.430  1.00  0.00     0.163 HD
ATOM     29  O   UNL A   1      32.509  32.714  27.200  1.00  0.00    -0.269 OA
BRANCH  27  30
ATOM     30  C   UNL A   1      34.249  31.204  27.655  1.00  0.00     0.039 A 
ATOM     31  C   UNL A   1      35.227  32.163  27.940  1.00  0.00     0.014 A 
ATOM     32  C   UNL A   1      34.473  29.865  27.989  1.00  0.00     0.014 A 
ATOM     33  C   UNL A   1      36.406  31.785  28.588  1.00  0.00     0.010 A 
ATOM     34  C   UNL A   1      35.613  29.504  28.706  1.00  0.00     0.010 A 
ATOM     35  C   UNL A   1      36.602  30.455  28.993  1.00  0.00    -0.014 A 
BRANCH  35  36
ATOM     36  C   UNL A   1      37.843  30.051  29.705  1.00  0.00     0.031 A 
ATOM     37  C   UNL A   1      38.128  30.559  31.094  1.00  0.00     0.074 A 
ATOM     38  C   UNL A   1      38.742  29.268  29.078  1.00  0.00     0.049 A 
ATOM     39  N   UNL A   1      39.151  30.303  31.870  1.00  0.00    -0.248 NA
ATOM     40  C   UNL A   1      37.155  31.495  31.679  1.00  0.00     0.031 C 
ATOM     41  C   UNL A   1      38.628  28.784  27.700  1.00  0.00     0.029 A 
ATOM     42  N   UNL A   1      39.940  28.755  29.511  1.00  0.00    -0.354 N 
ATOM     43  C   UNL A   1      38.961  31.067  33.017  1.00  0.00     0.074 A 
ATOM     44  C   UNL A   1      37.746  31.827  32.819  1.00  0.00     0.031 C 
ATOM     45  C   UNL A   1      39.702  28.036  27.406  1.00  0.00     0.029 A 
ATOM     46  C   UNL A   1      40.591  28.000  28.563  1.00  0.00     0.049 A 
ATOM     47  H   UNL A   1      40.299  28.913  30.413  1.00  0.00     0.167 HD
ATOM     48  C   UNL A   1      39.710  31.111  34.145  1.00  0.00     0.034 A 
ATOM     49  C   UNL A   1      41.766  27.344  28.623  1.00  0.00     0.034 A 
ATOM     50  C   UNL A   1      40.892  30.320  34.359  1.00  0.00     0.049 A 
ATOM     51  C   UNL A   1      42.541  27.351  29.914  1.00  0.00     0.074 A 
ATOM     52  C   UNL A   1      41.672  30.224  35.498  1.00  0.00     0.029 A 
ATOM     53  N   UNL A   1      41.468  29.487  33.411  1.00  0.00    -0.354 N 
ATOM     54  N   UNL A   1      42.254  27.945  31.046  1.00  0.00    -0.248 NA
ATOM     55  C   UNL A   1      43.777  26.557  29.948  1.00  0.00     0.031 C 
ATOM     56  C   UNL A   1      42.729  29.346  35.234  1.00  0.00     0.029 A 
ATOM     57  C   UNL A   1      42.594  28.876  33.937  1.00  0.00     0.049 A 
ATOM     58  H   UNL A   1      41.126  29.350  32.498  1.00  0.00     0.167 HD
ATOM     59  C   UNL A   1      43.254  27.570  31.937  1.00  0.00     0.074 A 
ATOM     60  C   UNL A   1      44.137  26.675  31.218  1.00  0.00     0.031 C 
ATOM     61  C   UNL A   1      43.436  27.947  33.227  1.00  0.00     0.034 A 
BRANCH  48  62
ATOM     62  C   UNL A   1      39.234  32.001  35.265  1.00  0.00     0.023 A 
ATOM     63  C   UNL A   1      38.307  31.501  36.202  1.00  0.00     0.012 A 
ATOM     64  C   UNL A   1      39.740  33.306  35.426  1.00  0.00     0.148 A 
ATOM     65  C   UNL A   1      37.861  32.295  37.258  1.00  0.00     0.002 A 
ATOM     66  C   UNL A   1      39.325  34.076  36.507  1.00  0.00     0.091 A 
ATOM     67  F   UNL A   1      40.605  33.775  34.515  1.00  0.00    -0.205 F 
ATOM     68  C   UNL A   1      38.378  33.577  37.416  1.00  0.00     0.022 A 
BRANCH  66  69
ATOM     69  S   UNL A   1      39.989  35.711  36.844  1.00  0.00     0.127 S 
ATOM     70  O   UNL A   1      39.309  36.055  38.092  1.00  0.00    -0.237 OA
ATOM     71  O   UNL A   1      41.421  35.440  36.986  1.00  0.00    -0.237 OA
ATOM     72  O   UNL A   1      39.639  36.531  35.693  1.00  0.00    -0.744 OA
ENDBRANCH  66  69
ENDBRANCH  48  62
BRANCH  49  73
ATOM     73  C   UNL A   1      42.236  26.553  27.452  1.00  0.00     0.023 A 
ATOM     74  C   UNL A   1      42.986  27.190  26.444  1.00  0.00     0.012 A 
ATOM     75  C   UNL A   1      41.972  25.174  27.344  1.00  0.00     0.148 A 
ATOM     76  C   UNL A   1      43.435  26.478  25.332  1.00  0.00     0.002 A 
ATOM     77  C   UNL A   1      42.470  24.459  26.260  1.00  0.00     0.091 A 
ATOM     78  F   UNL A   1      41.247  24.588  28.306  1.00  0.00    -0.205 F 
ATOM     79  C   UNL A   1      43.187  25.111  25.245  1.00  0.00     0.022 A 
BRANCH  77  80
ATOM     80  S   UNL A   1      42.313  22.674  26.133  1.00  0.00     0.127 S 
ATOM     81  O   UNL A   1      40.864  22.501  26.104  1.00  0.00    -0.237 OA
ATOM     82  O   UNL A   1      42.992  22.398  24.868  1.00  0.00    -0.237 OA
ATOM     83  O   UNL A   1      42.993  22.137  27.306  1.00  0.00    -0.744 OA
ENDBRANCH  77  80
ENDBRANCH  49  73
BRANCH  61  84
ATOM     84  C   UNL A   1      44.619  27.368  33.958  1.00  0.00     0.023 A 
ATOM     85  C   UNL A   1      45.856  28.042  33.934  1.00  0.00     0.012 A 
ATOM     86  C   UNL A   1      44.494  26.183  34.710  1.00  0.00     0.148 A 
ATOM     87  C   UNL A   1      46.961  27.523  34.608  1.00  0.00     0.002 A 
ATOM     88  C   UNL A   1      45.586  25.698  35.421  1.00  0.00     0.091 A 
ATOM     89  F   UNL A   1      43.317  25.542  34.707  1.00  0.00    -0.205 F 
ATOM     90  C   UNL A   1      46.824  26.359  35.359  1.00  0.00     0.022 A 
BRANCH  88  91
ATOM     91  S   UNL A   1      45.466  24.259  36.488  1.00  0.00     0.127 S 
ATOM     92  O   UNL A   1      45.060  23.220  35.544  1.00  0.00    -0.237 OA
ATOM     93  O   UNL A   1      46.835  24.124  36.990  1.00  0.00    -0.237 OA
ATOM     94  O   UNL A   1      44.486  24.605  37.509  1.00  0.00    -0.744 OA
ENDBRANCH  88  91
ENDBRANCH  61  84
ENDBRANCH  35  36
ENDBRANCH  27  30
ENDBRANCH  25  26
ENDBRANCH  24  25
ENDBRANCH   1  24
TORSDOF 19
ENDMDL
MODEL 3
REMARK VINA RESULT:     -10.6      2.153      2.572
REMARK SMILES CCCC[N@H+](CC)[C@H]1CCC[C@]([NH3+])(C(=O)NCCCNC(=O)c2ccc(-c3c4nc(c(-c5cccc(S(=O)(=O)[O-])c5F)c5ccc([nH]5)c(-c5cccc(S(=O)(=O)[O-])c5F)c5nc(c(-c6cccc(S(=O)(=O)[O-])c6F)c6ccc3[nH]6)C=C5)C=C4)cc2)C1
REMARK SMILES IDX 17 1 16 2 14 3 15 4 12 6 8 7 9 8 86 9 10 10 11 11 5 12 4 14
REMARK SMILES IDX 3 15 2 16 1 17 6 18 7 19 13 20 18 24 19 25 20 26 21 27 22 29
REMARK SMILES IDX 23 30 24 31 85 32 25 33 84 34 26 35 27 36 28 37 78 38 29 39
REMARK SMILES IDX 83 40 77 41 79 42 30 43 82 44 76 45 75 46 31 48 63 49 43 50
REMARK SMILES IDX 62 51 44 52 47 53 61 54 80 55 45 56 46 57 60 59 81 60 48 61
REMARK SMILES IDX 32 62 33 63 41 64 34 65 36 66 42 67 35 68 37 69 38 70 39 71
REMARK SMILES IDX 40 72 64 73 65 74 73 75 66 76 68 77 74 78 67 79 69 80 70 81
REMARK SMILES IDX 71 82 72 83 49 84 50 85 58 86 51 87 53 88 59 89 52 90 54 91
REMARK SMILES IDX 55 92 56 93 57 94
REMARK H PARENT 16 5 5 13 13 21 13 22 13 23 20 28 79 47 47 58
REMARK Flexibility Score: inf
ROOT
ATOM      1  C   UNL A   1      31.746  27.616  26.300  1.00  0.00     0.118 C 
ENDROOT
BRANCH   1   2
ATOM      2  N   UNL A   1      31.461  26.312  26.869  1.00  0.00    -0.351 N 
ATOM      3  C   UNL A   1      31.243  25.088  26.320  1.00  0.00     0.281 C 
ATOM      4  O   UNL A   1      31.084  24.168  27.131  1.00  0.00    -0.268 OA
ATOM      5  H   UNL A   1      31.418  26.315  27.852  1.00  0.00     0.163 HD
BRANCH   3   6
ATOM      6  C   UNL A   1      31.300  24.818  24.776  1.00  0.00     0.179 C 
ATOM      7  C   UNL A   1      33.132  23.007  24.785  1.00  0.00     0.190 C 
ATOM      8  C   UNL A   1      34.133  24.018  24.186  1.00  0.00     0.065 C 
ATOM      9  C   UNL A   1      31.686  23.382  24.378  1.00  0.00     0.144 C 
ATOM     10  C   UNL A   1      33.758  25.469  24.475  1.00  0.00     0.013 C 
ATOM     11  C   UNL A   1      32.307  25.785  24.111  1.00  0.00     0.079 C 
BRANCH   7  12
ATOM     12  N   UNL A   1      33.425  21.580  24.523  1.00  0.00    -0.333 N 
ATOM     13  H   UNL A   1      33.405  21.629  23.505  1.00  0.00     0.348 HD
BRANCH  12  14
ATOM     14  C   UNL A   1      32.378  20.629  24.922  1.00  0.00     0.262 C 
BRANCH  14  15
ATOM     15  C   UNL A   1      32.813  19.167  24.753  1.00  0.00     0.061 C 
BRANCH  15  16
ATOM     16  C   UNL A   1      32.544  18.573  23.364  1.00  0.00     0.002 C 
ATOM     17  C   UNL A   1      33.223  17.229  23.136  1.00  0.00     0.004 C 
ENDBRANCH  15  16
ENDBRANCH  14  15
ENDBRANCH  12  14
BRANCH  12  18
ATOM     18  C   UNL A   1      34.777  21.073  24.775  1.00  0.00     0.258 C 
ATOM     19  C   UNL A   1      35.388  21.393  26.132  1.00  0.00     0.071 C 
ENDBRANCH  12  18
ENDBRANCH   7  12
BRANCH   6  20
ATOM     20  N   UNL A   1      29.968  25.164  24.207  1.00  0.00    -0.345 N 
ATOM     21  H   UNL A   1      29.950  26.153  23.961  1.00  0.00     0.345 HD
ATOM     22  H   UNL A   1      29.243  24.972  24.898  1.00  0.00     0.345 HD
ATOM     23  H   UNL A   1      29.799  24.603  23.372  1.00  0.00     0.345 HD
ENDBRANCH   6  20
ENDBRANCH   3   6
ENDBRANCH   1   2
BRANCH   1  24
ATOM     24  C   UNL A   1      32.521  28.514  27.259  1.00  0.00     0.042 C 
BRANCH  24  25
ATOM     25  C   UNL A   1      33.748  29.182  26.644  1.00  0.00     0.118 C 
BRANCH  25  26
ATOM     26  N   UNL A   1      33.804  30.611  26.921  1.00  0.00    -0.352 N 
ATOM     27  C   UNL A   1      34.652  31.333  27.722  1.00  0.00     0.251 C 
ATOM     28  H   UNL A   1      33.119  31.147  26.458  1.00  0.00     0.163 HD
ATOM     29  O   UNL A   1      34.375  32.505  27.971  1.00  0.00    -0.269 OA
BRANCH  27  30
ATOM     30  C   UNL A   1      35.882  30.731  28.284  1.00  0.00     0.039 A 
ATOM     31  C   UNL A   1      37.121  31.203  27.840  1.00  0.00     0.014 A 
ATOM     32  C   UNL A   1      35.830  29.664  29.186  1.00  0.00     0.014 A 
ATOM     33  C   UNL A   1      38.300  30.632  28.324  1.00  0.00     0.010 A 
ATOM     34  C   UNL A   1      37.008  29.149  29.729  1.00  0.00     0.010 A 
ATOM     35  C   UNL A   1      38.255  29.611  29.287  1.00  0.00    -0.014 A 
BRANCH  35  36
ATOM     36  C   UNL A   1      39.506  29.017  29.826  1.00  0.00     0.031 A 
ATOM     37  C   UNL A   1      40.138  29.567  31.077  1.00  0.00     0.074 A 
ATOM     38  C   UNL A   1      40.105  28.013  29.155  1.00  0.00     0.049 A 
ATOM     39  N   UNL A   1      41.219  29.167  31.698  1.00  0.00    -0.248 NA
ATOM     40  C   UNL A   1      39.489  30.731  31.701  1.00  0.00     0.031 C 
ATOM     41  C   UNL A   1      39.645  27.452  27.884  1.00  0.00     0.029 A 
ATOM     42  N   UNL A   1      41.242  27.298  29.441  1.00  0.00    -0.354 N 
ATOM     43  C   UNL A   1      41.398  30.046  32.761  1.00  0.00     0.074 A 
ATOM     44  C   UNL A   1      40.335  31.025  32.679  1.00  0.00     0.031 C 
ATOM     45  C   UNL A   1      40.481  26.473  27.506  1.00  0.00     0.029 A 
ATOM     46  C   UNL A   1      41.547  26.348  28.495  1.00  0.00     0.049 A 
ATOM     47  H   UNL A   1      41.787  27.451  30.246  1.00  0.00     0.167 HD
ATOM     48  C   UNL A   1      42.338  30.025  33.735  1.00  0.00     0.034 A 
ATOM     49  C   UNL A   1      42.565  25.467  28.436  1.00  0.00     0.034 A 
ATOM     50  C   UNL A   1      43.366  29.023  33.842  1.00  0.00     0.049 A 
ATOM     51  C   UNL A   1      43.554  25.418  29.570  1.00  0.00     0.074 A 
ATOM     52  C   UNL A   1      44.312  28.861  34.838  1.00  0.00     0.029 A 
ATOM     53  N   UNL A   1      43.584  28.014  32.917  1.00  0.00    -0.354 N 
ATOM     54  N   UNL A   1      43.604  26.150  30.655  1.00  0.00    -0.248 NA
ATOM     55  C   UNL A   1      44.600  24.388  29.492  1.00  0.00     0.031 C 
ATOM     56  C   UNL A   1      45.112  27.762  34.509  1.00  0.00     0.029 A 
ATOM     57  C   UNL A   1      44.650  27.225  33.317  1.00  0.00     0.049 A 
ATOM     58  H   UNL A   1      43.058  27.876  32.097  1.00  0.00     0.167 HD
ATOM     59  C   UNL A   1      44.662  25.649  31.405  1.00  0.00     0.074 A 
ATOM     60  C   UNL A   1      45.207  24.532  30.661  1.00  0.00     0.031 C 
ATOM     61  C   UNL A   1      45.150  26.085  32.593  1.00  0.00     0.034 A 
BRANCH  48  62
ATOM     62  C   UNL A   1      42.260  31.084  34.805  1.00  0.00     0.023 A 
ATOM     63  C   UNL A   1      41.520  30.831  35.978  1.00  0.00     0.012 A 
ATOM     64  C   UNL A   1      42.958  32.302  34.679  1.00  0.00     0.148 A 
ATOM     65  C   UNL A   1      41.444  31.786  36.993  1.00  0.00     0.002 A 
ATOM     66  C   UNL A   1      42.912  33.230  35.714  1.00  0.00     0.091 A 
ATOM     67  F   UNL A   1      43.639  32.536  33.548  1.00  0.00    -0.205 F 
ATOM     68  C   UNL A   1      42.148  32.979  36.865  1.00  0.00     0.022 A 
BRANCH  66  69
ATOM     69  S   UNL A   1      43.847  34.765  35.680  1.00  0.00     0.127 S 
ATOM     70  O   UNL A   1      43.221  35.468  34.561  1.00  0.00    -0.237 OA
ATOM     71  O   UNL A   1      43.554  35.333  36.997  1.00  0.00    -0.237 OA
ATOM     72  O   UNL A   1      45.238  34.382  35.481  1.00  0.00    -0.744 OA
ENDBRANCH  66  69
ENDBRANCH  48  62
BRANCH  49  73
ATOM     73  C   UNL A   1      42.647  24.500  27.305  1.00  0.00     0.023 A 
ATOM     74  C   UNL A   1      43.333  24.869  26.131  1.00  0.00     0.012 A 
ATOM     75  C   UNL A   1      42.080  23.215  27.395  1.00  0.00     0.148 A 
ATOM     76  C   UNL A   1      43.421  23.989  25.052  1.00  0.00     0.002 A 
ATOM     77  C   UNL A   1      42.220  22.323  26.338  1.00  0.00     0.091 A 
ATOM     78  F   UNL A   1      41.423  22.887  28.516  1.00  0.00    -0.205 F 
ATOM     79  C   UNL A   1      42.876  22.713  25.160  1.00  0.00     0.022 A 
BRANCH  77  80
ATOM     80  S   UNL A   1      41.665  20.617  26.440  1.00  0.00     0.127 S 
ATOM     81  O   UNL A   1      40.233  20.752  26.193  1.00  0.00    -0.237 OA
ATOM     82  O   UNL A   1      42.421  19.987  25.359  1.00  0.00    -0.237 OA
ATOM     83  O   UNL A   1      42.040  20.164  27.774  1.00  0.00    -0.744 OA
ENDBRANCH  77  80
ENDBRANCH  49  73
BRANCH  61  84
ATOM     84  C   UNL A   1      46.316  25.333  33.181  1.00  0.00     0.023 A 
ATOM     85  C   UNL A   1      47.629  25.799  32.968  1.00  0.00     0.012 A 
ATOM     86  C   UNL A   1      46.110  24.194  33.984  1.00  0.00     0.148 A 
ATOM     87  C   UNL A   1      48.720  25.118  33.508  1.00  0.00     0.002 A 
ATOM     88  C   UNL A   1      47.199  23.550  34.560  1.00  0.00     0.091 A 
ATOM     89  F   UNL A   1      44.857  23.751  34.160  1.00  0.00    -0.205 F 
ATOM     90  C   UNL A   1      48.506  24.002  34.312  1.00  0.00     0.022 A 
BRANCH  88  91
ATOM     91  S   UNL A   1      47.001  22.163  35.684  1.00  0.00     0.127 S 
ATOM     92  O   UNL A   1      46.362  21.170  34.824  1.00  0.00    -0.237 OA
ATOM     93  O   UNL A   1      48.384  21.853  36.049  1.00  0.00    -0.237 OA
ATOM     94  O   UNL A   1      46.188  22.662  36.786  1.00  0.00    -0.744 OA
ENDBRANCH  88  91
ENDBRANCH  61  84
ENDBRANCH  35  36
ENDBRANCH  27  30
ENDBRANCH  25  26
ENDBRANCH  24  25
ENDBRANCH   1  24
TORSDOF 19
ENDMDL
