MODEL 1
REMARK VINA RESULT:     -12.3      0.000      0.000
REMARK SMILES C[C@H](Sc1ccccn1)C(=O)N[C@H](C(=O)NCCCNC(=O)c1ccc(-c2c3nc(c(-c4cccc(S(=O)(=O)[O-])c4F)c4ccc([nH]4)c(-c4cccc(S(=O)(=O)[O-])c4F)c4nc(c(-c5cccc(S(=O)(=O)[O-])c5F)c5ccc2[nH]5)C=C4)C=C3)cc1)c1ccc(F)cc1
REMARK SMILES IDX 17 1 16 2 14 3 15 4 13 6 12 7 10 8 11 9 2 11 1 12 3 13 4 14
REMARK SMILES IDX 5 15 9 16 6 17 8 18 7 19 86 20 87 21 92 22 88 23 91 24 89 25
REMARK SMILES IDX 90 26 18 27 19 28 20 29 21 30 22 32 23 33 24 34 85 35 25 36
REMARK SMILES IDX 84 37 26 38 27 39 28 40 78 41 29 42 83 43 77 44 79 45 30 46
REMARK SMILES IDX 82 47 76 48 75 49 31 51 63 52 43 53 62 54 44 55 47 56 61 57
REMARK SMILES IDX 80 58 45 59 46 60 60 62 81 63 48 64 32 65 33 66 41 67 34 68
REMARK SMILES IDX 36 69 42 70 35 71 37 72 38 73 39 74 40 75 64 76 65 77 73 78
REMARK SMILES IDX 66 79 68 80 74 81 67 82 69 83 70 84 71 85 72 86 49 87 50 88
REMARK SMILES IDX 58 89 51 90 53 91 59 92 52 93 54 94 55 95 56 96 57 97
REMARK H PARENT 16 5 12 10 20 31 79 50 47 61
REMARK Flexibility Score: inf
ROOT
ATOM      1  C   UNL A   1      32.804  27.770  24.114  1.00  0.00     0.117 C 
ENDROOT
BRANCH   1   2
ATOM      2  N   UNL A   1      32.939  27.088  22.837  1.00  0.00    -0.354 N 
ATOM      3  C   UNL A   1      33.318  25.801  22.548  1.00  0.00     0.247 C 
ATOM      4  O   UNL A   1      33.582  25.553  21.373  1.00  0.00    -0.272 OA
ATOM      5  H   UNL A   1      32.723  27.640  22.051  1.00  0.00     0.163 HD
BRANCH   3   6
ATOM      6  C   UNL A   1      33.356  24.752  23.692  1.00  0.00     0.202 C 
BRANCH   6   7
ATOM      7  N   UNL A   1      32.171  23.878  23.546  1.00  0.00    -0.340 N 
ATOM      8  C   UNL A   1      32.109  22.527  23.735  1.00  0.00     0.234 C 
ATOM      9  O   UNL A   1      31.934  21.850  22.712  1.00  0.00    -0.274 OA
ATOM     10  H   UNL A   1      31.332  24.321  23.283  1.00  0.00     0.164 HD
BRANCH   8  11
ATOM     11  C   UNL A   1      31.891  21.910  25.106  1.00  0.00     0.139 C 
ATOM     12  C   UNL A   1      30.828  22.620  25.949  1.00  0.00     0.030 C 
BRANCH  11  13
ATOM     13  S   UNL A   1      33.282  20.933  25.795  1.00  0.00    -0.093 SA
BRANCH  13  14
ATOM     14  C   UNL A   1      33.314  19.304  25.085  1.00  0.00     0.097 A 
ATOM     15  C   UNL A   1      34.497  18.811  24.539  1.00  0.00     0.035 A 
ATOM     16  N   UNL A   1      32.282  18.487  25.375  1.00  0.00    -0.250 NA
ATOM     17  C   UNL A   1      34.605  17.447  24.248  1.00  0.00     0.004 A 
ATOM     18  C   UNL A   1      32.402  17.168  25.073  1.00  0.00     0.112 A 
ATOM     19  C   UNL A   1      33.536  16.604  24.518  1.00  0.00     0.020 A 
ENDBRANCH  13  14
ENDBRANCH  11  13
ENDBRANCH   8  11
ENDBRANCH   6   7
BRANCH   6  20
ATOM     20  C   UNL A   1      34.708  24.169  24.078  1.00  0.00    -0.016 A 
ATOM     21  C   UNL A   1      35.215  24.396  25.373  1.00  0.00     0.009 A 
ATOM     22  C   UNL A   1      35.437  23.291  23.272  1.00  0.00     0.009 A 
ATOM     23  C   UNL A   1      36.410  23.802  25.804  1.00  0.00     0.039 A 
ATOM     24  C   UNL A   1      36.638  22.709  23.681  1.00  0.00     0.039 A 
ATOM     25  C   UNL A   1      37.118  22.973  24.947  1.00  0.00     0.123 A 
ATOM     26  F   UNL A   1      38.278  22.429  25.338  1.00  0.00    -0.207 F 
ENDBRANCH   6  20
ENDBRANCH   3   6
ENDBRANCH   1   2
BRANCH   1  27
ATOM     27  C   UNL A   1      34.158  28.218  24.648  1.00  0.00     0.042 C 
BRANCH  27  28
ATOM     28  C   UNL A   1      34.188  28.399  26.161  1.00  0.00     0.118 C 
BRANCH  28  29
ATOM     29  N   UNL A   1      33.830  29.751  26.574  1.00  0.00    -0.352 N 
ATOM     30  C   UNL A   1      34.452  30.582  27.474  1.00  0.00     0.251 C 
ATOM     31  H   UNL A   1      33.026  30.121  26.145  1.00  0.00     0.163 HD
ATOM     32  O   UNL A   1      33.901  31.632  27.809  1.00  0.00    -0.269 OA
BRANCH  30  33
ATOM     33  C   UNL A   1      35.756  30.210  28.060  1.00  0.00     0.039 A 
ATOM     34  C   UNL A   1      35.790  29.674  29.351  1.00  0.00     0.014 A 
ATOM     35  C   UNL A   1      36.945  30.381  27.347  1.00  0.00     0.014 A 
ATOM     36  C   UNL A   1      37.004  29.244  29.892  1.00  0.00     0.010 A 
ATOM     37  C   UNL A   1      38.138  29.870  27.852  1.00  0.00     0.010 A 
ATOM     38  C   UNL A   1      38.183  29.300  29.132  1.00  0.00    -0.014 A 
BRANCH  38  39
ATOM     39  C   UNL A   1      39.464  28.752  29.651  1.00  0.00     0.031 A 
ATOM     40  C   UNL A   1      40.194  29.449  30.770  1.00  0.00     0.074 A 
ATOM     41  C   UNL A   1      40.020  27.678  29.054  1.00  0.00     0.049 A 
ATOM     42  N   UNL A   1      41.346  29.152  31.312  1.00  0.00    -0.248 NA
ATOM     43  C   UNL A   1      39.561  30.653  31.337  1.00  0.00     0.031 C 
ATOM     44  C   UNL A   1      39.458  26.961  27.907  1.00  0.00     0.029 A 
ATOM     45  N   UNL A   1      41.199  27.018  29.308  1.00  0.00    -0.354 N 
ATOM     46  C   UNL A   1      41.598  30.149  32.246  1.00  0.00     0.074 A 
ATOM     47  C   UNL A   1      40.490  31.076  32.182  1.00  0.00     0.031 C 
ATOM     48  C   UNL A   1      40.288  25.965  27.558  1.00  0.00     0.029 A 
ATOM     49  C   UNL A   1      41.458  25.992  28.429  1.00  0.00     0.049 A 
ATOM     50  H   UNL A   1      41.800  27.258  30.049  1.00  0.00     0.167 HD
ATOM     51  C   UNL A   1      42.646  30.272  33.095  1.00  0.00     0.034 A 
ATOM     52  C   UNL A   1      42.525  25.175  28.322  1.00  0.00     0.034 A 
ATOM     53  C   UNL A   1      43.723  29.325  33.190  1.00  0.00     0.049 A 
ATOM     54  C   UNL A   1      43.653  25.310  29.309  1.00  0.00     0.074 A 
ATOM     55  C   UNL A   1      44.769  29.303  34.095  1.00  0.00     0.029 A 
ATOM     56  N   UNL A   1      43.907  28.246  32.341  1.00  0.00    -0.354 N 
ATOM     57  N   UNL A   1      43.782  26.154  30.304  1.00  0.00    -0.248 NA
ATOM     58  C   UNL A   1      44.766  24.358  29.183  1.00  0.00     0.031 C 
ATOM     59  C   UNL A   1      45.609  28.236  33.768  1.00  0.00     0.029 A 
ATOM     60  C   UNL A   1      45.061  27.565  32.687  1.00  0.00     0.049 A 
ATOM     61  H   UNL A   1      43.305  27.999  31.602  1.00  0.00     0.167 HD
ATOM     62  C   UNL A   1      44.967  25.810  30.944  1.00  0.00     0.074 A 
ATOM     63  C   UNL A   1      45.506  24.667  30.238  1.00  0.00     0.031 C 
ATOM     64  C   UNL A   1      45.562  26.395  32.011  1.00  0.00     0.034 A 
BRANCH  51  65
ATOM     65  C   UNL A   1      42.670  31.460  34.023  1.00  0.00     0.023 A 
ATOM     66  C   UNL A   1      43.221  32.681  33.585  1.00  0.00     0.012 A 
ATOM     67  C   UNL A   1      42.068  31.389  35.294  1.00  0.00     0.148 A 
ATOM     68  C   UNL A   1      43.200  33.805  34.410  1.00  0.00     0.002 A 
ATOM     69  C   UNL A   1      42.006  32.526  36.090  1.00  0.00     0.091 A 
ATOM     70  F   UNL A   1      41.566  30.214  35.698  1.00  0.00    -0.205 F 
ATOM     71  C   UNL A   1      42.582  33.731  35.656  1.00  0.00     0.022 A 
BRANCH  69  72
ATOM     72  S   UNL A   1      41.156  32.557  37.672  1.00  0.00     0.127 S 
ATOM     73  O   UNL A   1      41.185  33.983  37.995  1.00  0.00    -0.237 OA
ATOM     74  O   UNL A   1      39.834  32.038  37.318  1.00  0.00    -0.237 OA
ATOM     75  O   UNL A   1      41.928  31.701  38.563  1.00  0.00    -0.744 OA
ENDBRANCH  69  72
ENDBRANCH  51  65
BRANCH  52  76
ATOM     76  C   UNL A   1      42.564  24.126  27.263  1.00  0.00     0.023 A 
ATOM     77  C   UNL A   1      43.202  24.397  26.037  1.00  0.00     0.012 A 
ATOM     78  C   UNL A   1      41.973  22.864  27.464  1.00  0.00     0.148 A 
ATOM     79  C   UNL A   1      43.211  23.447  25.014  1.00  0.00     0.002 A 
ATOM     80  C   UNL A   1      42.038  21.901  26.464  1.00  0.00     0.091 A 
ATOM     81  F   UNL A   1      41.360  22.627  28.633  1.00  0.00    -0.205 F 
ATOM     82  C   UNL A   1      42.637  22.197  25.230  1.00  0.00     0.022 A 
BRANCH  80  83
ATOM     83  S   UNL A   1      41.446  20.223  26.707  1.00  0.00     0.127 S 
ATOM     84  O   UNL A   1      40.015  20.435  26.907  1.00  0.00    -0.237 OA
ATOM     85  O   UNL A   1      41.804  19.589  25.437  1.00  0.00    -0.237 OA
ATOM     86  O   UNL A   1      42.180  19.711  27.856  1.00  0.00    -0.744 OA
ENDBRANCH  80  83
ENDBRANCH  52  76
BRANCH  64  87
ATOM     87  C   UNL A   1      46.842  25.786  32.525  1.00  0.00     0.023 A 
ATOM     88  C   UNL A   1      46.817  24.922  33.637  1.00  0.00     0.012 A 
ATOM     89  C   UNL A   1      48.060  26.017  31.854  1.00  0.00     0.148 A 
ATOM     90  C   UNL A   1      47.993  24.327  34.097  1.00  0.00     0.002 A 
ATOM     91  C   UNL A   1      49.215  25.378  32.284  1.00  0.00     0.091 A 
ATOM     92  F   UNL A   1      48.065  26.856  30.808  1.00  0.00    -0.205 F 
ATOM     93  C   UNL A   1      49.186  24.544  33.414  1.00  0.00     0.022 A 
BRANCH  91  94
ATOM     94  S   UNL A   1      50.777  25.517  31.407  1.00  0.00     0.127 S 
ATOM     95  O   UNL A   1      51.609  24.555  32.127  1.00  0.00    -0.237 OA
ATOM     96  O   UNL A   1      50.407  25.108  30.051  1.00  0.00    -0.237 OA
ATOM     97  O   UNL A   1      51.184  26.910  31.529  1.00  0.00    -0.744 OA
ENDBRANCH  91  94
ENDBRANCH  64  87
ENDBRANCH  38  39
ENDBRANCH  30  33
ENDBRANCH  28  29
ENDBRANCH  27  28
ENDBRANCH   1  27
TORSDOF 18
ENDMDL
MODEL 2
REMARK VINA RESULT:     -11.8      2.402      4.231
REMARK SMILES C[C@H](Sc1ccccn1)C(=O)N[C@H](C(=O)NCCCNC(=O)c1ccc(-c2c3nc(c(-c4cccc(S(=O)(=O)[O-])c4F)c4ccc([nH]4)c(-c4cccc(S(=O)(=O)[O-])c4F)c4nc(c(-c5cccc(S(=O)(=O)[O-])c5F)c5ccc2[nH]5)C=C4)C=C3)cc1)c1ccc(F)cc1
REMARK SMILES IDX 17 1 16 2 14 3 15 4 13 6 12 7 10 8 11 9 2 11 1 12 3 13 4 14
REMARK SMILES IDX 5 15 9 16 6 17 8 18 7 19 86 20 87 21 92 22 88 23 91 24 89 25
REMARK SMILES IDX 90 26 18 27 19 28 20 29 21 30 22 32 23 33 24 34 85 35 25 36
REMARK SMILES IDX 84 37 26 38 27 39 28 40 78 41 29 42 83 43 77 44 79 45 30 46
REMARK SMILES IDX 82 47 76 48 75 49 31 51 63 52 43 53 62 54 44 55 47 56 61 57
REMARK SMILES IDX 80 58 45 59 46 60 60 62 81 63 48 64 32 65 33 66 41 67 34 68
REMARK SMILES IDX 36 69 42 70 35 71 37 72 38 73 39 74 40 75 64 76 65 77 73 78
REMARK SMILES IDX 66 79 68 80 74 81 67 82 69 83 70 84 71 85 72 86 49 87 50 88
REMARK SMILES IDX 58 89 51 90 53 91 59 92 52 93 54 94 55 95 56 96 57 97
REMARK H PARENT 16 5 12 10 20 31 79 50 47 61
REMARK Flexibility Score: inf
ROOT
ATOM      1  C   UNL A   1      32.357  27.855  26.286  1.00  0.00     0.117 C 
ENDROOT
BRANCH   1   2
ATOM      2  N   UNL A   1      33.033  28.135  25.031  1.00  0.00    -0.354 N 
ATOM      3  C   UNL A   1      33.563  27.284  24.093  1.00  0.00     0.247 C 
ATOM      4  O   UNL A   1      34.294  27.787  23.241  1.00  0.00    -0.272 OA
ATOM      5  H   UNL A   1      33.126  29.092  24.818  1.00  0.00     0.163 HD
BRANCH   3   6
ATOM      6  C   UNL A   1      33.188  25.779  24.144  1.00  0.00     0.202 C 
BRANCH   6   7
ATOM      7  N   UNL A   1      32.090  25.551  23.180  1.00  0.00    -0.340 N 
ATOM      8  C   UNL A   1      30.749  25.541  23.437  1.00  0.00     0.234 C 
ATOM      9  O   UNL A   1      30.193  24.438  23.349  1.00  0.00    -0.274 OA
ATOM     10  H   UNL A   1      32.355  25.387  22.247  1.00  0.00     0.164 HD
BRANCH   8  11
ATOM     11  C   UNL A   1      29.920  26.815  23.462  1.00  0.00     0.139 C 
ATOM     12  C   UNL A   1      28.465  26.604  23.894  1.00  0.00     0.030 C 
BRANCH  11  13
ATOM     13  S   UNL A   1      30.498  28.191  22.398  1.00  0.00    -0.093 SA
BRANCH  13  14
ATOM     14  C   UNL A   1      29.354  29.551  22.456  1.00  0.00     0.097 A 
ATOM     15  C   UNL A   1      29.286  30.349  23.595  1.00  0.00     0.035 A 
ATOM     16  N   UNL A   1      28.814  29.950  21.287  1.00  0.00    -0.250 NA
ATOM     17  C   UNL A   1      28.612  31.573  23.540  1.00  0.00     0.004 A 
ATOM     18  C   UNL A   1      28.152  31.136  21.257  1.00  0.00     0.112 A 
ATOM     19  C   UNL A   1      28.030  31.978  22.347  1.00  0.00     0.020 A 
ENDBRANCH  13  14
ENDBRANCH  11  13
ENDBRANCH   8  11
ENDBRANCH   6   7
BRANCH   6  20
ATOM     20  C   UNL A   1      34.318  24.769  24.287  1.00  0.00    -0.016 A 
ATOM     21  C   UNL A   1      34.620  23.912  23.211  1.00  0.00     0.009 A 
ATOM     22  C   UNL A   1      35.187  24.722  25.380  1.00  0.00     0.009 A 
ATOM     23  C   UNL A   1      35.710  23.031  23.262  1.00  0.00     0.039 A 
ATOM     24  C   UNL A   1      36.264  23.836  25.453  1.00  0.00     0.039 A 
ATOM     25  C   UNL A   1      36.515  22.992  24.390  1.00  0.00     0.123 A 
ATOM     26  F   UNL A   1      37.538  22.130  24.462  1.00  0.00    -0.207 F 
ENDBRANCH   6  20
ENDBRANCH   3   6
ENDBRANCH   1   2
BRANCH   1  27
ATOM     27  C   UNL A   1      32.875  28.748  27.405  1.00  0.00     0.042 C 
BRANCH  27  28
ATOM     28  C   UNL A   1      33.901  29.775  26.941  1.00  0.00     0.118 C 
BRANCH  28  29
ATOM     29  N   UNL A   1      33.832  31.022  27.692  1.00  0.00    -0.352 N 
ATOM     30  C   UNL A   1      34.675  31.505  28.663  1.00  0.00     0.251 C 
ATOM     31  H   UNL A   1      33.070  31.603  27.470  1.00  0.00     0.163 HD
ATOM     32  O   UNL A   1      34.355  32.511  29.297  1.00  0.00    -0.269 OA
BRANCH  30  33
ATOM     33  C   UNL A   1      35.942  30.808  28.969  1.00  0.00     0.039 A 
ATOM     34  C   UNL A   1      37.120  31.245  28.356  1.00  0.00     0.014 A 
ATOM     35  C   UNL A   1      35.979  29.732  29.858  1.00  0.00     0.014 A 
ATOM     36  C   UNL A   1      38.339  30.651  28.691  1.00  0.00     0.010 A 
ATOM     37  C   UNL A   1      37.204  29.202  30.257  1.00  0.00     0.010 A 
ATOM     38  C   UNL A   1      38.398  29.652  29.676  1.00  0.00    -0.014 A 
BRANCH  38  39
ATOM     39  C   UNL A   1      39.697  29.081  30.121  1.00  0.00     0.031 A 
ATOM     40  C   UNL A   1      40.473  29.731  31.237  1.00  0.00     0.074 A 
ATOM     41  C   UNL A   1      40.223  28.031  29.459  1.00  0.00     0.049 A 
ATOM     42  N   UNL A   1      41.644  29.409  31.720  1.00  0.00    -0.248 NA
ATOM     43  C   UNL A   1      39.868  30.912  31.876  1.00  0.00     0.031 C 
ATOM     44  C   UNL A   1      39.613  27.362  28.308  1.00  0.00     0.029 A 
ATOM     45  N   UNL A   1      41.409  27.359  29.640  1.00  0.00    -0.354 N 
ATOM     46  C   UNL A   1      41.937  30.367  32.683  1.00  0.00     0.074 A 
ATOM     47  C   UNL A   1      40.831  31.299  32.700  1.00  0.00     0.031 C 
ATOM     48  C   UNL A   1      40.425  26.379  27.887  1.00  0.00     0.029 A 
ATOM     49  C   UNL A   1      41.629  26.367  28.711  1.00  0.00     0.049 A 
ATOM     50  H   UNL A   1      42.041  27.567  30.365  1.00  0.00     0.167 HD
ATOM     51  C   UNL A   1      43.018  30.454  33.493  1.00  0.00     0.034 A 
ATOM     52  C   UNL A   1      42.688  25.553  28.529  1.00  0.00     0.034 A 
ATOM     53  C   UNL A   1      44.095  29.502  33.507  1.00  0.00     0.049 A 
ATOM     54  C   UNL A   1      43.855  25.647  29.474  1.00  0.00     0.074 A 
ATOM     55  C   UNL A   1      45.176  29.441  34.368  1.00  0.00     0.029 A 
ATOM     56  N   UNL A   1      44.241  28.457  32.609  1.00  0.00    -0.354 N 
ATOM     57  N   UNL A   1      44.027  26.449  30.496  1.00  0.00    -0.248 NA
ATOM     58  C   UNL A   1      44.958  24.697  29.266  1.00  0.00     0.031 C 
ATOM     59  C   UNL A   1      45.999  28.386  33.965  1.00  0.00     0.029 A 
ATOM     60  C   UNL A   1      45.405  27.760  32.880  1.00  0.00     0.049 A 
ATOM     61  H   UNL A   1      43.609  28.242  31.885  1.00  0.00     0.167 HD
ATOM     62  C   UNL A   1      45.235  26.077  31.074  1.00  0.00     0.074 A 
ATOM     63  C   UNL A   1      45.741  24.962  30.302  1.00  0.00     0.031 C 
ATOM     64  C   UNL A   1      45.874  26.618  32.139  1.00  0.00     0.034 A 
BRANCH  51  65
ATOM     65  C   UNL A   1      43.084  31.604  34.466  1.00  0.00     0.023 A 
ATOM     66  C   UNL A   1      43.707  32.810  34.086  1.00  0.00     0.012 A 
ATOM     67  C   UNL A   1      42.452  31.517  35.721  1.00  0.00     0.148 A 
ATOM     68  C   UNL A   1      43.726  33.902  34.953  1.00  0.00     0.002 A 
ATOM     69  C   UNL A   1      42.432  32.625  36.560  1.00  0.00     0.091 A 
ATOM     70  F   UNL A   1      41.882  30.355  36.071  1.00  0.00    -0.205 F 
ATOM     71  C   UNL A   1      43.078  33.814  36.183  1.00  0.00     0.022 A 
BRANCH  69  72
ATOM     72  S   UNL A   1      41.551  32.641  38.125  1.00  0.00     0.127 S 
ATOM     73  O   UNL A   1      42.284  31.629  38.886  1.00  0.00    -0.237 OA
ATOM     74  O   UNL A   1      41.763  34.016  38.580  1.00  0.00    -0.237 OA
ATOM     75  O   UNL A   1      40.168  32.307  37.815  1.00  0.00    -0.744 OA
ENDBRANCH  69  72
ENDBRANCH  51  65
BRANCH  52  76
ATOM     76  C   UNL A   1      42.681  24.548  27.428  1.00  0.00     0.023 A 
ATOM     77  C   UNL A   1      43.270  24.866  26.189  1.00  0.00     0.012 A 
ATOM     78  C   UNL A   1      42.094  23.280  27.601  1.00  0.00     0.148 A 
ATOM     79  C   UNL A   1      43.235  23.958  25.129  1.00  0.00     0.002 A 
ATOM     80  C   UNL A   1      42.115  22.358  26.562  1.00  0.00     0.091 A 
ATOM     81  F   UNL A   1      41.527  22.997  28.783  1.00  0.00    -0.205 F 
ATOM     82  C   UNL A   1      42.665  22.702  25.317  1.00  0.00     0.022 A 
BRANCH  80  83
ATOM     83  S   UNL A   1      41.527  20.672  26.761  1.00  0.00     0.127 S 
ATOM     84  O   UNL A   1      40.102  20.878  27.005  1.00  0.00    -0.237 OA
ATOM     85  O   UNL A   1      41.852  20.084  25.460  1.00  0.00    -0.237 OA
ATOM     86  O   UNL A   1      42.290  20.120  27.872  1.00  0.00    -0.744 OA
ENDBRANCH  80  83
ENDBRANCH  52  76
BRANCH  64  87
ATOM     87  C   UNL A   1      47.171  25.986  32.576  1.00  0.00     0.023 A 
ATOM     88  C   UNL A   1      48.397  26.473  32.082  1.00  0.00     0.012 A 
ATOM     89  C   UNL A   1      47.173  24.954  33.537  1.00  0.00     0.148 A 
ATOM     90  C   UNL A   1      49.603  25.916  32.509  1.00  0.00     0.002 A 
ATOM     91  C   UNL A   1      48.380  24.443  33.997  1.00  0.00     0.091 A 
ATOM     92  F   UNL A   1      45.995  24.493  33.982  1.00  0.00    -0.205 F 
ATOM     93  C   UNL A   1      49.595  24.913  33.474  1.00  0.00     0.022 A 
BRANCH  91  94
ATOM     94  S   UNL A   1      48.469  23.221  35.311  1.00  0.00     0.127 S 
ATOM     95  O   UNL A   1      47.988  22.019  34.632  1.00  0.00    -0.237 OA
ATOM     96  O   UNL A   1      49.898  23.212  35.627  1.00  0.00    -0.237 OA
ATOM     97  O   UNL A   1      47.616  23.717  36.382  1.00  0.00    -0.744 OA
ENDBRANCH  91  94
ENDBRANCH  64  87
ENDBRANCH  38  39
ENDBRANCH  30  33
ENDBRANCH  28  29
ENDBRANCH  27  28
ENDBRANCH   1  27
TORSDOF 18
ENDMDL
MODEL 3
REMARK VINA RESULT:     -11.8      2.820      4.000
REMARK SMILES C[C@H](Sc1ccccn1)C(=O)N[C@H](C(=O)NCCCNC(=O)c1ccc(-c2c3nc(c(-c4cccc(S(=O)(=O)[O-])c4F)c4ccc([nH]4)c(-c4cccc(S(=O)(=O)[O-])c4F)c4nc(c(-c5cccc(S(=O)(=O)[O-])c5F)c5ccc2[nH]5)C=C4)C=C3)cc1)c1ccc(F)cc1
REMARK SMILES IDX 17 1 16 2 14 3 15 4 13 6 12 7 10 8 11 9 2 11 1 12 3 13 4 14
REMARK SMILES IDX 5 15 9 16 6 17 8 18 7 19 86 20 87 21 92 22 88 23 91 24 89 25
REMARK SMILES IDX 90 26 18 27 19 28 20 29 21 30 22 32 23 33 24 34 85 35 25 36
REMARK SMILES IDX 84 37 26 38 27 39 28 40 78 41 29 42 83 43 77 44 79 45 30 46
REMARK SMILES IDX 82 47 76 48 75 49 31 51 63 52 43 53 62 54 44 55 47 56 61 57
REMARK SMILES IDX 80 58 45 59 46 60 60 62 81 63 48 64 32 65 33 66 41 67 34 68
REMARK SMILES IDX 36 69 42 70 35 71 37 72 38 73 39 74 40 75 64 76 65 77 73 78
REMARK SMILES IDX 66 79 68 80 74 81 67 82 69 83 70 84 71 85 72 86 49 87 50 88
REMARK SMILES IDX 58 89 51 90 53 91 59 92 52 93 54 94 55 95 56 96 57 97
REMARK H PARENT 16 5 12 10 20 31 79 50 47 61
REMARK Flexibility Score: inf
ROOT
ATOM      1  C   UNL A   1      31.705  28.232  26.931  1.00  0.00     0.117 C 
ENDROOT
BRANCH   1   2
ATOM      2  N   UNL A   1      31.163  26.994  26.393  1.00  0.00    -0.354 N 
ATOM      3  C   UNL A   1      30.719  26.688  25.131  1.00  0.00     0.247 C 
ATOM      4  O   UNL A   1      30.086  25.641  25.007  1.00  0.00    -0.272 OA
ATOM      5  H   UNL A   1      31.106  26.255  27.041  1.00  0.00     0.163 HD
BRANCH   3   6
ATOM      6  C   UNL A   1      31.065  27.644  23.958  1.00  0.00     0.202 C 
BRANCH   6   7
ATOM      7  N   UNL A   1      31.662  26.835  22.873  1.00  0.00    -0.340 N 
ATOM      8  C   UNL A   1      32.941  26.365  22.796  1.00  0.00     0.234 C 
ATOM      9  O   UNL A   1      33.653  26.885  21.927  1.00  0.00    -0.274 OA
ATOM     10  H   UNL A   1      31.069  26.609  22.120  1.00  0.00     0.164 HD
BRANCH   8  11
ATOM     11  C   UNL A   1      33.366  25.062  23.452  1.00  0.00     0.139 C 
ATOM     12  C   UNL A   1      34.351  25.238  24.612  1.00  0.00     0.030 C 
BRANCH  11  13
ATOM     13  S   UNL A   1      33.227  23.546  22.429  1.00  0.00    -0.093 SA
BRANCH  13  14
ATOM     14  C   UNL A   1      33.241  22.095  23.457  1.00  0.00     0.097 A 
ATOM     15  C   UNL A   1      32.355  21.053  23.195  1.00  0.00     0.035 A 
ATOM     16  N   UNL A   1      34.310  21.920  24.259  1.00  0.00    -0.250 NA
ATOM     17  C   UNL A   1      32.553  19.810  23.804  1.00  0.00     0.004 A 
ATOM     18  C   UNL A   1      34.478  20.709  24.851  1.00  0.00     0.112 A 
ATOM     19  C   UNL A   1      33.636  19.630  24.652  1.00  0.00     0.020 A 
ENDBRANCH  13  14
ENDBRANCH  11  13
ENDBRANCH   8  11
ENDBRANCH   6   7
BRANCH   6  20
ATOM     20  C   UNL A   1      30.086  28.766  23.642  1.00  0.00    -0.016 A 
ATOM     21  C   UNL A   1      28.867  28.461  23.004  1.00  0.00     0.009 A 
ATOM     22  C   UNL A   1      30.248  30.085  24.071  1.00  0.00     0.009 A 
ATOM     23  C   UNL A   1      27.895  29.446  22.776  1.00  0.00     0.039 A 
ATOM     24  C   UNL A   1      29.297  31.080  23.834  1.00  0.00     0.039 A 
ATOM     25  C   UNL A   1      28.126  30.751  23.183  1.00  0.00     0.123 A 
ATOM     26  F   UNL A   1      27.217  31.705  22.940  1.00  0.00    -0.207 F 
ENDBRANCH   6  20
ENDBRANCH   3   6
ENDBRANCH   1   2
BRANCH   1  27
ATOM     27  C   UNL A   1      33.226  28.189  26.993  1.00  0.00     0.042 C 
BRANCH  27  28
ATOM     28  C   UNL A   1      33.903  29.200  26.076  1.00  0.00     0.118 C 
BRANCH  28  29
ATOM     29  N   UNL A   1      33.906  30.549  26.628  1.00  0.00    -0.352 N 
ATOM     30  C   UNL A   1      34.728  31.103  27.578  1.00  0.00     0.251 C 
ATOM     31  H   UNL A   1      33.217  31.152  26.265  1.00  0.00     0.163 HD
ATOM     32  O   UNL A   1      34.466  32.218  28.031  1.00  0.00    -0.269 OA
BRANCH  30  33
ATOM     33  C   UNL A   1      35.903  30.358  28.078  1.00  0.00     0.039 A 
ATOM     34  C   UNL A   1      37.082  30.371  27.329  1.00  0.00     0.014 A 
ATOM     35  C   UNL A   1      35.851  29.651  29.282  1.00  0.00     0.014 A 
ATOM     36  C   UNL A   1      38.225  29.738  27.822  1.00  0.00     0.010 A 
ATOM     37  C   UNL A   1      37.014  29.099  29.814  1.00  0.00     0.010 A 
ATOM     38  C   UNL A   1      38.213  29.132  29.089  1.00  0.00    -0.014 A 
BRANCH  38  39
ATOM     39  C   UNL A   1      39.447  28.544  29.676  1.00  0.00     0.031 A 
ATOM     40  C   UNL A   1      40.080  29.164  30.896  1.00  0.00     0.074 A 
ATOM     41  C   UNL A   1      40.050  27.509  29.059  1.00  0.00     0.049 A 
ATOM     42  N   UNL A   1      41.183  28.826  31.512  1.00  0.00    -0.248 NA
ATOM     43  C   UNL A   1      39.402  30.331  31.485  1.00  0.00     0.031 C 
ATOM     44  C   UNL A   1      39.586  26.870  27.825  1.00  0.00     0.029 A 
ATOM     45  N   UNL A   1      41.204  26.828  29.368  1.00  0.00    -0.354 N 
ATOM     46  C   UNL A   1      41.355  29.759  32.526  1.00  0.00     0.074 A 
ATOM     47  C   UNL A   1      40.256  30.694  32.430  1.00  0.00     0.031 C 
ATOM     48  C   UNL A   1      40.443  25.895  27.483  1.00  0.00     0.029 A 
ATOM     49  C   UNL A   1      41.536  25.859  28.449  1.00  0.00     0.049 A 
ATOM     50  H   UNL A   1      41.741  27.015  30.171  1.00  0.00     0.167 HD
ATOM     51  C   UNL A   1      42.328  29.822  33.466  1.00  0.00     0.034 A 
ATOM     52  C   UNL A   1      42.608  25.045  28.379  1.00  0.00     0.034 A 
ATOM     53  C   UNL A   1      43.394  28.865  33.588  1.00  0.00     0.049 A 
ATOM     54  C   UNL A   1      43.650  25.110  29.463  1.00  0.00     0.074 A 
ATOM     55  C   UNL A   1      44.361  28.779  34.575  1.00  0.00     0.029 A 
ATOM     56  N   UNL A   1      43.649  27.841  32.690  1.00  0.00    -0.354 N 
ATOM     57  N   UNL A   1      43.695  25.887  30.518  1.00  0.00    -0.248 NA
ATOM     58  C   UNL A   1      44.769  24.162  29.369  1.00  0.00     0.031 C 
ATOM     59  C   UNL A   1      45.226  27.730  34.250  1.00  0.00     0.029 A 
ATOM     60  C   UNL A   1      44.770  27.134  33.086  1.00  0.00     0.049 A 
ATOM     61  H   UNL A   1      43.111  27.647  31.888  1.00  0.00     0.167 HD
ATOM     62  C   UNL A   1      44.823  25.496  31.231  1.00  0.00     0.074 A 
ATOM     63  C   UNL A   1      45.419  24.398  30.500  1.00  0.00     0.031 C 
ATOM     64  C   UNL A   1      45.326  26.008  32.380  1.00  0.00     0.034 A 
BRANCH  51  65
ATOM     65  C   UNL A   1      42.275  30.947  34.467  1.00  0.00     0.023 A 
ATOM     66  C   UNL A   1      41.642  30.751  35.711  1.00  0.00     0.012 A 
ATOM     67  C   UNL A   1      42.930  32.167  34.209  1.00  0.00     0.148 A 
ATOM     68  C   UNL A   1      41.635  31.763  36.671  1.00  0.00     0.002 A 
ATOM     69  C   UNL A   1      42.961  33.152  35.188  1.00  0.00     0.091 A 
ATOM     70  F   UNL A   1      43.510  32.341  33.013  1.00  0.00    -0.205 F 
ATOM     71  C   UNL A   1      42.304  32.957  36.415  1.00  0.00     0.022 A 
BRANCH  69  72
ATOM     72  S   UNL A   1      43.868  34.690  34.989  1.00  0.00     0.127 S 
ATOM     73  O   UNL A   1      43.655  35.328  36.288  1.00  0.00    -0.237 OA
ATOM     74  O   UNL A   1      45.233  34.211  34.763  1.00  0.00    -0.237 OA
ATOM     75  O   UNL A   1      43.265  35.371  33.853  1.00  0.00    -0.744 OA
ENDBRANCH  69  72
ENDBRANCH  51  65
BRANCH  52  76
ATOM     76  C   UNL A   1      42.736  24.066  27.261  1.00  0.00     0.023 A 
ATOM     77  C   UNL A   1      43.443  24.426  26.097  1.00  0.00     0.012 A 
ATOM     78  C   UNL A   1      42.161  22.784  27.344  1.00  0.00     0.148 A 
ATOM     79  C   UNL A   1      43.537  23.544  25.019  1.00  0.00     0.002 A 
ATOM     80  C   UNL A   1      42.309  21.888  26.292  1.00  0.00     0.091 A 
ATOM     81  F   UNL A   1      41.482  22.462  28.454  1.00  0.00    -0.205 F 
ATOM     82  C   UNL A   1      42.977  22.273  25.120  1.00  0.00     0.022 A 
BRANCH  80  83
ATOM     83  S   UNL A   1      41.739  20.187  26.391  1.00  0.00     0.127 S 
ATOM     84  O   UNL A   1      40.295  20.346  26.251  1.00  0.00    -0.237 OA
ATOM     85  O   UNL A   1      42.408  19.577  25.241  1.00  0.00    -0.237 OA
ATOM     86  O   UNL A   1      42.202  19.694  27.681  1.00  0.00    -0.744 OA
ENDBRANCH  80  83
ENDBRANCH  52  76
BRANCH  64  87
ATOM     87  C   UNL A   1      46.558  25.360  32.958  1.00  0.00     0.023 A 
ATOM     88  C   UNL A   1      47.835  25.866  32.647  1.00  0.00     0.012 A 
ATOM     89  C   UNL A   1      46.440  24.292  33.871  1.00  0.00     0.148 A 
ATOM     90  C   UNL A   1      48.979  25.294  33.205  1.00  0.00     0.002 A 
ATOM     91  C   UNL A   1      47.580  23.765  34.464  1.00  0.00     0.091 A 
ATOM     92  F   UNL A   1      45.217  23.814  34.140  1.00  0.00    -0.205 F 
ATOM     93  C   UNL A   1      48.850  24.255  34.122  1.00  0.00     0.022 A 
BRANCH  91  94
ATOM     94  S   UNL A   1      47.505  22.493  35.731  1.00  0.00     0.127 S 
ATOM     95  O   UNL A   1      46.884  21.386  35.005  1.00  0.00    -0.237 OA
ATOM     96  O   UNL A   1      48.918  22.295  36.054  1.00  0.00    -0.237 OA
ATOM     97  O   UNL A   1      46.709  23.051  36.816  1.00  0.00    -0.744 OA
ENDBRANCH  91  94
ENDBRANCH  64  87
ENDBRANCH  38  39
ENDBRANCH  30  33
ENDBRANCH  28  29
ENDBRANCH  27  28
ENDBRANCH   1  27
TORSDOF 18
ENDMDL
