MODEL 1
REMARK VINA RESULT:     -11.2      0.000      0.000
REMARK SMILES O=C(COc1nc(Nc2ccc(Cl)cc2Cl)nc2c1C[N@H+](Cc1ccccc1)CC2)NCCCNC(=O)c1ccc(-c2c3nc(c(-c4cccc(S(=O)(=O)[O-])c4F)c4ccc([nH]4)c(-c4cccc(S(=O)(=O)[O-])c4F)c4nc(c(-c5cccc(S(=O)(=O)[O-])c5F)c5ccc2[nH]5)C=C4)C=C3)cc1
REMARK SMILES IDX 32 1 31 2 1 3 2 4 3 6 4 7 5 8 6 9 19 10 7 11 18 12 20 13
REMARK SMILES IDX 17 14 30 15 21 16 29 17 8 19 9 21 10 22 15 23 11 24 14 25
REMARK SMILES IDX 16 26 12 27 13 28 22 29 23 30 24 31 28 32 25 33 27 34 26 35
REMARK SMILES IDX 33 36 34 37 35 38 36 39 37 41 38 42 39 43 100 44 40 45 99 46
REMARK SMILES IDX 41 47 42 48 43 49 93 50 44 51 98 52 92 53 94 54 45 55 97 56
REMARK SMILES IDX 91 57 90 58 46 60 78 61 58 62 77 63 59 64 62 65 76 66 95 67
REMARK SMILES IDX 60 68 61 69 75 71 96 72 63 73 47 74 48 75 56 76 49 77 51 78
REMARK SMILES IDX 57 79 50 80 52 81 53 82 54 83 55 84 79 85 80 86 88 87 81 88
REMARK SMILES IDX 83 89 89 90 82 91 84 92 85 93 86 94 87 95 64 96 65 97 73 98
REMARK SMILES IDX 66 99 68 100 74 101 67 102 69 103 70 104 71 105 72 106
REMARK H PARENT 31 5 21 18 8 20 35 40 94 59 62 70
REMARK Flexibility Score: inf
ROOT
ATOM      1  C   UNL A   1      40.135  21.398  26.919  1.00  0.00     0.117 C 
ENDROOT
BRANCH   1   2
ATOM      2  N   UNL A   1      39.041  22.166  26.371  1.00  0.00    -0.353 N 
ATOM      3  O   UNL A   1      38.209  20.473  25.044  1.00  0.00    -0.271 OA
ATOM      4  C   UNL A   1      38.085  21.578  25.567  1.00  0.00     0.258 C 
ATOM      5  H   UNL A   1      38.976  23.126  26.575  1.00  0.00     0.163 HD
BRANCH   4   6
ATOM      6  C   UNL A   1      36.859  22.456  25.316  1.00  0.00     0.331 C 
BRANCH   6   7
ATOM      7  O   UNL A   1      35.587  21.834  25.457  1.00  0.00    -0.467 OA
BRANCH   7   8
ATOM      8  C   UNL A   1      34.557  22.672  25.076  1.00  0.00     0.228 A 
ATOM      9  N   UNL A   1      34.674  23.973  25.361  1.00  0.00    -0.177 NA
ATOM     10  C   UNL A   1      33.558  22.146  24.291  1.00  0.00     0.090 A 
ATOM     11  C   UNL A   1      33.747  24.793  24.848  1.00  0.00     0.230 A 
ATOM     12  C   UNL A   1      32.662  23.061  23.783  1.00  0.00     0.064 A 
ATOM     13  C   UNL A   1      33.528  20.702  23.910  1.00  0.00     0.307 C 
ATOM     14  N   UNL A   1      32.731  24.381  24.070  1.00  0.00    -0.217 NA
ATOM     15  C   UNL A   1      31.545  22.594  22.886  1.00  0.00     0.118 C 
ATOM     16  N   UNL A   1      32.252  20.271  23.320  1.00  0.00    -0.327 N 
ATOM     17  C   UNL A   1      31.822  21.209  22.276  1.00  0.00     0.269 C 
ATOM     18  H   UNL A   1      31.537  20.300  24.047  1.00  0.00     0.348 HD
BRANCH  11  19
ATOM     19  N   UNL A   1      33.795  26.155  25.124  1.00  0.00    -0.323 N 
ATOM     20  H   UNL A   1      34.581  26.471  25.626  1.00  0.00     0.170 HD
BRANCH  19  21
ATOM     21  C   UNL A   1      32.854  27.128  24.769  1.00  0.00     0.060 A 
ATOM     22  C   UNL A   1      31.950  27.568  25.745  1.00  0.00     0.029 A 
ATOM     23  C   UNL A   1      32.717  27.627  23.460  1.00  0.00     0.066 A 
ATOM     24  C   UNL A   1      31.002  28.552  25.453  1.00  0.00     0.023 A 
ATOM     25  C   UNL A   1      31.759  28.601  23.160  1.00  0.00     0.043 A 
ATOM     26  Cl  UNL A   1      33.725  27.066  22.168  1.00  0.00    -0.082 Cl
ATOM     27  C   UNL A   1      30.923  29.076  24.167  1.00  0.00     0.042 A 
ATOM     28  Cl  UNL A   1      29.795  30.327  23.821  1.00  0.00    -0.084 Cl
ENDBRANCH  19  21
ENDBRANCH  11  19
BRANCH  16  29
ATOM     29  C   UNL A   1      32.283  18.862  22.886  1.00  0.00     0.299 C 
BRANCH  29  30
ATOM     30  C   UNL A   1      32.927  17.867  23.833  1.00  0.00     0.006 A 
ATOM     31  C   UNL A   1      32.352  17.602  25.084  1.00  0.00     0.009 A 
ATOM     32  C   UNL A   1      34.097  17.180  23.474  1.00  0.00     0.009 A 
ATOM     33  C   UNL A   1      32.908  16.639  25.930  1.00  0.00     0.001 A 
ATOM     34  C   UNL A   1      34.629  16.192  24.304  1.00  0.00     0.001 A 
ATOM     35  C   UNL A   1      34.033  15.920  25.531  1.00  0.00     0.000 A 
ENDBRANCH  29  30
ENDBRANCH  16  29
ENDBRANCH   7   8
ENDBRANCH   6   7
ENDBRANCH   4   6
ENDBRANCH   1   2
BRANCH   1  36
ATOM     36  C   UNL A   1      41.384  22.202  27.230  1.00  0.00     0.042 C 
BRANCH  36  37
ATOM     37  C   UNL A   1      41.599  23.405  26.322  1.00  0.00     0.118 C 
BRANCH  37  38
ATOM     38  N   UNL A   1      42.743  23.271  25.425  1.00  0.00    -0.352 N 
ATOM     39  C   UNL A   1      43.706  24.180  25.060  1.00  0.00     0.251 C 
ATOM     40  H   UNL A   1      42.839  22.381  25.012  1.00  0.00     0.163 HD
ATOM     41  O   UNL A   1      44.520  23.879  24.187  1.00  0.00    -0.269 OA
BRANCH  39  42
ATOM     42  C   UNL A   1      43.766  25.521  25.685  1.00  0.00     0.039 A 
ATOM     43  C   UNL A   1      43.078  26.581  25.084  1.00  0.00     0.014 A 
ATOM     44  C   UNL A   1      44.510  25.747  26.844  1.00  0.00     0.014 A 
ATOM     45  C   UNL A   1      43.075  27.842  25.686  1.00  0.00     0.010 A 
ATOM     46  C   UNL A   1      44.433  26.977  27.490  1.00  0.00     0.010 A 
ATOM     47  C   UNL A   1      43.723  28.041  26.914  1.00  0.00    -0.014 A 
BRANCH  47  48
ATOM     48  C   UNL A   1      43.700  29.350  27.616  1.00  0.00     0.031 A 
ATOM     49  C   UNL A   1      44.908  30.246  27.563  1.00  0.00     0.074 A 
ATOM     50  C   UNL A   1      42.640  29.688  28.379  1.00  0.00     0.049 A 
ATOM     51  N   UNL A   1      45.146  31.354  28.217  1.00  0.00    -0.248 NA
ATOM     52  C   UNL A   1      46.007  29.825  26.679  1.00  0.00     0.031 C 
ATOM     53  C   UNL A   1      41.428  28.885  28.550  1.00  0.00     0.029 A 
ATOM     54  N   UNL A   1      42.427  30.784  29.178  1.00  0.00    -0.354 N 
ATOM     55  C   UNL A   1      46.430  31.741  27.852  1.00  0.00     0.074 A 
ATOM     56  C   UNL A   1      46.936  30.730  26.949  1.00  0.00     0.031 C 
ATOM     57  C   UNL A   1      40.598  29.517  29.395  1.00  0.00     0.029 A 
ATOM     58  C   UNL A   1      41.233  30.747  29.859  1.00  0.00     0.049 A 
ATOM     59  H   UNL A   1      43.069  31.527  29.256  1.00  0.00     0.167 HD
ATOM     60  C   UNL A   1      47.113  32.854  28.208  1.00  0.00     0.034 A 
ATOM     61  C   UNL A   1      40.713  31.600  30.764  1.00  0.00     0.034 A 
ATOM     62  C   UNL A   1      46.590  33.879  29.070  1.00  0.00     0.049 A 
ATOM     63  C   UNL A   1      41.491  32.835  31.135  1.00  0.00     0.074 A 
ATOM     64  C   UNL A   1      47.182  35.071  29.445  1.00  0.00     0.029 A 
ATOM     65  N   UNL A   1      45.349  33.837  29.688  1.00  0.00    -0.354 N 
ATOM     66  N   UNL A   1      42.656  33.241  30.694  1.00  0.00    -0.248 NA
ATOM     67  C   UNL A   1      40.866  33.745  32.106  1.00  0.00     0.031 C 
ATOM     68  C   UNL A   1      46.308  35.742  30.305  1.00  0.00     0.029 A 
ATOM     69  C   UNL A   1      45.159  34.981  30.445  1.00  0.00     0.049 A 
ATOM     70  H   UNL A   1      44.698  33.103  29.601  1.00  0.00     0.167 HD
ATOM     71  C   UNL A   1      42.894  34.465  31.311  1.00  0.00     0.074 A 
ATOM     72  C   UNL A   1      41.734  34.748  32.132  1.00  0.00     0.031 C 
ATOM     73  C   UNL A   1      43.982  35.271  31.225  1.00  0.00     0.034 A 
BRANCH  60  74
ATOM     74  C   UNL A   1      48.484  33.055  27.614  1.00  0.00     0.023 A 
ATOM     75  C   UNL A   1      48.617  33.786  26.414  1.00  0.00     0.012 A 
ATOM     76  C   UNL A   1      49.641  32.593  28.271  1.00  0.00     0.148 A 
ATOM     77  C   UNL A   1      49.875  34.027  25.864  1.00  0.00     0.002 A 
ATOM     78  C   UNL A   1      50.895  32.880  27.743  1.00  0.00     0.091 A 
ATOM     79  F   UNL A   1      49.495  31.883  29.399  1.00  0.00    -0.205 F 
ATOM     80  C   UNL A   1      51.013  33.586  26.534  1.00  0.00     0.022 A 
BRANCH  78  81
ATOM     81  S   UNL A   1      52.427  32.433  28.569  1.00  0.00     0.127 S 
ATOM     82  O   UNL A   1      52.396  30.974  28.476  1.00  0.00    -0.237 OA
ATOM     83  O   UNL A   1      53.429  33.077  27.720  1.00  0.00    -0.237 OA
ATOM     84  O   UNL A   1      52.329  32.972  29.917  1.00  0.00    -0.744 OA
ENDBRANCH  78  81
ENDBRANCH  60  74
BRANCH  61  85
ATOM     85  C   UNL A   1      39.353  31.351  31.324  1.00  0.00     0.023 A 
ATOM     86  C   UNL A   1      39.227  30.583  32.499  1.00  0.00     0.012 A 
ATOM     87  C   UNL A   1      38.196  31.901  30.739  1.00  0.00     0.148 A 
ATOM     88  C   UNL A   1      37.975  30.346  33.065  1.00  0.00     0.002 A 
ATOM     89  C   UNL A   1      36.958  31.711  31.340  1.00  0.00     0.091 A 
ATOM     90  F   UNL A   1      38.335  32.619  29.614  1.00  0.00    -0.205 F 
ATOM     91  C   UNL A   1      36.842  30.920  32.494  1.00  0.00     0.022 A 
BRANCH  89  92
ATOM     92  S   UNL A   1      35.462  32.519  30.758  1.00  0.00     0.127 S 
ATOM     93  O   UNL A   1      34.516  32.203  31.826  1.00  0.00    -0.237 OA
ATOM     94  O   UNL A   1      35.883  33.920  30.701  1.00  0.00    -0.237 OA
ATOM     95  O   UNL A   1      35.170  31.923  29.462  1.00  0.00    -0.744 OA
ENDBRANCH  89  92
ENDBRANCH  61  85
BRANCH  73  96
ATOM     96  C   UNL A   1      43.973  36.548  32.029  1.00  0.00     0.023 A 
ATOM     97  C   UNL A   1      44.347  36.517  33.387  1.00  0.00     0.012 A 
ATOM     98  C   UNL A   1      43.671  37.784  31.426  1.00  0.00     0.148 A 
ATOM     99  C   UNL A   1      44.384  37.689  34.142  1.00  0.00     0.002 A 
ATOM    100  C   UNL A   1      43.762  38.956  32.169  1.00  0.00     0.091 A 
ATOM    101  F   UNL A   1      43.300  37.795  30.137  1.00  0.00    -0.205 F 
ATOM    102  C   UNL A   1      44.104  38.908  33.530  1.00  0.00     0.022 A 
BRANCH 100 103
ATOM    103  S   UNL A   1      43.525  40.580  31.439  1.00  0.00     0.127 S 
ATOM    104  O   UNL A   1      42.376  41.081  32.192  1.00  0.00    -0.237 OA
ATOM    105  O   UNL A   1      44.792  41.248  31.745  1.00  0.00    -0.237 OA
ATOM    106  O   UNL A   1      43.295  40.350  30.019  1.00  0.00    -0.744 OA
ENDBRANCH 100 103
ENDBRANCH  73  96
ENDBRANCH  47  48
ENDBRANCH  39  42
ENDBRANCH  37  38
ENDBRANCH  36  37
ENDBRANCH   1  36
TORSDOF 19
ENDMDL
MODEL 2
REMARK VINA RESULT:     -11.2     10.709     15.786
REMARK SMILES O=C(COc1nc(Nc2ccc(Cl)cc2Cl)nc2c1C[N@H+](Cc1ccccc1)CC2)NCCCNC(=O)c1ccc(-c2c3nc(c(-c4cccc(S(=O)(=O)[O-])c4F)c4ccc([nH]4)c(-c4cccc(S(=O)(=O)[O-])c4F)c4nc(c(-c5cccc(S(=O)(=O)[O-])c5F)c5ccc2[nH]5)C=C4)C=C3)cc1
REMARK SMILES IDX 32 1 31 2 1 3 2 4 3 6 4 7 5 8 6 9 19 10 7 11 18 12 20 13
REMARK SMILES IDX 17 14 30 15 21 16 29 17 8 19 9 21 10 22 15 23 11 24 14 25
REMARK SMILES IDX 16 26 12 27 13 28 22 29 23 30 24 31 28 32 25 33 27 34 26 35
REMARK SMILES IDX 33 36 34 37 35 38 36 39 37 41 38 42 39 43 100 44 40 45 99 46
REMARK SMILES IDX 41 47 42 48 43 49 93 50 44 51 98 52 92 53 94 54 45 55 97 56
REMARK SMILES IDX 91 57 90 58 46 60 78 61 58 62 77 63 59 64 62 65 76 66 95 67
REMARK SMILES IDX 60 68 61 69 75 71 96 72 63 73 47 74 48 75 56 76 49 77 51 78
REMARK SMILES IDX 57 79 50 80 52 81 53 82 54 83 55 84 79 85 80 86 88 87 81 88
REMARK SMILES IDX 83 89 89 90 82 91 84 92 85 93 86 94 87 95 64 96 65 97 73 98
REMARK SMILES IDX 66 99 68 100 74 101 67 102 69 103 70 104 71 105 72 106
REMARK H PARENT 31 5 21 18 8 20 35 40 94 59 62 70
REMARK Flexibility Score: inf
ROOT
ATOM      1  C   UNL A   1      46.504  21.604  34.612  1.00  0.00     0.117 C 
ENDROOT
BRANCH   1   2
ATOM      2  N   UNL A   1      45.966  20.830  35.706  1.00  0.00    -0.353 N 
ATOM      3  O   UNL A   1      48.007  20.232  36.598  1.00  0.00    -0.271 OA
ATOM      4  C   UNL A   1      46.785  20.315  36.691  1.00  0.00     0.258 C 
ATOM      5  H   UNL A   1      44.996  20.667  35.750  1.00  0.00     0.163 HD
BRANCH   4   6
ATOM      6  C   UNL A   1      46.030  19.779  37.908  1.00  0.00     0.331 C 
BRANCH   6   7
ATOM      7  O   UNL A   1      46.318  18.442  38.301  1.00  0.00    -0.467 OA
BRANCH   7   8
ATOM      8  C   UNL A   1      46.722  18.367  39.620  1.00  0.00     0.228 A 
ATOM      9  N   UNL A   1      47.858  18.985  39.960  1.00  0.00    -0.177 NA
ATOM     10  C   UNL A   1      45.855  17.801  40.525  1.00  0.00     0.090 A 
ATOM     11  C   UNL A   1      48.153  19.037  41.266  1.00  0.00     0.230 A 
ATOM     12  C   UNL A   1      46.222  17.922  41.848  1.00  0.00     0.064 A 
ATOM     13  C   UNL A   1      44.547  17.216  40.110  1.00  0.00     0.307 C 
ATOM     14  N   UNL A   1      47.375  18.516  42.231  1.00  0.00    -0.217 NA
ATOM     15  C   UNL A   1      45.328  17.363  42.925  1.00  0.00     0.118 C 
ATOM     16  N   UNL A   1      43.898  16.412  41.155  1.00  0.00    -0.327 N 
ATOM     17  C   UNL A   1      43.889  17.135  42.433  1.00  0.00     0.269 C 
ATOM     18  H   UNL A   1      44.453  15.569  41.304  1.00  0.00     0.348 HD
BRANCH  11  19
ATOM     19  N   UNL A   1      49.331  19.645  41.688  1.00  0.00    -0.323 N 
ATOM     20  H   UNL A   1      49.273  20.603  41.907  1.00  0.00     0.170 HD
BRANCH  19  21
ATOM     21  C   UNL A   1      50.588  19.050  41.837  1.00  0.00     0.060 A 
ATOM     22  C   UNL A   1      51.133  18.362  40.744  1.00  0.00     0.029 A 
ATOM     23  C   UNL A   1      51.296  19.036  43.053  1.00  0.00     0.066 A 
ATOM     24  C   UNL A   1      52.394  17.766  40.828  1.00  0.00     0.023 A 
ATOM     25  C   UNL A   1      52.551  18.427  43.146  1.00  0.00     0.043 A 
ATOM     26  Cl  UNL A   1      50.652  19.774  44.482  1.00  0.00    -0.082 Cl
ATOM     27  C   UNL A   1      53.104  17.817  42.024  1.00  0.00     0.042 A 
ATOM     28  Cl  UNL A   1      54.679  17.132  42.112  1.00  0.00    -0.084 Cl
ENDBRANCH  19  21
ENDBRANCH  11  19
BRANCH  16  29
ATOM     29  C   UNL A   1      42.573  15.913  40.738  1.00  0.00     0.299 C 
BRANCH  29  30
ATOM     30  C   UNL A   1      42.057  14.671  41.439  1.00  0.00     0.006 A 
ATOM     31  C   UNL A   1      42.107  13.423  40.802  1.00  0.00     0.009 A 
ATOM     32  C   UNL A   1      41.534  14.739  42.740  1.00  0.00     0.009 A 
ATOM     33  C   UNL A   1      41.690  12.269  41.470  1.00  0.00     0.001 A 
ATOM     34  C   UNL A   1      41.154  13.581  43.419  1.00  0.00     0.001 A 
ATOM     35  C   UNL A   1      41.235  12.345  42.785  1.00  0.00     0.000 A 
ENDBRANCH  29  30
ENDBRANCH  16  29
ENDBRANCH   7   8
ENDBRANCH   6   7
ENDBRANCH   4   6
ENDBRANCH   1   2
BRANCH   1  36
ATOM     36  C   UNL A   1      46.221  23.093  34.684  1.00  0.00     0.042 C 
BRANCH  36  37
ATOM     37  C   UNL A   1      47.467  23.966  34.751  1.00  0.00     0.118 C 
BRANCH  37  38
ATOM     38  N   UNL A   1      47.647  24.640  36.034  1.00  0.00    -0.352 N 
ATOM     39  C   UNL A   1      47.059  25.774  36.539  1.00  0.00     0.251 C 
ATOM     40  H   UNL A   1      48.299  24.211  36.635  1.00  0.00     0.163 HD
ATOM     41  O   UNL A   1      47.455  26.231  37.612  1.00  0.00    -0.269 OA
BRANCH  39  42
ATOM     42  C   UNL A   1      45.975  26.464  35.806  1.00  0.00     0.039 A 
ATOM     43  C   UNL A   1      46.291  27.568  35.006  1.00  0.00     0.014 A 
ATOM     44  C   UNL A   1      44.647  26.046  35.913  1.00  0.00     0.014 A 
ATOM     45  C   UNL A   1      45.293  28.201  34.260  1.00  0.00     0.010 A 
ATOM     46  C   UNL A   1      43.671  26.619  35.104  1.00  0.00     0.010 A 
ATOM     47  C   UNL A   1      43.979  27.707  34.275  1.00  0.00    -0.014 A 
BRANCH  47  48
ATOM     48  C   UNL A   1      42.898  28.315  33.457  1.00  0.00     0.031 A 
ATOM     49  C   UNL A   1      41.916  29.256  34.101  1.00  0.00     0.074 A 
ATOM     50  C   UNL A   1      42.738  27.947  32.170  1.00  0.00     0.049 A 
ATOM     51  N   UNL A   1      40.825  29.779  33.605  1.00  0.00    -0.248 NA
ATOM     52  C   UNL A   1      42.182  29.639  35.498  1.00  0.00     0.031 C 
ATOM     53  C   UNL A   1      43.595  27.007  31.445  1.00  0.00     0.029 A 
ATOM     54  N   UNL A   1      41.779  28.297  31.253  1.00  0.00    -0.354 N 
ATOM     55  C   UNL A   1      40.257  30.519  34.635  1.00  0.00     0.074 A 
ATOM     56  C   UNL A   1      41.103  30.348  35.795  1.00  0.00     0.031 C 
ATOM     57  C   UNL A   1      43.126  26.860  30.195  1.00  0.00     0.029 A 
ATOM     58  C   UNL A   1      41.914  27.659  30.042  1.00  0.00     0.049 A 
ATOM     59  H   UNL A   1      41.061  28.944  31.444  1.00  0.00     0.167 HD
ATOM     60  C   UNL A   1      39.151  31.299  34.609  1.00  0.00     0.034 A 
ATOM     61  C   UNL A   1      41.143  27.702  28.937  1.00  0.00     0.034 A 
ATOM     62  C   UNL A   1      38.337  31.502  33.441  1.00  0.00     0.049 A 
ATOM     63  C   UNL A   1      39.923  28.585  28.933  1.00  0.00     0.074 A 
ATOM     64  C   UNL A   1      37.228  32.318  33.298  1.00  0.00     0.029 A 
ATOM     65  N   UNL A   1      38.543  30.891  32.214  1.00  0.00    -0.354 N 
ATOM     66  N   UNL A   1      39.463  29.365  29.880  1.00  0.00    -0.248 NA
ATOM     67  C   UNL A   1      39.132  28.616  27.693  1.00  0.00     0.031 C 
ATOM     68  C   UNL A   1      36.753  32.185  31.989  1.00  0.00     0.029 A 
ATOM     69  C   UNL A   1      37.582  31.307  31.309  1.00  0.00     0.049 A 
ATOM     70  H   UNL A   1      39.269  30.255  32.015  1.00  0.00     0.167 HD
ATOM     71  C   UNL A   1      38.347  30.000  29.346  1.00  0.00     0.074 A 
ATOM     72  C   UNL A   1      38.220  29.537  27.979  1.00  0.00     0.031 C 
ATOM     73  C   UNL A   1      37.492  30.871  29.938  1.00  0.00     0.034 A 
BRANCH  60  74
ATOM     74  C   UNL A   1      38.787  32.044  35.868  1.00  0.00     0.023 A 
ATOM     75  C   UNL A   1      39.030  33.432  35.944  1.00  0.00     0.012 A 
ATOM     76  C   UNL A   1      38.143  31.397  36.941  1.00  0.00     0.148 A 
ATOM     77  C   UNL A   1      38.664  34.157  37.077  1.00  0.00     0.002 A 
ATOM     78  C   UNL A   1      37.737  32.136  38.047  1.00  0.00     0.091 A 
ATOM     79  F   UNL A   1      37.941  30.074  36.860  1.00  0.00    -0.205 F 
ATOM     80  C   UNL A   1      38.008  33.512  38.122  1.00  0.00     0.022 A 
BRANCH  78  81
ATOM     81  S   UNL A   1      36.809  31.421  39.409  1.00  0.00     0.127 S 
ATOM     82  O   UNL A   1      35.968  30.448  38.714  1.00  0.00    -0.237 OA
ATOM     83  O   UNL A   1      37.871  30.835  40.227  1.00  0.00    -0.237 OA
ATOM     84  O   UNL A   1      36.096  32.525  40.034  1.00  0.00    -0.744 OA
ENDBRANCH  78  81
ENDBRANCH  60  74
BRANCH  61  85
ATOM     85  C   UNL A   1      41.545  26.942  27.719  1.00  0.00     0.023 A 
ATOM     86  C   UNL A   1      42.136  27.635  26.643  1.00  0.00     0.012 A 
ATOM     87  C   UNL A   1      41.394  25.544  27.632  1.00  0.00     0.148 A 
ATOM     88  C   UNL A   1      42.543  26.956  25.495  1.00  0.00     0.002 A 
ATOM     89  C   UNL A   1      41.855  24.865  26.511  1.00  0.00     0.091 A 
ATOM     90  F   UNL A   1      40.819  24.904  28.661  1.00  0.00    -0.205 F 
ATOM     91  C   UNL A   1      42.415  25.571  25.434  1.00  0.00     0.022 A 
BRANCH  89  92
ATOM     92  S   UNL A   1      41.860  23.072  26.395  1.00  0.00     0.127 S 
ATOM     93  O   UNL A   1      40.448  22.785  26.150  1.00  0.00    -0.237 OA
ATOM     94  O   UNL A   1      42.741  22.849  25.248  1.00  0.00    -0.237 OA
ATOM     95  O   UNL A   1      42.388  22.596  27.665  1.00  0.00    -0.744 OA
ENDBRANCH  89  92
ENDBRANCH  61  85
BRANCH  73  96
ATOM     96  C   UNL A   1      36.342  31.395  29.113  1.00  0.00     0.023 A 
ATOM     97  C   UNL A   1      36.306  32.758  28.756  1.00  0.00     0.012 A 
ATOM     98  C   UNL A   1      35.342  30.529  28.628  1.00  0.00     0.148 A 
ATOM     99  C   UNL A   1      35.274  33.257  27.962  1.00  0.00     0.002 A 
ATOM    100  C   UNL A   1      34.346  31.023  27.793  1.00  0.00     0.091 A 
ATOM    101  F   UNL A   1      35.380  29.238  28.991  1.00  0.00    -0.205 F 
ATOM    102  C   UNL A   1      34.302  32.389  27.471  1.00  0.00     0.022 A 
BRANCH 100 103
ATOM    103  S   UNL A   1      33.117  29.960  27.027  1.00  0.00     0.127 S 
ATOM    104  O   UNL A   1      31.900  30.757  27.174  1.00  0.00    -0.237 OA
ATOM    105  O   UNL A   1      33.611  29.851  25.653  1.00  0.00    -0.237 OA
ATOM    106  O   UNL A   1      33.145  28.712  27.777  1.00  0.00    -0.744 OA
ENDBRANCH 100 103
ENDBRANCH  73  96
ENDBRANCH  47  48
ENDBRANCH  39  42
ENDBRANCH  37  38
ENDBRANCH  36  37
ENDBRANCH   1  36
TORSDOF 19
ENDMDL
MODEL 3
REMARK VINA RESULT:     -11.0      5.187     10.090
REMARK SMILES O=C(COc1nc(Nc2ccc(Cl)cc2Cl)nc2c1C[N@H+](Cc1ccccc1)CC2)NCCCNC(=O)c1ccc(-c2c3nc(c(-c4cccc(S(=O)(=O)[O-])c4F)c4ccc([nH]4)c(-c4cccc(S(=O)(=O)[O-])c4F)c4nc(c(-c5cccc(S(=O)(=O)[O-])c5F)c5ccc2[nH]5)C=C4)C=C3)cc1
REMARK SMILES IDX 32 1 31 2 1 3 2 4 3 6 4 7 5 8 6 9 19 10 7 11 18 12 20 13
REMARK SMILES IDX 17 14 30 15 21 16 29 17 8 19 9 21 10 22 15 23 11 24 14 25
REMARK SMILES IDX 16 26 12 27 13 28 22 29 23 30 24 31 28 32 25 33 27 34 26 35
REMARK SMILES IDX 33 36 34 37 35 38 36 39 37 41 38 42 39 43 100 44 40 45 99 46
REMARK SMILES IDX 41 47 42 48 43 49 93 50 44 51 98 52 92 53 94 54 45 55 97 56
REMARK SMILES IDX 91 57 90 58 46 60 78 61 58 62 77 63 59 64 62 65 76 66 95 67
REMARK SMILES IDX 60 68 61 69 75 71 96 72 63 73 47 74 48 75 56 76 49 77 51 78
REMARK SMILES IDX 57 79 50 80 52 81 53 82 54 83 55 84 79 85 80 86 88 87 81 88
REMARK SMILES IDX 83 89 89 90 82 91 84 92 85 93 86 94 87 95 64 96 65 97 73 98
REMARK SMILES IDX 66 99 68 100 74 101 67 102 69 103 70 104 71 105 72 106
REMARK H PARENT 31 5 21 18 8 20 35 40 94 59 62 70
REMARK Flexibility Score: inf
ROOT
ATOM      1  C   UNL A   1      42.262  22.075  25.747  1.00  0.00     0.117 C 
ENDROOT
BRANCH   1   2
ATOM      2  N   UNL A   1      42.887  23.242  26.323  1.00  0.00    -0.353 N 
ATOM      3  O   UNL A   1      44.144  23.777  24.465  1.00  0.00    -0.271 OA
ATOM      4  C   UNL A   1      43.687  24.074  25.566  1.00  0.00     0.258 C 
ATOM      5  H   UNL A   1      42.740  23.449  27.274  1.00  0.00     0.163 HD
BRANCH   4   6
ATOM      6  C   UNL A   1      44.026  25.400  26.248  1.00  0.00     0.331 C 
BRANCH   6   7
ATOM      7  O   UNL A   1      44.074  26.554  25.415  1.00  0.00    -0.467 OA
BRANCH   7   8
ATOM      8  C   UNL A   1      45.337  27.112  25.378  1.00  0.00     0.228 A 
ATOM      9  N   UNL A   1      46.253  26.528  24.600  1.00  0.00    -0.177 NA
ATOM     10  C   UNL A   1      45.525  28.317  26.014  1.00  0.00     0.090 A 
ATOM     11  C   UNL A   1      47.422  27.168  24.452  1.00  0.00     0.230 A 
ATOM     12  C   UNL A   1      46.743  28.919  25.787  1.00  0.00     0.064 A 
ATOM     13  C   UNL A   1      44.435  28.983  26.786  1.00  0.00     0.307 C 
ATOM     14  N   UNL A   1      47.706  28.349  25.029  1.00  0.00    -0.217 NA
ATOM     15  C   UNL A   1      47.042  30.257  26.413  1.00  0.00     0.118 C 
ATOM     16  N   UNL A   1      44.899  30.100  27.623  1.00  0.00    -0.327 N 
ATOM     17  C   UNL A   1      45.767  30.998  26.852  1.00  0.00     0.269 C 
ATOM     18  H   UNL A   1      45.472  29.720  28.376  1.00  0.00     0.348 HD
BRANCH  11  19
ATOM     19  N   UNL A   1      48.428  26.605  23.674  1.00  0.00    -0.323 N 
ATOM     20  H   UNL A   1      48.155  25.886  23.061  1.00  0.00     0.170 HD
BRANCH  19  21
ATOM     21  C   UNL A   1      49.785  26.947  23.665  1.00  0.00     0.060 A 
ATOM     22  C   UNL A   1      50.298  27.607  22.541  1.00  0.00     0.029 A 
ATOM     23  C   UNL A   1      50.678  26.586  24.691  1.00  0.00     0.066 A 
ATOM     24  C   UNL A   1      51.641  27.990  22.484  1.00  0.00     0.023 A 
ATOM     25  C   UNL A   1      52.026  26.954  24.632  1.00  0.00     0.043 A 
ATOM     26  Cl  UNL A   1      50.152  25.681  26.071  1.00  0.00    -0.082 Cl
ATOM     27  C   UNL A   1      52.494  27.677  23.538  1.00  0.00     0.042 A 
ATOM     28  Cl  UNL A   1      54.132  28.197  23.494  1.00  0.00    -0.084 Cl
ENDBRANCH  19  21
ENDBRANCH  11  19
BRANCH  16  29
ATOM     29  C   UNL A   1      43.787  30.783  28.311  1.00  0.00     0.299 C 
BRANCH  29  30
ATOM     30  C   UNL A   1      44.135  32.027  29.106  1.00  0.00     0.006 A 
ATOM     31  C   UNL A   1      43.210  33.073  29.231  1.00  0.00     0.009 A 
ATOM     32  C   UNL A   1      45.378  32.154  29.746  1.00  0.00     0.009 A 
ATOM     33  C   UNL A   1      43.504  34.191  30.015  1.00  0.00     0.001 A 
ATOM     34  C   UNL A   1      45.656  33.252  30.559  1.00  0.00     0.001 A 
ATOM     35  C   UNL A   1      44.717  34.270  30.695  1.00  0.00     0.000 A 
ENDBRANCH  29  30
ENDBRANCH  16  29
ENDBRANCH   7   8
ENDBRANCH   6   7
ENDBRANCH   4   6
ENDBRANCH   1   2
BRANCH   1  36
ATOM     36  C   UNL A   1      41.446  21.244  26.720  1.00  0.00     0.042 C 
BRANCH  36  37
ATOM     37  C   UNL A   1      40.304  22.000  27.387  1.00  0.00     0.118 C 
BRANCH  37  38
ATOM     38  N   UNL A   1      39.313  22.521  26.449  1.00  0.00    -0.352 N 
ATOM     39  C   UNL A   1      38.784  23.782  26.315  1.00  0.00     0.251 C 
ATOM     40  H   UNL A   1      38.967  21.859  25.807  1.00  0.00     0.163 HD
ATOM     41  O   UNL A   1      37.864  23.967  25.520  1.00  0.00    -0.269 OA
BRANCH  39  42
ATOM     42  C   UNL A   1      39.289  24.912  27.126  1.00  0.00     0.039 A 
ATOM     43  C   UNL A   1      40.152  25.841  26.533  1.00  0.00     0.014 A 
ATOM     44  C   UNL A   1      38.937  25.055  28.469  1.00  0.00     0.014 A 
ATOM     45  C   UNL A   1      40.597  26.947  27.263  1.00  0.00     0.010 A 
ATOM     46  C   UNL A   1      39.307  26.200  29.167  1.00  0.00     0.010 A 
ATOM     47  C   UNL A   1      40.148  27.155  28.576  1.00  0.00    -0.014 A 
BRANCH  47  48
ATOM     48  C   UNL A   1      40.552  28.344  29.370  1.00  0.00     0.031 A 
ATOM     49  C   UNL A   1      41.866  28.339  30.103  1.00  0.00     0.074 A 
ATOM     50  C   UNL A   1      39.701  29.380  29.513  1.00  0.00     0.049 A 
ATOM     51  N   UNL A   1      42.340  29.208  30.958  1.00  0.00    -0.248 NA
ATOM     52  C   UNL A   1      42.755  27.189  29.863  1.00  0.00     0.031 C 
ATOM     53  C   UNL A   1      38.379  29.484  28.893  1.00  0.00     0.029 A 
ATOM     54  N   UNL A   1      39.811  30.530  30.254  1.00  0.00    -0.354 N 
ATOM     55  C   UNL A   1      43.559  28.695  31.384  1.00  0.00     0.074 A 
ATOM     56  C   UNL A   1      43.736  27.420  30.723  1.00  0.00     0.031 C 
ATOM     57  C   UNL A   1      37.804  30.635  29.274  1.00  0.00     0.029 A 
ATOM     58  C   UNL A   1      38.695  31.332  30.197  1.00  0.00     0.049 A 
ATOM     59  H   UNL A   1      40.613  30.760  30.777  1.00  0.00     0.167 HD
ATOM     60  C   UNL A   1      44.465  29.249  32.223  1.00  0.00     0.034 A 
ATOM     61  C   UNL A   1      38.414  32.490  30.826  1.00  0.00     0.034 A 
ATOM     62  C   UNL A   1      44.306  30.536  32.843  1.00  0.00     0.049 A 
ATOM     63  C   UNL A   1      39.445  33.089  31.747  1.00  0.00     0.074 A 
ATOM     64  C   UNL A   1      45.194  31.210  33.664  1.00  0.00     0.029 A 
ATOM     65  N   UNL A   1      43.191  31.349  32.709  1.00  0.00    -0.354 N 
ATOM     66  N   UNL A   1      40.640  32.645  32.052  1.00  0.00    -0.248 NA
ATOM     67  C   UNL A   1      39.099  34.367  32.387  1.00  0.00     0.031 C 
ATOM     68  C   UNL A   1      44.606  32.422  34.042  1.00  0.00     0.029 A 
ATOM     69  C   UNL A   1      43.364  32.516  33.435  1.00  0.00     0.049 A 
ATOM     70  H   UNL A   1      42.392  31.129  32.176  1.00  0.00     0.167 HD
ATOM     71  C   UNL A   1      41.199  33.598  32.896  1.00  0.00     0.074 A 
ATOM     72  C   UNL A   1      40.224  34.660  33.028  1.00  0.00     0.031 C 
ATOM     73  C   UNL A   1      42.402  33.585  33.523  1.00  0.00     0.034 A 
BRANCH  60  74
ATOM     74  C   UNL A   1      45.745  28.492  32.473  1.00  0.00     0.023 A 
ATOM     75  C   UNL A   1      45.846  27.660  33.607  1.00  0.00     0.012 A 
ATOM     76  C   UNL A   1      46.815  28.543  31.557  1.00  0.00     0.148 A 
ATOM     77  C   UNL A   1      47.000  26.913  33.842  1.00  0.00     0.002 A 
ATOM     78  C   UNL A   1      47.942  27.757  31.772  1.00  0.00     0.091 A 
ATOM     79  F   UNL A   1      46.710  29.355  30.496  1.00  0.00    -0.205 F 
ATOM     80  C   UNL A   1      48.041  26.952  32.919  1.00  0.00     0.022 A 
BRANCH  78  81
ATOM     81  S   UNL A   1      49.304  27.667  30.603  1.00  0.00     0.127 S 
ATOM     82  O   UNL A   1      50.138  26.626  31.202  1.00  0.00    -0.237 OA
ATOM     83  O   UNL A   1      48.623  27.270  29.371  1.00  0.00    -0.237 OA
ATOM     84  O   UNL A   1      49.897  28.996  30.573  1.00  0.00    -0.744 OA
ENDBRANCH  78  81
ENDBRANCH  60  74
BRANCH  61  85
ATOM     85  C   UNL A   1      37.131  33.197  30.548  1.00  0.00     0.023 A 
ATOM     86  C   UNL A   1      36.815  33.545  29.219  1.00  0.00     0.012 A 
ATOM     87  C   UNL A   1      36.204  33.484  31.569  1.00  0.00     0.148 A 
ATOM     88  C   UNL A   1      35.616  34.189  28.916  1.00  0.00     0.002 A 
ATOM     89  C   UNL A   1      34.985  34.072  31.253  1.00  0.00     0.091 A 
ATOM     90  F   UNL A   1      36.527  33.155  32.829  1.00  0.00    -0.205 F 
ATOM     91  C   UNL A   1      34.695  34.440  29.930  1.00  0.00     0.022 A 
BRANCH  89  92
ATOM     92  S   UNL A   1      33.681  34.312  32.466  1.00  0.00     0.127 S 
ATOM     93  O   UNL A   1      33.434  32.943  32.915  1.00  0.00    -0.237 OA
ATOM     94  O   UNL A   1      34.341  35.174  33.447  1.00  0.00    -0.237 OA
ATOM     95  O   UNL A   1      32.584  34.945  31.746  1.00  0.00    -0.744 OA
ENDBRANCH  89  92
ENDBRANCH  61  85
BRANCH  73  96
ATOM     96  C   UNL A   1      42.745  34.761  34.405  1.00  0.00     0.023 A 
ATOM     97  C   UNL A   1      42.771  34.597  35.805  1.00  0.00     0.012 A 
ATOM     98  C   UNL A   1      43.113  36.002  33.850  1.00  0.00     0.148 A 
ATOM     99  C   UNL A   1      43.122  35.658  36.639  1.00  0.00     0.002 A 
ATOM    100  C   UNL A   1      43.514  37.040  34.685  1.00  0.00     0.091 A 
ATOM    101  F   UNL A   1      43.067  36.148  32.518  1.00  0.00    -0.205 F 
ATOM    102  C   UNL A   1      43.504  36.874  36.079  1.00  0.00     0.022 A 
BRANCH 100 103
ATOM    103  S   UNL A   1      44.126  38.605  34.049  1.00  0.00     0.127 S 
ATOM    104  O   UNL A   1      44.315  39.373  35.278  1.00  0.00    -0.237 OA
ATOM    105  O   UNL A   1      45.368  38.207  33.383  1.00  0.00    -0.237 OA
ATOM    106  O   UNL A   1      43.094  39.102  33.150  1.00  0.00    -0.744 OA
ENDBRANCH 100 103
ENDBRANCH  73  96
ENDBRANCH  47  48
ENDBRANCH  39  42
ENDBRANCH  37  38
ENDBRANCH  36  37
ENDBRANCH   1  36
TORSDOF 19
ENDMDL
