MODEL 1
REMARK VINA RESULT:     -10.8      0.000      0.000
REMARK SMILES CN(Cc1ccc(Cl)cc1Cl)S(=O)(=O)CCCC(=O)NCCCNC(=O)c1ccc(-c2c3nc(c(-c4cccc(S(=O)(=O)[O-])c4F)c4ccc([nH]4)c(-c4cccc(S(=O)(=O)[O-])c4F)c4nc(c(-c5cccc(S(=O)(=O)[O-])c5F)c5ccc2[nH]5)C=C4)C=C3)cc1
REMARK SMILES IDX 18 1 19 2 20 3 17 5 16 6 15 7 12 8 13 9 14 10 2 11 1 12 3 13
REMARK SMILES IDX 4 14 5 15 10 16 6 17 9 18 11 19 7 20 8 21 21 22 22 23 23 24
REMARK SMILES IDX 24 25 25 26 26 28 27 29 28 30 89 31 29 32 88 33 30 34 31 35
REMARK SMILES IDX 32 36 82 37 33 38 87 39 81 40 83 41 34 42 86 43 80 44 79 45
REMARK SMILES IDX 35 47 67 48 47 49 66 50 48 51 51 52 65 53 84 54 49 55 50 56
REMARK SMILES IDX 64 58 85 59 52 60 36 61 37 62 45 63 38 64 40 65 46 66 39 67
REMARK SMILES IDX 41 68 42 69 43 70 44 71 68 72 69 73 77 74 70 75 72 76 78 77
REMARK SMILES IDX 71 78 73 79 74 80 75 81 76 82 53 83 54 84 62 85 55 86 57 87
REMARK SMILES IDX 63 88 56 89 58 90 59 91 60 92 61 93
REMARK H PARENT 20 4 24 27 83 46 51 57
REMARK Flexibility Score: inf
ROOT
ATOM      1  C   UNL A   1      36.795  23.056  25.145  1.00  0.00     0.220 C 
ATOM      2  O   UNL A   1      36.962  24.034  25.876  1.00  0.00    -0.275 OA
ATOM      3  N   UNL A   1      37.124  21.822  25.633  1.00  0.00    -0.356 N 
ATOM      4  H   UNL A   1      37.591  21.802  26.499  1.00  0.00     0.163 HD
ENDROOT
BRANCH   1   5
ATOM      5  C   UNL A   1      36.181  23.212  23.749  1.00  0.00     0.101 C 
BRANCH   5   6
ATOM      6  C   UNL A   1      34.688  23.555  23.715  1.00  0.00     0.027 C 
BRANCH   6   7
ATOM      7  C   UNL A   1      33.863  23.366  24.993  1.00  0.00     0.155 C 
BRANCH   7   8
ATOM      8  S   UNL A   1      32.174  22.762  24.861  1.00  0.00     0.214 S 
ATOM      9  O   UNL A   1      32.123  21.447  25.464  1.00  0.00    -0.212 OA
ATOM     10  O   UNL A   1      31.768  22.918  23.476  1.00  0.00    -0.212 OA
BRANCH   8  11
ATOM     11  N   UNL A   1      31.129  23.718  25.761  1.00  0.00    -0.201 NA
ATOM     12  C   UNL A   1      30.271  22.980  26.707  1.00  0.00     0.124 C 
BRANCH  11  13
ATOM     13  C   UNL A   1      31.363  25.114  26.139  1.00  0.00     0.138 C 
BRANCH  13  14
ATOM     14  C   UNL A   1      30.860  26.306  25.353  1.00  0.00    -0.014 A 
ATOM     15  C   UNL A   1      29.894  26.076  24.349  1.00  0.00     0.008 A 
ATOM     16  C   UNL A   1      31.428  27.591  25.414  1.00  0.00     0.047 A 
ATOM     17  C   UNL A   1      29.509  27.087  23.461  1.00  0.00     0.021 A 
ATOM     18  C   UNL A   1      31.023  28.610  24.543  1.00  0.00     0.041 A 
ATOM     19  Cl  UNL A   1      32.726  28.000  26.462  1.00  0.00    -0.084 Cl
ATOM     20  C   UNL A   1      30.068  28.355  23.570  1.00  0.00     0.042 A 
ATOM     21  Cl  UNL A   1      29.597  29.602  22.484  1.00  0.00    -0.084 Cl
ENDBRANCH  13  14
ENDBRANCH  11  13
ENDBRANCH   8  11
ENDBRANCH   7   8
ENDBRANCH   6   7
ENDBRANCH   5   6
ENDBRANCH   1   5
BRANCH   3  22
ATOM     22  C   UNL A   1      36.860  20.550  25.017  1.00  0.00     0.117 C 
BRANCH  22  23
ATOM     23  C   UNL A   1      38.006  19.565  25.001  1.00  0.00     0.042 C 
BRANCH  23  24
ATOM     24  C   UNL A   1      39.102  19.912  25.988  1.00  0.00     0.118 C 
BRANCH  24  25
ATOM     25  N   UNL A   1      40.328  19.126  25.820  1.00  0.00    -0.352 N 
ATOM     26  C   UNL A   1      41.659  19.455  25.961  1.00  0.00     0.251 C 
ATOM     27  H   UNL A   1      40.172  18.189  25.559  1.00  0.00     0.163 HD
ATOM     28  O   UNL A   1      42.512  18.606  25.711  1.00  0.00    -0.269 OA
BRANCH  26  29
ATOM     29  C   UNL A   1      42.067  20.813  26.378  1.00  0.00     0.039 A 
ATOM     30  C   UNL A   1      42.316  21.087  27.728  1.00  0.00     0.014 A 
ATOM     31  C   UNL A   1      42.210  21.824  25.434  1.00  0.00     0.014 A 
ATOM     32  C   UNL A   1      42.803  22.345  28.103  1.00  0.00     0.010 A 
ATOM     33  C   UNL A   1      42.834  23.010  25.783  1.00  0.00     0.010 A 
ATOM     34  C   UNL A   1      43.112  23.302  27.125  1.00  0.00    -0.014 A 
BRANCH  34  35
ATOM     35  C   UNL A   1      43.674  24.642  27.439  1.00  0.00     0.031 A 
ATOM     36  C   UNL A   1      42.753  25.715  27.970  1.00  0.00     0.074 A 
ATOM     37  C   UNL A   1      44.945  24.944  27.107  1.00  0.00     0.049 A 
ATOM     38  N   UNL A   1      42.956  27.001  28.084  1.00  0.00    -0.248 NA
ATOM     39  C   UNL A   1      41.396  25.290  28.362  1.00  0.00     0.031 C 
ATOM     40  C   UNL A   1      45.911  24.022  26.508  1.00  0.00     0.029 A 
ATOM     41  N   UNL A   1      45.629  26.132  27.187  1.00  0.00    -0.354 N 
ATOM     42  C   UNL A   1      41.737  27.541  28.480  1.00  0.00     0.074 A 
ATOM     43  C   UNL A   1      40.789  26.453  28.542  1.00  0.00     0.031 C 
ATOM     44  C   UNL A   1      47.063  24.676  26.278  1.00  0.00     0.029 A 
ATOM     45  C   UNL A   1      46.904  26.071  26.673  1.00  0.00     0.049 A 
ATOM     46  H   UNL A   1      45.243  26.951  27.575  1.00  0.00     0.167 HD
ATOM     47  C   UNL A   1      41.439  28.822  28.802  1.00  0.00     0.034 A 
ATOM     48  C   UNL A   1      47.833  27.036  26.526  1.00  0.00     0.034 A 
ATOM     49  C   UNL A   1      42.413  29.877  28.838  1.00  0.00     0.049 A 
ATOM     50  C   UNL A   1      47.510  28.433  26.984  1.00  0.00     0.074 A 
ATOM     51  C   UNL A   1      42.254  31.181  29.267  1.00  0.00     0.029 A 
ATOM     52  N   UNL A   1      43.736  29.740  28.444  1.00  0.00    -0.354 N 
ATOM     53  N   UNL A   1      46.391  28.897  27.488  1.00  0.00    -0.248 NA
ATOM     54  C   UNL A   1      48.584  29.430  26.887  1.00  0.00     0.031 C 
ATOM     55  C   UNL A   1      43.480  31.838  29.122  1.00  0.00     0.029 A 
ATOM     56  C   UNL A   1      44.406  30.935  28.623  1.00  0.00     0.049 A 
ATOM     57  H   UNL A   1      44.137  28.914  28.090  1.00  0.00     0.167 HD
ATOM     58  C   UNL A   1      46.639  30.228  27.804  1.00  0.00     0.074 A 
ATOM     59  C   UNL A   1      48.019  30.490  27.452  1.00  0.00     0.031 C 
ATOM     60  C   UNL A   1      45.798  31.155  28.325  1.00  0.00     0.034 A 
BRANCH  47  61
ATOM     61  C   UNL A   1      40.022  29.134  29.209  1.00  0.00     0.023 A 
ATOM     62  C   UNL A   1      39.056  29.414  28.219  1.00  0.00     0.012 A 
ATOM     63  C   UNL A   1      39.632  29.110  30.562  1.00  0.00     0.148 A 
ATOM     64  C   UNL A   1      37.741  29.712  28.571  1.00  0.00     0.002 A 
ATOM     65  C   UNL A   1      38.306  29.357  30.902  1.00  0.00     0.091 A 
ATOM     66  F   UNL A   1      40.565  28.863  31.493  1.00  0.00    -0.205 F 
ATOM     67  C   UNL A   1      37.363  29.672  29.909  1.00  0.00     0.022 A 
BRANCH  65  68
ATOM     68  S   UNL A   1      37.699  29.246  32.588  1.00  0.00     0.127 S 
ATOM     69  O   UNL A   1      36.337  29.760  32.445  1.00  0.00    -0.237 OA
ATOM     70  O   UNL A   1      37.782  27.810  32.852  1.00  0.00    -0.237 OA
ATOM     71  O   UNL A   1      38.594  30.065  33.393  1.00  0.00    -0.744 OA
ENDBRANCH  65  68
ENDBRANCH  47  61
BRANCH  48  72
ATOM     72  C   UNL A   1      49.183  26.696  25.990  1.00  0.00     0.023 A 
ATOM     73  C   UNL A   1      50.053  25.911  26.773  1.00  0.00     0.012 A 
ATOM     74  C   UNL A   1      49.599  27.110  24.711  1.00  0.00     0.148 A 
ATOM     75  C   UNL A   1      51.323  25.573  26.306  1.00  0.00     0.002 A 
ATOM     76  C   UNL A   1      50.845  26.724  24.229  1.00  0.00     0.091 A 
ATOM     77  F   UNL A   1      48.761  27.863  23.984  1.00  0.00    -0.205 F 
ATOM     78  C   UNL A   1      51.715  25.969  25.031  1.00  0.00     0.022 A 
BRANCH  76  79
ATOM     79  S   UNL A   1      51.382  27.079  22.551  1.00  0.00     0.127 S 
ATOM     80  O   UNL A   1      51.694  28.503  22.633  1.00  0.00    -0.237 OA
ATOM     81  O   UNL A   1      52.544  26.200  22.413  1.00  0.00    -0.237 OA
ATOM     82  O   UNL A   1      50.257  26.723  21.697  1.00  0.00    -0.744 OA
ENDBRANCH  76  79
ENDBRANCH  48  72
BRANCH  60  83
ATOM     83  C   UNL A   1      46.350  32.528  28.595  1.00  0.00     0.023 A 
ATOM     84  C   UNL A   1      47.016  32.790  29.808  1.00  0.00     0.012 A 
ATOM     85  C   UNL A   1      46.287  33.530  27.607  1.00  0.00     0.148 A 
ATOM     86  C   UNL A   1      47.588  34.039  30.044  1.00  0.00     0.002 A 
ATOM     87  C   UNL A   1      46.902  34.754  27.828  1.00  0.00     0.091 A 
ATOM     88  F   UNL A   1      45.632  33.263  26.468  1.00  0.00    -0.205 F 
ATOM     89  C   UNL A   1      47.543  35.015  29.050  1.00  0.00     0.022 A 
BRANCH  87  90
ATOM     90  S   UNL A   1      46.983  36.033  26.568  1.00  0.00     0.127 S 
ATOM     91  O   UNL A   1      47.589  35.312  25.451  1.00  0.00    -0.237 OA
ATOM     92  O   UNL A   1      45.572  36.373  26.382  1.00  0.00    -0.237 OA
ATOM     93  O   UNL A   1      47.792  37.103  27.135  1.00  0.00    -0.744 OA
ENDBRANCH  87  90
ENDBRANCH  60  83
ENDBRANCH  34  35
ENDBRANCH  26  29
ENDBRANCH  24  25
ENDBRANCH  23  24
ENDBRANCH  22  23
ENDBRANCH   3  22
TORSDOF 19
ENDMDL
MODEL 2
REMARK VINA RESULT:     -10.8      2.322      3.295
REMARK SMILES CN(Cc1ccc(Cl)cc1Cl)S(=O)(=O)CCCC(=O)NCCCNC(=O)c1ccc(-c2c3nc(c(-c4cccc(S(=O)(=O)[O-])c4F)c4ccc([nH]4)c(-c4cccc(S(=O)(=O)[O-])c4F)c4nc(c(-c5cccc(S(=O)(=O)[O-])c5F)c5ccc2[nH]5)C=C4)C=C3)cc1
REMARK SMILES IDX 18 1 19 2 20 3 17 5 16 6 15 7 12 8 13 9 14 10 2 11 1 12 3 13
REMARK SMILES IDX 4 14 5 15 10 16 6 17 9 18 11 19 7 20 8 21 21 22 22 23 23 24
REMARK SMILES IDX 24 25 25 26 26 28 27 29 28 30 89 31 29 32 88 33 30 34 31 35
REMARK SMILES IDX 32 36 82 37 33 38 87 39 81 40 83 41 34 42 86 43 80 44 79 45
REMARK SMILES IDX 35 47 67 48 47 49 66 50 48 51 51 52 65 53 84 54 49 55 50 56
REMARK SMILES IDX 64 58 85 59 52 60 36 61 37 62 45 63 38 64 40 65 46 66 39 67
REMARK SMILES IDX 41 68 42 69 43 70 44 71 68 72 69 73 77 74 70 75 72 76 78 77
REMARK SMILES IDX 71 78 73 79 74 80 75 81 76 82 53 83 54 84 62 85 55 86 57 87
REMARK SMILES IDX 63 88 56 89 58 90 59 91 60 92 61 93
REMARK H PARENT 20 4 24 27 83 46 51 57
REMARK Flexibility Score: inf
ROOT
ATOM      1  C   UNL A   1      36.939  22.803  25.073  1.00  0.00     0.220 C 
ATOM      2  O   UNL A   1      36.954  23.736  25.879  1.00  0.00    -0.275 OA
ATOM      3  N   UNL A   1      37.209  21.545  25.537  1.00  0.00    -0.356 N 
ATOM      4  H   UNL A   1      37.521  21.478  26.467  1.00  0.00     0.163 HD
ENDROOT
BRANCH   1   5
ATOM      5  C   UNL A   1      36.569  23.039  23.604  1.00  0.00     0.101 C 
BRANCH   5   6
ATOM      6  C   UNL A   1      35.069  23.062  23.292  1.00  0.00     0.027 C 
BRANCH   6   7
ATOM      7  C   UNL A   1      34.281  24.345  23.575  1.00  0.00     0.155 C 
BRANCH   7   8
ATOM      8  S   UNL A   1      33.083  24.358  24.917  1.00  0.00     0.214 S 
ATOM      9  O   UNL A   1      31.766  24.512  24.336  1.00  0.00    -0.212 OA
ATOM     10  O   UNL A   1      33.541  25.330  25.892  1.00  0.00    -0.212 OA
BRANCH   8  11
ATOM     11  N   UNL A   1      33.063  22.879  25.709  1.00  0.00    -0.201 NA
ATOM     12  C   UNL A   1      33.675  22.885  27.051  1.00  0.00     0.124 C 
BRANCH  11  13
ATOM     13  C   UNL A   1      32.066  21.823  25.518  1.00  0.00     0.138 C 
BRANCH  13  14
ATOM     14  C   UNL A   1      32.361  20.473  24.901  1.00  0.00    -0.014 A 
ATOM     15  C   UNL A   1      32.849  19.452  25.746  1.00  0.00     0.008 A 
ATOM     16  C   UNL A   1      32.371  20.220  23.517  1.00  0.00     0.047 A 
ATOM     17  C   UNL A   1      33.312  18.237  25.229  1.00  0.00     0.021 A 
ATOM     18  C   UNL A   1      32.810  18.994  23.003  1.00  0.00     0.041 A 
ATOM     19  Cl  UNL A   1      31.966  21.403  22.339  1.00  0.00    -0.084 Cl
ATOM     20  C   UNL A   1      33.280  18.009  23.858  1.00  0.00     0.042 A 
ATOM     21  Cl  UNL A   1      33.846  16.517  23.218  1.00  0.00    -0.084 Cl
ENDBRANCH  13  14
ENDBRANCH  11  13
ENDBRANCH   8  11
ENDBRANCH   7   8
ENDBRANCH   6   7
ENDBRANCH   5   6
ENDBRANCH   1   5
BRANCH   3  22
ATOM     22  C   UNL A   1      37.086  20.311  24.810  1.00  0.00     0.117 C 
BRANCH  22  23
ATOM     23  C   UNL A   1      38.129  19.258  25.101  1.00  0.00     0.042 C 
BRANCH  23  24
ATOM     24  C   UNL A   1      39.238  19.754  26.008  1.00  0.00     0.118 C 
BRANCH  24  25
ATOM     25  N   UNL A   1      40.515  19.057  25.825  1.00  0.00    -0.352 N 
ATOM     26  C   UNL A   1      41.820  19.478  25.960  1.00  0.00     0.251 C 
ATOM     27  H   UNL A   1      40.423  18.113  25.557  1.00  0.00     0.163 HD
ATOM     28  O   UNL A   1      42.729  18.694  25.698  1.00  0.00    -0.269 OA
BRANCH  26  29
ATOM     29  C   UNL A   1      42.134  20.858  26.386  1.00  0.00     0.039 A 
ATOM     30  C   UNL A   1      42.146  21.186  27.746  1.00  0.00     0.014 A 
ATOM     31  C   UNL A   1      42.424  21.836  25.441  1.00  0.00     0.014 A 
ATOM     32  C   UNL A   1      42.547  22.467  28.149  1.00  0.00     0.010 A 
ATOM     33  C   UNL A   1      42.964  23.045  25.843  1.00  0.00     0.010 A 
ATOM     34  C   UNL A   1      43.006  23.392  27.200  1.00  0.00    -0.014 A 
BRANCH  34  35
ATOM     35  C   UNL A   1      43.490  24.754  27.551  1.00  0.00     0.031 A 
ATOM     36  C   UNL A   1      42.525  25.735  28.174  1.00  0.00     0.074 A 
ATOM     37  C   UNL A   1      44.720  25.159  27.176  1.00  0.00     0.049 A 
ATOM     38  N   UNL A   1      42.644  27.025  28.339  1.00  0.00    -0.248 NA
ATOM     39  C   UNL A   1      41.221  25.199  28.606  1.00  0.00     0.031 C 
ATOM     40  C   UNL A   1      45.717  24.334  26.491  1.00  0.00     0.029 A 
ATOM     41  N   UNL A   1      45.324  26.387  27.281  1.00  0.00    -0.354 N 
ATOM     42  C   UNL A   1      41.412  27.461  28.814  1.00  0.00     0.074 A 
ATOM     43  C   UNL A   1      40.545  26.307  28.868  1.00  0.00     0.031 C 
ATOM     44  C   UNL A   1      46.808  25.077  26.241  1.00  0.00     0.029 A 
ATOM     45  C   UNL A   1      46.574  26.438  26.708  1.00  0.00     0.049 A 
ATOM     46  H   UNL A   1      44.903  27.159  27.725  1.00  0.00     0.167 HD
ATOM     47  C   UNL A   1      41.044  28.702  29.210  1.00  0.00     0.034 A 
ATOM     48  C   UNL A   1      47.427  27.472  26.564  1.00  0.00     0.034 A 
ATOM     49  C   UNL A   1      41.944  29.820  29.251  1.00  0.00     0.049 A 
ATOM     50  C   UNL A   1      47.032  28.821  27.102  1.00  0.00     0.074 A 
ATOM     51  C   UNL A   1      41.718  31.090  29.748  1.00  0.00     0.029 A 
ATOM     52  N   UNL A   1      43.253  29.794  28.792  1.00  0.00    -0.354 N 
ATOM     53  N   UNL A   1      45.910  29.183  27.677  1.00  0.00    -0.248 NA
ATOM     54  C   UNL A   1      48.030  29.895  27.003  1.00  0.00     0.031 C 
ATOM     55  C   UNL A   1      42.887  31.837  29.579  1.00  0.00     0.029 A 
ATOM     56  C   UNL A   1      43.848  31.024  28.996  1.00  0.00     0.049 A 
ATOM     57  H   UNL A   1      43.692  29.015  28.381  1.00  0.00     0.167 HD
ATOM     58  C   UNL A   1      46.081  30.513  28.044  1.00  0.00     0.074 A 
ATOM     59  C   UNL A   1      47.422  30.886  27.643  1.00  0.00     0.031 C 
ATOM     60  C   UNL A   1      45.206  31.354  28.646  1.00  0.00     0.034 A 
BRANCH  47  61
ATOM     61  C   UNL A   1      39.630  28.896  29.695  1.00  0.00     0.023 A 
ATOM     62  C   UNL A   1      39.295  28.561  31.024  1.00  0.00     0.012 A 
ATOM     63  C   UNL A   1      38.643  29.446  28.855  1.00  0.00     0.148 A 
ATOM     64  C   UNL A   1      37.994  28.727  31.494  1.00  0.00     0.002 A 
ATOM     65  C   UNL A   1      37.359  29.657  29.347  1.00  0.00     0.091 A 
ATOM     66  F   UNL A   1      38.970  29.740  27.588  1.00  0.00    -0.205 F 
ATOM     67  C   UNL A   1      37.029  29.284  30.660  1.00  0.00     0.022 A 
BRANCH  65  68
ATOM     68  S   UNL A   1      36.067  30.448  28.382  1.00  0.00     0.127 S 
ATOM     69  O   UNL A   1      35.212  31.000  29.432  1.00  0.00    -0.237 OA
ATOM     70  O   UNL A   1      36.818  31.446  27.621  1.00  0.00    -0.237 OA
ATOM     71  O   UNL A   1      35.465  29.395  27.577  1.00  0.00    -0.744 OA
ENDBRANCH  65  68
ENDBRANCH  47  61
BRANCH  48  72
ATOM     72  C   UNL A   1      48.769  27.252  25.953  1.00  0.00     0.023 A 
ATOM     73  C   UNL A   1      49.809  26.733  26.750  1.00  0.00     0.012 A 
ATOM     74  C   UNL A   1      49.017  27.516  24.593  1.00  0.00     0.148 A 
ATOM     75  C   UNL A   1      51.078  26.514  26.214  1.00  0.00     0.002 A 
ATOM     76  C   UNL A   1      50.269  27.244  24.051  1.00  0.00     0.091 A 
ATOM     77  F   UNL A   1      48.019  28.017  23.851  1.00  0.00    -0.205 F 
ATOM     78  C   UNL A   1      51.305  26.758  24.863  1.00  0.00     0.022 A 
BRANCH  76  79
ATOM     79  S   UNL A   1      50.615  27.407  22.295  1.00  0.00     0.127 S 
ATOM     80  O   UNL A   1      50.494  28.848  22.099  1.00  0.00    -0.237 OA
ATOM     81  O   UNL A   1      51.979  26.885  22.206  1.00  0.00    -0.237 OA
ATOM     82  O   UNL A   1      49.615  26.589  21.622  1.00  0.00    -0.744 OA
ENDBRANCH  76  79
ENDBRANCH  48  72
BRANCH  60  83
ATOM     83  C   UNL A   1      45.675  32.750  28.956  1.00  0.00     0.023 A 
ATOM     84  C   UNL A   1      46.379  33.005  30.148  1.00  0.00     0.012 A 
ATOM     85  C   UNL A   1      45.496  33.787  28.019  1.00  0.00     0.148 A 
ATOM     86  C   UNL A   1      46.876  34.279  30.416  1.00  0.00     0.002 A 
ATOM     87  C   UNL A   1      46.036  35.041  28.270  1.00  0.00     0.091 A 
ATOM     88  F   UNL A   1      44.807  33.525  26.899  1.00  0.00    -0.205 F 
ATOM     89  C   UNL A   1      46.716  35.292  29.473  1.00  0.00     0.022 A 
BRANCH  87  90
ATOM     90  S   UNL A   1      45.969  36.376  27.069  1.00  0.00     0.127 S 
ATOM     91  O   UNL A   1      46.569  35.750  25.894  1.00  0.00    -0.237 OA
ATOM     92  O   UNL A   1      44.531  36.624  26.963  1.00  0.00    -0.237 OA
ATOM     93  O   UNL A   1      46.729  37.475  27.649  1.00  0.00    -0.744 OA
ENDBRANCH  87  90
ENDBRANCH  60  83
ENDBRANCH  34  35
ENDBRANCH  26  29
ENDBRANCH  24  25
ENDBRANCH  23  24
ENDBRANCH  22  23
ENDBRANCH   3  22
TORSDOF 19
ENDMDL
MODEL 3
REMARK VINA RESULT:     -10.8      2.500      8.252
REMARK SMILES CN(Cc1ccc(Cl)cc1Cl)S(=O)(=O)CCCC(=O)NCCCNC(=O)c1ccc(-c2c3nc(c(-c4cccc(S(=O)(=O)[O-])c4F)c4ccc([nH]4)c(-c4cccc(S(=O)(=O)[O-])c4F)c4nc(c(-c5cccc(S(=O)(=O)[O-])c5F)c5ccc2[nH]5)C=C4)C=C3)cc1
REMARK SMILES IDX 18 1 19 2 20 3 17 5 16 6 15 7 12 8 13 9 14 10 2 11 1 12 3 13
REMARK SMILES IDX 4 14 5 15 10 16 6 17 9 18 11 19 7 20 8 21 21 22 22 23 23 24
REMARK SMILES IDX 24 25 25 26 26 28 27 29 28 30 89 31 29 32 88 33 30 34 31 35
REMARK SMILES IDX 32 36 82 37 33 38 87 39 81 40 83 41 34 42 86 43 80 44 79 45
REMARK SMILES IDX 35 47 67 48 47 49 66 50 48 51 51 52 65 53 84 54 49 55 50 56
REMARK SMILES IDX 64 58 85 59 52 60 36 61 37 62 45 63 38 64 40 65 46 66 39 67
REMARK SMILES IDX 41 68 42 69 43 70 44 71 68 72 69 73 77 74 70 75 72 76 78 77
REMARK SMILES IDX 71 78 73 79 74 80 75 81 76 82 53 83 54 84 62 85 55 86 57 87
REMARK SMILES IDX 63 88 56 89 58 90 59 91 60 92 61 93
REMARK H PARENT 20 4 24 27 83 46 51 57
REMARK Flexibility Score: inf
ROOT
ATOM      1  C   UNL A   1      36.812  22.802  24.914  1.00  0.00     0.220 C 
ATOM      2  O   UNL A   1      36.673  23.729  25.715  1.00  0.00    -0.275 OA
ATOM      3  N   UNL A   1      37.230  21.592  25.395  1.00  0.00    -0.356 N 
ATOM      4  H   UNL A   1      37.514  21.568  26.336  1.00  0.00     0.163 HD
ENDROOT
BRANCH   1   5
ATOM      5  C   UNL A   1      36.468  22.984  23.431  1.00  0.00     0.101 C 
BRANCH   5   6
ATOM      6  C   UNL A   1      34.975  23.090  23.104  1.00  0.00     0.027 C 
BRANCH   6   7
ATOM      7  C   UNL A   1      34.239  24.389  23.448  1.00  0.00     0.155 C 
BRANCH   7   8
ATOM      8  S   UNL A   1      32.852  24.332  24.593  1.00  0.00     0.214 S 
ATOM      9  O   UNL A   1      31.633  24.286  23.814  1.00  0.00    -0.212 OA
ATOM     10  O   UNL A   1      33.038  25.409  25.547  1.00  0.00    -0.212 OA
BRANCH   8  11
ATOM     11  N   UNL A   1      32.878  22.911  25.486  1.00  0.00    -0.201 NA
ATOM     12  C   UNL A   1      33.439  23.041  26.843  1.00  0.00     0.124 C 
BRANCH  11  13
ATOM     13  C   UNL A   1      31.942  21.794  25.336  1.00  0.00     0.138 C 
BRANCH  13  14
ATOM     14  C   UNL A   1      32.315  20.439  24.774  1.00  0.00    -0.014 A 
ATOM     15  C   UNL A   1      32.899  19.498  25.651  1.00  0.00     0.008 A 
ATOM     16  C   UNL A   1      32.303  20.118  23.405  1.00  0.00     0.047 A 
ATOM     17  C   UNL A   1      33.434  18.294  25.178  1.00  0.00     0.021 A 
ATOM     18  C   UNL A   1      32.814  18.902  22.936  1.00  0.00     0.041 A 
ATOM     19  Cl  UNL A   1      31.780  21.209  22.185  1.00  0.00    -0.084 Cl
ATOM     20  C   UNL A   1      33.378  17.996  23.822  1.00  0.00     0.042 A 
ATOM     21  Cl  UNL A   1      34.030  16.517  23.235  1.00  0.00    -0.084 Cl
ENDBRANCH  13  14
ENDBRANCH  11  13
ENDBRANCH   8  11
ENDBRANCH   7   8
ENDBRANCH   6   7
ENDBRANCH   5   6
ENDBRANCH   1   5
BRANCH   3  22
ATOM     22  C   UNL A   1      37.299  20.352  24.672  1.00  0.00     0.117 C 
BRANCH  22  23
ATOM     23  C   UNL A   1      38.350  19.368  25.131  1.00  0.00     0.042 C 
BRANCH  23  24
ATOM     24  C   UNL A   1      39.423  20.004  25.992  1.00  0.00     0.118 C 
BRANCH  24  25
ATOM     25  N   UNL A   1      40.641  19.197  26.121  1.00  0.00    -0.352 N 
ATOM     26  C   UNL A   1      41.957  19.546  26.332  1.00  0.00     0.251 C 
ATOM     27  H   UNL A   1      40.490  18.227  26.042  1.00  0.00     0.163 HD
ATOM     28  O   UNL A   1      42.811  18.663  26.354  1.00  0.00    -0.269 OA
BRANCH  26  29
ATOM     29  C   UNL A   1      42.351  20.961  26.504  1.00  0.00     0.039 A 
ATOM     30  C   UNL A   1      42.500  21.788  25.385  1.00  0.00     0.014 A 
ATOM     31  C   UNL A   1      42.572  21.478  27.775  1.00  0.00     0.014 A 
ATOM     32  C   UNL A   1      42.771  23.151  25.559  1.00  0.00     0.010 A 
ATOM     33  C   UNL A   1      42.687  22.847  27.952  1.00  0.00     0.010 A 
ATOM     34  C   UNL A   1      42.818  23.701  26.849  1.00  0.00    -0.014 A 
BRANCH  34  35
ATOM     35  C   UNL A   1      43.056  25.144  27.116  1.00  0.00     0.031 A 
ATOM     36  C   UNL A   1      44.461  25.687  27.002  1.00  0.00     0.074 A 
ATOM     37  C   UNL A   1      42.067  25.919  27.605  1.00  0.00     0.049 A 
ATOM     38  N   UNL A   1      44.945  26.829  27.413  1.00  0.00    -0.248 NA
ATOM     39  C   UNL A   1      45.471  24.793  26.406  1.00  0.00     0.031 C 
ATOM     40  C   UNL A   1      40.688  25.492  27.842  1.00  0.00     0.029 A 
ATOM     41  N   UNL A   1      42.087  27.224  28.033  1.00  0.00    -0.354 N 
ATOM     42  C   UNL A   1      46.317  26.756  27.200  1.00  0.00     0.074 A 
ATOM     43  C   UNL A   1      46.595  25.443  26.667  1.00  0.00     0.031 C 
ATOM     44  C   UNL A   1      39.993  26.515  28.369  1.00  0.00     0.029 A 
ATOM     45  C   UNL A   1      40.885  27.655  28.546  1.00  0.00     0.049 A 
ATOM     46  H   UNL A   1      42.886  27.797  27.978  1.00  0.00     0.167 HD
ATOM     47  C   UNL A   1      47.259  27.709  27.391  1.00  0.00     0.034 A 
ATOM     48  C   UNL A   1      40.547  28.832  29.108  1.00  0.00     0.034 A 
ATOM     49  C   UNL A   1      46.958  29.045  27.823  1.00  0.00     0.049 A 
ATOM     50  C   UNL A   1      41.591  29.911  29.219  1.00  0.00     0.074 A 
ATOM     51  C   UNL A   1      47.811  30.127  27.933  1.00  0.00     0.029 A 
ATOM     52  N   UNL A   1      45.698  29.486  28.198  1.00  0.00    -0.354 N 
ATOM     53  N   UNL A   1      42.858  29.870  28.882  1.00  0.00    -0.248 NA
ATOM     54  C   UNL A   1      41.154  31.207  29.755  1.00  0.00     0.031 C 
ATOM     55  C   UNL A   1      47.068  31.221  28.387  1.00  0.00     0.029 A 
ATOM     56  C   UNL A   1      45.748  30.824  28.538  1.00  0.00     0.049 A 
ATOM     57  H   UNL A   1      44.887  28.927  28.219  1.00  0.00     0.167 HD
ATOM     58  C   UNL A   1      43.360  31.143  29.126  1.00  0.00     0.074 A 
ATOM     59  C   UNL A   1      42.255  31.937  29.624  1.00  0.00     0.031 C 
ATOM     60  C   UNL A   1      44.622  31.611  28.969  1.00  0.00     0.034 A 
BRANCH  47  61
ATOM     61  C   UNL A   1      48.689  27.360  27.068  1.00  0.00     0.023 A 
ATOM     62  C   UNL A   1      49.494  26.736  28.044  1.00  0.00     0.012 A 
ATOM     63  C   UNL A   1      49.226  27.609  25.790  1.00  0.00     0.148 A 
ATOM     64  C   UNL A   1      50.821  26.409  27.771  1.00  0.00     0.002 A 
ATOM     65  C   UNL A   1      50.535  27.232  25.508  1.00  0.00     0.091 A 
ATOM     66  F   UNL A   1      48.456  28.221  24.879  1.00  0.00    -0.205 F 
ATOM     67  C   UNL A   1      51.338  26.647  26.501  1.00  0.00     0.022 A 
BRANCH  65  68
ATOM     68  S   UNL A   1      51.269  27.415  23.879  1.00  0.00     0.127 S 
ATOM     69  O   UNL A   1      51.354  28.870  23.756  1.00  0.00    -0.237 OA
ATOM     70  O   UNL A   1      52.557  26.742  24.044  1.00  0.00    -0.237 OA
ATOM     71  O   UNL A   1      50.356  26.763  22.951  1.00  0.00    -0.744 OA
ENDBRANCH  65  68
ENDBRANCH  47  61
BRANCH  48  72
ATOM     72  C   UNL A   1      39.140  29.078  29.535  1.00  0.00     0.023 A 
ATOM     73  C   UNL A   1      38.782  28.850  30.879  1.00  0.00     0.012 A 
ATOM     74  C   UNL A   1      38.168  29.563  28.640  1.00  0.00     0.148 A 
ATOM     75  C   UNL A   1      37.475  29.069  31.316  1.00  0.00     0.002 A 
ATOM     76  C   UNL A   1      36.880  29.830  29.095  1.00  0.00     0.091 A 
ATOM     77  F   UNL A   1      38.524  29.766  27.364  1.00  0.00    -0.205 F 
ATOM     78  C   UNL A   1      36.528  29.569  30.428  1.00  0.00     0.022 A 
BRANCH  76  79
ATOM     79  S   UNL A   1      35.631  30.596  28.055  1.00  0.00     0.127 S 
ATOM     80  O   UNL A   1      34.535  30.793  29.000  1.00  0.00    -0.237 OA
ATOM     81  O   UNL A   1      36.303  31.823  27.627  1.00  0.00    -0.237 OA
ATOM     82  O   UNL A   1      35.379  29.645  26.981  1.00  0.00    -0.744 OA
ENDBRANCH  76  79
ENDBRANCH  48  72
BRANCH  60  83
ATOM     83  C   UNL A   1      44.877  33.059  29.288  1.00  0.00     0.023 A 
ATOM     84  C   UNL A   1      45.327  33.426  30.572  1.00  0.00     0.012 A 
ATOM     85  C   UNL A   1      44.760  34.042  28.286  1.00  0.00     0.148 A 
ATOM     86  C   UNL A   1      45.630  34.755  30.860  1.00  0.00     0.002 A 
ATOM     87  C   UNL A   1      45.112  35.355  28.567  1.00  0.00     0.091 A 
ATOM     88  F   UNL A   1      44.313  33.672  27.077  1.00  0.00    -0.205 F 
ATOM     89  C   UNL A   1      45.535  35.717  29.856  1.00  0.00     0.022 A 
BRANCH  87  90
ATOM     90  S   UNL A   1      45.119  36.639  27.309  1.00  0.00     0.127 S 
ATOM     91  O   UNL A   1      46.067  36.100  26.338  1.00  0.00    -0.237 OA
ATOM     92  O   UNL A   1      43.725  36.645  26.865  1.00  0.00    -0.237 OA
ATOM     93  O   UNL A   1      45.541  37.859  27.985  1.00  0.00    -0.744 OA
ENDBRANCH  87  90
ENDBRANCH  60  83
ENDBRANCH  34  35
ENDBRANCH  26  29
ENDBRANCH  24  25
ENDBRANCH  23  24
ENDBRANCH  22  23
ENDBRANCH   3  22
TORSDOF 19
ENDMDL
