MODEL 1
REMARK VINA RESULT:     -12.6      0.000      0.000
REMARK SMILES CS(=O)(=O)c1ccc(N2N=C(C(=O)NCCCNC(=O)c3ccc(-c4c5nc(c(-c6cccc(S(=O)(=O)[O-])c6F)c6ccc([nH]6)c(-c6cccc(S(=O)(=O)[O-])c6F)c6nc(c(-c7cccc(S(=O)(=O)[O-])c7F)c7ccc4[nH]7)C=C6)C=C5)cc3)C[C@H]2c2ccco2)cc1
REMARK SMILES IDX 16 1 15 2 14 3 12 4 13 5 11 7 9 8 10 9 85 10 84 11 8 12 5 13
REMARK SMILES IDX 6 14 92 15 7 16 91 17 2 18 1 19 3 20 4 21 86 22 87 23 90 24
REMARK SMILES IDX 88 25 89 26 17 27 18 28 19 29 20 31 21 32 22 33 83 34 23 35
REMARK SMILES IDX 82 36 24 37 25 38 26 39 76 40 27 41 81 42 75 43 77 44 28 45
REMARK SMILES IDX 80 46 74 47 73 48 29 50 61 51 41 52 60 53 42 54 45 55 59 56
REMARK SMILES IDX 78 57 43 58 44 59 58 61 79 62 46 63 30 64 31 65 39 66 32 67
REMARK SMILES IDX 34 68 40 69 33 70 35 71 36 72 37 73 38 74 62 75 63 76 71 77
REMARK SMILES IDX 64 78 66 79 72 80 65 81 67 82 68 83 69 84 70 85 47 86 48 87
REMARK SMILES IDX 56 88 49 89 51 90 57 91 50 92 52 93 53 94 54 95 55 96
REMARK H PARENT 14 6 18 30 77 49 45 60
REMARK Flexibility Score: inf
ROOT
ATOM      1  C   UNL A   1      34.867  21.627  26.374  1.00  0.00     0.042 C 
ENDROOT
BRANCH   1   2
ATOM      2  C   UNL A   1      33.780  21.597  25.312  1.00  0.00     0.118 C 
BRANCH   2   3
ATOM      3  N   UNL A   1      34.216  22.231  24.081  1.00  0.00    -0.351 N 
ATOM      4  C   UNL A   1      33.952  23.429  23.468  1.00  0.00     0.267 C 
ATOM      5  O   UNL A   1      34.458  23.622  22.364  1.00  0.00    -0.268 OA
ATOM      6  H   UNL A   1      34.846  21.675  23.569  1.00  0.00     0.163 HD
BRANCH   4   7
ATOM      7  C   UNL A   1      33.128  24.541  24.093  1.00  0.00     0.128 C 
ATOM      8  N   UNL A   1      31.913  26.285  24.179  1.00  0.00    -0.254 N 
ATOM      9  N   UNL A   1      32.399  25.325  23.355  1.00  0.00    -0.171 NA
ATOM     10  C   UNL A   1      32.217  26.083  25.595  1.00  0.00     0.180 C 
ATOM     11  C   UNL A   1      33.116  24.844  25.552  1.00  0.00     0.099 C 
BRANCH   8  12
ATOM     12  C   UNL A   1      31.030  27.235  23.696  1.00  0.00     0.060 A 
ATOM     13  C   UNL A   1      29.198  29.136  22.741  1.00  0.00     0.067 A 
ATOM     14  C   UNL A   1      30.571  29.373  22.627  1.00  0.00     0.022 A 
ATOM     15  C   UNL A   1      28.732  27.968  23.340  1.00  0.00     0.022 A 
ATOM     16  C   UNL A   1      31.480  28.428  23.118  1.00  0.00     0.029 A 
ATOM     17  C   UNL A   1      29.650  27.032  23.813  1.00  0.00     0.029 A 
BRANCH  13  18
ATOM     18  S   UNL A   1      28.080  30.353  22.099  1.00  0.00     0.175 S 
ATOM     19  C   UNL A   1      28.868  31.927  22.297  1.00  0.00     0.163 C 
ATOM     20  O   UNL A   1      26.916  30.354  22.961  1.00  0.00    -0.224 OA
ATOM     21  O   UNL A   1      27.960  30.104  20.673  1.00  0.00    -0.224 OA
ENDBRANCH  13  18
ENDBRANCH   8  12
BRANCH  10  22
ATOM     22  C   UNL A   1      32.854  27.228  26.338  1.00  0.00     0.128 A 
ATOM     23  C   UNL A   1      32.365  28.138  27.257  1.00  0.00     0.048 A 
ATOM     24  O   UNL A   1      34.178  27.489  26.108  1.00  0.00    -0.467 OA
ATOM     25  C   UNL A   1      33.441  28.996  27.593  1.00  0.00     0.042 A 
ATOM     26  C   UNL A   1      34.527  28.545  26.882  1.00  0.00     0.195 A 
ENDBRANCH  10  22
ENDBRANCH   4   7
ENDBRANCH   2   3
ENDBRANCH   1   2
BRANCH   1  27
ATOM     27  C   UNL A   1      36.193  22.156  25.845  1.00  0.00     0.118 C 
BRANCH  27  28
ATOM     28  N   UNL A   1      37.239  21.138  25.874  1.00  0.00    -0.352 N 
ATOM     29  C   UNL A   1      38.599  21.270  26.010  1.00  0.00     0.251 C 
ATOM     30  H   UNL A   1      36.919  20.212  25.782  1.00  0.00     0.163 HD
ATOM     31  O   UNL A   1      39.326  20.314  25.757  1.00  0.00    -0.269 OA
BRANCH  29  32
ATOM     32  C   UNL A   1      39.180  22.555  26.448  1.00  0.00     0.039 A 
ATOM     33  C   UNL A   1      40.272  22.548  27.318  1.00  0.00     0.014 A 
ATOM     34  C   UNL A   1      38.634  23.766  26.017  1.00  0.00     0.014 A 
ATOM     35  C   UNL A   1      40.857  23.758  27.700  1.00  0.00     0.010 A 
ATOM     36  C   UNL A   1      39.278  24.960  26.317  1.00  0.00     0.010 A 
ATOM     37  C   UNL A   1      40.388  24.971  27.172  1.00  0.00    -0.014 A 
BRANCH  37  38
ATOM     38  C   UNL A   1      41.039  26.266  27.497  1.00  0.00     0.031 A 
ATOM     39  C   UNL A   1      42.465  26.519  27.088  1.00  0.00     0.074 A 
ATOM     40  C   UNL A   1      40.376  27.170  28.245  1.00  0.00     0.049 A 
ATOM     41  N   UNL A   1      43.226  27.549  27.349  1.00  0.00    -0.248 NA
ATOM     42  C   UNL A   1      43.137  25.463  26.310  1.00  0.00     0.031 C 
ATOM     43  C   UNL A   1      39.019  27.004  28.771  1.00  0.00     0.029 A 
ATOM     44  N   UNL A   1      40.766  28.399  28.718  1.00  0.00    -0.354 N 
ATOM     45  C   UNL A   1      44.470  27.249  26.809  1.00  0.00     0.074 A 
ATOM     46  C   UNL A   1      44.375  25.925  26.235  1.00  0.00     0.031 C 
ATOM     47  C   UNL A   1      38.689  28.091  29.489  1.00  0.00     0.029 A 
ATOM     48  C   UNL A   1      39.820  29.012  29.506  1.00  0.00     0.049 A 
ATOM     49  H   UNL A   1      41.640  28.803  28.512  1.00  0.00     0.167 HD
ATOM     50  C   UNL A   1      45.585  28.017  26.766  1.00  0.00     0.034 A 
ATOM     51  C   UNL A   1      39.862  30.180  30.176  1.00  0.00     0.034 A 
ATOM     52  C   UNL A   1      45.659  29.350  27.298  1.00  0.00     0.049 A 
ATOM     53  C   UNL A   1      41.098  31.032  30.077  1.00  0.00     0.074 A 
ATOM     54  C   UNL A   1      46.710  30.247  27.224  1.00  0.00     0.029 A 
ATOM     55  N   UNL A   1      44.648  29.976  28.010  1.00  0.00    -0.354 N 
ATOM     56  N   UNL A   1      42.211  30.798  29.425  1.00  0.00    -0.248 NA
ATOM     57  C   UNL A   1      41.071  32.326  30.774  1.00  0.00     0.031 C 
ATOM     58  C   UNL A   1      46.345  31.404  27.919  1.00  0.00     0.029 A 
ATOM     59  C   UNL A   1      45.052  31.243  28.391  1.00  0.00     0.049 A 
ATOM     60  H   UNL A   1      43.771  29.578  28.214  1.00  0.00     0.167 HD
ATOM     61  C   UNL A   1      42.999  31.930  29.597  1.00  0.00     0.074 A 
ATOM     62  C   UNL A   1      42.229  32.856  30.401  1.00  0.00     0.031 C 
ATOM     63  C   UNL A   1      44.252  32.176  29.142  1.00  0.00     0.034 A 
BRANCH  50  64
ATOM     64  C   UNL A   1      46.803  27.455  26.080  1.00  0.00     0.023 A 
ATOM     65  C   UNL A   1      46.983  27.665  24.697  1.00  0.00     0.012 A 
ATOM     66  C   UNL A   1      47.798  26.780  26.811  1.00  0.00     0.148 A 
ATOM     67  C   UNL A   1      48.118  27.182  24.047  1.00  0.00     0.002 A 
ATOM     68  C   UNL A   1      48.949  26.344  26.166  1.00  0.00     0.091 A 
ATOM     69  F   UNL A   1      47.599  26.573  28.121  1.00  0.00    -0.205 F 
ATOM     70  C   UNL A   1      49.106  26.532  24.783  1.00  0.00     0.022 A 
BRANCH  68  71
ATOM     71  S   UNL A   1      50.318  25.572  27.038  1.00  0.00     0.127 S 
ATOM     72  O   UNL A   1      49.688  24.363  27.563  1.00  0.00    -0.237 OA
ATOM     73  O   UNL A   1      51.277  25.340  25.957  1.00  0.00    -0.237 OA
ATOM     74  O   UNL A   1      50.751  26.535  28.041  1.00  0.00    -0.744 OA
ENDBRANCH  68  71
ENDBRANCH  50  64
BRANCH  51  75
ATOM     75  C   UNL A   1      38.677  30.638  30.955  1.00  0.00     0.023 A 
ATOM     76  C   UNL A   1      38.637  30.425  32.347  1.00  0.00     0.012 A 
ATOM     77  C   UNL A   1      37.601  31.299  30.332  1.00  0.00     0.148 A 
ATOM     78  C   UNL A   1      37.531  30.826  33.097  1.00  0.00     0.002 A 
ATOM     79  C   UNL A   1      36.529  31.749  31.094  1.00  0.00     0.091 A 
ATOM     80  F   UNL A   1      37.654  31.487  29.005  1.00  0.00    -0.205 F 
ATOM     81  C   UNL A   1      36.483  31.495  32.474  1.00  0.00     0.022 A 
BRANCH  79  82
ATOM     82  S   UNL A   1      35.203  32.741  30.398  1.00  0.00     0.127 S 
ATOM     83  O   UNL A   1      34.307  32.885  31.542  1.00  0.00    -0.237 OA
ATOM     84  O   UNL A   1      35.911  33.961  30.010  1.00  0.00    -0.237 OA
ATOM     85  O   UNL A   1      34.683  31.969  29.278  1.00  0.00    -0.744 OA
ENDBRANCH  79  82
ENDBRANCH  51  75
BRANCH  63  86
ATOM     86  C   UNL A   1      44.859  33.519  29.450  1.00  0.00     0.023 A 
ATOM     87  C   UNL A   1      45.582  33.711  30.643  1.00  0.00     0.012 A 
ATOM     88  C   UNL A   1      44.776  34.569  28.513  1.00  0.00     0.148 A 
ATOM     89  C   UNL A   1      46.187  34.938  30.914  1.00  0.00     0.002 A 
ATOM     90  C   UNL A   1      45.427  35.770  28.766  1.00  0.00     0.091 A 
ATOM     91  F   UNL A   1      44.068  34.370  27.392  1.00  0.00    -0.205 F 
ATOM     92  C   UNL A   1      46.120  35.961  29.971  1.00  0.00     0.022 A 
BRANCH  90  93
ATOM     93  S   UNL A   1      45.480  37.106  27.566  1.00  0.00     0.127 S 
ATOM     94  O   UNL A   1      44.065  37.456  27.448  1.00  0.00    -0.237 OA
ATOM     95  O   UNL A   1      46.300  38.104  28.253  1.00  0.00    -0.237 OA
ATOM     96  O   UNL A   1      46.087  36.547  26.366  1.00  0.00    -0.744 OA
ENDBRANCH  90  93
ENDBRANCH  63  86
ENDBRANCH  37  38
ENDBRANCH  29  32
ENDBRANCH  27  28
ENDBRANCH   1  27
TORSDOF 16
ENDMDL
MODEL 2
REMARK VINA RESULT:     -12.5      4.997      9.994
REMARK SMILES CS(=O)(=O)c1ccc(N2N=C(C(=O)NCCCNC(=O)c3ccc(-c4c5nc(c(-c6cccc(S(=O)(=O)[O-])c6F)c6ccc([nH]6)c(-c6cccc(S(=O)(=O)[O-])c6F)c6nc(c(-c7cccc(S(=O)(=O)[O-])c7F)c7ccc4[nH]7)C=C6)C=C5)cc3)C[C@H]2c2ccco2)cc1
REMARK SMILES IDX 16 1 15 2 14 3 12 4 13 5 11 7 9 8 10 9 85 10 84 11 8 12 5 13
REMARK SMILES IDX 6 14 92 15 7 16 91 17 2 18 1 19 3 20 4 21 86 22 87 23 90 24
REMARK SMILES IDX 88 25 89 26 17 27 18 28 19 29 20 31 21 32 22 33 83 34 23 35
REMARK SMILES IDX 82 36 24 37 25 38 26 39 76 40 27 41 81 42 75 43 77 44 28 45
REMARK SMILES IDX 80 46 74 47 73 48 29 50 61 51 41 52 60 53 42 54 45 55 59 56
REMARK SMILES IDX 78 57 43 58 44 59 58 61 79 62 46 63 30 64 31 65 39 66 32 67
REMARK SMILES IDX 34 68 40 69 33 70 35 71 36 72 37 73 38 74 62 75 63 76 71 77
REMARK SMILES IDX 64 78 66 79 72 80 65 81 67 82 68 83 69 84 70 85 47 86 48 87
REMARK SMILES IDX 56 88 49 89 51 90 57 91 50 92 52 93 53 94 54 95 55 96
REMARK H PARENT 14 6 18 30 77 49 45 60
REMARK Flexibility Score: inf
ROOT
ATOM      1  C   UNL A   1      32.314  28.361  26.142  1.00  0.00     0.042 C 
ENDROOT
BRANCH   1   2
ATOM      2  C   UNL A   1      32.153  26.859  26.323  1.00  0.00     0.118 C 
BRANCH   2   3
ATOM      3  N   UNL A   1      31.107  26.326  25.469  1.00  0.00    -0.351 N 
ATOM      4  C   UNL A   1      31.046  25.335  24.524  1.00  0.00     0.267 C 
ATOM      5  O   UNL A   1      29.981  25.189  23.927  1.00  0.00    -0.268 OA
ATOM      6  H   UNL A   1      30.243  26.780  25.598  1.00  0.00     0.163 HD
BRANCH   4   7
ATOM      7  C   UNL A   1      32.187  24.380  24.217  1.00  0.00     0.128 C 
ATOM      8  N   UNL A   1      33.272  22.552  24.182  1.00  0.00    -0.254 N 
ATOM      9  N   UNL A   1      32.054  23.102  24.406  1.00  0.00    -0.171 NA
ATOM     10  C   UNL A   1      34.279  23.487  23.682  1.00  0.00     0.180 C 
ATOM     11  C   UNL A   1      33.524  24.818  23.725  1.00  0.00     0.099 C 
BRANCH   8  12
ATOM     12  C   UNL A   1      33.436  21.178  24.232  1.00  0.00     0.060 A 
ATOM     13  C   UNL A   1      33.728  18.387  24.298  1.00  0.00     0.067 A 
ATOM     14  C   UNL A   1      34.706  19.203  24.872  1.00  0.00     0.022 A 
ATOM     15  C   UNL A   1      32.614  18.951  23.679  1.00  0.00     0.022 A 
ATOM     16  C   UNL A   1      34.562  20.595  24.823  1.00  0.00     0.029 A 
ATOM     17  C   UNL A   1      32.480  20.338  23.649  1.00  0.00     0.029 A 
BRANCH  13  18
ATOM     18  S   UNL A   1      33.942  16.629  24.388  1.00  0.00     0.175 S 
ATOM     19  C   UNL A   1      32.618  16.004  25.386  1.00  0.00     0.163 C 
ATOM     20  O   UNL A   1      35.169  16.390  25.119  1.00  0.00    -0.224 OA
ATOM     21  O   UNL A   1      33.753  16.112  23.044  1.00  0.00    -0.224 OA
ENDBRANCH  13  18
ENDBRANCH   8  12
BRANCH  10  22
ATOM     22  C   UNL A   1      35.593  23.549  24.416  1.00  0.00     0.128 A 
ATOM     23  C   UNL A   1      36.887  23.229  24.052  1.00  0.00     0.048 A 
ATOM     24  O   UNL A   1      35.589  23.996  25.710  1.00  0.00    -0.467 OA
ATOM     25  C   UNL A   1      37.704  23.485  25.180  1.00  0.00     0.042 A 
ATOM     26  C   UNL A   1      36.867  23.971  26.156  1.00  0.00     0.195 A 
ENDBRANCH  10  22
ENDBRANCH   4   7
ENDBRANCH   2   3
ENDBRANCH   1   2
BRANCH   1  27
ATOM     27  C   UNL A   1      33.725  28.843  26.450  1.00  0.00     0.118 C 
BRANCH  27  28
ATOM     28  N   UNL A   1      33.749  30.248  26.846  1.00  0.00    -0.352 N 
ATOM     29  C   UNL A   1      34.596  30.912  27.698  1.00  0.00     0.251 C 
ATOM     30  H   UNL A   1      33.048  30.805  26.439  1.00  0.00     0.163 HD
ATOM     31  O   UNL A   1      34.295  32.036  28.093  1.00  0.00    -0.269 OA
BRANCH  29  32
ATOM     32  C   UNL A   1      35.853  30.278  28.140  1.00  0.00     0.039 A 
ATOM     33  C   UNL A   1      36.972  30.325  27.306  1.00  0.00     0.014 A 
ATOM     34  C   UNL A   1      35.922  29.618  29.369  1.00  0.00     0.014 A 
ATOM     35  C   UNL A   1      38.178  29.768  27.738  1.00  0.00     0.010 A 
ATOM     36  C   UNL A   1      37.145  29.155  29.838  1.00  0.00     0.010 A 
ATOM     37  C   UNL A   1      38.284  29.213  29.023  1.00  0.00    -0.014 A 
BRANCH  37  38
ATOM     38  C   UNL A   1      39.572  28.685  29.540  1.00  0.00     0.031 A 
ATOM     39  C   UNL A   1      40.290  29.400  30.653  1.00  0.00     0.074 A 
ATOM     40  C   UNL A   1      40.139  27.619  28.939  1.00  0.00     0.049 A 
ATOM     41  N   UNL A   1      41.457  29.139  31.181  1.00  0.00    -0.248 NA
ATOM     42  C   UNL A   1      39.626  30.583  31.227  1.00  0.00     0.031 C 
ATOM     43  C   UNL A   1      39.580  26.892  27.798  1.00  0.00     0.029 A 
ATOM     44  N   UNL A   1      41.329  26.981  29.188  1.00  0.00    -0.354 N 
ATOM     45  C   UNL A   1      41.685  30.143  32.115  1.00  0.00     0.074 A 
ATOM     46  C   UNL A   1      40.552  31.039  32.056  1.00  0.00     0.031 C 
ATOM     47  C   UNL A   1      40.422  25.906  27.448  1.00  0.00     0.029 A 
ATOM     48  C   UNL A   1      41.596  25.952  28.314  1.00  0.00     0.049 A 
ATOM     49  H   UNL A   1      41.934  27.234  29.922  1.00  0.00     0.167 HD
ATOM     50  C   UNL A   1      42.728  30.290  32.965  1.00  0.00     0.034 A 
ATOM     51  C   UNL A   1      42.670  25.145  28.213  1.00  0.00     0.034 A 
ATOM     52  C   UNL A   1      43.828  29.370  33.049  1.00  0.00     0.049 A 
ATOM     53  C   UNL A   1      43.796  25.305  29.198  1.00  0.00     0.074 A 
ATOM     54  C   UNL A   1      44.887  29.376  33.939  1.00  0.00     0.029 A 
ATOM     55  N   UNL A   1      44.019  28.284  32.209  1.00  0.00    -0.354 N 
ATOM     56  N   UNL A   1      43.917  26.166  30.179  1.00  0.00    -0.248 NA
ATOM     57  C   UNL A   1      44.915  24.359  29.087  1.00  0.00     0.031 C 
ATOM     58  C   UNL A   1      45.735  28.312  33.616  1.00  0.00     0.029 A 
ATOM     59  C   UNL A   1      45.183  27.620  32.551  1.00  0.00     0.049 A 
ATOM     60  H   UNL A   1      43.414  28.024  31.476  1.00  0.00     0.167 HD
ATOM     61  C   UNL A   1      45.102  25.840  30.828  1.00  0.00     0.074 A 
ATOM     62  C   UNL A   1      45.653  24.692  30.138  1.00  0.00     0.031 C 
ATOM     63  C   UNL A   1      45.688  26.443  31.891  1.00  0.00     0.034 A 
BRANCH  50  64
ATOM     64  C   UNL A   1      42.707  31.464  33.909  1.00  0.00     0.023 A 
ATOM     65  C   UNL A   1      43.241  32.702  33.495  1.00  0.00     0.012 A 
ATOM     66  C   UNL A   1      42.102  31.363  35.176  1.00  0.00     0.148 A 
ATOM     67  C   UNL A   1      43.204  33.811  34.340  1.00  0.00     0.002 A 
ATOM     68  C   UNL A   1      42.026  32.484  35.993  1.00  0.00     0.091 A 
ATOM     69  F   UNL A   1      41.619  30.173  35.560  1.00  0.00    -0.205 F 
ATOM     70  C   UNL A   1      42.587  33.704  35.583  1.00  0.00     0.022 A 
BRANCH  68  71
ATOM     71  S   UNL A   1      41.177  32.475  37.577  1.00  0.00     0.127 S 
ATOM     72  O   UNL A   1      42.038  31.598  38.368  1.00  0.00    -0.237 OA
ATOM     73  O   UNL A   1      41.228  33.887  37.960  1.00  0.00    -0.237 OA
ATOM     74  O   UNL A   1      39.839  31.964  37.314  1.00  0.00    -0.744 OA
ENDBRANCH  68  71
ENDBRANCH  50  64
BRANCH  51  75
ATOM     75  C   UNL A   1      42.706  24.077  27.175  1.00  0.00     0.023 A 
ATOM     76  C   UNL A   1      43.396  24.306  25.967  1.00  0.00     0.012 A 
ATOM     77  C   UNL A   1      42.084  22.831  27.382  1.00  0.00     0.148 A 
ATOM     78  C   UNL A   1      43.430  23.331  24.970  1.00  0.00     0.002 A 
ATOM     79  C   UNL A   1      42.172  21.842  26.409  1.00  0.00     0.091 A 
ATOM     80  F   UNL A   1      41.427  22.634  28.534  1.00  0.00    -0.205 F 
ATOM     81  C   UNL A   1      42.827  22.097  25.194  1.00  0.00     0.022 A 
BRANCH  79  82
ATOM     82  S   UNL A   1      41.545  20.179  26.669  1.00  0.00     0.127 S 
ATOM     83  O   UNL A   1      41.925  19.519  25.423  1.00  0.00    -0.237 OA
ATOM     84  O   UNL A   1      42.298  19.753  27.848  1.00  0.00    -0.237 OA
ATOM     85  O   UNL A   1      40.114  20.330  26.895  1.00  0.00    -0.744 OA
ENDBRANCH  79  82
ENDBRANCH  51  75
BRANCH  63  86
ATOM     86  C   UNL A   1      46.968  25.849  32.417  1.00  0.00     0.023 A 
ATOM     87  C   UNL A   1      48.210  26.300  31.929  1.00  0.00     0.012 A 
ATOM     88  C   UNL A   1      46.936  24.897  33.455  1.00  0.00     0.148 A 
ATOM     89  C   UNL A   1      49.401  25.788  32.444  1.00  0.00     0.002 A 
ATOM     90  C   UNL A   1      48.126  24.432  34.001  1.00  0.00     0.091 A 
ATOM     91  F   UNL A   1      45.743  24.469  33.893  1.00  0.00    -0.205 F 
ATOM     92  C   UNL A   1      49.358  24.866  33.487  1.00  0.00     0.022 A 
BRANCH  90  93
ATOM     93  S   UNL A   1      48.168  23.321  35.411  1.00  0.00     0.127 S 
ATOM     94  O   UNL A   1      47.371  22.195  34.928  1.00  0.00    -0.237 OA
ATOM     95  O   UNL A   1      49.599  23.044  35.542  1.00  0.00    -0.237 OA
ATOM     96  O   UNL A   1      47.591  24.061  36.526  1.00  0.00    -0.744 OA
ENDBRANCH  90  93
ENDBRANCH  63  86
ENDBRANCH  37  38
ENDBRANCH  29  32
ENDBRANCH  27  28
ENDBRANCH   1  27
TORSDOF 16
ENDMDL
MODEL 3
REMARK VINA RESULT:     -12.2      4.917      7.978
REMARK SMILES CS(=O)(=O)c1ccc(N2N=C(C(=O)NCCCNC(=O)c3ccc(-c4c5nc(c(-c6cccc(S(=O)(=O)[O-])c6F)c6ccc([nH]6)c(-c6cccc(S(=O)(=O)[O-])c6F)c6nc(c(-c7cccc(S(=O)(=O)[O-])c7F)c7ccc4[nH]7)C=C6)C=C5)cc3)C[C@H]2c2ccco2)cc1
REMARK SMILES IDX 16 1 15 2 14 3 12 4 13 5 11 7 9 8 10 9 85 10 84 11 8 12 5 13
REMARK SMILES IDX 6 14 92 15 7 16 91 17 2 18 1 19 3 20 4 21 86 22 87 23 90 24
REMARK SMILES IDX 88 25 89 26 17 27 18 28 19 29 20 31 21 32 22 33 83 34 23 35
REMARK SMILES IDX 82 36 24 37 25 38 26 39 76 40 27 41 81 42 75 43 77 44 28 45
REMARK SMILES IDX 80 46 74 47 73 48 29 50 61 51 41 52 60 53 42 54 45 55 59 56
REMARK SMILES IDX 78 57 43 58 44 59 58 61 79 62 46 63 30 64 31 65 39 66 32 67
REMARK SMILES IDX 34 68 40 69 33 70 35 71 36 72 37 73 38 74 62 75 63 76 71 77
REMARK SMILES IDX 64 78 66 79 72 80 65 81 67 82 68 83 69 84 70 85 47 86 48 87
REMARK SMILES IDX 56 88 49 89 51 90 57 91 50 92 52 93 53 94 54 95 55 96
REMARK H PARENT 14 6 18 30 77 49 45 60
REMARK Flexibility Score: inf
ROOT
ATOM      1  C   UNL A   1      32.647  29.046  23.858  1.00  0.00     0.042 C 
ENDROOT
BRANCH   1   2
ATOM      2  C   UNL A   1      31.626  27.925  23.738  1.00  0.00     0.118 C 
BRANCH   2   3
ATOM      3  N   UNL A   1      31.294  27.362  25.034  1.00  0.00    -0.351 N 
ATOM      4  C   UNL A   1      31.546  26.169  25.659  1.00  0.00     0.267 C 
ATOM      5  O   UNL A   1      31.042  25.995  26.767  1.00  0.00    -0.268 OA
ATOM      6  H   UNL A   1      30.767  27.979  25.592  1.00  0.00     0.163 HD
BRANCH   4   7
ATOM      7  C   UNL A   1      32.449  25.086  25.095  1.00  0.00     0.128 C 
ATOM      8  N   UNL A   1      33.178  23.123  24.722  1.00  0.00    -0.254 N 
ATOM      9  N   UNL A   1      32.116  23.832  25.176  1.00  0.00    -0.171 NA
ATOM     10  C   UNL A   1      34.262  23.936  24.172  1.00  0.00     0.180 C 
ATOM     11  C   UNL A   1      33.768  25.357  24.457  1.00  0.00     0.099 C 
BRANCH   8  12
ATOM     12  C   UNL A   1      33.099  21.746  24.612  1.00  0.00     0.060 A 
ATOM     13  C   UNL A   1      32.948  18.947  24.443  1.00  0.00     0.067 A 
ATOM     14  C   UNL A   1      32.513  19.734  23.373  1.00  0.00     0.022 A 
ATOM     15  C   UNL A   1      33.443  19.544  25.601  1.00  0.00     0.022 A 
ATOM     16  C   UNL A   1      32.577  21.129  23.469  1.00  0.00     0.029 A 
ATOM     17  C   UNL A   1      33.511  20.934  25.676  1.00  0.00     0.029 A 
BRANCH  13  18
ATOM     18  S   UNL A   1      32.859  17.183  24.280  1.00  0.00     0.175 S 
ATOM     19  C   UNL A   1      34.391  16.536  24.890  1.00  0.00     0.163 C 
ATOM     20  O   UNL A   1      32.815  16.893  22.862  1.00  0.00    -0.224 OA
ATOM     21  O   UNL A   1      31.809  16.730  25.175  1.00  0.00    -0.224 OA
ENDBRANCH  13  18
ENDBRANCH   8  12
BRANCH  10  22
ATOM     22  C   UNL A   1      35.649  23.693  24.707  1.00  0.00     0.128 A 
ATOM     23  C   UNL A   1      36.657  22.820  24.341  1.00  0.00     0.048 A 
ATOM     24  O   UNL A   1      36.071  24.443  25.772  1.00  0.00    -0.467 OA
ATOM     25  C   UNL A   1      37.735  23.045  25.231  1.00  0.00     0.042 A 
ATOM     26  C   UNL A   1      37.335  24.058  26.069  1.00  0.00     0.195 A 
ENDBRANCH  10  22
ENDBRANCH   4   7
ENDBRANCH   2   3
ENDBRANCH   1   2
BRANCH   1  27
ATOM     27  C   UNL A   1      33.091  29.287  25.294  1.00  0.00     0.118 C 
BRANCH  27  28
ATOM     28  N   UNL A   1      32.633  30.577  25.800  1.00  0.00    -0.352 N 
ATOM     29  C   UNL A   1      33.096  31.331  26.850  1.00  0.00     0.251 C 
ATOM     30  H   UNL A   1      31.875  30.969  25.311  1.00  0.00     0.163 HD
ATOM     31  O   UNL A   1      32.417  32.264  27.269  1.00  0.00    -0.269 OA
BRANCH  29  32
ATOM     32  C   UNL A   1      34.396  31.015  27.474  1.00  0.00     0.039 A 
ATOM     33  C   UNL A   1      35.304  32.047  27.721  1.00  0.00     0.014 A 
ATOM     34  C   UNL A   1      34.728  29.698  27.798  1.00  0.00     0.014 A 
ATOM     35  C   UNL A   1      36.516  31.764  28.355  1.00  0.00     0.010 A 
ATOM     36  C   UNL A   1      35.886  29.433  28.517  1.00  0.00     0.010 A 
ATOM     37  C   UNL A   1      36.800  30.460  28.792  1.00  0.00    -0.014 A 
BRANCH  37  38
ATOM     38  C   UNL A   1      38.044  30.142  29.538  1.00  0.00     0.031 A 
ATOM     39  C   UNL A   1      39.055  29.194  28.951  1.00  0.00     0.074 A 
ATOM     40  C   UNL A   1      38.213  30.630  30.783  1.00  0.00     0.049 A 
ATOM     41  N   UNL A   1      40.157  28.733  29.483  1.00  0.00    -0.248 NA
ATOM     42  C   UNL A   1      38.777  28.667  27.604  1.00  0.00     0.031 C 
ATOM     43  C   UNL A   1      37.264  31.492  31.491  1.00  0.00     0.029 A 
ATOM     44  N   UNL A   1      39.230  30.446  31.686  1.00  0.00    -0.354 N 
ATOM     45  C   UNL A   1      40.679  27.836  28.559  1.00  0.00     0.074 A 
ATOM     46  C   UNL A   1      39.756  27.789  27.447  1.00  0.00     0.031 C 
ATOM     47  C   UNL A   1      37.746  31.766  32.715  1.00  0.00     0.029 A 
ATOM     48  C   UNL A   1      39.016  31.072  32.893  1.00  0.00     0.049 A 
ATOM     49  H   UNL A   1      40.037  29.918  31.489  1.00  0.00     0.167 HD
ATOM     50  C   UNL A   1      41.837  27.137  28.616  1.00  0.00     0.034 A 
ATOM     51  C   UNL A   1      39.754  31.075  34.020  1.00  0.00     0.034 A 
ATOM     52  C   UNL A   1      42.773  27.225  29.703  1.00  0.00     0.049 A 
ATOM     53  C   UNL A   1      41.057  30.323  34.040  1.00  0.00     0.074 A 
ATOM     54  C   UNL A   1      44.017  26.631  29.814  1.00  0.00     0.029 A 
ATOM     55  N   UNL A   1      42.565  27.942  30.870  1.00  0.00    -0.354 N 
ATOM     56  N   UNL A   1      41.610  29.607  33.091  1.00  0.00    -0.248 NA
ATOM     57  C   UNL A   1      41.856  30.410  35.270  1.00  0.00     0.031 C 
ATOM     58  C   UNL A   1      44.549  26.965  31.064  1.00  0.00     0.029 A 
ATOM     59  C   UNL A   1      43.653  27.799  31.713  1.00  0.00     0.049 A 
ATOM     60  H   UNL A   1      41.762  28.476  31.070  1.00  0.00     0.167 HD
ATOM     61  C   UNL A   1      42.839  29.194  33.593  1.00  0.00     0.074 A 
ATOM     62  C   UNL A   1      42.955  29.754  34.923  1.00  0.00     0.031 C 
ATOM     63  C   UNL A   1      43.779  28.411  33.011  1.00  0.00     0.034 A 
BRANCH  50  64
ATOM     64  C   UNL A   1      42.184  26.252  27.447  1.00  0.00     0.023 A 
ATOM     65  C   UNL A   1      42.823  26.805  26.318  1.00  0.00     0.012 A 
ATOM     66  C   UNL A   1      41.941  24.866  27.492  1.00  0.00     0.148 A 
ATOM     67  C   UNL A   1      43.182  25.999  25.238  1.00  0.00     0.002 A 
ATOM     68  C   UNL A   1      42.345  24.062  26.433  1.00  0.00     0.091 A 
ATOM     69  F   UNL A   1      41.314  24.362  28.564  1.00  0.00    -0.205 F 
ATOM     70  C   UNL A   1      42.954  24.627  25.301  1.00  0.00     0.022 A 
BRANCH  68  71
ATOM     71  S   UNL A   1      42.174  22.273  26.452  1.00  0.00     0.127 S 
ATOM     72  O   UNL A   1      40.726  22.115  26.327  1.00  0.00    -0.237 OA
ATOM     73  O   UNL A   1      42.935  21.881  25.265  1.00  0.00    -0.237 OA
ATOM     74  O   UNL A   1      42.743  21.828  27.716  1.00  0.00    -0.744 OA
ENDBRANCH  68  71
ENDBRANCH  50  64
BRANCH  51  75
ATOM     75  C   UNL A   1      39.305  31.861  35.204  1.00  0.00     0.023 A 
ATOM     76  C   UNL A   1      38.473  31.254  36.165  1.00  0.00     0.012 A 
ATOM     77  C   UNL A   1      39.713  33.195  35.396  1.00  0.00     0.148 A 
ATOM     78  C   UNL A   1      38.022  31.973  37.272  1.00  0.00     0.002 A 
ATOM     79  C   UNL A   1      39.310  33.887  36.532  1.00  0.00     0.091 A 
ATOM     80  F   UNL A   1      40.500  33.758  34.467  1.00  0.00    -0.205 F 
ATOM     81  C   UNL A   1      38.447  33.284  37.461  1.00  0.00     0.022 A 
BRANCH  79  82
ATOM     82  S   UNL A   1      39.919  35.530  36.925  1.00  0.00     0.127 S 
ATOM     83  O   UNL A   1      39.269  35.791  38.206  1.00  0.00    -0.237 OA
ATOM     84  O   UNL A   1      41.363  35.306  37.000  1.00  0.00    -0.237 OA
ATOM     85  O   UNL A   1      39.502  36.379  35.817  1.00  0.00    -0.744 OA
ENDBRANCH  79  82
ENDBRANCH  51  75
BRANCH  63  86
ATOM     86  C   UNL A   1      45.049  28.150  33.780  1.00  0.00     0.023 A 
ATOM     87  C   UNL A   1      46.133  29.043  33.677  1.00  0.00     0.012 A 
ATOM     88  C   UNL A   1      45.131  27.059  34.667  1.00  0.00     0.148 A 
ATOM     89  C   UNL A   1      47.294  28.834  34.421  1.00  0.00     0.002 A 
ATOM     90  C   UNL A   1      46.269  26.889  35.445  1.00  0.00     0.091 A 
ATOM     91  F   UNL A   1      44.093  26.212  34.737  1.00  0.00    -0.205 F 
ATOM     92  C   UNL A   1      47.356  27.767  35.313  1.00  0.00     0.022 A 
BRANCH  90  93
ATOM     93  S   UNL A   1      46.398  25.602  36.692  1.00  0.00     0.127 S 
ATOM     94  O   UNL A   1      47.741  25.834  37.221  1.00  0.00    -0.237 OA
ATOM     95  O   UNL A   1      45.313  25.952  37.609  1.00  0.00    -0.237 OA
ATOM     96  O   UNL A   1      46.213  24.339  35.990  1.00  0.00    -0.744 OA
ENDBRANCH  90  93
ENDBRANCH  63  86
ENDBRANCH  37  38
ENDBRANCH  29  32
ENDBRANCH  27  28
ENDBRANCH   1  27
TORSDOF 16
ENDMDL
