MODEL 1
REMARK VINA RESULT:      -9.7      0.000      0.000
REMARK SMILES C=CCN(CC(=O)NCCCNC(=O)c1ccc(-c2c3nc(c(-c4cccc(S(=O)(=O)[O-])c4F)c4ccc([nH]4)c(-c4cccc(S(=O)(=O)[O-])c4F)c4nc(c(-c5cccc(S(=O)(=O)[O-])c5F)c5ccc2[nH]5)C=C4)C=C3)cc1)C(=O)C[NH3+]
REMARK SMILES IDX 9 1 8 2 6 3 7 4 5 6 4 7 3 8 2 9 1 10 78 11 79 12 80 13 81 14
REMARK SMILES IDX 10 18 11 19 12 20 13 21 14 23 15 24 16 25 77 26 17 27 76 28
REMARK SMILES IDX 18 29 19 30 20 31 70 32 21 33 75 34 69 35 71 36 22 37 74 38
REMARK SMILES IDX 68 39 67 40 23 42 55 43 35 44 54 45 36 46 39 47 53 48 72 49
REMARK SMILES IDX 37 50 38 51 52 53 73 54 40 55 24 56 25 57 33 58 26 59 28 60
REMARK SMILES IDX 34 61 27 62 29 63 30 64 31 65 32 66 56 67 57 68 65 69 58 70
REMARK SMILES IDX 60 71 66 72 59 73 61 74 62 75 63 76 64 77 41 78 42 79 50 80
REMARK SMILES IDX 43 81 45 82 51 83 44 84 46 85 47 86 48 87 49 88
REMARK H PARENT 8 5 81 15 81 16 81 17 12 22 71 41 39 52
REMARK Flexibility Score: inf
ROOT
ATOM      1  C   UNL A   1      31.724  30.238  25.758  1.00  0.00     0.117 C 
ENDROOT
BRANCH   1   2
ATOM      2  N   UNL A   1      32.448  29.133  26.349  1.00  0.00    -0.354 N 
ATOM      3  C   UNL A   1      32.977  28.025  25.756  1.00  0.00     0.239 C 
ATOM      4  O   UNL A   1      33.769  27.355  26.427  1.00  0.00    -0.273 OA
ATOM      5  H   UNL A   1      32.577  29.190  27.323  1.00  0.00     0.163 HD
BRANCH   3   6
ATOM      6  C   UNL A   1      32.694  27.684  24.281  1.00  0.00     0.220 C 
BRANCH   6   7
ATOM      7  N   UNL A   1      32.022  26.398  24.060  1.00  0.00    -0.325 N 
BRANCH   7   8
ATOM      8  C   UNL A   1      32.687  25.398  23.228  1.00  0.00     0.147 C 
BRANCH   8   9
ATOM      9  C   UNL A   1      32.032  25.286  21.884  1.00  0.00    -0.014 C 
ATOM     10  C   UNL A   1      32.646  25.645  20.748  1.00  0.00     0.006 C 
ENDBRANCH   8   9
ENDBRANCH   7   8
BRANCH   7  11
ATOM     11  C   UNL A   1      30.792  26.067  24.628  1.00  0.00     0.278 C 
ATOM     12  O   UNL A   1      29.750  26.646  24.310  1.00  0.00    -0.268 OA
BRANCH  11  13
ATOM     13  C   UNL A   1      30.729  24.981  25.712  1.00  0.00     0.360 C 
BRANCH  13  14
ATOM     14  N   UNL A   1      29.512  25.097  26.530  1.00  0.00    -0.350 N 
ATOM     15  H   UNL A   1      28.801  25.612  26.009  1.00  0.00     0.344 HD
ATOM     16  H   UNL A   1      29.728  25.595  27.394  1.00  0.00     0.344 HD
ATOM     17  H   UNL A   1      29.162  24.166  26.754  1.00  0.00     0.344 HD
ENDBRANCH  13  14
ENDBRANCH  11  13
ENDBRANCH   7  11
ENDBRANCH   6   7
ENDBRANCH   3   6
ENDBRANCH   1   2
BRANCH   1  18
ATOM     18  C   UNL A   1      31.452  31.372  26.740  1.00  0.00     0.042 C 
BRANCH  18  19
ATOM     19  C   UNL A   1      32.704  32.101  27.223  1.00  0.00     0.118 C 
BRANCH  19  20
ATOM     20  N   UNL A   1      32.464  33.512  27.504  1.00  0.00    -0.352 N 
ATOM     21  C   UNL A   1      33.046  34.354  28.418  1.00  0.00     0.251 C 
ATOM     22  H   UNL A   1      31.770  33.931  26.946  1.00  0.00     0.163 HD
ATOM     23  O   UNL A   1      32.552  35.465  28.608  1.00  0.00    -0.269 OA
BRANCH  21  24
ATOM     24  C   UNL A   1      34.243  33.941  29.185  1.00  0.00     0.039 A 
ATOM     25  C   UNL A   1      34.068  33.193  30.353  1.00  0.00     0.014 A 
ATOM     26  C   UNL A   1      35.528  34.310  28.780  1.00  0.00     0.014 A 
ATOM     27  C   UNL A   1      35.183  32.748  31.069  1.00  0.00     0.010 A 
ATOM     28  C   UNL A   1      36.640  33.806  29.455  1.00  0.00     0.010 A 
ATOM     29  C   UNL A   1      36.480  33.013  30.599  1.00  0.00    -0.014 A 
BRANCH  29  30
ATOM     30  C   UNL A   1      37.673  32.416  31.255  1.00  0.00     0.031 A 
ATOM     31  C   UNL A   1      38.396  31.254  30.632  1.00  0.00     0.074 A 
ATOM     32  C   UNL A   1      38.040  32.861  32.474  1.00  0.00     0.049 A 
ATOM     33  N   UNL A   1      39.404  30.565  31.101  1.00  0.00    -0.248 NA
ATOM     34  C   UNL A   1      37.911  30.790  29.323  1.00  0.00     0.031 C 
ATOM     35  C   UNL A   1      37.371  33.929  33.219  1.00  0.00     0.029 A 
ATOM     36  N   UNL A   1      39.042  32.447  33.317  1.00  0.00    -0.354 N 
ATOM     37  C   UNL A   1      39.651  29.566  30.168  1.00  0.00     0.074 A 
ATOM     38  C   UNL A   1      38.673  29.725  29.114  1.00  0.00     0.031 C 
ATOM     39  C   UNL A   1      37.976  34.085  34.407  1.00  0.00     0.029 A 
ATOM     40  C   UNL A   1      39.050  33.103  34.527  1.00  0.00     0.049 A 
ATOM     41  H   UNL A   1      39.693  31.749  33.079  1.00  0.00     0.167 HD
ATOM     42  C   UNL A   1      40.619  28.617  30.176  1.00  0.00     0.034 A 
ATOM     43  C   UNL A   1      39.816  32.924  35.619  1.00  0.00     0.034 A 
ATOM     44  C   UNL A   1      41.608  28.479  31.212  1.00  0.00     0.049 A 
ATOM     45  C   UNL A   1      40.893  31.874  35.594  1.00  0.00     0.074 A 
ATOM     46  C   UNL A   1      42.687  27.614  31.262  1.00  0.00     0.029 A 
ATOM     47  N   UNL A   1      41.630  29.210  32.391  1.00  0.00    -0.354 N 
ATOM     48  N   UNL A   1      41.222  31.053  34.626  1.00  0.00    -0.248 NA
ATOM     49  C   UNL A   1      41.725  31.748  36.799  1.00  0.00     0.031 C 
ATOM     50  C   UNL A   1      43.339  27.796  32.486  1.00  0.00     0.029 A 
ATOM     51  C   UNL A   1      42.688  28.799  33.184  1.00  0.00     0.049 A 
ATOM     52  H   UNL A   1      40.988  29.918  32.628  1.00  0.00     0.167 HD
ATOM     53  C   UNL A   1      42.312  30.330  35.095  1.00  0.00     0.074 A 
ATOM     54  C   UNL A   1      42.607  30.832  36.422  1.00  0.00     0.031 C 
ATOM     55  C   UNL A   1      42.997  29.329  34.489  1.00  0.00     0.034 A 
BRANCH  42  56
ATOM     56  C   UNL A   1      40.683  27.669  29.006  1.00  0.00     0.023 A 
ATOM     57  C   UNL A   1      39.753  26.613  28.912  1.00  0.00     0.012 A 
ATOM     58  C   UNL A   1      41.614  27.862  27.966  1.00  0.00     0.148 A 
ATOM     59  C   UNL A   1      39.772  25.742  27.822  1.00  0.00     0.002 A 
ATOM     60  C   UNL A   1      41.598  27.018  26.861  1.00  0.00     0.091 A 
ATOM     61  F   UNL A   1      42.502  28.860  28.079  1.00  0.00    -0.205 F 
ATOM     62  C   UNL A   1      40.686  25.951  26.794  1.00  0.00     0.022 A 
BRANCH  60  63
ATOM     63  S   UNL A   1      42.680  27.251  25.446  1.00  0.00     0.127 S 
ATOM     64  O   UNL A   1      43.983  27.396  26.093  1.00  0.00    -0.237 OA
ATOM     65  O   UNL A   1      42.500  25.997  24.713  1.00  0.00    -0.237 OA
ATOM     66  O   UNL A   1      42.190  28.434  24.755  1.00  0.00    -0.744 OA
ENDBRANCH  60  63
ENDBRANCH  42  56
BRANCH  43  67
ATOM     67  C   UNL A   1      39.618  33.790  36.815  1.00  0.00     0.023 A 
ATOM     68  C   UNL A   1      40.017  35.139  36.768  1.00  0.00     0.012 A 
ATOM     69  C   UNL A   1      39.005  33.296  37.984  1.00  0.00     0.148 A 
ATOM     70  C   UNL A   1      39.839  35.973  37.872  1.00  0.00     0.002 A 
ATOM     71  C   UNL A   1      38.778  34.146  39.059  1.00  0.00     0.091 A 
ATOM     72  F   UNL A   1      38.642  32.006  38.012  1.00  0.00    -0.205 F 
ATOM     73  C   UNL A   1      39.211  35.481  39.013  1.00  0.00     0.022 A 
BRANCH  71  74
ATOM     74  S   UNL A   1      37.854  33.637  40.512  1.00  0.00     0.127 S 
ATOM     75  O   UNL A   1      36.633  33.098  39.915  1.00  0.00    -0.237 OA
ATOM     76  O   UNL A   1      38.747  32.634  41.098  1.00  0.00    -0.237 OA
ATOM     77  O   UNL A   1      37.689  34.836  41.315  1.00  0.00    -0.744 OA
ENDBRANCH  71  74
ENDBRANCH  43  67
BRANCH  55  78
ATOM     78  C   UNL A   1      44.148  28.715  35.244  1.00  0.00     0.023 A 
ATOM     79  C   UNL A   1      45.451  29.220  35.065  1.00  0.00     0.012 A 
ATOM     80  C   UNL A   1      43.931  27.681  36.177  1.00  0.00     0.148 A 
ATOM     81  C   UNL A   1      46.524  28.683  35.776  1.00  0.00     0.002 A 
ATOM     82  C   UNL A   1      44.996  27.187  36.919  1.00  0.00     0.091 A 
ATOM     83  F   UNL A   1      42.686  27.202  36.322  1.00  0.00    -0.205 F 
ATOM     84  C   UNL A   1      46.296  27.677  36.709  1.00  0.00     0.022 A 
BRANCH  82  85
ATOM     85  S   UNL A   1      44.786  25.956  38.211  1.00  0.00     0.127 S 
ATOM     86  O   UNL A   1      46.162  25.757  38.661  1.00  0.00    -0.237 OA
ATOM     87  O   UNL A   1      43.927  26.656  39.167  1.00  0.00    -0.237 OA
ATOM     88  O   UNL A   1      44.167  24.803  37.572  1.00  0.00    -0.744 OA
ENDBRANCH  82  85
ENDBRANCH  55  78
ENDBRANCH  29  30
ENDBRANCH  21  24
ENDBRANCH  19  20
ENDBRANCH  18  19
ENDBRANCH   1  18
TORSDOF 19
ENDMDL
MODEL 2
REMARK VINA RESULT:      -9.5      3.543      9.107
REMARK SMILES C=CCN(CC(=O)NCCCNC(=O)c1ccc(-c2c3nc(c(-c4cccc(S(=O)(=O)[O-])c4F)c4ccc([nH]4)c(-c4cccc(S(=O)(=O)[O-])c4F)c4nc(c(-c5cccc(S(=O)(=O)[O-])c5F)c5ccc2[nH]5)C=C4)C=C3)cc1)C(=O)C[NH3+]
REMARK SMILES IDX 9 1 8 2 6 3 7 4 5 6 4 7 3 8 2 9 1 10 78 11 79 12 80 13 81 14
REMARK SMILES IDX 10 18 11 19 12 20 13 21 14 23 15 24 16 25 77 26 17 27 76 28
REMARK SMILES IDX 18 29 19 30 20 31 70 32 21 33 75 34 69 35 71 36 22 37 74 38
REMARK SMILES IDX 68 39 67 40 23 42 55 43 35 44 54 45 36 46 39 47 53 48 72 49
REMARK SMILES IDX 37 50 38 51 52 53 73 54 40 55 24 56 25 57 33 58 26 59 28 60
REMARK SMILES IDX 34 61 27 62 29 63 30 64 31 65 32 66 56 67 57 68 65 69 58 70
REMARK SMILES IDX 60 71 66 72 59 73 61 74 62 75 63 76 64 77 41 78 42 79 50 80
REMARK SMILES IDX 43 81 45 82 51 83 44 84 46 85 47 86 48 87 49 88
REMARK H PARENT 8 5 81 15 81 16 81 17 12 22 71 41 39 52
REMARK Flexibility Score: inf
ROOT
ATOM      1  C   UNL A   1      31.651  27.903  26.299  1.00  0.00     0.117 C 
ENDROOT
BRANCH   1   2
ATOM      2  N   UNL A   1      31.053  26.644  26.687  1.00  0.00    -0.354 N 
ATOM      3  C   UNL A   1      30.794  25.536  25.936  1.00  0.00     0.239 C 
ATOM      4  O   UNL A   1      30.516  24.498  26.546  1.00  0.00    -0.273 OA
ATOM      5  H   UNL A   1      30.794  26.578  27.635  1.00  0.00     0.163 HD
BRANCH   3   6
ATOM      6  C   UNL A   1      30.952  25.542  24.405  1.00  0.00     0.220 C 
BRANCH   6   7
ATOM      7  N   UNL A   1      31.957  24.610  23.880  1.00  0.00    -0.325 N 
BRANCH   7   8
ATOM      8  C   UNL A   1      31.551  23.238  23.590  1.00  0.00     0.147 C 
BRANCH   8   9
ATOM      9  C   UNL A   1      32.440  22.249  24.281  1.00  0.00    -0.014 C 
ATOM     10  C   UNL A   1      31.995  21.415  25.231  1.00  0.00     0.006 C 
ENDBRANCH   8   9
ENDBRANCH   7   8
BRANCH   7  11
ATOM     11  C   UNL A   1      33.277  24.974  23.614  1.00  0.00     0.278 C 
ATOM     12  O   UNL A   1      33.765  24.876  22.485  1.00  0.00    -0.268 OA
BRANCH  11  13
ATOM     13  C   UNL A   1      34.168  25.474  24.761  1.00  0.00     0.360 C 
BRANCH  13  14
ATOM     14  N   UNL A   1      35.117  24.441  25.203  1.00  0.00    -0.350 N 
ATOM     15  H   UNL A   1      36.071  24.752  25.013  1.00  0.00     0.344 HD
ATOM     16  H   UNL A   1      34.936  23.573  24.698  1.00  0.00     0.344 HD
ATOM     17  H   UNL A   1      35.005  24.280  26.204  1.00  0.00     0.344 HD
ENDBRANCH  13  14
ENDBRANCH  11  13
ENDBRANCH   7  11
ENDBRANCH   6   7
ENDBRANCH   3   6
ENDBRANCH   1   2
BRANCH   1  18
ATOM     18  C   UNL A   1      32.995  28.162  26.969  1.00  0.00     0.042 C 
BRANCH  18  19
ATOM     19  C   UNL A   1      33.875  29.179  26.245  1.00  0.00     0.118 C 
BRANCH  19  20
ATOM     20  N   UNL A   1      33.862  30.492  26.879  1.00  0.00    -0.352 N 
ATOM     21  C   UNL A   1      34.680  31.029  27.842  1.00  0.00     0.251 C 
ATOM     22  H   UNL A   1      33.149  31.093  26.565  1.00  0.00     0.163 HD
ATOM     23  O   UNL A   1      34.364  32.098  28.366  1.00  0.00    -0.269 OA
BRANCH  21  24
ATOM     24  C   UNL A   1      35.918  30.339  28.267  1.00  0.00     0.039 A 
ATOM     25  C   UNL A   1      37.032  30.376  27.422  1.00  0.00     0.014 A 
ATOM     26  C   UNL A   1      35.981  29.635  29.471  1.00  0.00     0.014 A 
ATOM     27  C   UNL A   1      38.229  29.776  27.820  1.00  0.00     0.010 A 
ATOM     28  C   UNL A   1      37.195  29.098  29.899  1.00  0.00     0.010 A 
ATOM     29  C   UNL A   1      38.333  29.171  29.084  1.00  0.00    -0.014 A 
BRANCH  29  30
ATOM     30  C   UNL A   1      39.637  28.668  29.592  1.00  0.00     0.031 A 
ATOM     31  C   UNL A   1      40.370  29.393  30.687  1.00  0.00     0.074 A 
ATOM     32  C   UNL A   1      40.211  27.610  28.985  1.00  0.00     0.049 A 
ATOM     33  N   UNL A   1      41.547  29.139  31.196  1.00  0.00    -0.248 NA
ATOM     34  C   UNL A   1      39.705  30.568  31.271  1.00  0.00     0.031 C 
ATOM     35  C   UNL A   1      39.637  26.869  27.859  1.00  0.00     0.029 A 
ATOM     36  N   UNL A   1      41.419  26.995  29.204  1.00  0.00    -0.354 N 
ATOM     37  C   UNL A   1      41.783  30.139  32.132  1.00  0.00     0.074 A 
ATOM     38  C   UNL A   1      40.633  31.018  32.104  1.00  0.00     0.031 C 
ATOM     39  C   UNL A   1      40.492  25.905  27.484  1.00  0.00     0.029 A 
ATOM     40  C   UNL A   1      41.690  25.981  28.313  1.00  0.00     0.049 A 
ATOM     41  H   UNL A   1      42.033  27.254  29.928  1.00  0.00     0.167 HD
ATOM     42  C   UNL A   1      42.848  30.299  32.955  1.00  0.00     0.034 A 
ATOM     43  C   UNL A   1      42.786  25.213  28.163  1.00  0.00     0.034 A 
ATOM     44  C   UNL A   1      43.976  29.406  32.999  1.00  0.00     0.049 A 
ATOM     45  C   UNL A   1      43.946  25.402  29.101  1.00  0.00     0.074 A 
ATOM     46  C   UNL A   1      45.055  29.428  33.865  1.00  0.00     0.029 A 
ATOM     47  N   UNL A   1      44.184  28.346  32.130  1.00  0.00    -0.354 N 
ATOM     48  N   UNL A   1      44.074  26.246  30.096  1.00  0.00    -0.248 NA
ATOM     49  C   UNL A   1      45.100  24.510  28.916  1.00  0.00     0.031 C 
ATOM     50  C   UNL A   1      45.934  28.403  33.496  1.00  0.00     0.029 A 
ATOM     51  C   UNL A   1      45.384  27.720  32.424  1.00  0.00     0.049 A 
ATOM     52  H   UNL A   1      43.568  28.075  31.411  1.00  0.00     0.167 HD
ATOM     53  C   UNL A   1      45.310  25.972  30.670  1.00  0.00     0.074 A 
ATOM     54  C   UNL A   1      45.878  24.864  29.931  1.00  0.00     0.031 C 
ATOM     55  C   UNL A   1      45.927  26.594  31.705  1.00  0.00     0.034 A 
BRANCH  42  56
ATOM     56  C   UNL A   1      42.829  31.466  33.908  1.00  0.00     0.023 A 
ATOM     57  C   UNL A   1      43.353  32.709  33.499  1.00  0.00     0.012 A 
ATOM     58  C   UNL A   1      42.234  31.354  35.180  1.00  0.00     0.148 A 
ATOM     59  C   UNL A   1      43.319  33.813  34.351  1.00  0.00     0.002 A 
ATOM     60  C   UNL A   1      42.162  32.469  36.007  1.00  0.00     0.091 A 
ATOM     61  F   UNL A   1      41.757  30.161  35.561  1.00  0.00    -0.205 F 
ATOM     62  C   UNL A   1      42.715  33.695  35.600  1.00  0.00     0.022 A 
BRANCH  60  63
ATOM     63  S   UNL A   1      41.333  32.443  37.602  1.00  0.00     0.127 S 
ATOM     64  O   UNL A   1      42.188  31.533  38.363  1.00  0.00    -0.237 OA
ATOM     65  O   UNL A   1      41.417  33.845  38.014  1.00  0.00    -0.237 OA
ATOM     66  O   UNL A   1      39.983  31.965  37.345  1.00  0.00    -0.744 OA
ENDBRANCH  60  63
ENDBRANCH  42  56
BRANCH  43  67
ATOM     67  C   UNL A   1      42.818  24.165  27.104  1.00  0.00     0.023 A 
ATOM     68  C   UNL A   1      43.520  24.409  25.909  1.00  0.00     0.012 A 
ATOM     69  C   UNL A   1      42.189  22.918  27.289  1.00  0.00     0.148 A 
ATOM     70  C   UNL A   1      43.569  23.444  24.902  1.00  0.00     0.002 A 
ATOM     71  C   UNL A   1      42.291  21.939  26.308  1.00  0.00     0.091 A 
ATOM     72  F   UNL A   1      41.517  22.710  28.430  1.00  0.00    -0.205 F 
ATOM     73  C   UNL A   1      42.964  22.207  25.106  1.00  0.00     0.022 A 
BRANCH  71  74
ATOM     74  S   UNL A   1      41.662  20.273  26.540  1.00  0.00     0.127 S 
ATOM     75  O   UNL A   1      40.217  20.493  26.513  1.00  0.00    -0.237 OA
ATOM     76  O   UNL A   1      42.202  19.584  25.364  1.00  0.00    -0.237 OA
ATOM     77  O   UNL A   1      42.210  19.818  27.806  1.00  0.00    -0.744 OA
ENDBRANCH  71  74
ENDBRANCH  43  67
BRANCH  55  78
ATOM     78  C   UNL A   1      47.283  26.083  32.118  1.00  0.00     0.023 A 
ATOM     79  C   UNL A   1      48.442  26.610  31.518  1.00  0.00     0.012 A 
ATOM     80  C   UNL A   1      47.412  25.126  33.146  1.00  0.00     0.148 A 
ATOM     81  C   UNL A   1      49.707  26.170  31.907  1.00  0.00     0.002 A 
ATOM     82  C   UNL A   1      48.676  24.730  33.564  1.00  0.00     0.091 A 
ATOM     83  F   UNL A   1      46.296  24.623  33.694  1.00  0.00    -0.205 F 
ATOM     84  C   UNL A   1      49.824  25.240  32.936  1.00  0.00     0.022 A 
BRANCH  82  85
ATOM     85  S   UNL A   1      48.930  23.607  34.944  1.00  0.00     0.127 S 
ATOM     86  O   UNL A   1      48.096  22.470  34.560  1.00  0.00    -0.237 OA
ATOM     87  O   UNL A   1      50.370  23.358  34.879  1.00  0.00    -0.237 OA
ATOM     88  O   UNL A   1      48.494  24.326  36.133  1.00  0.00    -0.744 OA
ENDBRANCH  82  85
ENDBRANCH  55  78
ENDBRANCH  29  30
ENDBRANCH  21  24
ENDBRANCH  19  20
ENDBRANCH  18  19
ENDBRANCH   1  18
TORSDOF 19
ENDMDL
MODEL 3
REMARK VINA RESULT:      -9.3      4.002     10.189
REMARK SMILES C=CCN(CC(=O)NCCCNC(=O)c1ccc(-c2c3nc(c(-c4cccc(S(=O)(=O)[O-])c4F)c4ccc([nH]4)c(-c4cccc(S(=O)(=O)[O-])c4F)c4nc(c(-c5cccc(S(=O)(=O)[O-])c5F)c5ccc2[nH]5)C=C4)C=C3)cc1)C(=O)C[NH3+]
REMARK SMILES IDX 9 1 8 2 6 3 7 4 5 6 4 7 3 8 2 9 1 10 78 11 79 12 80 13 81 14
REMARK SMILES IDX 10 18 11 19 12 20 13 21 14 23 15 24 16 25 77 26 17 27 76 28
REMARK SMILES IDX 18 29 19 30 20 31 70 32 21 33 75 34 69 35 71 36 22 37 74 38
REMARK SMILES IDX 68 39 67 40 23 42 55 43 35 44 54 45 36 46 39 47 53 48 72 49
REMARK SMILES IDX 37 50 38 51 52 53 73 54 40 55 24 56 25 57 33 58 26 59 28 60
REMARK SMILES IDX 34 61 27 62 29 63 30 64 31 65 32 66 56 67 57 68 65 69 58 70
REMARK SMILES IDX 60 71 66 72 59 73 61 74 62 75 63 76 64 77 41 78 42 79 50 80
REMARK SMILES IDX 43 81 45 82 51 83 44 84 46 85 47 86 48 87 49 88
REMARK H PARENT 8 5 81 15 81 16 81 17 12 22 71 41 39 52
REMARK Flexibility Score: inf
ROOT
ATOM      1  C   UNL A   1      36.589  33.717  29.324  1.00  0.00     0.117 C 
ENDROOT
BRANCH   1   2
ATOM      2  N   UNL A   1      36.604  32.733  30.385  1.00  0.00    -0.354 N 
ATOM      3  C   UNL A   1      36.592  32.912  31.737  1.00  0.00     0.239 C 
ATOM      4  O   UNL A   1      36.350  31.920  32.431  1.00  0.00    -0.273 OA
ATOM      5  H   UNL A   1      36.626  31.795  30.086  1.00  0.00     0.163 HD
BRANCH   3   6
ATOM      6  C   UNL A   1      36.758  34.306  32.369  1.00  0.00     0.220 C 
BRANCH   6   7
ATOM      7  N   UNL A   1      36.197  34.447  33.718  1.00  0.00    -0.325 N 
BRANCH   7   8
ATOM      8  C   UNL A   1      34.862  35.021  33.862  1.00  0.00     0.147 C 
BRANCH   8   9
ATOM      9  C   UNL A   1      34.603  36.063  32.816  1.00  0.00    -0.014 C 
ATOM     10  C   UNL A   1      33.574  36.920  32.887  1.00  0.00     0.006 C 
ENDBRANCH   8   9
ENDBRANCH   7   8
BRANCH   7  11
ATOM     11  C   UNL A   1      36.861  34.032  34.872  1.00  0.00     0.278 C 
ATOM     12  O   UNL A   1      36.261  33.525  35.823  1.00  0.00    -0.268 OA
BRANCH  11  13
ATOM     13  C   UNL A   1      38.378  34.245  34.988  1.00  0.00     0.360 C 
BRANCH  13  14
ATOM     14  N   UNL A   1      39.109  32.970  34.990  1.00  0.00    -0.350 N 
ATOM     15  H   UNL A   1      38.627  32.300  34.390  1.00  0.00     0.344 HD
ATOM     16  H   UNL A   1      39.154  32.604  35.941  1.00  0.00     0.344 HD
ATOM     17  H   UNL A   1      40.056  33.119  34.639  1.00  0.00     0.344 HD
ENDBRANCH  13  14
ENDBRANCH  11  13
ENDBRANCH   7  11
ENDBRANCH   6   7
ENDBRANCH   3   6
ENDBRANCH   1   2
BRANCH   1  18
ATOM     18  C   UNL A   1      35.401  33.567  28.381  1.00  0.00     0.042 C 
BRANCH  18  19
ATOM     19  C   UNL A   1      34.278  32.683  28.919  1.00  0.00     0.118 C 
BRANCH  19  20
ATOM     20  N   UNL A   1      33.904  31.618  27.995  1.00  0.00    -0.352 N 
ATOM     21  C   UNL A   1      34.605  30.519  27.567  1.00  0.00     0.251 C 
ATOM     22  H   UNL A   1      33.000  31.701  27.617  1.00  0.00     0.163 HD
ATOM     23  O   UNL A   1      34.158  29.851  26.634  1.00  0.00    -0.269 OA
BRANCH  21  24
ATOM     24  C   UNL A   1      35.889  30.137  28.195  1.00  0.00     0.039 A 
ATOM     25  C   UNL A   1      35.867  29.533  29.456  1.00  0.00     0.014 A 
ATOM     26  C   UNL A   1      37.111  30.394  27.568  1.00  0.00     0.014 A 
ATOM     27  C   UNL A   1      37.062  29.117  30.051  1.00  0.00     0.010 A 
ATOM     28  C   UNL A   1      38.294  29.915  28.129  1.00  0.00     0.010 A 
ATOM     29  C   UNL A   1      38.282  29.264  29.371  1.00  0.00    -0.014 A 
BRANCH  29  30
ATOM     30  C   UNL A   1      39.540  28.687  29.912  1.00  0.00     0.031 A 
ATOM     31  C   UNL A   1      40.225  29.305  31.100  1.00  0.00     0.074 A 
ATOM     32  C   UNL A   1      40.123  27.661  29.259  1.00  0.00     0.049 A 
ATOM     33  N   UNL A   1      41.363  28.979  31.655  1.00  0.00    -0.248 NA
ATOM     34  C   UNL A   1      39.555  30.452  31.734  1.00  0.00     0.031 C 
ATOM     35  C   UNL A   1      39.599  27.024  28.049  1.00  0.00     0.029 A 
ATOM     36  N   UNL A   1      41.300  26.996  29.499  1.00  0.00    -0.354 N 
ATOM     37  C   UNL A   1      41.567  29.898  32.677  1.00  0.00     0.074 A 
ATOM     38  C   UNL A   1      40.443  30.810  32.652  1.00  0.00     0.031 C 
ATOM     39  C   UNL A   1      40.450  26.067  27.650  1.00  0.00     0.029 A 
ATOM     40  C   UNL A   1      41.598  26.045  28.550  1.00  0.00     0.049 A 
ATOM     41  H   UNL A   1      41.876  27.181  30.276  1.00  0.00     0.167 HD
ATOM     42  C   UNL A   1      42.584  29.964  33.570  1.00  0.00     0.034 A 
ATOM     43  C   UNL A   1      42.682  25.259  28.404  1.00  0.00     0.034 A 
ATOM     44  C   UNL A   1      43.686  29.038  33.610  1.00  0.00     0.049 A 
ATOM     45  C   UNL A   1      43.789  25.342  29.419  1.00  0.00     0.074 A 
ATOM     46  C   UNL A   1      44.712  28.963  34.535  1.00  0.00     0.029 A 
ATOM     47  N   UNL A   1      43.919  28.041  32.675  1.00  0.00    -0.354 N 
ATOM     48  N   UNL A   1      43.878  26.104  30.482  1.00  0.00    -0.248 NA
ATOM     49  C   UNL A   1      44.929  24.434  29.232  1.00  0.00     0.031 C 
ATOM     50  C   UNL A   1      45.585  27.943  34.140  1.00  0.00     0.029 A 
ATOM     51  C   UNL A   1      45.084  27.360  32.988  1.00  0.00     0.049 A 
ATOM     52  H   UNL A   1      43.340  27.844  31.903  1.00  0.00     0.167 HD
ATOM     53  C   UNL A   1      45.071  25.752  31.103  1.00  0.00     0.074 A 
ATOM     54  C   UNL A   1      45.654  24.687  30.314  1.00  0.00     0.031 C 
ATOM     55  C   UNL A   1      45.640  26.276  32.217  1.00  0.00     0.034 A 
BRANCH  42  56
ATOM     56  C   UNL A   1      42.539  31.056  34.608  1.00  0.00     0.023 A 
ATOM     57  C   UNL A   1      41.986  30.789  35.877  1.00  0.00     0.012 A 
ATOM     58  C   UNL A   1      43.102  32.322  34.354  1.00  0.00     0.148 A 
ATOM     59  C   UNL A   1      41.961  31.774  36.865  1.00  0.00     0.002 A 
ATOM     60  C   UNL A   1      43.115  33.284  35.357  1.00  0.00     0.091 A 
ATOM     61  F   UNL A   1      43.607  32.565  33.136  1.00  0.00    -0.205 F 
ATOM     62  C   UNL A   1      42.534  33.017  36.608  1.00  0.00     0.022 A 
BRANCH  60  63
ATOM     63  S   UNL A   1      43.900  34.888  35.155  1.00  0.00     0.127 S 
ATOM     64  O   UNL A   1      43.692  35.486  36.473  1.00  0.00    -0.237 OA
ATOM     65  O   UNL A   1      45.287  34.516  34.867  1.00  0.00    -0.237 OA
ATOM     66  O   UNL A   1      43.205  35.540  34.055  1.00  0.00    -0.744 OA
ENDBRANCH  60  63
ENDBRANCH  42  56
BRANCH  43  67
ATOM     67  C   UNL A   1      42.751  24.294  27.272  1.00  0.00     0.023 A 
ATOM     68  C   UNL A   1      43.436  24.653  26.096  1.00  0.00     0.012 A 
ATOM     69  C   UNL A   1      42.174  23.012  27.366  1.00  0.00     0.148 A 
ATOM     70  C   UNL A   1      43.519  23.767  25.021  1.00  0.00     0.002 A 
ATOM     71  C   UNL A   1      42.310  22.113  26.315  1.00  0.00     0.091 A 
ATOM     72  F   UNL A   1      41.517  22.694  28.490  1.00  0.00    -0.205 F 
ATOM     73  C   UNL A   1      42.966  22.494  25.134  1.00  0.00     0.022 A 
BRANCH  71  74
ATOM     74  S   UNL A   1      41.751  20.409  26.425  1.00  0.00     0.127 S 
ATOM     75  O   UNL A   1      42.468  19.788  25.313  1.00  0.00    -0.237 OA
ATOM     76  O   UNL A   1      42.227  20.024  27.756  1.00  0.00    -0.237 OA
ATOM     77  O   UNL A   1      40.304  20.460  26.297  1.00  0.00    -0.744 OA
ENDBRANCH  71  74
ENDBRANCH  43  67
BRANCH  55  78
ATOM     78  C   UNL A   1      46.956  25.696  32.666  1.00  0.00     0.023 A 
ATOM     79  C   UNL A   1      48.162  26.231  32.173  1.00  0.00     0.012 A 
ATOM     80  C   UNL A   1      47.000  24.663  33.625  1.00  0.00     0.148 A 
ATOM     81  C   UNL A   1      49.390  25.726  32.599  1.00  0.00     0.002 A 
ATOM     82  C   UNL A   1      48.228  24.200  34.083  1.00  0.00     0.091 A 
ATOM     83  F   UNL A   1      45.842  24.155  34.070  1.00  0.00    -0.205 F 
ATOM     84  C   UNL A   1      49.423  24.720  33.561  1.00  0.00     0.022 A 
BRANCH  82  85
ATOM     85  S   UNL A   1      48.371  22.972  35.387  1.00  0.00     0.127 S 
ATOM     86  O   UNL A   1      49.786  23.077  35.740  1.00  0.00    -0.237 OA
ATOM     87  O   UNL A   1      47.450  23.488  36.400  1.00  0.00    -0.237 OA
ATOM     88  O   UNL A   1      47.970  21.704  34.794  1.00  0.00    -0.744 OA
ENDBRANCH  82  85
ENDBRANCH  55  78
ENDBRANCH  29  30
ENDBRANCH  21  24
ENDBRANCH  19  20
ENDBRANCH  18  19
ENDBRANCH   1  18
TORSDOF 19
ENDMDL
