MODEL 1
REMARK VINA RESULT:     -12.5      0.000      0.000
REMARK SMILES CC(=O)c1nnn(-c2ccc(C(=O)NCCCNC(=O)c3ccc(-c4c5nc(c(-c6cccc(S(=O)(=O)[O-])c6F)c6ccc([nH]6)c(-c6cccc(S(=O)(=O)[O-])c6F)c6nc(c(-c7cccc(S(=O)(=O)[O-])c7F)c7ccc4[nH]7)C=C6)C=C5)cc3)cc2)c1C
REMARK SMILES IDX 16 1 15 2 14 3 12 4 13 5 11 7 8 8 9 9 85 10 10 11 84 12 7 13
REMARK SMILES IDX 4 14 5 15 86 16 6 17 87 18 2 19 1 20 3 21 17 22 18 23 19 24
REMARK SMILES IDX 20 26 21 27 22 28 83 29 23 30 82 31 24 32 25 33 26 34 76 35
REMARK SMILES IDX 27 36 81 37 75 38 77 39 28 40 80 41 74 42 73 43 29 45 61 46
REMARK SMILES IDX 41 47 60 48 42 49 45 50 59 51 78 52 43 53 44 54 58 56 79 57
REMARK SMILES IDX 46 58 30 59 31 60 39 61 32 62 34 63 40 64 33 65 35 66 36 67
REMARK SMILES IDX 37 68 38 69 62 70 63 71 71 72 64 73 66 74 72 75 65 76 67 77
REMARK SMILES IDX 68 78 69 79 70 80 47 81 48 82 56 83 49 84 51 85 57 86 50 87
REMARK SMILES IDX 52 88 53 89 54 90 55 91
REMARK H PARENT 14 6 18 25 77 44 45 55
REMARK Flexibility Score: inf
ROOT
ATOM      1  C   UNL A   1      37.840  19.764  24.749  1.00  0.00     0.042 C 
ENDROOT
BRANCH   1   2
ATOM      2  C   UNL A   1      36.493  20.414  25.097  1.00  0.00     0.118 C 
BRANCH   2   3
ATOM      3  N   UNL A   1      35.375  19.491  24.968  1.00  0.00    -0.352 N 
ATOM      4  C   UNL A   1      34.012  19.672  25.037  1.00  0.00     0.251 C 
ATOM      5  O   UNL A   1      33.290  18.739  24.692  1.00  0.00    -0.269 OA
ATOM      6  H   UNL A   1      35.646  18.560  24.800  1.00  0.00     0.163 HD
BRANCH   4   7
ATOM      7  C   UNL A   1      33.378  20.961  25.430  1.00  0.00     0.039 A 
ATOM      8  C   UNL A   1      32.425  23.530  25.956  1.00  0.00     0.067 A 
ATOM      9  C   UNL A   1      32.163  22.956  24.714  1.00  0.00     0.029 A 
ATOM     10  C   UNL A   1      33.023  22.788  26.974  1.00  0.00     0.029 A 
ATOM     11  C   UNL A   1      32.670  21.678  24.448  1.00  0.00     0.016 A 
ATOM     12  C   UNL A   1      33.454  21.494  26.716  1.00  0.00     0.016 A 
BRANCH   8  13
ATOM     13  N   UNL A   1      32.177  24.893  26.181  1.00  0.00    -0.217 N 
ATOM     14  C   UNL A   1      32.385  27.039  26.467  1.00  0.00     0.151 A 
ATOM     15  N   UNL A   1      31.190  26.627  27.001  1.00  0.00    -0.126 NA
ATOM     16  C   UNL A   1      33.018  25.955  25.882  1.00  0.00     0.073 A 
ATOM     17  N   UNL A   1      31.027  25.340  26.717  1.00  0.00    -0.061 NA
ATOM     18  C   UNL A   1      34.238  25.816  25.046  1.00  0.00     0.069 C 
BRANCH  14  19
ATOM     19  C   UNL A   1      32.801  28.431  26.504  1.00  0.00     0.181 C 
ATOM     20  C   UNL A   1      34.079  28.762  27.232  1.00  0.00     0.095 C 
ATOM     21  O   UNL A   1      32.152  29.317  25.949  1.00  0.00    -0.293 OA
ENDBRANCH  14  19
ENDBRANCH   8  13
ENDBRANCH   4   7
ENDBRANCH   2   3
ENDBRANCH   1   2
BRANCH   1  22
ATOM     22  C   UNL A   1      38.956  20.205  25.676  1.00  0.00     0.118 C 
BRANCH  22  23
ATOM     23  N   UNL A   1      40.043  19.225  25.740  1.00  0.00    -0.352 N 
ATOM     24  C   UNL A   1      41.391  19.444  25.959  1.00  0.00     0.251 C 
ATOM     25  H   UNL A   1      39.777  18.286  25.608  1.00  0.00     0.163 HD
ATOM     26  O   UNL A   1      42.212  18.598  25.653  1.00  0.00    -0.269 OA
BRANCH  24  27
ATOM     27  C   UNL A   1      41.811  20.723  26.561  1.00  0.00     0.039 A 
ATOM     28  C   UNL A   1      42.281  21.777  25.772  1.00  0.00     0.014 A 
ATOM     29  C   UNL A   1      41.684  20.868  27.939  1.00  0.00     0.014 A 
ATOM     30  C   UNL A   1      42.540  23.004  26.376  1.00  0.00     0.010 A 
ATOM     31  C   UNL A   1      41.755  22.116  28.494  1.00  0.00     0.010 A 
ATOM     32  C   UNL A   1      42.252  23.171  27.738  1.00  0.00    -0.014 A 
BRANCH  32  33
ATOM     33  C   UNL A   1      42.351  24.476  28.382  1.00  0.00     0.031 A 
ATOM     34  C   UNL A   1      41.180  25.363  28.156  1.00  0.00     0.074 A 
ATOM     35  C   UNL A   1      43.301  24.750  29.304  1.00  0.00     0.049 A 
ATOM     36  N   UNL A   1      41.140  26.457  27.469  1.00  0.00    -0.248 NA
ATOM     37  C   UNL A   1      39.859  24.899  28.610  1.00  0.00     0.031 C 
ATOM     38  C   UNL A   1      44.316  23.832  29.848  1.00  0.00     0.029 A 
ATOM     39  N   UNL A   1      43.460  25.858  30.079  1.00  0.00    -0.354 N 
ATOM     40  C   UNL A   1      39.847  26.951  27.635  1.00  0.00     0.074 A 
ATOM     41  C   UNL A   1      39.061  25.852  28.122  1.00  0.00     0.031 C 
ATOM     42  C   UNL A   1      44.780  24.315  31.019  1.00  0.00     0.029 A 
ATOM     43  C   UNL A   1      44.248  25.649  31.208  1.00  0.00     0.049 A 
ATOM     44  H   UNL A   1      43.055  26.728  29.860  1.00  0.00     0.167 HD
ATOM     45  C   UNL A   1      39.605  28.293  27.643  1.00  0.00     0.034 A 
ATOM     46  C   UNL A   1      44.426  26.500  32.246  1.00  0.00     0.034 A 
ATOM     47  C   UNL A   1      40.752  29.024  27.159  1.00  0.00     0.049 A 
ATOM     48  C   UNL A   1      44.055  27.847  31.764  1.00  0.00     0.074 A 
ATOM     49  C   UNL A   1      41.477  29.069  25.987  1.00  0.00     0.029 A 
ATOM     50  N   UNL A   1      41.539  29.599  28.126  1.00  0.00    -0.354 N 
ATOM     51  N   UNL A   1      44.724  28.493  30.852  1.00  0.00    -0.248 NA
ATOM     52  C   UNL A   1      42.705  28.324  32.008  1.00  0.00     0.031 C 
ATOM     53  C   UNL A   1      42.826  29.289  26.393  1.00  0.00     0.029 A 
ATOM     54  C   UNL A   1      42.851  29.430  27.783  1.00  0.00     0.049 A 
ATOM     55  H   UNL A   1      41.212  30.058  28.933  1.00  0.00     0.167 HD
ATOM     56  C   UNL A   1      43.746  29.118  30.095  1.00  0.00     0.074 A 
ATOM     57  C   UNL A   1      42.555  29.112  30.940  1.00  0.00     0.031 C 
ATOM     58  C   UNL A   1      43.919  29.302  28.752  1.00  0.00     0.034 A 
BRANCH  45  59
ATOM     59  C   UNL A   1      38.544  28.998  28.473  1.00  0.00     0.023 A 
ATOM     60  C   UNL A   1      37.745  29.956  27.800  1.00  0.00     0.012 A 
ATOM     61  C   UNL A   1      38.480  29.004  29.885  1.00  0.00     0.148 A 
ATOM     62  C   UNL A   1      36.998  30.915  28.493  1.00  0.00     0.002 A 
ATOM     63  C   UNL A   1      37.675  29.911  30.569  1.00  0.00     0.091 A 
ATOM     64  F   UNL A   1      39.291  28.224  30.600  1.00  0.00    -0.205 F 
ATOM     65  C   UNL A   1      36.962  30.893  29.880  1.00  0.00     0.022 A 
BRANCH  63  66
ATOM     66  S   UNL A   1      37.555  29.896  32.363  1.00  0.00     0.127 S 
ATOM     67  O   UNL A   1      37.173  28.511  32.617  1.00  0.00    -0.237 OA
ATOM     68  O   UNL A   1      38.920  30.247  32.755  1.00  0.00    -0.237 OA
ATOM     69  O   UNL A   1      36.561  30.908  32.697  1.00  0.00    -0.744 OA
ENDBRANCH  63  66
ENDBRANCH  45  59
BRANCH  46  70
ATOM     70  C   UNL A   1      44.715  26.236  33.671  1.00  0.00     0.023 A 
ATOM     71  C   UNL A   1      46.037  26.349  34.146  1.00  0.00     0.012 A 
ATOM     72  C   UNL A   1      43.668  26.165  34.617  1.00  0.00     0.148 A 
ATOM     73  C   UNL A   1      46.306  26.438  35.515  1.00  0.00     0.002 A 
ATOM     74  C   UNL A   1      43.941  26.253  35.979  1.00  0.00     0.091 A 
ATOM     75  F   UNL A   1      42.405  26.104  34.173  1.00  0.00    -0.205 F 
ATOM     76  C   UNL A   1      45.259  26.403  36.432  1.00  0.00     0.022 A 
BRANCH  74  77
ATOM     77  S   UNL A   1      42.643  26.258  37.223  1.00  0.00     0.127 S 
ATOM     78  O   UNL A   1      43.416  26.327  38.464  1.00  0.00    -0.237 OA
ATOM     79  O   UNL A   1      41.911  27.476  36.889  1.00  0.00    -0.237 OA
ATOM     80  O   UNL A   1      41.914  25.011  37.037  1.00  0.00    -0.744 OA
ENDBRANCH  74  77
ENDBRANCH  46  70
BRANCH  58  81
ATOM     81  C   UNL A   1      45.308  29.116  28.193  1.00  0.00     0.023 A 
ATOM     82  C   UNL A   1      46.311  30.102  28.300  1.00  0.00     0.012 A 
ATOM     83  C   UNL A   1      45.651  27.853  27.685  1.00  0.00     0.148 A 
ATOM     84  C   UNL A   1      47.620  29.841  27.887  1.00  0.00     0.002 A 
ATOM     85  C   UNL A   1      46.963  27.579  27.322  1.00  0.00     0.091 A 
ATOM     86  F   UNL A   1      44.686  26.926  27.592  1.00  0.00    -0.205 F 
ATOM     87  C   UNL A   1      47.950  28.574  27.410  1.00  0.00     0.022 A 
BRANCH  85  88
ATOM     88  S   UNL A   1      47.470  25.932  26.829  1.00  0.00     0.127 S 
ATOM     89  O   UNL A   1      48.921  26.001  26.978  1.00  0.00    -0.237 OA
ATOM     90  O   UNL A   1      46.793  25.085  27.814  1.00  0.00    -0.237 OA
ATOM     91  O   UNL A   1      46.985  25.756  25.465  1.00  0.00    -0.744 OA
ENDBRANCH  85  88
ENDBRANCH  58  81
ENDBRANCH  32  33
ENDBRANCH  24  27
ENDBRANCH  22  23
ENDBRANCH   1  22
TORSDOF 15
ENDMDL
MODEL 2
REMARK VINA RESULT:     -12.0      4.078      9.665
REMARK SMILES CC(=O)c1nnn(-c2ccc(C(=O)NCCCNC(=O)c3ccc(-c4c5nc(c(-c6cccc(S(=O)(=O)[O-])c6F)c6ccc([nH]6)c(-c6cccc(S(=O)(=O)[O-])c6F)c6nc(c(-c7cccc(S(=O)(=O)[O-])c7F)c7ccc4[nH]7)C=C6)C=C5)cc3)cc2)c1C
REMARK SMILES IDX 16 1 15 2 14 3 12 4 13 5 11 7 8 8 9 9 85 10 10 11 84 12 7 13
REMARK SMILES IDX 4 14 5 15 86 16 6 17 87 18 2 19 1 20 3 21 17 22 18 23 19 24
REMARK SMILES IDX 20 26 21 27 22 28 83 29 23 30 82 31 24 32 25 33 26 34 76 35
REMARK SMILES IDX 27 36 81 37 75 38 77 39 28 40 80 41 74 42 73 43 29 45 61 46
REMARK SMILES IDX 41 47 60 48 42 49 45 50 59 51 78 52 43 53 44 54 58 56 79 57
REMARK SMILES IDX 46 58 30 59 31 60 39 61 32 62 34 63 40 64 33 65 35 66 36 67
REMARK SMILES IDX 37 68 38 69 62 70 63 71 71 72 64 73 66 74 72 75 65 76 67 77
REMARK SMILES IDX 68 78 69 79 70 80 47 81 48 82 56 83 49 84 51 85 57 86 50 87
REMARK SMILES IDX 52 88 53 89 54 90 55 91
REMARK H PARENT 14 6 18 25 77 44 45 55
REMARK Flexibility Score: inf
ROOT
ATOM      1  C   UNL A   1      31.325  31.804  26.671  1.00  0.00     0.042 C 
ENDROOT
BRANCH   1   2
ATOM      2  C   UNL A   1      31.566  30.594  25.758  1.00  0.00     0.118 C 
BRANCH   2   3
ATOM      3  N   UNL A   1      30.649  30.553  24.628  1.00  0.00    -0.352 N 
ATOM      4  C   UNL A   1      30.483  29.650  23.602  1.00  0.00     0.251 C 
ATOM      5  O   UNL A   1      29.489  29.766  22.888  1.00  0.00    -0.269 OA
ATOM      6  H   UNL A   1      30.030  31.317  24.590  1.00  0.00     0.163 HD
BRANCH   4   7
ATOM      7  C   UNL A   1      31.401  28.500  23.370  1.00  0.00     0.039 A 
ATOM      8  C   UNL A   1      33.045  26.247  23.263  1.00  0.00     0.067 A 
ATOM      9  C   UNL A   1      31.663  26.075  23.226  1.00  0.00     0.029 A 
ATOM     10  C   UNL A   1      33.607  27.522  23.204  1.00  0.00     0.029 A 
ATOM     11  C   UNL A   1      30.845  27.208  23.310  1.00  0.00     0.016 A 
ATOM     12  C   UNL A   1      32.779  28.637  23.213  1.00  0.00     0.016 A 
BRANCH   8  13
ATOM     13  N   UNL A   1      33.898  25.149  23.450  1.00  0.00    -0.217 N 
ATOM     14  C   UNL A   1      35.334  23.728  24.254  1.00  0.00     0.151 A 
ATOM     15  N   UNL A   1      35.249  23.562  22.894  1.00  0.00    -0.126 NA
ATOM     16  C   UNL A   1      34.435  24.704  24.649  1.00  0.00     0.073 A 
ATOM     17  N   UNL A   1      34.289  24.355  22.436  1.00  0.00    -0.061 NA
ATOM     18  C   UNL A   1      33.987  25.201  25.974  1.00  0.00     0.069 C 
BRANCH  14  19
ATOM     19  C   UNL A   1      36.215  22.910  25.071  1.00  0.00     0.181 C 
ATOM     20  C   UNL A   1      35.823  21.473  25.302  1.00  0.00     0.095 C 
ATOM     21  O   UNL A   1      37.258  23.355  25.548  1.00  0.00    -0.293 OA
ENDBRANCH  14  19
ENDBRANCH   8  13
ENDBRANCH   4   7
ENDBRANCH   2   3
ENDBRANCH   1   2
BRANCH   1  22
ATOM     22  C   UNL A   1      32.614  32.492  27.078  1.00  0.00     0.118 C 
BRANCH  22  23
ATOM     23  N   UNL A   1      32.385  33.855  27.564  1.00  0.00    -0.352 N 
ATOM     24  C   UNL A   1      33.047  34.535  28.570  1.00  0.00     0.251 C 
ATOM     25  H   UNL A   1      31.663  34.352  27.113  1.00  0.00     0.163 HD
ATOM     26  O   UNL A   1      32.541  35.514  29.090  1.00  0.00    -0.269 OA
BRANCH  24  27
ATOM     27  C   UNL A   1      34.368  34.045  29.004  1.00  0.00     0.039 A 
ATOM     28  C   UNL A   1      34.513  33.276  30.162  1.00  0.00     0.014 A 
ATOM     29  C   UNL A   1      35.466  34.335  28.201  1.00  0.00     0.014 A 
ATOM     30  C   UNL A   1      35.760  32.732  30.455  1.00  0.00     0.010 A 
ATOM     31  C   UNL A   1      36.635  33.648  28.384  1.00  0.00     0.010 A 
ATOM     32  C   UNL A   1      36.814  32.905  29.545  1.00  0.00    -0.014 A 
BRANCH  32  33
ATOM     33  C   UNL A   1      38.091  32.223  29.722  1.00  0.00     0.031 A 
ATOM     34  C   UNL A   1      38.124  30.835  29.192  1.00  0.00     0.074 A 
ATOM     35  C   UNL A   1      39.209  32.882  30.099  1.00  0.00     0.049 A 
ATOM     36  N   UNL A   1      38.212  29.735  29.867  1.00  0.00    -0.248 NA
ATOM     37  C   UNL A   1      37.866  30.632  27.758  1.00  0.00     0.031 C 
ATOM     38  C   UNL A   1      39.364  34.328  30.332  1.00  0.00     0.029 A 
ATOM     39  N   UNL A   1      40.490  32.431  30.192  1.00  0.00    -0.354 N 
ATOM     40  C   UNL A   1      38.291  28.722  28.913  1.00  0.00     0.074 A 
ATOM     41  C   UNL A   1      37.830  29.299  27.681  1.00  0.00     0.031 C 
ATOM     42  C   UNL A   1      40.670  34.660  30.263  1.00  0.00     0.029 A 
ATOM     43  C   UNL A   1      41.448  33.441  30.177  1.00  0.00     0.049 A 
ATOM     44  H   UNL A   1      40.717  31.475  30.264  1.00  0.00     0.167 HD
ATOM     45  C   UNL A   1      39.008  27.588  29.153  1.00  0.00     0.034 A 
ATOM     46  C   UNL A   1      42.789  33.289  30.069  1.00  0.00     0.034 A 
ATOM     47  C   UNL A   1      39.352  27.484  30.551  1.00  0.00     0.049 A 
ATOM     48  C   UNL A   1      43.097  31.897  30.456  1.00  0.00     0.074 A 
ATOM     49  C   UNL A   1      38.658  27.406  31.740  1.00  0.00     0.029 A 
ATOM     50  N   UNL A   1      40.637  27.846  30.873  1.00  0.00    -0.354 N 
ATOM     51  N   UNL A   1      42.937  31.436  31.664  1.00  0.00    -0.248 NA
ATOM     52  C   UNL A   1      43.211  30.894  29.411  1.00  0.00     0.031 C 
ATOM     53  C   UNL A   1      39.449  28.130  32.680  1.00  0.00     0.029 A 
ATOM     54  C   UNL A   1      40.613  28.560  32.038  1.00  0.00     0.049 A 
ATOM     55  H   UNL A   1      41.442  27.626  30.351  1.00  0.00     0.167 HD
ATOM     56  C   UNL A   1      42.457  30.150  31.474  1.00  0.00     0.074 A 
ATOM     57  C   UNL A   1      42.799  29.821  30.092  1.00  0.00     0.031 C 
ATOM     58  C   UNL A   1      41.567  29.603  32.354  1.00  0.00     0.034 A 
BRANCH  45  59
ATOM     59  C   UNL A   1      39.783  26.792  28.114  1.00  0.00     0.023 A 
ATOM     60  C   UNL A   1      39.625  25.384  28.146  1.00  0.00     0.012 A 
ATOM     61  C   UNL A   1      40.851  27.288  27.332  1.00  0.00     0.148 A 
ATOM     62  C   UNL A   1      40.526  24.523  27.510  1.00  0.00     0.002 A 
ATOM     63  C   UNL A   1      41.699  26.430  26.638  1.00  0.00     0.091 A 
ATOM     64  F   UNL A   1      41.150  28.587  27.346  1.00  0.00    -0.205 F 
ATOM     65  C   UNL A   1      41.565  25.046  26.754  1.00  0.00     0.022 A 
BRANCH  63  66
ATOM     66  S   UNL A   1      43.033  27.056  25.607  1.00  0.00     0.127 S 
ATOM     67  O   UNL A   1      42.303  27.906  24.672  1.00  0.00    -0.237 OA
ATOM     68  O   UNL A   1      43.855  27.768  26.585  1.00  0.00    -0.237 OA
ATOM     69  O   UNL A   1      43.674  25.877  25.038  1.00  0.00    -0.744 OA
ENDBRANCH  63  66
ENDBRANCH  45  59
BRANCH  46  70
ATOM     70  C   UNL A   1      43.816  34.180  29.487  1.00  0.00     0.023 A 
ATOM     71  C   UNL A   1      44.602  34.983  30.337  1.00  0.00     0.012 A 
ATOM     72  C   UNL A   1      44.225  34.026  28.144  1.00  0.00     0.148 A 
ATOM     73  C   UNL A   1      45.783  35.576  29.880  1.00  0.00     0.002 A 
ATOM     74  C   UNL A   1      45.402  34.619  27.693  1.00  0.00     0.091 A 
ATOM     75  F   UNL A   1      43.510  33.227  27.342  1.00  0.00    -0.205 F 
ATOM     76  C   UNL A   1      46.191  35.384  28.563  1.00  0.00     0.022 A 
BRANCH  74  77
ATOM     77  S   UNL A   1      46.019  34.385  26.021  1.00  0.00     0.127 S 
ATOM     78  O   UNL A   1      44.801  34.550  25.226  1.00  0.00    -0.237 OA
ATOM     79  O   UNL A   1      46.982  35.476  25.901  1.00  0.00    -0.237 OA
ATOM     80  O   UNL A   1      46.579  33.041  25.991  1.00  0.00    -0.744 OA
ENDBRANCH  74  77
ENDBRANCH  46  70
BRANCH  58  81
ATOM     81  C   UNL A   1      41.386  30.290  33.685  1.00  0.00     0.023 A 
ATOM     82  C   UNL A   1      42.292  30.130  34.755  1.00  0.00     0.012 A 
ATOM     83  C   UNL A   1      40.360  31.241  33.802  1.00  0.00     0.148 A 
ATOM     84  C   UNL A   1      42.162  30.886  35.923  1.00  0.00     0.002 A 
ATOM     85  C   UNL A   1      40.263  32.026  34.944  1.00  0.00     0.091 A 
ATOM     86  F   UNL A   1      39.509  31.382  32.775  1.00  0.00    -0.205 F 
ATOM     87  C   UNL A   1      41.155  31.844  36.013  1.00  0.00     0.022 A 
BRANCH  85  88
ATOM     88  S   UNL A   1      39.072  33.361  35.059  1.00  0.00     0.127 S 
ATOM     89  O   UNL A   1      37.802  32.639  35.062  1.00  0.00    -0.237 OA
ATOM     90  O   UNL A   1      39.422  33.988  36.335  1.00  0.00    -0.237 OA
ATOM     91  O   UNL A   1      39.310  34.210  33.898  1.00  0.00    -0.744 OA
ENDBRANCH  85  88
ENDBRANCH  58  81
ENDBRANCH  32  33
ENDBRANCH  24  27
ENDBRANCH  22  23
ENDBRANCH   1  22
TORSDOF 15
ENDMDL
MODEL 3
REMARK VINA RESULT:     -11.7      1.381      1.700
REMARK SMILES CC(=O)c1nnn(-c2ccc(C(=O)NCCCNC(=O)c3ccc(-c4c5nc(c(-c6cccc(S(=O)(=O)[O-])c6F)c6ccc([nH]6)c(-c6cccc(S(=O)(=O)[O-])c6F)c6nc(c(-c7cccc(S(=O)(=O)[O-])c7F)c7ccc4[nH]7)C=C6)C=C5)cc3)cc2)c1C
REMARK SMILES IDX 16 1 15 2 14 3 12 4 13 5 11 7 8 8 9 9 85 10 10 11 84 12 7 13
REMARK SMILES IDX 4 14 5 15 86 16 6 17 87 18 2 19 1 20 3 21 17 22 18 23 19 24
REMARK SMILES IDX 20 26 21 27 22 28 83 29 23 30 82 31 24 32 25 33 26 34 76 35
REMARK SMILES IDX 27 36 81 37 75 38 77 39 28 40 80 41 74 42 73 43 29 45 61 46
REMARK SMILES IDX 41 47 60 48 42 49 45 50 59 51 78 52 43 53 44 54 58 56 79 57
REMARK SMILES IDX 46 58 30 59 31 60 39 61 32 62 34 63 40 64 33 65 35 66 36 67
REMARK SMILES IDX 37 68 38 69 62 70 63 71 71 72 64 73 66 74 72 75 65 76 67 77
REMARK SMILES IDX 68 78 69 79 70 80 47 81 48 82 56 83 49 84 51 85 57 86 50 87
REMARK SMILES IDX 52 88 53 89 54 90 55 91
REMARK H PARENT 14 6 18 25 77 44 45 55
REMARK Flexibility Score: inf
ROOT
ATOM      1  C   UNL A   1      37.995  19.393  25.000  1.00  0.00     0.042 C 
ENDROOT
BRANCH   1   2
ATOM      2  C   UNL A   1      36.792  20.347  25.006  1.00  0.00     0.118 C 
BRANCH   2   3
ATOM      3  N   UNL A   1      35.518  19.643  25.014  1.00  0.00    -0.352 N 
ATOM      4  C   UNL A   1      34.215  20.084  24.953  1.00  0.00     0.251 C 
ATOM      5  O   UNL A   1      33.332  19.247  24.778  1.00  0.00    -0.269 OA
ATOM      6  H   UNL A   1      35.605  18.664  25.076  1.00  0.00     0.163 HD
BRANCH   4   7
ATOM      7  C   UNL A   1      33.837  21.523  25.007  1.00  0.00     0.039 A 
ATOM      8  C   UNL A   1      32.964  24.143  25.408  1.00  0.00     0.067 A 
ATOM      9  C   UNL A   1      33.993  23.646  26.206  1.00  0.00     0.029 A 
ATOM     10  C   UNL A   1      32.476  23.404  24.331  1.00  0.00     0.029 A 
ATOM     11  C   UNL A   1      34.404  22.321  26.018  1.00  0.00     0.016 A 
ATOM     12  C   UNL A   1      32.948  22.118  24.113  1.00  0.00     0.016 A 
BRANCH   8  13
ATOM     13  N   UNL A   1      32.336  25.357  25.725  1.00  0.00    -0.217 N 
ATOM     14  C   UNL A   1      31.881  27.462  26.025  1.00  0.00     0.151 A 
ATOM     15  N   UNL A   1      31.037  26.705  26.799  1.00  0.00    -0.126 NA
ATOM     16  C   UNL A   1      32.691  26.622  25.280  1.00  0.00     0.073 A 
ATOM     17  N   UNL A   1      31.251  25.425  26.518  1.00  0.00    -0.061 NA
ATOM     18  C   UNL A   1      33.673  26.854  24.191  1.00  0.00     0.069 C 
BRANCH  14  19
ATOM     19  C   UNL A   1      31.811  28.914  26.013  1.00  0.00     0.181 C 
ATOM     20  C   UNL A   1      32.275  29.649  27.245  1.00  0.00     0.095 C 
ATOM     21  O   UNL A   1      31.406  29.536  25.032  1.00  0.00    -0.293 OA
ENDBRANCH  14  19
ENDBRANCH   8  13
ENDBRANCH   4   7
ENDBRANCH   2   3
ENDBRANCH   1   2
BRANCH   1  22
ATOM     22  C   UNL A   1      39.197  19.967  25.725  1.00  0.00     0.118 C 
BRANCH  22  23
ATOM     23  N   UNL A   1      40.342  19.055  25.705  1.00  0.00    -0.352 N 
ATOM     24  C   UNL A   1      41.684  19.350  25.874  1.00  0.00     0.251 C 
ATOM     25  H   UNL A   1      40.129  18.106  25.551  1.00  0.00     0.163 HD
ATOM     26  O   UNL A   1      42.540  18.567  25.501  1.00  0.00    -0.269 OA
BRANCH  24  27
ATOM     27  C   UNL A   1      42.052  20.632  26.504  1.00  0.00     0.039 A 
ATOM     28  C   UNL A   1      42.490  21.716  25.738  1.00  0.00     0.014 A 
ATOM     29  C   UNL A   1      41.909  20.745  27.883  1.00  0.00     0.014 A 
ATOM     30  C   UNL A   1      42.700  22.940  26.368  1.00  0.00     0.010 A 
ATOM     31  C   UNL A   1      41.930  21.985  28.462  1.00  0.00     0.010 A 
ATOM     32  C   UNL A   1      42.395  23.071  27.730  1.00  0.00    -0.014 A 
BRANCH  32  33
ATOM     33  C   UNL A   1      42.441  24.366  28.400  1.00  0.00     0.031 A 
ATOM     34  C   UNL A   1      41.268  25.237  28.134  1.00  0.00     0.074 A 
ATOM     35  C   UNL A   1      43.342  24.640  29.370  1.00  0.00     0.049 A 
ATOM     36  N   UNL A   1      41.241  26.343  27.463  1.00  0.00    -0.248 NA
ATOM     37  C   UNL A   1      39.935  24.745  28.516  1.00  0.00     0.031 C 
ATOM     38  C   UNL A   1      44.346  23.729  29.946  1.00  0.00     0.029 A 
ATOM     39  N   UNL A   1      43.446  25.736  30.170  1.00  0.00    -0.354 N 
ATOM     40  C   UNL A   1      39.934  26.813  27.576  1.00  0.00     0.074 A 
ATOM     41  C   UNL A   1      39.144  25.693  28.007  1.00  0.00     0.031 C 
ATOM     42  C   UNL A   1      44.746  24.199  31.146  1.00  0.00     0.029 A 
ATOM     43  C   UNL A   1      44.184  25.520  31.332  1.00  0.00     0.049 A 
ATOM     44  H   UNL A   1      43.037  26.604  29.946  1.00  0.00     0.167 HD
ATOM     45  C   UNL A   1      39.669  28.150  27.595  1.00  0.00     0.034 A 
ATOM     46  C   UNL A   1      44.298  26.357  32.390  1.00  0.00     0.034 A 
ATOM     47  C   UNL A   1      40.825  28.908  27.177  1.00  0.00     0.049 A 
ATOM     48  C   UNL A   1      43.927  27.705  31.914  1.00  0.00     0.074 A 
ATOM     49  C   UNL A   1      41.603  28.985  26.042  1.00  0.00     0.029 A 
ATOM     50  N   UNL A   1      41.555  29.479  28.190  1.00  0.00    -0.354 N 
ATOM     51  N   UNL A   1      44.628  28.378  31.045  1.00  0.00    -0.248 NA
ATOM     52  C   UNL A   1      42.559  28.156  32.101  1.00  0.00     0.031 C 
ATOM     53  C   UNL A   1      42.928  29.220  26.515  1.00  0.00     0.029 A 
ATOM     54  C   UNL A   1      42.885  29.337  27.906  1.00  0.00     0.049 A 
ATOM     55  H   UNL A   1      41.183  29.919  28.988  1.00  0.00     0.167 HD
ATOM     56  C   UNL A   1      43.676  29.000  30.252  1.00  0.00     0.074 A 
ATOM     57  C   UNL A   1      42.446  28.960  31.040  1.00  0.00     0.031 C 
ATOM     58  C   UNL A   1      43.908  29.209  28.923  1.00  0.00     0.034 A 
BRANCH  45  59
ATOM     59  C   UNL A   1      38.558  28.824  28.385  1.00  0.00     0.023 A 
ATOM     60  C   UNL A   1      37.738  29.736  27.676  1.00  0.00     0.012 A 
ATOM     61  C   UNL A   1      38.457  28.850  29.795  1.00  0.00     0.148 A 
ATOM     62  C   UNL A   1      36.933  30.673  28.332  1.00  0.00     0.002 A 
ATOM     63  C   UNL A   1      37.598  29.734  30.442  1.00  0.00     0.091 A 
ATOM     64  F   UNL A   1      39.281  28.118  30.544  1.00  0.00    -0.205 F 
ATOM     65  C   UNL A   1      36.862  30.673  29.718  1.00  0.00     0.022 A 
BRANCH  63  66
ATOM     66  S   UNL A   1      37.433  29.744  32.233  1.00  0.00     0.127 S 
ATOM     67  O   UNL A   1      36.172  30.460  32.404  1.00  0.00    -0.237 OA
ATOM     68  O   UNL A   1      37.384  28.314  32.535  1.00  0.00    -0.237 OA
ATOM     69  O   UNL A   1      38.626  30.417  32.731  1.00  0.00    -0.744 OA
ENDBRANCH  63  66
ENDBRANCH  45  59
BRANCH  46  70
ATOM     70  C   UNL A   1      44.524  26.073  33.823  1.00  0.00     0.023 A 
ATOM     71  C   UNL A   1      43.421  25.847  34.670  1.00  0.00     0.012 A 
ATOM     72  C   UNL A   1      45.811  25.733  34.295  1.00  0.00     0.148 A 
ATOM     73  C   UNL A   1      43.587  25.258  35.928  1.00  0.00     0.002 A 
ATOM     74  C   UNL A   1      45.971  25.147  35.548  1.00  0.00     0.091 A 
ATOM     75  F   UNL A   1      46.860  25.901  33.479  1.00  0.00    -0.205 F 
ATOM     76  C   UNL A   1      44.858  24.895  36.362  1.00  0.00     0.022 A 
BRANCH  74  77
ATOM     77  S   UNL A   1      47.573  24.612  36.164  1.00  0.00     0.127 S 
ATOM     78  O   UNL A   1      47.945  23.589  35.187  1.00  0.00    -0.237 OA
ATOM     79  O   UNL A   1      48.351  25.846  36.087  1.00  0.00    -0.237 OA
ATOM     80  O   UNL A   1      47.329  24.102  37.507  1.00  0.00    -0.744 OA
ENDBRANCH  74  77
ENDBRANCH  46  70
BRANCH  58  81
ATOM     81  C   UNL A   1      45.325  29.056  28.426  1.00  0.00     0.023 A 
ATOM     82  C   UNL A   1      46.301  30.062  28.584  1.00  0.00     0.012 A 
ATOM     83  C   UNL A   1      45.717  27.803  27.930  1.00  0.00     0.148 A 
ATOM     84  C   UNL A   1      47.633  29.830  28.230  1.00  0.00     0.002 A 
ATOM     85  C   UNL A   1      47.050  27.559  27.626  1.00  0.00     0.091 A 
ATOM     86  F   UNL A   1      44.777  26.856  27.788  1.00  0.00    -0.205 F 
ATOM     87  C   UNL A   1      48.010  28.573  27.764  1.00  0.00     0.022 A 
BRANCH  85  88
ATOM     88  S   UNL A   1      47.614  25.925  27.149  1.00  0.00     0.127 S 
ATOM     89  O   UNL A   1      49.059  26.113  27.061  1.00  0.00    -0.237 OA
ATOM     90  O   UNL A   1      47.172  25.098  28.274  1.00  0.00    -0.237 OA
ATOM     91  O   UNL A   1      46.941  25.620  25.892  1.00  0.00    -0.744 OA
ENDBRANCH  85  88
ENDBRANCH  58  81
ENDBRANCH  32  33
ENDBRANCH  24  27
ENDBRANCH  22  23
ENDBRANCH   1  22
TORSDOF 15
ENDMDL
