MODEL 1
REMARK VINA RESULT:     -12.1      0.000      0.000
REMARK SMILES N#Cc1ccc(C[N@H+]2CCCC[C@H]2C(=O)NCCCNC(=O)c2ccc(-c3c4nc(c(-c5cccc(S(=O)(=O)[O-])c5F)c5ccc([nH]5)c(-c5cccc(S(=O)(=O)[O-])c5F)c5nc(c(-c6cccc(S(=O)(=O)[O-])c6F)c6ccc3[nH]6)C=C5)C=C4)cc2)c(F)c1
REMARK SMILES IDX 18 1 17 2 16 3 14 4 15 5 13 7 8 8 9 9 10 11 12 12 11 13 7 14
REMARK SMILES IDX 6 15 3 16 4 17 88 18 5 19 86 20 87 21 2 22 1 23 19 24 20 25
REMARK SMILES IDX 21 26 22 28 23 29 24 30 85 31 25 32 84 33 26 34 27 35 28 36
REMARK SMILES IDX 78 37 29 38 83 39 77 40 79 41 30 42 82 43 76 44 75 45 31 47
REMARK SMILES IDX 63 48 43 49 62 50 44 51 47 52 61 53 80 54 45 55 46 56 60 58
REMARK SMILES IDX 81 59 48 60 32 61 33 62 41 63 34 64 36 65 42 66 35 67 37 68
REMARK SMILES IDX 38 69 39 70 40 71 64 72 65 73 73 74 66 75 68 76 74 77 67 78
REMARK SMILES IDX 69 79 70 80 71 81 72 82 49 83 50 84 58 85 51 86 53 87 59 88
REMARK SMILES IDX 52 89 54 90 55 91 56 92 57 93
REMARK H PARENT 16 6 8 10 20 27 79 46 47 57
REMARK Flexibility Score: inf
ROOT
ATOM      1  C   UNL A   1      31.507  28.962  26.853  1.00  0.00     0.042 C 
ENDROOT
BRANCH   1   2
ATOM      2  C   UNL A   1      32.026  27.626  27.380  1.00  0.00     0.118 C 
BRANCH   2   3
ATOM      3  N   UNL A   1      31.245  26.545  26.818  1.00  0.00    -0.351 N 
ATOM      4  C   UNL A   1      31.636  25.561  25.962  1.00  0.00     0.278 C 
ATOM      5  O   UNL A   1      30.740  25.047  25.289  1.00  0.00    -0.268 OA
ATOM      6  H   UNL A   1      30.301  26.518  27.092  1.00  0.00     0.163 HD
BRANCH   4   7
ATOM      7  C   UNL A   1      33.126  25.125  25.927  1.00  0.00     0.274 C 
ATOM      8  N   UNL A   1      33.372  23.869  25.173  1.00  0.00    -0.321 N 
ATOM      9  C   UNL A   1      33.067  23.968  23.745  1.00  0.00     0.263 C 
ATOM     10  H   UNL A   1      34.386  23.763  25.204  1.00  0.00     0.349 HD
ATOM     11  C   UNL A   1      33.776  25.160  23.080  1.00  0.00     0.062 C 
ATOM     12  C   UNL A   1      33.986  26.245  25.329  1.00  0.00     0.076 C 
ATOM     13  C   UNL A   1      33.652  26.465  23.860  1.00  0.00     0.012 C 
BRANCH   8  14
ATOM     14  C   UNL A   1      32.937  22.625  25.833  1.00  0.00     0.302 C 
BRANCH  14  15
ATOM     15  C   UNL A   1      33.236  21.319  25.135  1.00  0.00     0.042 A 
ATOM     16  C   UNL A   1      33.740  18.701  24.250  1.00  0.00     0.055 A 
ATOM     17  C   UNL A   1      32.475  19.272  24.075  1.00  0.00     0.020 A 
ATOM     18  C   UNL A   1      34.781  19.470  24.769  1.00  0.00     0.059 A 
ATOM     19  C   UNL A   1      32.221  20.573  24.522  1.00  0.00     0.014 A 
ATOM     20  C   UNL A   1      34.527  20.777  25.173  1.00  0.00     0.133 A 
ATOM     21  F   UNL A   1      35.533  21.487  25.704  1.00  0.00    -0.206 F 
BRANCH  16  22
ATOM     22  C   UNL A   1      33.959  17.318  23.935  1.00  0.00     0.099 C 
ATOM     23  N   UNL A   1      34.132  16.203  23.673  1.00  0.00    -0.192 NA
ENDBRANCH  16  22
ENDBRANCH  14  15
ENDBRANCH   8  14
ENDBRANCH   4   7
ENDBRANCH   2   3
ENDBRANCH   1   2
BRANCH   1  24
ATOM     24  C   UNL A   1      32.559  29.773  26.097  1.00  0.00     0.118 C 
BRANCH  24  25
ATOM     25  N   UNL A   1      32.454  31.202  26.356  1.00  0.00    -0.352 N 
ATOM     26  C   UNL A   1      33.212  31.995  27.179  1.00  0.00     0.251 C 
ATOM     27  H   UNL A   1      31.733  31.666  25.872  1.00  0.00     0.163 HD
ATOM     28  O   UNL A   1      32.844  33.140  27.425  1.00  0.00    -0.269 OA
BRANCH  26  29
ATOM     29  C   UNL A   1      34.452  31.463  27.783  1.00  0.00     0.039 A 
ATOM     30  C   UNL A   1      35.516  32.339  28.004  1.00  0.00     0.014 A 
ATOM     31  C   UNL A   1      34.569  30.113  28.127  1.00  0.00     0.014 A 
ATOM     32  C   UNL A   1      36.675  31.872  28.626  1.00  0.00     0.010 A 
ATOM     33  C   UNL A   1      35.693  29.669  28.822  1.00  0.00     0.010 A 
ATOM     34  C   UNL A   1      36.759  30.543  29.078  1.00  0.00    -0.014 A 
BRANCH  34  35
ATOM     35  C   UNL A   1      37.945  30.080  29.846  1.00  0.00     0.031 A 
ATOM     36  C   UNL A   1      38.210  30.587  31.238  1.00  0.00     0.074 A 
ATOM     37  C   UNL A   1      38.813  29.228  29.264  1.00  0.00     0.049 A 
ATOM     38  N   UNL A   1      39.195  30.292  32.045  1.00  0.00    -0.248 NA
ATOM     39  C   UNL A   1      37.256  31.563  31.793  1.00  0.00     0.031 C 
ATOM     40  C   UNL A   1      38.709  28.719  27.892  1.00  0.00     0.029 A 
ATOM     41  N   UNL A   1      39.962  28.648  29.742  1.00  0.00    -0.354 N 
ATOM     42  C   UNL A   1      38.993  31.052  33.191  1.00  0.00     0.074 A 
ATOM     43  C   UNL A   1      37.811  31.854  32.961  1.00  0.00     0.031 C 
ATOM     44  C   UNL A   1      39.740  27.896  27.647  1.00  0.00     0.029 A 
ATOM     45  C   UNL A   1      40.603  27.851  28.821  1.00  0.00     0.049 A 
ATOM     46  H   UNL A   1      40.296  28.790  30.657  1.00  0.00     0.167 HD
ATOM     47  C   UNL A   1      39.708  31.061  34.342  1.00  0.00     0.034 A 
ATOM     48  C   UNL A   1      41.766  27.176  28.904  1.00  0.00     0.034 A 
ATOM     49  C   UNL A   1      40.875  30.253  34.575  1.00  0.00     0.049 A 
ATOM     50  C   UNL A   1      42.541  27.213  30.194  1.00  0.00     0.074 A 
ATOM     51  C   UNL A   1      41.632  30.151  35.729  1.00  0.00     0.029 A 
ATOM     52  N   UNL A   1      41.467  29.422  33.637  1.00  0.00    -0.354 N 
ATOM     53  N   UNL A   1      42.251  27.827  31.315  1.00  0.00    -0.248 NA
ATOM     54  C   UNL A   1      43.785  26.433  30.242  1.00  0.00     0.031 C 
ATOM     55  C   UNL A   1      42.705  29.293  35.476  1.00  0.00     0.029 A 
ATOM     56  C   UNL A   1      42.587  28.816  34.181  1.00  0.00     0.049 A 
ATOM     57  H   UNL A   1      41.140  29.283  32.719  1.00  0.00     0.167 HD
ATOM     58  C   UNL A   1      43.255  27.477  32.210  1.00  0.00     0.074 A 
ATOM     59  C   UNL A   1      44.141  26.572  31.511  1.00  0.00     0.031 C 
ATOM     60  C   UNL A   1      43.436  27.881  33.492  1.00  0.00     0.034 A 
BRANCH  47  61
ATOM     61  C   UNL A   1      39.228  31.943  35.465  1.00  0.00     0.023 A 
ATOM     62  C   UNL A   1      38.362  31.415  36.445  1.00  0.00     0.012 A 
ATOM     63  C   UNL A   1      39.707  33.261  35.606  1.00  0.00     0.148 A 
ATOM     64  C   UNL A   1      37.961  32.191  37.533  1.00  0.00     0.002 A 
ATOM     65  C   UNL A   1      39.341  34.012  36.717  1.00  0.00     0.091 A 
ATOM     66  F   UNL A   1      40.519  33.749  34.658  1.00  0.00    -0.205 F 
ATOM     67  C   UNL A   1      38.460  33.483  37.675  1.00  0.00     0.022 A 
BRANCH  65  68
ATOM     68  S   UNL A   1      39.992  35.655  37.040  1.00  0.00     0.127 S 
ATOM     69  O   UNL A   1      39.288  36.014  38.270  1.00  0.00    -0.237 OA
ATOM     70  O   UNL A   1      41.421  35.388  37.210  1.00  0.00    -0.237 OA
ATOM     71  O   UNL A   1      39.653  36.461  35.875  1.00  0.00    -0.744 OA
ENDBRANCH  65  68
ENDBRANCH  47  61
BRANCH  48  72
ATOM     72  C   UNL A   1      42.274  26.396  27.739  1.00  0.00     0.023 A 
ATOM     73  C   UNL A   1      43.071  27.026  26.763  1.00  0.00     0.012 A 
ATOM     74  C   UNL A   1      41.944  25.036  27.580  1.00  0.00     0.148 A 
ATOM     75  C   UNL A   1      43.480  26.334  25.622  1.00  0.00     0.002 A 
ATOM     76  C   UNL A   1      42.408  24.334  26.475  1.00  0.00     0.091 A 
ATOM     77  F   UNL A   1      41.178  24.454  28.514  1.00  0.00    -0.205 F 
ATOM     78  C   UNL A   1      43.154  24.987  25.481  1.00  0.00     0.022 A 
BRANCH  76  79
ATOM     79  S   UNL A   1      42.148  22.569  26.280  1.00  0.00     0.127 S 
ATOM     80  O   UNL A   1      42.814  22.036  27.464  1.00  0.00    -0.237 OA
ATOM     81  O   UNL A   1      40.688  22.477  26.298  1.00  0.00    -0.237 OA
ATOM     82  O   UNL A   1      42.753  22.221  25.001  1.00  0.00    -0.744 OA
ENDBRANCH  76  79
ENDBRANCH  48  72
BRANCH  60  83
ATOM     83  C   UNL A   1      44.607  27.302  34.245  1.00  0.00     0.023 A 
ATOM     84  C   UNL A   1      45.866  27.937  34.198  1.00  0.00     0.012 A 
ATOM     85  C   UNL A   1      44.446  26.147  35.035  1.00  0.00     0.148 A 
ATOM     86  C   UNL A   1      46.955  27.401  34.885  1.00  0.00     0.002 A 
ATOM     87  C   UNL A   1      45.521  25.654  35.763  1.00  0.00     0.091 A 
ATOM     88  F   UNL A   1      43.246  25.550  35.056  1.00  0.00    -0.205 F 
ATOM     89  C   UNL A   1      46.780  26.267  35.674  1.00  0.00     0.022 A 
BRANCH  87  90
ATOM     90  S   UNL A   1      45.369  24.258  36.883  1.00  0.00     0.127 S 
ATOM     91  O   UNL A   1      46.735  24.134  37.391  1.00  0.00    -0.237 OA
ATOM     92  O   UNL A   1      44.396  24.751  37.858  1.00  0.00    -0.237 OA
ATOM     93  O   UNL A   1      44.903  23.139  36.074  1.00  0.00    -0.744 OA
ENDBRANCH  87  90
ENDBRANCH  60  83
ENDBRANCH  34  35
ENDBRANCH  26  29
ENDBRANCH  24  25
ENDBRANCH   1  24
TORSDOF 16
ENDMDL
MODEL 2
REMARK VINA RESULT:     -12.0      2.589      8.073
REMARK SMILES N#Cc1ccc(C[N@H+]2CCCC[C@H]2C(=O)NCCCNC(=O)c2ccc(-c3c4nc(c(-c5cccc(S(=O)(=O)[O-])c5F)c5ccc([nH]5)c(-c5cccc(S(=O)(=O)[O-])c5F)c5nc(c(-c6cccc(S(=O)(=O)[O-])c6F)c6ccc3[nH]6)C=C5)C=C4)cc2)c(F)c1
REMARK SMILES IDX 18 1 17 2 16 3 14 4 15 5 13 7 8 8 9 9 10 11 12 12 11 13 7 14
REMARK SMILES IDX 6 15 3 16 4 17 88 18 5 19 86 20 87 21 2 22 1 23 19 24 20 25
REMARK SMILES IDX 21 26 22 28 23 29 24 30 85 31 25 32 84 33 26 34 27 35 28 36
REMARK SMILES IDX 78 37 29 38 83 39 77 40 79 41 30 42 82 43 76 44 75 45 31 47
REMARK SMILES IDX 63 48 43 49 62 50 44 51 47 52 61 53 80 54 45 55 46 56 60 58
REMARK SMILES IDX 81 59 48 60 32 61 33 62 41 63 34 64 36 65 42 66 35 67 37 68
REMARK SMILES IDX 38 69 39 70 40 71 64 72 65 73 73 74 66 75 68 76 74 77 67 78
REMARK SMILES IDX 69 79 70 80 71 81 72 82 49 83 50 84 58 85 51 86 53 87 59 88
REMARK SMILES IDX 52 89 54 90 55 91 56 92 57 93
REMARK H PARENT 16 6 8 10 20 27 79 46 47 57
REMARK Flexibility Score: inf
ROOT
ATOM      1  C   UNL A   1      31.536  31.730  26.685  1.00  0.00     0.042 C 
ENDROOT
BRANCH   1   2
ATOM      2  C   UNL A   1      31.879  30.481  25.876  1.00  0.00     0.118 C 
BRANCH   2   3
ATOM      3  N   UNL A   1      31.800  29.314  26.726  1.00  0.00    -0.351 N 
ATOM      4  C   UNL A   1      31.664  28.005  26.375  1.00  0.00     0.278 C 
ATOM      5  O   UNL A   1      31.180  27.266  27.235  1.00  0.00    -0.268 OA
ATOM      6  H   UNL A   1      31.852  29.490  27.693  1.00  0.00     0.163 HD
BRANCH   4   7
ATOM      7  C   UNL A   1      32.158  27.532  24.982  1.00  0.00     0.274 C 
ATOM      8  N   UNL A   1      32.559  26.102  24.934  1.00  0.00    -0.321 N 
ATOM      9  C   UNL A   1      31.455  25.172  25.180  1.00  0.00     0.263 C 
ATOM     10  H   UNL A   1      32.798  25.951  23.954  1.00  0.00     0.349 HD
ATOM     11  C   UNL A   1      30.252  25.440  24.261  1.00  0.00     0.062 C 
ATOM     12  C   UNL A   1      31.073  27.783  23.928  1.00  0.00     0.076 C 
ATOM     13  C   UNL A   1      29.852  26.909  24.181  1.00  0.00     0.012 C 
BRANCH   8  14
ATOM     14  C   UNL A   1      33.833  25.767  25.592  1.00  0.00     0.302 C 
BRANCH  14  15
ATOM     15  C   UNL A   1      34.375  24.370  25.403  1.00  0.00     0.042 A 
ATOM     16  C   UNL A   1      35.795  21.965  25.098  1.00  0.00     0.055 A 
ATOM     17  C   UNL A   1      35.220  22.292  26.331  1.00  0.00     0.020 A 
ATOM     18  C   UNL A   1      35.572  22.783  23.992  1.00  0.00     0.059 A 
ATOM     19  C   UNL A   1      34.519  23.492  26.486  1.00  0.00     0.014 A 
ATOM     20  C   UNL A   1      34.838  23.956  24.148  1.00  0.00     0.133 A 
ATOM     21  F   UNL A   1      34.668  24.748  23.079  1.00  0.00    -0.206 F 
BRANCH  16  22
ATOM     22  C   UNL A   1      36.643  20.812  24.978  1.00  0.00     0.099 C 
ATOM     23  N   UNL A   1      37.320  19.879  24.880  1.00  0.00    -0.192 NA
ENDBRANCH  16  22
ENDBRANCH  14  15
ENDBRANCH   8  14
ENDBRANCH   4   7
ENDBRANCH   2   3
ENDBRANCH   1   2
BRANCH   1  24
ATOM     24  C   UNL A   1      32.755  32.415  27.302  1.00  0.00     0.118 C 
BRANCH  24  25
ATOM     25  N   UNL A   1      32.524  33.827  27.572  1.00  0.00    -0.352 N 
ATOM     26  C   UNL A   1      33.097  34.636  28.519  1.00  0.00     0.251 C 
ATOM     27  H   UNL A   1      31.860  34.264  26.991  1.00  0.00     0.163 HD
ATOM     28  O   UNL A   1      32.626  35.751  28.730  1.00  0.00    -0.269 OA
BRANCH  26  29
ATOM     29  C   UNL A   1      34.259  34.157  29.297  1.00  0.00     0.039 A 
ATOM     30  C   UNL A   1      34.027  33.486  30.500  1.00  0.00     0.014 A 
ATOM     31  C   UNL A   1      35.567  34.366  28.851  1.00  0.00     0.014 A 
ATOM     32  C   UNL A   1      35.105  32.975  31.223  1.00  0.00     0.010 A 
ATOM     33  C   UNL A   1      36.634  33.782  29.530  1.00  0.00     0.010 A 
ATOM     34  C   UNL A   1      36.416  33.081  30.725  1.00  0.00    -0.014 A 
BRANCH  34  35
ATOM     35  C   UNL A   1      37.549  32.431  31.435  1.00  0.00     0.031 A 
ATOM     36  C   UNL A   1      38.287  31.274  30.816  1.00  0.00     0.074 A 
ATOM     37  C   UNL A   1      37.886  32.863  32.668  1.00  0.00     0.049 A 
ATOM     38  N   UNL A   1      39.292  30.591  31.298  1.00  0.00    -0.248 NA
ATOM     39  C   UNL A   1      37.830  30.813  29.495  1.00  0.00     0.031 C 
ATOM     40  C   UNL A   1      37.202  33.928  33.408  1.00  0.00     0.029 A 
ATOM     41  N   UNL A   1      38.878  32.453  33.524  1.00  0.00    -0.354 N 
ATOM     42  C   UNL A   1      39.578  29.612  30.353  1.00  0.00     0.074 A 
ATOM     43  C   UNL A   1      38.614  29.764  29.286  1.00  0.00     0.031 C 
ATOM     44  C   UNL A   1      37.802  34.095  34.597  1.00  0.00     0.029 A 
ATOM     45  C   UNL A   1      38.880  33.123  34.726  1.00  0.00     0.049 A 
ATOM     46  H   UNL A   1      39.524  31.745  33.300  1.00  0.00     0.167 HD
ATOM     47  C   UNL A   1      40.570  28.690  30.358  1.00  0.00     0.034 A 
ATOM     48  C   UNL A   1      39.651  32.960  35.819  1.00  0.00     0.034 A 
ATOM     49  C   UNL A   1      41.537  28.549  31.414  1.00  0.00     0.049 A 
ATOM     50  C   UNL A   1      40.740  31.922  35.796  1.00  0.00     0.074 A 
ATOM     51  C   UNL A   1      42.614  27.682  31.482  1.00  0.00     0.029 A 
ATOM     52  N   UNL A   1      41.538  29.277  32.593  1.00  0.00    -0.354 N 
ATOM     53  N   UNL A   1      41.082  31.104  34.831  1.00  0.00    -0.248 NA
ATOM     54  C   UNL A   1      41.573  31.808  37.001  1.00  0.00     0.031 C 
ATOM     55  C   UNL A   1      43.241  27.856  32.719  1.00  0.00     0.029 A 
ATOM     56  C   UNL A   1      42.587  28.869  33.400  1.00  0.00     0.049 A 
ATOM     57  H   UNL A   1      40.889  29.980  32.824  1.00  0.00     0.167 HD
ATOM     58  C   UNL A   1      42.191  30.408  35.297  1.00  0.00     0.074 A 
ATOM     59  C   UNL A   1      42.483  30.923  36.618  1.00  0.00     0.031 C 
ATOM     60  C   UNL A   1      42.897  29.420  34.693  1.00  0.00     0.034 A 
BRANCH  47  61
ATOM     61  C   UNL A   1      40.696  27.780  29.164  1.00  0.00     0.023 A 
ATOM     62  C   UNL A   1      39.840  26.666  29.043  1.00  0.00     0.012 A 
ATOM     63  C   UNL A   1      41.590  28.079  28.117  1.00  0.00     0.148 A 
ATOM     64  C   UNL A   1      39.888  25.850  27.913  1.00  0.00     0.002 A 
ATOM     65  C   UNL A   1      41.601  27.289  26.973  1.00  0.00     0.091 A 
ATOM     66  F   UNL A   1      42.405  29.135  28.256  1.00  0.00    -0.205 F 
ATOM     67  C   UNL A   1      40.759  26.169  26.875  1.00  0.00     0.022 A 
BRANCH  65  68
ATOM     68  S   UNL A   1      42.622  27.660  25.543  1.00  0.00     0.127 S 
ATOM     69  O   UNL A   1      41.993  28.880  25.040  1.00  0.00    -0.237 OA
ATOM     70  O   UNL A   1      43.938  27.858  26.152  1.00  0.00    -0.237 OA
ATOM     71  O   UNL A   1      42.521  26.504  24.662  1.00  0.00    -0.744 OA
ENDBRANCH  65  68
ENDBRANCH  47  61
BRANCH  48  72
ATOM     72  C   UNL A   1      39.436  33.803  37.030  1.00  0.00     0.023 A 
ATOM     73  C   UNL A   1      39.918  35.127  37.062  1.00  0.00     0.012 A 
ATOM     74  C   UNL A   1      38.781  33.286  38.165  1.00  0.00     0.148 A 
ATOM     75  C   UNL A   1      39.804  35.899  38.219  1.00  0.00     0.002 A 
ATOM     76  C   UNL A   1      38.613  34.081  39.291  1.00  0.00     0.091 A 
ATOM     77  F   UNL A   1      38.336  32.022  38.120  1.00  0.00    -0.205 F 
ATOM     78  C   UNL A   1      39.146  35.378  39.331  1.00  0.00     0.022 A 
BRANCH  76  79
ATOM     79  S   UNL A   1      37.666  33.538  40.716  1.00  0.00     0.127 S 
ATOM     80  O   UNL A   1      38.528  32.499  41.270  1.00  0.00    -0.237 OA
ATOM     81  O   UNL A   1      37.588  34.764  41.509  1.00  0.00    -0.237 OA
ATOM     82  O   UNL A   1      36.385  33.084  40.187  1.00  0.00    -0.744 OA
ENDBRANCH  76  79
ENDBRANCH  48  72
BRANCH  60  83
ATOM     83  C   UNL A   1      44.091  28.868  35.430  1.00  0.00     0.023 A 
ATOM     84  C   UNL A   1      45.367  29.439  35.245  1.00  0.00     0.012 A 
ATOM     85  C   UNL A   1      43.936  27.805  36.342  1.00  0.00     0.148 A 
ATOM     86  C   UNL A   1      46.476  28.926  35.917  1.00  0.00     0.002 A 
ATOM     87  C   UNL A   1      45.035  27.340  37.052  1.00  0.00     0.091 A 
ATOM     88  F   UNL A   1      42.718  27.266  36.494  1.00  0.00    -0.205 F 
ATOM     89  C   UNL A   1      46.309  27.885  36.827  1.00  0.00     0.022 A 
BRANCH  87  90
ATOM     90  S   UNL A   1      44.901  26.069  38.314  1.00  0.00     0.127 S 
ATOM     91  O   UNL A   1      44.106  26.749  39.336  1.00  0.00    -0.237 OA
ATOM     92  O   UNL A   1      44.199  25.002  37.603  1.00  0.00    -0.237 OA
ATOM     93  O   UNL A   1      46.266  25.742  38.706  1.00  0.00    -0.744 OA
ENDBRANCH  87  90
ENDBRANCH  60  83
ENDBRANCH  34  35
ENDBRANCH  26  29
ENDBRANCH  24  25
ENDBRANCH   1  24
TORSDOF 16
ENDMDL
MODEL 3
REMARK VINA RESULT:     -11.9      1.777      3.790
REMARK SMILES N#Cc1ccc(C[N@H+]2CCCC[C@H]2C(=O)NCCCNC(=O)c2ccc(-c3c4nc(c(-c5cccc(S(=O)(=O)[O-])c5F)c5ccc([nH]5)c(-c5cccc(S(=O)(=O)[O-])c5F)c5nc(c(-c6cccc(S(=O)(=O)[O-])c6F)c6ccc3[nH]6)C=C5)C=C4)cc2)c(F)c1
REMARK SMILES IDX 18 1 17 2 16 3 14 4 15 5 13 7 8 8 9 9 10 11 12 12 11 13 7 14
REMARK SMILES IDX 6 15 3 16 4 17 88 18 5 19 86 20 87 21 2 22 1 23 19 24 20 25
REMARK SMILES IDX 21 26 22 28 23 29 24 30 85 31 25 32 84 33 26 34 27 35 28 36
REMARK SMILES IDX 78 37 29 38 83 39 77 40 79 41 30 42 82 43 76 44 75 45 31 47
REMARK SMILES IDX 63 48 43 49 62 50 44 51 47 52 61 53 80 54 45 55 46 56 60 58
REMARK SMILES IDX 81 59 48 60 32 61 33 62 41 63 34 64 36 65 42 66 35 67 37 68
REMARK SMILES IDX 38 69 39 70 40 71 64 72 65 73 73 74 66 75 68 76 74 77 67 78
REMARK SMILES IDX 69 79 70 80 71 81 72 82 49 83 50 84 58 85 51 86 53 87 59 88
REMARK SMILES IDX 52 89 54 90 55 91 56 92 57 93
REMARK H PARENT 16 6 8 10 20 27 79 46 47 57
REMARK Flexibility Score: inf
ROOT
ATOM      1  C   UNL A   1      31.650  28.993  26.310  1.00  0.00     0.042 C 
ENDROOT
BRANCH   1   2
ATOM      2  C   UNL A   1      32.174  27.741  27.010  1.00  0.00     0.118 C 
BRANCH   2   3
ATOM      3  N   UNL A   1      33.069  27.028  26.124  1.00  0.00    -0.351 N 
ATOM      4  C   UNL A   1      32.883  25.833  25.498  1.00  0.00     0.278 C 
ATOM      5  O   UNL A   1      33.910  25.229  25.177  1.00  0.00    -0.268 OA
ATOM      6  H   UNL A   1      33.932  27.467  25.951  1.00  0.00     0.163 HD
BRANCH   4   7
ATOM      7  C   UNL A   1      31.441  25.347  25.191  1.00  0.00     0.274 C 
ATOM      8  N   UNL A   1      31.246  24.870  23.797  1.00  0.00    -0.321 N 
ATOM      9  C   UNL A   1      32.028  23.678  23.467  1.00  0.00     0.263 C 
ATOM     10  H   UNL A   1      30.280  24.544  23.787  1.00  0.00     0.349 HD
ATOM     11  C   UNL A   1      31.809  22.539  24.477  1.00  0.00     0.062 C 
ATOM     12  C   UNL A   1      31.047  24.228  26.163  1.00  0.00     0.076 C 
ATOM     13  C   UNL A   1      31.891  22.982  25.934  1.00  0.00     0.012 C 
BRANCH   8  14
ATOM     14  C   UNL A   1      31.206  25.914  22.759  1.00  0.00     0.302 C 
BRANCH  14  15
ATOM     15  C   UNL A   1      30.399  27.159  23.047  1.00  0.00     0.042 A 
ATOM     16  C   UNL A   1      28.808  29.472  23.134  1.00  0.00     0.055 A 
ATOM     17  C   UNL A   1      28.271  28.234  23.502  1.00  0.00     0.020 A 
ATOM     18  C   UNL A   1      30.164  29.575  22.826  1.00  0.00     0.059 A 
ATOM     19  C   UNL A   1      29.060  27.080  23.452  1.00  0.00     0.014 A 
ATOM     20  C   UNL A   1      30.950  28.426  22.819  1.00  0.00     0.133 A 
ATOM     21  F   UNL A   1      32.243  28.541  22.482  1.00  0.00    -0.206 F 
BRANCH  16  22
ATOM     22  C   UNL A   1      27.961  30.628  23.036  1.00  0.00     0.099 C 
ATOM     23  N   UNL A   1      27.277  31.557  22.949  1.00  0.00    -0.192 NA
ENDBRANCH  16  22
ENDBRANCH  14  15
ENDBRANCH   8  14
ENDBRANCH   4   7
ENDBRANCH   2   3
ENDBRANCH   1   2
BRANCH   1  24
ATOM     24  C   UNL A   1      32.753  29.938  25.837  1.00  0.00     0.118 C 
BRANCH  24  25
ATOM     25  N   UNL A   1      32.542  31.308  26.282  1.00  0.00    -0.352 N 
ATOM     26  C   UNL A   1      33.206  32.022  27.246  1.00  0.00     0.251 C 
ATOM     27  H   UNL A   1      31.817  31.793  25.825  1.00  0.00     0.163 HD
ATOM     28  O   UNL A   1      32.753  33.098  27.625  1.00  0.00    -0.269 OA
BRANCH  26  29
ATOM     29  C   UNL A   1      34.448  31.483  27.841  1.00  0.00     0.039 A 
ATOM     30  C   UNL A   1      35.538  32.341  28.003  1.00  0.00     0.014 A 
ATOM     31  C   UNL A   1      34.542  30.146  28.236  1.00  0.00     0.014 A 
ATOM     32  C   UNL A   1      36.700  31.871  28.614  1.00  0.00     0.010 A 
ATOM     33  C   UNL A   1      35.671  29.702  28.921  1.00  0.00     0.010 A 
ATOM     34  C   UNL A   1      36.764  30.559  29.117  1.00  0.00    -0.014 A 
BRANCH  34  35
ATOM     35  C   UNL A   1      37.958  30.097  29.875  1.00  0.00     0.031 A 
ATOM     36  C   UNL A   1      38.240  30.614  31.260  1.00  0.00     0.074 A 
ATOM     37  C   UNL A   1      38.815  29.237  29.289  1.00  0.00     0.049 A 
ATOM     38  N   UNL A   1      39.234  30.321  32.057  1.00  0.00    -0.248 NA
ATOM     39  C   UNL A   1      37.296  31.597  31.818  1.00  0.00     0.031 C 
ATOM     40  C   UNL A   1      38.694  28.719  27.923  1.00  0.00     0.029 A 
ATOM     41  N   UNL A   1      39.967  28.657  29.758  1.00  0.00    -0.354 N 
ATOM     42  C   UNL A   1      39.048  31.091  33.200  1.00  0.00     0.074 A 
ATOM     43  C   UNL A   1      37.866  31.895  32.977  1.00  0.00     0.031 C 
ATOM     44  C   UNL A   1      39.718  27.890  27.672  1.00  0.00     0.029 A 
ATOM     45  C   UNL A   1      40.595  27.851  28.836  1.00  0.00     0.049 A 
ATOM     46  H   UNL A   1      40.313  28.805  30.668  1.00  0.00     0.167 HD
ATOM     47  C   UNL A   1      39.776  31.106  34.342  1.00  0.00     0.034 A 
ATOM     48  C   UNL A   1      41.756  27.173  28.911  1.00  0.00     0.034 A 
ATOM     49  C   UNL A   1      40.943  30.296  34.568  1.00  0.00     0.049 A 
ATOM     50  C   UNL A   1      42.546  27.216  30.190  1.00  0.00     0.074 A 
ATOM     51  C   UNL A   1      41.713  30.200  35.714  1.00  0.00     0.029 A 
ATOM     52  N   UNL A   1      41.521  29.455  33.629  1.00  0.00    -0.354 N 
ATOM     53  N   UNL A   1      42.272  27.840  31.310  1.00  0.00    -0.248 NA
ATOM     54  C   UNL A   1      43.788  26.432  30.230  1.00  0.00     0.031 C 
ATOM     55  C   UNL A   1      42.780  29.335  35.454  1.00  0.00     0.029 A 
ATOM     56  C   UNL A   1      42.645  28.849  34.164  1.00  0.00     0.049 A 
ATOM     57  H   UNL A   1      41.182  29.311  32.716  1.00  0.00     0.167 HD
ATOM     58  C   UNL A   1      43.285  27.493  32.196  1.00  0.00     0.074 A 
ATOM     59  C   UNL A   1      44.160  26.579  31.494  1.00  0.00     0.031 C 
ATOM     60  C   UNL A   1      43.483  27.905  33.473  1.00  0.00     0.034 A 
BRANCH  47  61
ATOM     61  C   UNL A   1      39.312  31.998  35.465  1.00  0.00     0.023 A 
ATOM     62  C   UNL A   1      38.441  31.486  36.448  1.00  0.00     0.012 A 
ATOM     63  C   UNL A   1      39.812  33.309  35.601  1.00  0.00     0.148 A 
ATOM     64  C   UNL A   1      38.055  32.270  37.535  1.00  0.00     0.002 A 
ATOM     65  C   UNL A   1      39.460  34.068  36.711  1.00  0.00     0.091 A 
ATOM     66  F   UNL A   1      40.628  33.782  34.649  1.00  0.00    -0.205 F 
ATOM     67  C   UNL A   1      38.574  33.555  37.671  1.00  0.00     0.022 A 
BRANCH  65  68
ATOM     68  S   UNL A   1      40.136  35.702  37.026  1.00  0.00     0.127 S 
ATOM     69  O   UNL A   1      39.650  36.451  35.869  1.00  0.00    -0.237 OA
ATOM     70  O   UNL A   1      39.498  36.056  38.295  1.00  0.00    -0.237 OA
ATOM     71  O   UNL A   1      41.582  35.537  37.092  1.00  0.00    -0.744 OA
ENDBRANCH  65  68
ENDBRANCH  47  61
BRANCH  48  72
ATOM     72  C   UNL A   1      42.248  26.382  27.746  1.00  0.00     0.023 A 
ATOM     73  C   UNL A   1      43.069  26.991  26.776  1.00  0.00     0.012 A 
ATOM     74  C   UNL A   1      41.879  25.032  27.580  1.00  0.00     0.148 A 
ATOM     75  C   UNL A   1      43.463  26.291  25.635  1.00  0.00     0.002 A 
ATOM     76  C   UNL A   1      42.329  24.321  26.475  1.00  0.00     0.091 A 
ATOM     77  F   UNL A   1      41.092  24.470  28.508  1.00  0.00    -0.205 F 
ATOM     78  C   UNL A   1      43.099  24.956  25.488  1.00  0.00     0.022 A 
BRANCH  76  79
ATOM     79  S   UNL A   1      42.018  22.565  26.272  1.00  0.00     0.127 S 
ATOM     80  O   UNL A   1      40.560  22.524  26.218  1.00  0.00    -0.237 OA
ATOM     81  O   UNL A   1      42.692  22.285  25.005  1.00  0.00    -0.237 OA
ATOM     82  O   UNL A   1      42.628  21.922  27.429  1.00  0.00    -0.744 OA
ENDBRANCH  76  79
ENDBRANCH  48  72
BRANCH  60  83
ATOM     83  C   UNL A   1      44.661  27.328  34.216  1.00  0.00     0.023 A 
ATOM     84  C   UNL A   1      45.919  27.962  34.156  1.00  0.00     0.012 A 
ATOM     85  C   UNL A   1      44.506  26.176  35.012  1.00  0.00     0.148 A 
ATOM     86  C   UNL A   1      47.014  27.428  34.833  1.00  0.00     0.002 A 
ATOM     87  C   UNL A   1      45.587  25.684  35.732  1.00  0.00     0.091 A 
ATOM     88  F   UNL A   1      43.306  25.580  35.046  1.00  0.00    -0.205 F 
ATOM     89  C   UNL A   1      46.846  26.297  35.628  1.00  0.00     0.022 A 
BRANCH  87  90
ATOM     90  S   UNL A   1      45.445  24.293  36.857  1.00  0.00     0.127 S 
ATOM     91  O   UNL A   1      44.475  24.795  37.830  1.00  0.00    -0.237 OA
ATOM     92  O   UNL A   1      44.939  23.238  35.979  1.00  0.00    -0.237 OA
ATOM     93  O   UNL A   1      46.784  24.056  37.381  1.00  0.00    -0.744 OA
ENDBRANCH  87  90
ENDBRANCH  60  83
ENDBRANCH  34  35
ENDBRANCH  26  29
ENDBRANCH  24  25
ENDBRANCH   1  24
TORSDOF 16
ENDMDL
