MODEL 1
REMARK VINA RESULT:     -12.3      0.000      0.000
REMARK SMILES Cc1cc(C[N@@H+]2CC[C@@H](C(=O)NCCCNC(=O)c3ccc(-c4c5nc(c(-c6cccc(S(=O)(=O)[O-])c6F)c6ccc([nH]6)c(-c6cccc(S(=O)(=O)[O-])c6F)c6nc(c(-c7cccc(S(=O)(=O)[O-])c7F)c7ccc4[nH]7)C=C6)C=C5)cc3)C2)ccc1Br
REMARK SMILES IDX 14 1 13 2 12 3 10 4 11 5 9 7 6 8 7 9 82 10 8 12 5 13 4 14
REMARK SMILES IDX 1 15 2 16 3 17 85 18 84 19 86 20 83 21 15 22 16 23 17 24
REMARK SMILES IDX 18 26 19 27 20 28 81 29 21 30 80 31 22 32 23 33 24 34 74 35
REMARK SMILES IDX 25 36 79 37 73 38 75 39 26 40 78 41 72 42 71 43 27 45 59 46
REMARK SMILES IDX 39 47 58 48 40 49 43 50 57 51 76 52 41 53 42 54 56 56 77 57
REMARK SMILES IDX 44 58 28 59 29 60 37 61 30 62 32 63 38 64 31 65 33 66 34 67
REMARK SMILES IDX 35 68 36 69 60 70 61 71 69 72 62 73 64 74 70 75 63 76 65 77
REMARK SMILES IDX 66 78 67 79 68 80 45 81 46 82 54 83 47 84 49 85 55 86 48 87
REMARK SMILES IDX 50 88 51 89 52 90 53 91
REMARK H PARENT 12 6 6 11 16 25 75 44 43 55
REMARK Flexibility Score: inf
ROOT
ATOM      1  C   UNL A   1      35.633  21.656  25.980  1.00  0.00     0.042 C 
ENDROOT
BRANCH   1   2
ATOM      2  C   UNL A   1      35.320  20.584  24.950  1.00  0.00     0.117 C 
BRANCH   2   3
ATOM      3  N   UNL A   1      34.325  19.636  25.404  1.00  0.00    -0.356 N 
ATOM      4  C   UNL A   1      32.978  19.560  25.276  1.00  0.00     0.229 C 
ATOM      5  O   UNL A   1      32.446  18.546  25.747  1.00  0.00    -0.275 OA
ATOM      6  H   UNL A   1      34.707  18.887  25.914  1.00  0.00     0.163 HD
BRANCH   4   7
ATOM      7  C   UNL A   1      32.095  20.641  24.667  1.00  0.00     0.139 C 
ATOM      8  N   UNL A   1      32.216  23.052  24.721  1.00  0.00    -0.330 N 
ATOM      9  C   UNL A   1      32.955  22.582  23.555  1.00  0.00     0.263 C 
ATOM     10  C   UNL A   1      31.990  21.873  25.569  1.00  0.00     0.276 C 
ATOM     11  H   UNL A   1      32.766  23.737  25.238  1.00  0.00     0.348 HD
ATOM     12  C   UNL A   1      32.434  21.173  23.290  1.00  0.00     0.081 C 
BRANCH   8  13
ATOM     13  C   UNL A   1      31.047  23.899  24.442  1.00  0.00     0.299 C 
BRANCH  13  14
ATOM     14  C   UNL A   1      31.118  25.351  24.878  1.00  0.00     0.007 A 
ATOM     15  C   UNL A   1      30.070  28.772  23.576  1.00  0.00     0.045 C 
ATOM     16  C   UNL A   1      30.735  27.724  24.419  1.00  0.00    -0.036 A 
ATOM     17  C   UNL A   1      30.576  26.368  24.080  1.00  0.00     0.014 A 
ATOM     18  C   UNL A   1      31.524  28.050  25.533  1.00  0.00     0.020 A 
ATOM     19  C   UNL A   1      32.010  27.049  26.370  1.00  0.00     0.016 A 
ATOM     20  Br  UNL A   1      31.991  29.844  25.950  1.00  0.00    -0.051 Br
ATOM     21  C   UNL A   1      31.754  25.712  26.075  1.00  0.00     0.011 A 
ENDBRANCH  13  14
ENDBRANCH   8  13
ENDBRANCH   4   7
ENDBRANCH   2   3
ENDBRANCH   1   2
BRANCH   1  22
ATOM     22  C   UNL A   1      37.004  22.264  25.752  1.00  0.00     0.118 C 
BRANCH  22  23
ATOM     23  N   UNL A   1      38.073  21.286  25.964  1.00  0.00    -0.352 N 
ATOM     24  C   UNL A   1      39.380  21.470  26.319  1.00  0.00     0.251 C 
ATOM     25  H   UNL A   1      37.807  20.347  25.829  1.00  0.00     0.163 HD
ATOM     26  O   UNL A   1      40.163  20.521  26.253  1.00  0.00    -0.269 OA
BRANCH  24  27
ATOM     27  C   UNL A   1      39.847  22.794  26.761  1.00  0.00     0.039 A 
ATOM     28  C   UNL A   1      40.758  22.871  27.815  1.00  0.00     0.014 A 
ATOM     29  C   UNL A   1      39.385  23.956  26.140  1.00  0.00     0.014 A 
ATOM     30  C   UNL A   1      41.242  24.115  28.211  1.00  0.00     0.010 A 
ATOM     31  C   UNL A   1      39.954  25.180  26.457  1.00  0.00     0.010 A 
ATOM     32  C   UNL A   1      40.868  25.274  27.513  1.00  0.00    -0.014 A 
BRANCH  32  33
ATOM     33  C   UNL A   1      41.418  26.597  27.882  1.00  0.00     0.031 A 
ATOM     34  C   UNL A   1      42.851  26.933  27.571  1.00  0.00     0.074 A 
ATOM     35  C   UNL A   1      40.642  27.463  28.563  1.00  0.00     0.049 A 
ATOM     36  N   UNL A   1      43.512  28.030  27.829  1.00  0.00    -0.248 NA
ATOM     37  C   UNL A   1      43.660  25.892  26.912  1.00  0.00     0.031 C 
ATOM     38  C   UNL A   1      39.270  27.199  29.008  1.00  0.00     0.029 A 
ATOM     39  N   UNL A   1      40.900  28.728  29.018  1.00  0.00    -0.354 N 
ATOM     40  C   UNL A   1      44.813  27.799  27.405  1.00  0.00     0.074 A 
ATOM     41  C   UNL A   1      44.865  26.442  26.909  1.00  0.00     0.031 C 
ATOM     42  C   UNL A   1      38.803  28.277  29.656  1.00  0.00     0.029 A 
ATOM     43  C   UNL A   1      39.848  29.293  29.702  1.00  0.00     0.049 A 
ATOM     44  H   UNL A   1      41.755  29.191  28.869  1.00  0.00     0.167 HD
ATOM     45  C   UNL A   1      45.865  28.650  27.399  1.00  0.00     0.034 A 
ATOM     46  C   UNL A   1      39.744  30.492  30.303  1.00  0.00     0.034 A 
ATOM     47  C   UNL A   1      45.789  30.012  27.851  1.00  0.00     0.049 A 
ATOM     48  C   UNL A   1      40.908  31.441  30.224  1.00  0.00     0.074 A 
ATOM     49  C   UNL A   1      46.762  30.991  27.795  1.00  0.00     0.029 A 
ATOM     50  N   UNL A   1      44.679  30.581  28.457  1.00  0.00    -0.354 N 
ATOM     51  N   UNL A   1      42.078  31.265  29.659  1.00  0.00    -0.248 NA
ATOM     52  C   UNL A   1      40.725  32.766  30.829  1.00  0.00     0.031 C 
ATOM     53  C   UNL A   1      46.252  32.145  28.398  1.00  0.00     0.029 A 
ATOM     54  C   UNL A   1      44.947  31.895  28.792  1.00  0.00     0.049 A 
ATOM     55  H   UNL A   1      43.826  30.119  28.622  1.00  0.00     0.167 HD
ATOM     56  C   UNL A   1      42.758  32.467  29.812  1.00  0.00     0.074 A 
ATOM     57  C   UNL A   1      41.856  33.371  30.495  1.00  0.00     0.031 C 
ATOM     58  C   UNL A   1      44.020  32.791  29.435  1.00  0.00     0.034 A 
BRANCH  45  59
ATOM     59  C   UNL A   1      47.173  28.151  26.845  1.00  0.00     0.023 A 
ATOM     60  C   UNL A   1      48.196  27.736  27.724  1.00  0.00     0.012 A 
ATOM     61  C   UNL A   1      47.367  28.028  25.455  1.00  0.00     0.148 A 
ATOM     62  C   UNL A   1      49.400  27.237  27.229  1.00  0.00     0.002 A 
ATOM     63  C   UNL A   1      48.550  27.484  24.971  1.00  0.00     0.091 A 
ATOM     64  F   UNL A   1      46.393  28.450  24.636  1.00  0.00    -0.205 F 
ATOM     65  C   UNL A   1      49.571  27.100  25.854  1.00  0.00     0.022 A 
BRANCH  63  66
ATOM     66  S   UNL A   1      48.836  27.187  23.223  1.00  0.00     0.127 S 
ATOM     67  O   UNL A   1      50.298  27.162  23.163  1.00  0.00    -0.237 OA
ATOM     68  O   UNL A   1      48.196  25.885  23.026  1.00  0.00    -0.237 OA
ATOM     69  O   UNL A   1      48.204  28.292  22.516  1.00  0.00    -0.744 OA
ENDBRANCH  63  66
ENDBRANCH  45  59
BRANCH  46  70
ATOM     70  C   UNL A   1      38.476  30.881  30.980  1.00  0.00     0.023 A 
ATOM     71  C   UNL A   1      38.301  30.606  32.351  1.00  0.00     0.012 A 
ATOM     72  C   UNL A   1      37.450  31.543  30.278  1.00  0.00     0.148 A 
ATOM     73  C   UNL A   1      37.112  30.943  32.998  1.00  0.00     0.002 A 
ATOM     74  C   UNL A   1      36.293  31.930  30.943  1.00  0.00     0.091 A 
ATOM     75  F   UNL A   1      37.631  31.790  28.972  1.00  0.00    -0.205 F 
ATOM     76  C   UNL A   1      36.112  31.612  32.298  1.00  0.00     0.022 A 
BRANCH  74  77
ATOM     77  S   UNL A   1      35.015  32.914  30.153  1.00  0.00     0.127 S 
ATOM     78  O   UNL A   1      34.515  31.994  29.135  1.00  0.00    -0.237 OA
ATOM     79  O   UNL A   1      34.096  33.162  31.265  1.00  0.00    -0.237 OA
ATOM     80  O   UNL A   1      35.688  34.106  29.657  1.00  0.00    -0.744 OA
ENDBRANCH  74  77
ENDBRANCH  46  70
BRANCH  58  81
ATOM     81  C   UNL A   1      44.489  34.193  29.722  1.00  0.00     0.023 A 
ATOM     82  C   UNL A   1      45.215  34.466  30.898  1.00  0.00     0.012 A 
ATOM     83  C   UNL A   1      44.257  35.227  28.795  1.00  0.00     0.148 A 
ATOM     84  C   UNL A   1      45.662  35.758  31.169  1.00  0.00     0.002 A 
ATOM     85  C   UNL A   1      44.755  36.500  29.045  1.00  0.00     0.091 A 
ATOM     86  F   UNL A   1      43.549  34.950  27.689  1.00  0.00    -0.205 F 
ATOM     87  C   UNL A   1      45.443  36.771  30.238  1.00  0.00     0.022 A 
BRANCH  85  88
ATOM     88  S   UNL A   1      44.608  37.838  27.857  1.00  0.00     0.127 S 
ATOM     89  O   UNL A   1      43.175  37.826  27.570  1.00  0.00    -0.237 OA
ATOM     90  O   UNL A   1      45.066  38.991  28.632  1.00  0.00    -0.237 OA
ATOM     91  O   UNL A   1      45.472  37.481  26.740  1.00  0.00    -0.744 OA
ENDBRANCH  85  88
ENDBRANCH  58  81
ENDBRANCH  32  33
ENDBRANCH  24  27
ENDBRANCH  22  23
ENDBRANCH   1  22
TORSDOF 15
ENDMDL
MODEL 2
REMARK VINA RESULT:     -12.1      6.004     11.488
REMARK SMILES Cc1cc(C[N@@H+]2CC[C@@H](C(=O)NCCCNC(=O)c3ccc(-c4c5nc(c(-c6cccc(S(=O)(=O)[O-])c6F)c6ccc([nH]6)c(-c6cccc(S(=O)(=O)[O-])c6F)c6nc(c(-c7cccc(S(=O)(=O)[O-])c7F)c7ccc4[nH]7)C=C6)C=C5)cc3)C2)ccc1Br
REMARK SMILES IDX 14 1 13 2 12 3 10 4 11 5 9 7 6 8 7 9 82 10 8 12 5 13 4 14
REMARK SMILES IDX 1 15 2 16 3 17 85 18 84 19 86 20 83 21 15 22 16 23 17 24
REMARK SMILES IDX 18 26 19 27 20 28 81 29 21 30 80 31 22 32 23 33 24 34 74 35
REMARK SMILES IDX 25 36 79 37 73 38 75 39 26 40 78 41 72 42 71 43 27 45 59 46
REMARK SMILES IDX 39 47 58 48 40 49 43 50 57 51 76 52 41 53 42 54 56 56 77 57
REMARK SMILES IDX 44 58 28 59 29 60 37 61 30 62 32 63 38 64 31 65 33 66 34 67
REMARK SMILES IDX 35 68 36 69 60 70 61 71 69 72 62 73 64 74 70 75 63 76 65 77
REMARK SMILES IDX 66 78 67 79 68 80 45 81 46 82 54 83 47 84 49 85 55 86 48 87
REMARK SMILES IDX 50 88 51 89 52 90 53 91
REMARK H PARENT 12 6 6 11 16 25 75 44 43 55
REMARK Flexibility Score: inf
ROOT
ATOM      1  C   UNL A   1      34.135  34.241  27.627  1.00  0.00     0.042 C 
ENDROOT
BRANCH   1   2
ATOM      2  C   UNL A   1      34.473  35.464  28.465  1.00  0.00     0.117 C 
BRANCH   2   3
ATOM      3  N   UNL A   1      33.567  35.655  29.578  1.00  0.00    -0.356 N 
ATOM      4  C   UNL A   1      33.617  35.327  30.891  1.00  0.00     0.229 C 
ATOM      5  O   UNL A   1      32.668  35.718  31.582  1.00  0.00    -0.275 OA
ATOM      6  H   UNL A   1      32.738  36.122  29.327  1.00  0.00     0.163 HD
BRANCH   4   7
ATOM      7  C   UNL A   1      34.702  34.478  31.540  1.00  0.00     0.139 C 
ATOM      8  N   UNL A   1      35.516  34.348  33.810  1.00  0.00    -0.330 N 
ATOM      9  C   UNL A   1      34.437  33.381  33.654  1.00  0.00     0.263 C 
ATOM     10  C   UNL A   1      35.444  35.238  32.642  1.00  0.00     0.276 C 
ATOM     11  H   UNL A   1      35.381  34.896  34.659  1.00  0.00     0.348 HD
ATOM     12  C   UNL A   1      34.321  33.145  32.151  1.00  0.00     0.081 C 
BRANCH   8  13
ATOM     13  C   UNL A   1      36.837  33.790  34.135  1.00  0.00     0.299 C 
BRANCH  13  14
ATOM     14  C   UNL A   1      37.977  34.097  33.181  1.00  0.00     0.007 A 
ATOM     15  C   UNL A   1      38.702  33.893  29.449  1.00  0.00     0.045 C 
ATOM     16  C   UNL A   1      38.922  34.056  30.924  1.00  0.00    -0.036 A 
ATOM     17  C   UNL A   1      37.837  33.884  31.803  1.00  0.00     0.014 A 
ATOM     18  C   UNL A   1      40.181  34.365  31.463  1.00  0.00     0.020 A 
ATOM     19  C   UNL A   1      40.317  34.644  32.820  1.00  0.00     0.016 A 
ATOM     20  Br  UNL A   1      41.755  34.398  30.400  1.00  0.00    -0.051 Br
ATOM     21  C   UNL A   1      39.208  34.569  33.660  1.00  0.00     0.011 A 
ENDBRANCH  13  14
ENDBRANCH   8  13
ENDBRANCH   4   7
ENDBRANCH   2   3
ENDBRANCH   1   2
BRANCH   1  22
ATOM     22  C   UNL A   1      34.756  32.983  28.205  1.00  0.00     0.118 C 
BRANCH  22  23
ATOM     23  N   UNL A   1      34.029  31.781  27.792  1.00  0.00    -0.352 N 
ATOM     24  C   UNL A   1      34.457  30.489  27.668  1.00  0.00     0.251 C 
ATOM     25  H   UNL A   1      33.081  31.927  27.570  1.00  0.00     0.163 HD
ATOM     26  O   UNL A   1      33.730  29.662  27.116  1.00  0.00    -0.269 OA
BRANCH  24  27
ATOM     27  C   UNL A   1      35.783  30.098  28.175  1.00  0.00     0.039 A 
ATOM     28  C   UNL A   1      35.899  29.673  29.500  1.00  0.00     0.014 A 
ATOM     29  C   UNL A   1      36.907  30.152  27.349  1.00  0.00     0.014 A 
ATOM     30  C   UNL A   1      37.139  29.258  29.978  1.00  0.00     0.010 A 
ATOM     31  C   UNL A   1      38.113  29.629  27.790  1.00  0.00     0.010 A 
ATOM     32  C   UNL A   1      38.247  29.202  29.116  1.00  0.00    -0.014 A 
BRANCH  32  33
ATOM     33  C   UNL A   1      39.558  28.706  29.591  1.00  0.00     0.031 A 
ATOM     34  C   UNL A   1      40.267  29.409  30.716  1.00  0.00     0.074 A 
ATOM     35  C   UNL A   1      40.135  27.668  28.956  1.00  0.00     0.049 A 
ATOM     36  N   UNL A   1      41.424  29.131  31.258  1.00  0.00    -0.248 NA
ATOM     37  C   UNL A   1      39.611  30.597  31.291  1.00  0.00     0.031 C 
ATOM     38  C   UNL A   1      39.582  26.979  27.787  1.00  0.00     0.029 A 
ATOM     39  N   UNL A   1      41.322  27.026  29.189  1.00  0.00    -0.354 N 
ATOM     40  C   UNL A   1      41.650  30.126  32.200  1.00  0.00     0.074 A 
ATOM     41  C   UNL A   1      40.533  31.039  32.133  1.00  0.00     0.031 C 
ATOM     42  C   UNL A   1      40.421  25.998  27.417  1.00  0.00     0.029 A 
ATOM     43  C   UNL A   1      41.582  26.010  28.298  1.00  0.00     0.049 A 
ATOM     44  H   UNL A   1      41.930  27.265  29.925  1.00  0.00     0.167 HD
ATOM     45  C   UNL A   1      42.681  30.250  33.067  1.00  0.00     0.034 A 
ATOM     46  C   UNL A   1      42.643  25.188  28.202  1.00  0.00     0.034 A 
ATOM     47  C   UNL A   1      43.763  29.308  33.157  1.00  0.00     0.049 A 
ATOM     48  C   UNL A   1      43.744  25.309  29.219  1.00  0.00     0.074 A 
ATOM     49  C   UNL A   1      44.804  29.279  34.066  1.00  0.00     0.029 A 
ATOM     50  N   UNL A   1      43.950  28.237  32.297  1.00  0.00    -0.354 N 
ATOM     51  N   UNL A   1      43.854  26.151  30.219  1.00  0.00    -0.248 NA
ATOM     52  C   UNL A   1      44.845  24.344  29.122  1.00  0.00     0.031 C 
ATOM     53  C   UNL A   1      45.640  28.209  33.735  1.00  0.00     0.029 A 
ATOM     54  C   UNL A   1      45.098  27.548  32.644  1.00  0.00     0.049 A 
ATOM     55  H   UNL A   1      43.353  28.001  31.551  1.00  0.00     0.167 HD
ATOM     56  C   UNL A   1      45.018  25.796  30.888  1.00  0.00     0.074 A 
ATOM     57  C   UNL A   1      45.560  24.644  30.197  1.00  0.00     0.031 C 
ATOM     58  C   UNL A   1      45.597  26.378  31.968  1.00  0.00     0.034 A 
BRANCH  45  59
ATOM     59  C   UNL A   1      42.667  31.416  34.019  1.00  0.00     0.023 A 
ATOM     60  C   UNL A   1      43.268  32.636  33.645  1.00  0.00     0.012 A 
ATOM     61  C   UNL A   1      41.998  31.328  35.256  1.00  0.00     0.148 A 
ATOM     62  C   UNL A   1      43.232  33.738  34.498  1.00  0.00     0.002 A 
ATOM     63  C   UNL A   1      41.924  32.445  36.079  1.00  0.00     0.091 A 
ATOM     64  F   UNL A   1      41.453  30.154  35.604  1.00  0.00    -0.205 F 
ATOM     65  C   UNL A   1      42.550  33.646  35.708  1.00  0.00     0.022 A 
BRANCH  63  66
ATOM     66  S   UNL A   1      40.998  32.455  37.618  1.00  0.00     0.127 S 
ATOM     67  O   UNL A   1      41.820  31.586  38.462  1.00  0.00    -0.237 OA
ATOM     68  O   UNL A   1      41.033  33.872  37.985  1.00  0.00    -0.237 OA
ATOM     69  O   UNL A   1      39.675  31.939  37.297  1.00  0.00    -0.744 OA
ENDBRANCH  63  66
ENDBRANCH  45  59
BRANCH  46  70
ATOM     70  C   UNL A   1      42.687  24.146  27.139  1.00  0.00     0.023 A 
ATOM     71  C   UNL A   1      43.415  24.383  25.956  1.00  0.00     0.012 A 
ATOM     72  C   UNL A   1      42.027  22.912  27.302  1.00  0.00     0.148 A 
ATOM     73  C   UNL A   1      43.451  23.428  24.939  1.00  0.00     0.002 A 
ATOM     74  C   UNL A   1      42.117  21.942  26.311  1.00  0.00     0.091 A 
ATOM     75  F   UNL A   1      41.333  22.708  28.431  1.00  0.00    -0.205 F 
ATOM     76  C   UNL A   1      42.809  22.206  25.120  1.00  0.00     0.022 A 
BRANCH  74  77
ATOM     77  S   UNL A   1      41.438  20.293  26.518  1.00  0.00     0.127 S 
ATOM     78  O   UNL A   1      40.003  20.546  26.428  1.00  0.00    -0.237 OA
ATOM     79  O   UNL A   1      42.012  19.585  25.373  1.00  0.00    -0.237 OA
ATOM     80  O   UNL A   1      41.921  19.829  27.812  1.00  0.00    -0.744 OA
ENDBRANCH  74  77
ENDBRANCH  46  70
BRANCH  58  81
ATOM     81  C   UNL A   1      46.866  25.757  32.491  1.00  0.00     0.023 A 
ATOM     82  C   UNL A   1      46.822  24.906  33.613  1.00  0.00     0.012 A 
ATOM     83  C   UNL A   1      48.091  25.974  31.833  1.00  0.00     0.148 A 
ATOM     84  C   UNL A   1      47.988  24.317  34.100  1.00  0.00     0.002 A 
ATOM     85  C   UNL A   1      49.239  25.339  32.290  1.00  0.00     0.091 A 
ATOM     86  F   UNL A   1      48.114  26.801  30.776  1.00  0.00    -0.205 F 
ATOM     87  C   UNL A   1      49.193  24.524  33.432  1.00  0.00     0.022 A 
BRANCH  85  88
ATOM     88  S   UNL A   1      50.812  25.467  31.433  1.00  0.00     0.127 S 
ATOM     89  O   UNL A   1      51.188  26.853  31.706  1.00  0.00    -0.237 OA
ATOM     90  O   UNL A   1      51.624  24.466  32.126  1.00  0.00    -0.237 OA
ATOM     91  O   UNL A   1      50.535  25.157  30.037  1.00  0.00    -0.744 OA
ENDBRANCH  85  88
ENDBRANCH  58  81
ENDBRANCH  32  33
ENDBRANCH  24  27
ENDBRANCH  22  23
ENDBRANCH   1  22
TORSDOF 15
ENDMDL
MODEL 3
REMARK VINA RESULT:     -12.1      1.838      7.950
REMARK SMILES Cc1cc(C[N@@H+]2CC[C@@H](C(=O)NCCCNC(=O)c3ccc(-c4c5nc(c(-c6cccc(S(=O)(=O)[O-])c6F)c6ccc([nH]6)c(-c6cccc(S(=O)(=O)[O-])c6F)c6nc(c(-c7cccc(S(=O)(=O)[O-])c7F)c7ccc4[nH]7)C=C6)C=C5)cc3)C2)ccc1Br
REMARK SMILES IDX 14 1 13 2 12 3 10 4 11 5 9 7 6 8 7 9 82 10 8 12 5 13 4 14
REMARK SMILES IDX 1 15 2 16 3 17 85 18 84 19 86 20 83 21 15 22 16 23 17 24
REMARK SMILES IDX 18 26 19 27 20 28 81 29 21 30 80 31 22 32 23 33 24 34 74 35
REMARK SMILES IDX 25 36 79 37 73 38 75 39 26 40 78 41 72 42 71 43 27 45 59 46
REMARK SMILES IDX 39 47 58 48 40 49 43 50 57 51 76 52 41 53 42 54 56 56 77 57
REMARK SMILES IDX 44 58 28 59 29 60 37 61 30 62 32 63 38 64 31 65 33 66 34 67
REMARK SMILES IDX 35 68 36 69 60 70 61 71 69 72 62 73 64 74 70 75 63 76 65 77
REMARK SMILES IDX 66 78 67 79 68 80 45 81 46 82 54 83 47 84 49 85 55 86 48 87
REMARK SMILES IDX 50 88 51 89 52 90 53 91
REMARK H PARENT 12 6 6 11 16 25 75 44 43 55
REMARK Flexibility Score: inf
ROOT
ATOM      1  C   UNL A   1      37.397  19.850  24.986  1.00  0.00     0.042 C 
ENDROOT
BRANCH   1   2
ATOM      2  C   UNL A   1      36.198  20.783  25.019  1.00  0.00     0.117 C 
BRANCH   2   3
ATOM      3  N   UNL A   1      36.272  21.835  24.027  1.00  0.00    -0.356 N 
ATOM      4  C   UNL A   1      35.395  22.768  23.585  1.00  0.00     0.229 C 
ATOM      5  O   UNL A   1      35.834  23.570  22.752  1.00  0.00    -0.275 OA
ATOM      6  H   UNL A   1      37.146  21.882  23.577  1.00  0.00     0.163 HD
BRANCH   4   7
ATOM      7  C   UNL A   1      33.929  22.850  23.988  1.00  0.00     0.139 C 
ATOM      8  N   UNL A   1      31.926  23.324  22.725  1.00  0.00    -0.330 N 
ATOM      9  C   UNL A   1      32.148  21.884  22.708  1.00  0.00     0.263 C 
ATOM     10  C   UNL A   1      33.177  23.928  23.205  1.00  0.00     0.276 C 
ATOM     11  H   UNL A   1      31.728  23.664  21.784  1.00  0.00     0.348 HD
ATOM     12  C   UNL A   1      33.072  21.604  23.889  1.00  0.00     0.081 C 
BRANCH   8  13
ATOM     13  C   UNL A   1      30.685  23.775  23.370  1.00  0.00     0.299 C 
BRANCH  13  14
ATOM     14  C   UNL A   1      30.782  24.950  24.326  1.00  0.00     0.007 A 
ATOM     15  C   UNL A   1      30.641  28.752  24.192  1.00  0.00     0.045 C 
ATOM     16  C   UNL A   1      30.861  27.364  24.718  1.00  0.00    -0.036 A 
ATOM     17  C   UNL A   1      30.660  26.266  23.861  1.00  0.00     0.014 A 
ATOM     18  C   UNL A   1      31.274  27.121  26.036  1.00  0.00     0.020 A 
ATOM     19  C   UNL A   1      31.334  25.819  26.527  1.00  0.00     0.016 A 
ATOM     20  Br  UNL A   1      31.790  28.524  27.208  1.00  0.00    -0.051 Br
ATOM     21  C   UNL A   1      31.029  24.747  25.691  1.00  0.00     0.011 A 
ENDBRANCH  13  14
ENDBRANCH   8  13
ENDBRANCH   4   7
ENDBRANCH   2   3
ENDBRANCH   1   2
BRANCH   1  22
ATOM     22  C   UNL A   1      38.593  20.457  25.696  1.00  0.00     0.118 C 
BRANCH  22  23
ATOM     23  N   UNL A   1      39.635  19.461  25.951  1.00  0.00    -0.352 N 
ATOM     24  C   UNL A   1      40.971  19.622  26.196  1.00  0.00     0.251 C 
ATOM     25  H   UNL A   1      39.325  18.526  25.947  1.00  0.00     0.163 HD
ATOM     26  O   UNL A   1      41.709  18.636  26.190  1.00  0.00    -0.269 OA
BRANCH  24  27
ATOM     27  C   UNL A   1      41.519  20.965  26.445  1.00  0.00     0.039 A 
ATOM     28  C   UNL A   1      41.860  21.768  25.355  1.00  0.00     0.014 A 
ATOM     29  C   UNL A   1      41.698  21.431  27.749  1.00  0.00     0.014 A 
ATOM     30  C   UNL A   1      42.336  23.057  25.578  1.00  0.00     0.010 A 
ATOM     31  C   UNL A   1      42.060  22.752  27.966  1.00  0.00     0.010 A 
ATOM     32  C   UNL A   1      42.408  23.569  26.883  1.00  0.00    -0.014 A 
BRANCH  32  33
ATOM     33  C   UNL A   1      42.855  24.957  27.134  1.00  0.00     0.031 A 
ATOM     34  C   UNL A   1      41.940  25.932  27.823  1.00  0.00     0.074 A 
ATOM     35  C   UNL A   1      44.058  25.351  26.673  1.00  0.00     0.049 A 
ATOM     36  N   UNL A   1      42.150  27.188  28.116  1.00  0.00    -0.248 NA
ATOM     37  C   UNL A   1      40.602  25.447  28.207  1.00  0.00     0.031 C 
ATOM     38  C   UNL A   1      44.983  24.516  25.901  1.00  0.00     0.029 A 
ATOM     39  N   UNL A   1      44.700  26.557  26.768  1.00  0.00    -0.354 N 
ATOM     40  C   UNL A   1      40.966  27.650  28.676  1.00  0.00     0.074 A 
ATOM     41  C   UNL A   1      40.025  26.554  28.648  1.00  0.00     0.031 C 
ATOM     42  C   UNL A   1      46.081  25.230  25.609  1.00  0.00     0.029 A 
ATOM     43  C   UNL A   1      45.925  26.579  26.140  1.00  0.00     0.049 A 
ATOM     44  H   UNL A   1      44.324  27.333  27.241  1.00  0.00     0.167 HD
ATOM     45  C   UNL A   1      40.697  28.869  29.198  1.00  0.00     0.034 A 
ATOM     46  C   UNL A   1      46.816  27.578  26.006  1.00  0.00     0.034 A 
ATOM     47  C   UNL A   1      41.657  29.936  29.263  1.00  0.00     0.049 A 
ATOM     48  C   UNL A   1      46.516  28.903  26.652  1.00  0.00     0.074 A 
ATOM     49  C   UNL A   1      41.525  31.175  29.862  1.00  0.00     0.029 A 
ATOM     50  N   UNL A   1      42.922  29.895  28.698  1.00  0.00    -0.354 N 
ATOM     51  N   UNL A   1      45.457  29.266  27.335  1.00  0.00    -0.248 NA
ATOM     52  C   UNL A   1      47.548  29.941  26.545  1.00  0.00     0.031 C 
ATOM     53  C   UNL A   1      42.699  31.897  29.629  1.00  0.00     0.029 A 
ATOM     54  C   UNL A   1      43.578  31.092  28.921  1.00  0.00     0.049 A 
ATOM     55  H   UNL A   1      43.299  29.127  28.212  1.00  0.00     0.167 HD
ATOM     56  C   UNL A   1      45.709  30.562  27.765  1.00  0.00     0.074 A 
ATOM     57  C   UNL A   1      47.034  30.908  27.291  1.00  0.00     0.031 C 
ATOM     58  C   UNL A   1      44.912  31.400  28.476  1.00  0.00     0.034 A 
BRANCH  45  59
ATOM     59  C   UNL A   1      39.328  29.100  29.781  1.00  0.00     0.023 A 
ATOM     60  C   UNL A   1      39.058  28.723  31.113  1.00  0.00     0.012 A 
ATOM     61  C   UNL A   1      38.328  29.752  29.033  1.00  0.00     0.148 A 
ATOM     62  C   UNL A   1      37.808  28.963  31.681  1.00  0.00     0.002 A 
ATOM     63  C   UNL A   1      37.101  30.032  29.622  1.00  0.00     0.091 A 
ATOM     64  F   UNL A   1      38.594  30.081  27.761  1.00  0.00    -0.205 F 
ATOM     65  C   UNL A   1      36.835  29.628  30.940  1.00  0.00     0.022 A 
BRANCH  63  66
ATOM     66  S   UNL A   1      35.811  30.957  28.782  1.00  0.00     0.127 S 
ATOM     67  O   UNL A   1      35.130  29.901  28.033  1.00  0.00    -0.237 OA
ATOM     68  O   UNL A   1      35.044  31.499  29.905  1.00  0.00    -0.237 OA
ATOM     69  O   UNL A   1      36.492  31.954  27.969  1.00  0.00    -0.744 OA
ENDBRANCH  63  66
ENDBRANCH  45  59
BRANCH  46  70
ATOM     70  C   UNL A   1      48.095  27.346  25.279  1.00  0.00     0.023 A 
ATOM     71  C   UNL A   1      49.211  26.838  25.973  1.00  0.00     0.012 A 
ATOM     72  C   UNL A   1      48.206  27.606  23.900  1.00  0.00     0.148 A 
ATOM     73  C   UNL A   1      50.425  26.633  25.316  1.00  0.00     0.002 A 
ATOM     74  C   UNL A   1      49.400  27.344  23.239  1.00  0.00     0.091 A 
ATOM     75  F   UNL A   1      47.136  28.097  23.258  1.00  0.00    -0.205 F 
ATOM     76  C   UNL A   1      50.517  26.878  23.949  1.00  0.00     0.022 A 
BRANCH  74  77
ATOM     77  S   UNL A   1      49.566  27.500  21.458  1.00  0.00     0.127 S 
ATOM     78  O   UNL A   1      48.469  26.663  20.980  1.00  0.00    -0.237 OA
ATOM     79  O   UNL A   1      49.375  28.938  21.263  1.00  0.00    -0.237 OA
ATOM     80  O   UNL A   1      50.907  27.027  21.146  1.00  0.00    -0.744 OA
ENDBRANCH  74  77
ENDBRANCH  46  70
BRANCH  58  81
ATOM     81  C   UNL A   1      45.466  32.759  28.815  1.00  0.00     0.023 A 
ATOM     82  C   UNL A   1      46.195  32.944  30.006  1.00  0.00     0.012 A 
ATOM     83  C   UNL A   1      45.310  33.836  27.922  1.00  0.00     0.148 A 
ATOM     84  C   UNL A   1      46.721  34.195  30.325  1.00  0.00     0.002 A 
ATOM     85  C   UNL A   1      45.885  35.065  28.220  1.00  0.00     0.091 A 
ATOM     86  F   UNL A   1      44.599  33.643  26.801  1.00  0.00    -0.205 F 
ATOM     87  C   UNL A   1      46.576  35.252  29.428  1.00  0.00     0.022 A 
BRANCH  85  88
ATOM     88  S   UNL A   1      45.837  36.450  27.078  1.00  0.00     0.127 S 
ATOM     89  O   UNL A   1      46.479  35.882  25.894  1.00  0.00    -0.237 OA
ATOM     90  O   UNL A   1      44.399  36.685  26.938  1.00  0.00    -0.237 OA
ATOM     91  O   UNL A   1      46.564  37.532  27.726  1.00  0.00    -0.744 OA
ENDBRANCH  85  88
ENDBRANCH  58  81
ENDBRANCH  32  33
ENDBRANCH  24  27
ENDBRANCH  22  23
ENDBRANCH   1  22
TORSDOF 15
ENDMDL
