MODEL 1
REMARK VINA RESULT:     -14.0      0.000      0.000
REMARK SMILES CC1(C)Oc2ccc(NC(=O)[C@H]3CC=CC[C@@H]3C(=O)NCCCNC(=O)c3ccc(-c4c5nc(c(-c6cccc(S(=O)(=O)[O-])c6F)c6ccc([nH]6)c(-c6cccc(S(=O)(=O)[O-])c6F)c6nc(c(-c7cccc(S(=O)(=O)[O-])c7F)c7ccc4[nH]7)C=C6)C=C5)cc3)cc2NC1=O
REMARK SMILES IDX 22 1 21 2 20 3 18 4 19 5 17 7 12 8 13 9 14 10 16 11 15 12
REMARK SMILES IDX 10 13 9 14 11 16 8 17 1 18 2 19 3 20 4 21 93 22 5 23 92 24
REMARK SMILES IDX 94 25 6 26 91 27 7 29 90 30 23 31 24 32 25 33 26 35 27 36
REMARK SMILES IDX 28 37 89 38 29 39 88 40 30 41 31 42 32 43 82 44 33 45 87 46
REMARK SMILES IDX 81 47 83 48 34 49 86 50 80 51 79 52 35 54 67 55 47 56 66 57
REMARK SMILES IDX 48 58 51 59 65 60 84 61 49 62 50 63 64 65 85 66 52 67 36 68
REMARK SMILES IDX 37 69 45 70 38 71 40 72 46 73 39 74 41 75 42 76 43 77 44 78
REMARK SMILES IDX 68 79 69 80 77 81 70 82 72 83 78 84 71 85 73 86 74 87 75 88
REMARK SMILES IDX 76 89 53 90 54 91 62 92 55 93 57 94 63 95 56 96 58 97 59 98
REMARK SMILES IDX 60 99 61 100
REMARK H PARENT 20 6 9 15 92 28 24 34 83 53 51 64
REMARK Flexibility Score: inf
ROOT
ATOM      1  C   UNL A   1      32.742  29.875  25.381  1.00  0.00     0.042 C 
ENDROOT
BRANCH   1   2
ATOM      2  C   UNL A   1      31.644  29.314  24.490  1.00  0.00     0.117 C 
BRANCH   2   3
ATOM      3  N   UNL A   1      32.241  28.748  23.295  1.00  0.00    -0.356 N 
ATOM      4  C   UNL A   1      32.680  27.480  23.074  1.00  0.00     0.224 C 
ATOM      5  O   UNL A   1      33.494  27.315  22.166  1.00  0.00    -0.275 OA
ATOM      6  H   UNL A   1      32.341  29.368  22.538  1.00  0.00     0.163 HD
BRANCH   4   7
ATOM      7  C   UNL A   1      32.022  26.328  23.836  1.00  0.00     0.095 C 
ATOM      8  C   UNL A   1      32.670  26.190  25.232  1.00  0.00     0.095 C 
ATOM      9  C   UNL A   1      34.061  25.536  25.239  1.00  0.00     0.041 C 
ATOM     10  C   UNL A   1      34.406  24.722  24.018  1.00  0.00    -0.030 C 
ATOM     11  C   UNL A   1      32.198  25.117  22.908  1.00  0.00     0.041 C 
ATOM     12  C   UNL A   1      33.572  24.514  22.989  1.00  0.00    -0.030 C 
BRANCH   8  13
ATOM     13  C   UNL A   1      31.722  25.828  26.401  1.00  0.00     0.228 C 
ATOM     14  N   UNL A   1      31.389  24.585  26.849  1.00  0.00    -0.326 N 
ATOM     15  H   UNL A   1      30.611  24.588  27.452  1.00  0.00     0.169 HD
ATOM     16  O   UNL A   1      31.117  26.753  26.969  1.00  0.00    -0.274 OA
BRANCH  14  17
ATOM     17  C   UNL A   1      31.913  23.307  26.639  1.00  0.00     0.043 A 
ATOM     18  C   UNL A   1      34.700  18.198  24.250  1.00  0.00     0.067 C 
ATOM     19  C   UNL A   1      33.568  18.959  24.950  1.00  0.00     0.182 C 
ATOM     20  C   UNL A   1      32.919  18.057  26.009  1.00  0.00     0.067 C 
ATOM     21  O   UNL A   1      34.193  20.016  25.676  1.00  0.00    -0.476 OA
ATOM     22  C   UNL A   1      32.530  19.401  23.881  1.00  0.00     0.268 C 
ATOM     23  C   UNL A   1      33.312  20.999  26.017  1.00  0.00     0.144 A 
ATOM     24  N   UNL A   1      31.976  20.648  24.059  1.00  0.00    -0.319 N 
ATOM     25  O   UNL A   1      32.161  18.678  22.957  1.00  0.00    -0.270 OA
ATOM     26  C   UNL A   1      33.458  21.564  27.263  1.00  0.00     0.051 A 
ATOM     27  C   UNL A   1      32.305  21.437  25.164  1.00  0.00     0.086 A 
ATOM     28  H   UNL A   1      31.335  20.991  23.396  1.00  0.00     0.170 HD
ATOM     29  C   UNL A   1      32.682  22.666  27.594  1.00  0.00     0.030 A 
ATOM     30  C   UNL A   1      31.627  22.627  25.447  1.00  0.00     0.056 A 
ENDBRANCH  14  17
ENDBRANCH   8  13
ENDBRANCH   4   7
ENDBRANCH   2   3
ENDBRANCH   1   2
BRANCH   1  31
ATOM     31  C   UNL A   1      32.230  30.304  26.747  1.00  0.00     0.118 C 
BRANCH  31  32
ATOM     32  N   UNL A   1      32.131  31.749  26.891  1.00  0.00    -0.352 N 
ATOM     33  C   UNL A   1      33.075  32.595  27.439  1.00  0.00     0.251 C 
ATOM     34  H   UNL A   1      31.302  32.168  26.564  1.00  0.00     0.163 HD
ATOM     35  O   UNL A   1      32.835  33.777  27.616  1.00  0.00    -0.269 OA
BRANCH  33  36
ATOM     36  C   UNL A   1      34.367  31.998  27.840  1.00  0.00     0.039 A 
ATOM     37  C   UNL A   1      34.417  30.650  28.201  1.00  0.00     0.014 A 
ATOM     38  C   UNL A   1      35.475  32.828  28.008  1.00  0.00     0.014 A 
ATOM     39  C   UNL A   1      35.524  30.174  28.890  1.00  0.00     0.010 A 
ATOM     40  C   UNL A   1      36.621  32.319  28.621  1.00  0.00     0.010 A 
ATOM     41  C   UNL A   1      36.636  31.004  29.116  1.00  0.00    -0.014 A 
BRANCH  41  42
ATOM     42  C   UNL A   1      37.800  30.476  29.872  1.00  0.00     0.031 A 
ATOM     43  C   UNL A   1      38.790  29.542  29.226  1.00  0.00     0.074 A 
ATOM     44  C   UNL A   1      37.979  30.871  31.147  1.00  0.00     0.049 A 
ATOM     45  N   UNL A   1      39.844  28.976  29.752  1.00  0.00    -0.248 NA
ATOM     46  C   UNL A   1      38.571  29.194  27.811  1.00  0.00     0.031 C 
ATOM     47  C   UNL A   1      37.084  31.767  31.884  1.00  0.00     0.029 A 
ATOM     48  N   UNL A   1      38.974  30.584  32.045  1.00  0.00    -0.354 N 
ATOM     49  C   UNL A   1      40.386  28.171  28.757  1.00  0.00     0.074 A 
ATOM     50  C   UNL A   1      39.547  28.323  27.589  1.00  0.00     0.031 C 
ATOM     51  C   UNL A   1      37.592  31.990  33.104  1.00  0.00     0.029 A 
ATOM     52  C   UNL A   1      38.812  31.207  33.260  1.00  0.00     0.049 A 
ATOM     53  H   UNL A   1      39.732  29.990  31.840  1.00  0.00     0.167 HD
ATOM     54  C   UNL A   1      41.491  27.392  28.808  1.00  0.00     0.034 A 
ATOM     55  C   UNL A   1      39.551  31.144  34.383  1.00  0.00     0.034 A 
ATOM     56  C   UNL A   1      42.361  27.292  29.950  1.00  0.00     0.049 A 
ATOM     57  C   UNL A   1      40.776  30.283  34.407  1.00  0.00     0.074 A 
ATOM     58  C   UNL A   1      43.529  26.561  30.075  1.00  0.00     0.029 A 
ATOM     59  N   UNL A   1      42.166  27.947  31.155  1.00  0.00    -0.354 N 
ATOM     60  N   UNL A   1      41.299  29.575  33.437  1.00  0.00    -0.248 NA
ATOM     61  C   UNL A   1      41.520  30.217  35.673  1.00  0.00     0.031 C 
ATOM     62  C   UNL A   1      44.040  26.772  31.359  1.00  0.00     0.029 A 
ATOM     63  C   UNL A   1      43.191  27.638  32.030  1.00  0.00     0.049 A 
ATOM     64  H   UNL A   1      41.408  28.543  31.358  1.00  0.00     0.167 HD
ATOM     65  C   UNL A   1      42.437  28.985  33.969  1.00  0.00     0.074 A 
ATOM     66  C   UNL A   1      42.541  29.435  35.343  1.00  0.00     0.031 C 
ATOM     67  C   UNL A   1      43.304  28.129  33.378  1.00  0.00     0.034 A 
BRANCH  54  68
ATOM     68  C   UNL A   1      41.872  26.614  27.579  1.00  0.00     0.023 A 
ATOM     69  C   UNL A   1      42.563  27.264  26.539  1.00  0.00     0.012 A 
ATOM     70  C   UNL A   1      41.650  25.223  27.503  1.00  0.00     0.148 A 
ATOM     71  C   UNL A   1      43.024  26.545  25.437  1.00  0.00     0.002 A 
ATOM     72  C   UNL A   1      42.135  24.509  26.414  1.00  0.00     0.091 A 
ATOM     73  F   UNL A   1      40.979  24.630  28.501  1.00  0.00    -0.205 F 
ATOM     74  C   UNL A   1      42.819  25.168  25.379  1.00  0.00     0.022 A 
BRANCH  72  75
ATOM     75  S   UNL A   1      41.974  22.725  26.267  1.00  0.00     0.127 S 
ATOM     76  O   UNL A   1      42.659  22.472  25.001  1.00  0.00    -0.237 OA
ATOM     77  O   UNL A   1      42.688  22.254  27.454  1.00  0.00    -0.237 OA
ATOM     78  O   UNL A   1      40.544  22.448  26.263  1.00  0.00    -0.744 OA
ENDBRANCH  72  75
ENDBRANCH  54  68
BRANCH  55  79
ATOM     79  C   UNL A   1      39.151  31.966  35.556  1.00  0.00     0.023 A 
ATOM     80  C   UNL A   1      39.415  33.348  35.548  1.00  0.00     0.012 A 
ATOM     81  C   UNL A   1      38.426  31.405  36.625  1.00  0.00     0.148 A 
ATOM     82  C   UNL A   1      38.964  34.159  36.589  1.00  0.00     0.002 A 
ATOM     83  C   UNL A   1      37.940  32.225  37.634  1.00  0.00     0.091 A 
ATOM     84  F   UNL A   1      38.191  30.085  36.606  1.00  0.00    -0.205 F 
ATOM     85  C   UNL A   1      38.217  33.601  37.623  1.00  0.00     0.022 A 
BRANCH  83  86
ATOM     86  S   UNL A   1      36.867  31.620  38.941  1.00  0.00     0.127 S 
ATOM     87  O   UNL A   1      37.720  31.764  40.117  1.00  0.00    -0.237 OA
ATOM     88  O   UNL A   1      35.750  32.562  38.870  1.00  0.00    -0.237 OA
ATOM     89  O   UNL A   1      36.528  30.252  38.575  1.00  0.00    -0.744 OA
ENDBRANCH  83  86
ENDBRANCH  55  79
BRANCH  67  90
ATOM     90  C   UNL A   1      44.453  27.615  34.200  1.00  0.00     0.023 A 
ATOM     91  C   UNL A   1      45.643  28.365  34.259  1.00  0.00     0.012 A 
ATOM     92  C   UNL A   1      44.312  26.463  34.996  1.00  0.00     0.148 A 
ATOM     93  C   UNL A   1      46.683  27.970  35.098  1.00  0.00     0.002 A 
ATOM     94  C   UNL A   1      45.341  26.094  35.853  1.00  0.00     0.091 A 
ATOM     95  F   UNL A   1      43.171  25.762  34.909  1.00  0.00    -0.205 F 
ATOM     96  C   UNL A   1      46.528  26.843  35.902  1.00  0.00     0.022 A 
BRANCH  94  97
ATOM     97  S   UNL A   1      45.209  24.701  36.981  1.00  0.00     0.127 S 
ATOM     98  O   UNL A   1      44.040  25.074  37.776  1.00  0.00    -0.237 OA
ATOM     99  O   UNL A   1      44.993  23.581  36.065  1.00  0.00    -0.237 OA
ATOM    100  O   UNL A   1      46.468  24.654  37.713  1.00  0.00    -0.744 OA
ENDBRANCH  94  97
ENDBRANCH  67  90
ENDBRANCH  41  42
ENDBRANCH  33  36
ENDBRANCH  31  32
ENDBRANCH   1  31
TORSDOF 15
ENDMDL
MODEL 2
REMARK VINA RESULT:     -13.9      5.182     10.577
REMARK SMILES CC1(C)Oc2ccc(NC(=O)[C@H]3CC=CC[C@@H]3C(=O)NCCCNC(=O)c3ccc(-c4c5nc(c(-c6cccc(S(=O)(=O)[O-])c6F)c6ccc([nH]6)c(-c6cccc(S(=O)(=O)[O-])c6F)c6nc(c(-c7cccc(S(=O)(=O)[O-])c7F)c7ccc4[nH]7)C=C6)C=C5)cc3)cc2NC1=O
REMARK SMILES IDX 22 1 21 2 20 3 18 4 19 5 17 7 12 8 13 9 14 10 16 11 15 12
REMARK SMILES IDX 10 13 9 14 11 16 8 17 1 18 2 19 3 20 4 21 93 22 5 23 92 24
REMARK SMILES IDX 94 25 6 26 91 27 7 29 90 30 23 31 24 32 25 33 26 35 27 36
REMARK SMILES IDX 28 37 89 38 29 39 88 40 30 41 31 42 32 43 82 44 33 45 87 46
REMARK SMILES IDX 81 47 83 48 34 49 86 50 80 51 79 52 35 54 67 55 47 56 66 57
REMARK SMILES IDX 48 58 51 59 65 60 84 61 49 62 50 63 64 65 85 66 52 67 36 68
REMARK SMILES IDX 37 69 45 70 38 71 40 72 46 73 39 74 41 75 42 76 43 77 44 78
REMARK SMILES IDX 68 79 69 80 77 81 70 82 72 83 78 84 71 85 73 86 74 87 75 88
REMARK SMILES IDX 76 89 53 90 54 91 62 92 55 93 57 94 63 95 56 96 58 97 59 98
REMARK SMILES IDX 60 99 61 100
REMARK H PARENT 20 6 9 15 92 28 24 34 83 53 51 64
REMARK Flexibility Score: inf
ROOT
ATOM      1  C   UNL A   1      35.526  21.849  26.098  1.00  0.00     0.042 C 
ENDROOT
BRANCH   1   2
ATOM      2  C   UNL A   1      34.828  23.170  26.377  1.00  0.00     0.117 C 
BRANCH   2   3
ATOM      3  N   UNL A   1      33.540  22.911  26.990  1.00  0.00    -0.356 N 
ATOM      4  C   UNL A   1      32.353  23.546  26.796  1.00  0.00     0.224 C 
ATOM      5  O   UNL A   1      31.505  23.440  27.680  1.00  0.00    -0.275 OA
ATOM      6  H   UNL A   1      33.521  22.171  27.638  1.00  0.00     0.163 HD
BRANCH   4   7
ATOM      7  C   UNL A   1      32.080  24.199  25.440  1.00  0.00     0.095 C 
ATOM      8  C   UNL A   1      33.237  25.160  25.081  1.00  0.00     0.095 C 
ATOM      9  C   UNL A   1      33.229  26.496  25.842  1.00  0.00     0.041 C 
ATOM     10  C   UNL A   1      31.910  26.888  26.459  1.00  0.00    -0.030 C 
ATOM     11  C   UNL A   1      30.706  24.863  25.613  1.00  0.00     0.041 C 
ATOM     12  C   UNL A   1      30.779  26.176  26.339  1.00  0.00    -0.030 C 
BRANCH   8  13
ATOM     13  C   UNL A   1      33.662  25.206  23.594  1.00  0.00     0.228 C 
ATOM     14  N   UNL A   1      33.110  25.946  22.592  1.00  0.00    -0.326 N 
ATOM     15  H   UNL A   1      33.395  25.655  21.696  1.00  0.00     0.169 HD
ATOM     16  O   UNL A   1      34.559  24.431  23.220  1.00  0.00    -0.274 OA
BRANCH  14  17
ATOM     17  C   UNL A   1      32.227  27.028  22.561  1.00  0.00     0.043 A 
ATOM     18  C   UNL A   1      27.730  31.242  23.826  1.00  0.00     0.067 C 
ATOM     19  C   UNL A   1      28.495  30.257  22.933  1.00  0.00     0.182 C 
ATOM     20  C   UNL A   1      28.522  30.784  21.492  1.00  0.00     0.067 C 
ATOM     21  O   UNL A   1      29.849  30.288  23.381  1.00  0.00    -0.476 OA
ATOM     22  C   UNL A   1      27.794  28.872  23.008  1.00  0.00     0.268 C 
ATOM     23  C   UNL A   1      30.555  29.199  22.965  1.00  0.00     0.144 A 
ATOM     24  N   UNL A   1      28.628  27.776  23.023  1.00  0.00    -0.319 N 
ATOM     25  O   UNL A   1      26.573  28.729  22.992  1.00  0.00    -0.270 OA
ATOM     26  C   UNL A   1      31.856  29.411  22.571  1.00  0.00     0.051 A 
ATOM     27  C   UNL A   1      30.014  27.917  22.933  1.00  0.00     0.086 A 
ATOM     28  H   UNL A   1      28.239  26.875  23.099  1.00  0.00     0.170 HD
ATOM     29  C   UNL A   1      32.656  28.314  22.283  1.00  0.00     0.030 A 
ATOM     30  C   UNL A   1      30.858  26.814  22.777  1.00  0.00     0.056 A 
ENDBRANCH  14  17
ENDBRANCH   8  13
ENDBRANCH   4   7
ENDBRANCH   2   3
ENDBRANCH   1   2
BRANCH   1  31
ATOM     31  C   UNL A   1      36.749  22.005  25.207  1.00  0.00     0.118 C 
BRANCH  31  32
ATOM     32  N   UNL A   1      37.688  20.900  25.328  1.00  0.00    -0.352 N 
ATOM     33  C   UNL A   1      38.956  20.944  25.873  1.00  0.00     0.251 C 
ATOM     34  H   UNL A   1      37.388  20.028  24.984  1.00  0.00     0.163 HD
ATOM     35  O   UNL A   1      39.701  19.981  25.814  1.00  0.00    -0.269 OA
BRANCH  33  36
ATOM     36  C   UNL A   1      39.385  22.219  26.487  1.00  0.00     0.039 A 
ATOM     37  C   UNL A   1      38.848  23.420  26.019  1.00  0.00     0.014 A 
ATOM     38  C   UNL A   1      40.433  22.210  27.407  1.00  0.00     0.014 A 
ATOM     39  C   UNL A   1      39.478  24.615  26.343  1.00  0.00     0.010 A 
ATOM     40  C   UNL A   1      41.005  23.421  27.800  1.00  0.00     0.010 A 
ATOM     41  C   UNL A   1      40.568  24.629  27.230  1.00  0.00    -0.014 A 
BRANCH  41  42
ATOM     42  C   UNL A   1      41.236  25.918  27.545  1.00  0.00     0.031 A 
ATOM     43  C   UNL A   1      40.550  26.966  28.383  1.00  0.00     0.074 A 
ATOM     44  C   UNL A   1      42.487  26.129  27.094  1.00  0.00     0.049 A 
ATOM     45  N   UNL A   1      40.985  28.149  28.730  1.00  0.00    -0.248 NA
ATOM     46  C   UNL A   1      39.206  26.652  28.896  1.00  0.00     0.031 C 
ATOM     47  C   UNL A   1      43.252  25.192  26.267  1.00  0.00     0.029 A 
ATOM     48  N   UNL A   1      43.341  27.186  27.274  1.00  0.00    -0.354 N 
ATOM     49  C   UNL A   1      39.957  28.739  29.457  1.00  0.00     0.074 A 
ATOM     50  C   UNL A   1      38.874  27.783  29.506  1.00  0.00     0.031 C 
ATOM     51  C   UNL A   1      44.474  25.695  26.047  1.00  0.00     0.029 A 
ATOM     52  C   UNL A   1      44.560  27.015  26.662  1.00  0.00     0.049 A 
ATOM     53  H   UNL A   1      43.104  27.989  27.790  1.00  0.00     0.167 HD
ATOM     54  C   UNL A   1      39.928  29.959  30.042  1.00  0.00     0.034 A 
ATOM     55  C   UNL A   1      45.626  27.833  26.587  1.00  0.00     0.034 A 
ATOM     56  C   UNL A   1      41.030  30.883  30.047  1.00  0.00     0.049 A 
ATOM     57  C   UNL A   1      45.571  29.173  27.256  1.00  0.00     0.074 A 
ATOM     58  C   UNL A   1      41.105  32.123  30.655  1.00  0.00     0.029 A 
ATOM     59  N   UNL A   1      42.249  30.666  29.425  1.00  0.00    -0.354 N 
ATOM     60  N   UNL A   1      44.609  29.686  27.983  1.00  0.00    -0.248 NA
ATOM     61  C   UNL A   1      46.745  30.043  27.104  1.00  0.00     0.031 C 
ATOM     62  C   UNL A   1      42.371  32.659  30.398  1.00  0.00     0.029 A 
ATOM     63  C   UNL A   1      43.083  31.749  29.634  1.00  0.00     0.049 A 
ATOM     64  H   UNL A   1      42.485  29.861  28.910  1.00  0.00     0.167 HD
ATOM     65  C   UNL A   1      45.062  30.935  28.384  1.00  0.00     0.074 A 
ATOM     66  C   UNL A   1      46.395  31.094  27.836  1.00  0.00     0.031 C 
ATOM     67  C   UNL A   1      44.422  31.874  29.120  1.00  0.00     0.034 A 
BRANCH  54  68
ATOM     68  C   UNL A   1      38.683  30.363  30.783  1.00  0.00     0.023 A 
ATOM     69  C   UNL A   1      38.596  30.122  32.167  1.00  0.00     0.012 A 
ATOM     70  C   UNL A   1      37.656  31.081  30.136  1.00  0.00     0.148 A 
ATOM     71  C   UNL A   1      37.502  30.583  32.899  1.00  0.00     0.002 A 
ATOM     72  C   UNL A   1      36.582  31.560  30.877  1.00  0.00     0.091 A 
ATOM     73  F   UNL A   1      37.757  31.288  28.816  1.00  0.00    -0.205 F 
ATOM     74  C   UNL A   1      36.503  31.310  32.257  1.00  0.00     0.022 A 
BRANCH  72  75
ATOM     75  S   UNL A   1      35.268  32.554  30.160  1.00  0.00     0.127 S 
ATOM     76  O   UNL A   1      36.000  33.744  29.731  1.00  0.00    -0.237 OA
ATOM     77  O   UNL A   1      34.798  31.699  29.070  1.00  0.00    -0.237 OA
ATOM     78  O   UNL A   1      34.300  32.774  31.226  1.00  0.00    -0.744 OA
ENDBRANCH  72  75
ENDBRANCH  54  68
BRANCH  55  79
ATOM     79  C   UNL A   1      46.846  27.366  25.877  1.00  0.00     0.023 A 
ATOM     80  C   UNL A   1      47.685  26.425  26.501  1.00  0.00     0.012 A 
ATOM     81  C   UNL A   1      47.119  27.771  24.556  1.00  0.00     0.148 A 
ATOM     82  C   UNL A   1      48.781  25.895  25.819  1.00  0.00     0.002 A 
ATOM     83  C   UNL A   1      48.184  27.205  23.868  1.00  0.00     0.091 A 
ATOM     84  F   UNL A   1      46.302  28.671  23.989  1.00  0.00    -0.205 F 
ATOM     85  C   UNL A   1      49.022  26.274  24.501  1.00  0.00     0.022 A 
BRANCH  83  86
ATOM     86  S   UNL A   1      48.501  27.538  22.132  1.00  0.00     0.127 S 
ATOM     87  O   UNL A   1      48.774  26.200  21.617  1.00  0.00    -0.237 OA
ATOM     88  O   UNL A   1      47.228  28.117  21.702  1.00  0.00    -0.237 OA
ATOM     89  O   UNL A   1      49.625  28.463  22.103  1.00  0.00    -0.744 OA
ENDBRANCH  83  86
ENDBRANCH  55  79
BRANCH  67  90
ATOM     90  C   UNL A   1      45.142  33.164  29.392  1.00  0.00     0.023 A 
ATOM     91  C   UNL A   1      45.972  33.261  30.525  1.00  0.00     0.012 A 
ATOM     92  C   UNL A   1      45.088  34.228  28.471  1.00  0.00     0.148 A 
ATOM     93  C   UNL A   1      46.736  34.406  30.742  1.00  0.00     0.002 A 
ATOM     94  C   UNL A   1      45.877  35.352  28.678  1.00  0.00     0.091 A 
ATOM     95  F   UNL A   1      44.280  34.111  27.407  1.00  0.00    -0.205 F 
ATOM     96  C   UNL A   1      46.698  35.445  29.815  1.00  0.00     0.022 A 
BRANCH  94  97
ATOM     97  S   UNL A   1      45.953  36.711  27.505  1.00  0.00     0.127 S 
ATOM     98  O   UNL A   1      44.571  37.189  27.515  1.00  0.00    -0.237 OA
ATOM     99  O   UNL A   1      46.916  37.612  28.137  1.00  0.00    -0.237 OA
ATOM    100  O   UNL A   1      46.399  36.131  26.245  1.00  0.00    -0.744 OA
ENDBRANCH  94  97
ENDBRANCH  67  90
ENDBRANCH  41  42
ENDBRANCH  33  36
ENDBRANCH  31  32
ENDBRANCH   1  31
TORSDOF 15
ENDMDL
MODEL 3
REMARK VINA RESULT:     -13.9      5.117      8.309
REMARK SMILES CC1(C)Oc2ccc(NC(=O)[C@H]3CC=CC[C@@H]3C(=O)NCCCNC(=O)c3ccc(-c4c5nc(c(-c6cccc(S(=O)(=O)[O-])c6F)c6ccc([nH]6)c(-c6cccc(S(=O)(=O)[O-])c6F)c6nc(c(-c7cccc(S(=O)(=O)[O-])c7F)c7ccc4[nH]7)C=C6)C=C5)cc3)cc2NC1=O
REMARK SMILES IDX 22 1 21 2 20 3 18 4 19 5 17 7 12 8 13 9 14 10 16 11 15 12
REMARK SMILES IDX 10 13 9 14 11 16 8 17 1 18 2 19 3 20 4 21 93 22 5 23 92 24
REMARK SMILES IDX 94 25 6 26 91 27 7 29 90 30 23 31 24 32 25 33 26 35 27 36
REMARK SMILES IDX 28 37 89 38 29 39 88 40 30 41 31 42 32 43 82 44 33 45 87 46
REMARK SMILES IDX 81 47 83 48 34 49 86 50 80 51 79 52 35 54 67 55 47 56 66 57
REMARK SMILES IDX 48 58 51 59 65 60 84 61 49 62 50 63 64 65 85 66 52 67 36 68
REMARK SMILES IDX 37 69 45 70 38 71 40 72 46 73 39 74 41 75 42 76 43 77 44 78
REMARK SMILES IDX 68 79 69 80 77 81 70 82 72 83 78 84 71 85 73 86 74 87 75 88
REMARK SMILES IDX 76 89 53 90 54 91 62 92 55 93 57 94 63 95 56 96 58 97 59 98
REMARK SMILES IDX 60 99 61 100
REMARK H PARENT 20 6 9 15 92 28 24 34 83 53 51 64
REMARK Flexibility Score: inf
ROOT
ATOM      1  C   UNL A   1      35.401  21.790  26.331  1.00  0.00     0.042 C 
ENDROOT
BRANCH   1   2
ATOM      2  C   UNL A   1      34.068  21.769  25.599  1.00  0.00     0.117 C 
BRANCH   2   3
ATOM      3  N   UNL A   1      33.015  22.169  26.511  1.00  0.00    -0.356 N 
ATOM      4  C   UNL A   1      32.323  23.338  26.564  1.00  0.00     0.224 C 
ATOM      5  O   UNL A   1      31.773  23.622  27.627  1.00  0.00    -0.275 OA
ATOM      6  H   UNL A   1      32.764  21.500  27.188  1.00  0.00     0.163 HD
BRANCH   4   7
ATOM      7  C   UNL A   1      32.125  24.136  25.274  1.00  0.00     0.095 C 
ATOM      8  C   UNL A   1      33.470  24.762  24.836  1.00  0.00     0.095 C 
ATOM      9  C   UNL A   1      33.908  25.990  25.649  1.00  0.00     0.041 C 
ATOM     10  C   UNL A   1      32.815  26.687  26.419  1.00  0.00    -0.030 C 
ATOM     11  C   UNL A   1      31.017  25.141  25.621  1.00  0.00     0.041 C 
ATOM     12  C   UNL A   1      31.524  26.327  26.390  1.00  0.00    -0.030 C 
BRANCH   8  13
ATOM     13  C   UNL A   1      33.755  24.793  23.315  1.00  0.00     0.228 C 
ATOM     14  N   UNL A   1      33.183  25.598  22.377  1.00  0.00    -0.326 N 
ATOM     15  H   UNL A   1      33.353  25.298  21.455  1.00  0.00     0.169 HD
ATOM     16  O   UNL A   1      34.534  23.944  22.850  1.00  0.00    -0.274 OA
BRANCH  14  17
ATOM     17  C   UNL A   1      32.408  26.759  22.439  1.00  0.00     0.043 A 
ATOM     18  C   UNL A   1      28.236  31.205  23.988  1.00  0.00     0.067 C 
ATOM     19  C   UNL A   1      28.971  30.272  23.018  1.00  0.00     0.182 C 
ATOM     20  C   UNL A   1      29.153  30.976  21.666  1.00  0.00     0.067 C 
ATOM     21  O   UNL A   1      30.285  30.108  23.548  1.00  0.00    -0.476 OA
ATOM     22  C   UNL A   1      28.142  28.967  22.861  1.00  0.00     0.268 C 
ATOM     23  C   UNL A   1      30.916  29.017  23.031  1.00  0.00     0.144 A 
ATOM     24  N   UNL A   1      28.868  27.800  22.778  1.00  0.00    -0.319 N 
ATOM     25  O   UNL A   1      26.917  28.951  22.751  1.00  0.00    -0.270 OA
ATOM     26  C   UNL A   1      32.257  29.146  22.750  1.00  0.00     0.051 A 
ATOM     27  C   UNL A   1      30.265  27.811  22.793  1.00  0.00     0.086 A 
ATOM     28  H   UNL A   1      28.394  26.940  22.707  1.00  0.00     0.170 HD
ATOM     29  C   UNL A   1      32.972  28.020  22.365  1.00  0.00     0.030 A 
ATOM     30  C   UNL A   1      31.013  26.658  22.540  1.00  0.00     0.056 A 
ENDBRANCH  14  17
ENDBRANCH   8  13
ENDBRANCH   4   7
ENDBRANCH   2   3
ENDBRANCH   1   2
BRANCH   1  31
ATOM     31  C   UNL A   1      36.580  22.032  25.401  1.00  0.00     0.118 C 
BRANCH  31  32
ATOM     32  N   UNL A   1      37.549  20.945  25.413  1.00  0.00    -0.352 N 
ATOM     33  C   UNL A   1      38.848  20.996  25.878  1.00  0.00     0.251 C 
ATOM     34  H   UNL A   1      37.245  20.082  25.050  1.00  0.00     0.163 HD
ATOM     35  O   UNL A   1      39.607  20.055  25.729  1.00  0.00    -0.269 OA
BRANCH  33  36
ATOM     36  C   UNL A   1      39.288  22.253  26.520  1.00  0.00     0.039 A 
ATOM     37  C   UNL A   1      38.715  23.464  26.123  1.00  0.00     0.014 A 
ATOM     38  C   UNL A   1      40.378  22.226  27.390  1.00  0.00     0.014 A 
ATOM     39  C   UNL A   1      39.343  24.654  26.463  1.00  0.00     0.010 A 
ATOM     40  C   UNL A   1      40.953  23.429  27.801  1.00  0.00     0.010 A 
ATOM     41  C   UNL A   1      40.474  24.651  27.299  1.00  0.00    -0.014 A 
BRANCH  41  42
ATOM     42  C   UNL A   1      41.139  25.937  27.632  1.00  0.00     0.031 A 
ATOM     43  C   UNL A   1      42.535  26.239  27.150  1.00  0.00     0.074 A 
ATOM     44  C   UNL A   1      40.461  26.852  28.350  1.00  0.00     0.049 A 
ATOM     45  N   UNL A   1      43.264  27.301  27.371  1.00  0.00    -0.248 NA
ATOM     46  C   UNL A   1      43.202  25.222  26.319  1.00  0.00     0.031 C 
ATOM     47  C   UNL A   1      39.106  26.672  28.878  1.00  0.00     0.029 A 
ATOM     48  N   UNL A   1      40.807  28.117  28.749  1.00  0.00    -0.354 N 
ATOM     49  C   UNL A   1      44.486  27.065  26.752  1.00  0.00     0.074 A 
ATOM     50  C   UNL A   1      44.403  25.757  26.142  1.00  0.00     0.031 C 
ATOM     51  C   UNL A   1      38.721  27.798  29.494  1.00  0.00     0.029 A 
ATOM     52  C   UNL A   1      39.820  28.756  29.460  1.00  0.00     0.049 A 
ATOM     53  H   UNL A   1      41.679  28.527  28.548  1.00  0.00     0.167 HD
ATOM     54  C   UNL A   1      45.570  27.873  26.686  1.00  0.00     0.034 A 
ATOM     55  C   UNL A   1      39.801  29.971  30.038  1.00  0.00     0.034 A 
ATOM     56  C   UNL A   1      45.629  29.199  27.239  1.00  0.00     0.049 A 
ATOM     57  C   UNL A   1      41.011  30.849  29.938  1.00  0.00     0.074 A 
ATOM     58  C   UNL A   1      46.671  30.107  27.180  1.00  0.00     0.029 A 
ATOM     59  N   UNL A   1      44.603  29.811  27.941  1.00  0.00    -0.354 N 
ATOM     60  N   UNL A   1      42.134  30.626  29.301  1.00  0.00    -0.248 NA
ATOM     61  C   UNL A   1      40.952  32.147  30.625  1.00  0.00     0.031 C 
ATOM     62  C   UNL A   1      46.277  31.268  27.850  1.00  0.00     0.029 A 
ATOM     63  C   UNL A   1      44.988  31.084  28.321  1.00  0.00     0.049 A 
ATOM     64  H   UNL A   1      43.731  29.400  28.141  1.00  0.00     0.167 HD
ATOM     65  C   UNL A   1      42.914  31.756  29.502  1.00  0.00     0.074 A 
ATOM     66  C   UNL A   1      42.127  32.674  30.302  1.00  0.00     0.031 C 
ATOM     67  C   UNL A   1      44.177  32.001  29.079  1.00  0.00     0.034 A 
BRANCH  54  68
ATOM     68  C   UNL A   1      46.782  27.378  25.944  1.00  0.00     0.023 A 
ATOM     69  C   UNL A   1      46.905  27.651  24.568  1.00  0.00     0.012 A 
ATOM     70  C   UNL A   1      47.844  26.752  26.627  1.00  0.00     0.148 A 
ATOM     71  C   UNL A   1      48.064  27.301  23.878  1.00  0.00     0.002 A 
ATOM     72  C   UNL A   1      49.008  26.430  25.938  1.00  0.00     0.091 A 
ATOM     73  F   UNL A   1      47.698  26.494  27.934  1.00  0.00    -0.205 F 
ATOM     74  C   UNL A   1      49.118  26.702  24.563  1.00  0.00     0.022 A 
BRANCH  72  75
ATOM     75  S   UNL A   1      50.445  25.705  26.735  1.00  0.00     0.127 S 
ATOM     76  O   UNL A   1      49.894  24.453  27.252  1.00  0.00    -0.237 OA
ATOM     77  O   UNL A   1      51.372  25.548  25.615  1.00  0.00    -0.237 OA
ATOM     78  O   UNL A   1      50.868  26.660  27.751  1.00  0.00    -0.744 OA
ENDBRANCH  72  75
ENDBRANCH  54  68
BRANCH  55  79
ATOM     79  C   UNL A   1      38.562  30.425  30.724  1.00  0.00     0.023 A 
ATOM     80  C   UNL A   1      38.443  30.247  32.114  1.00  0.00     0.012 A 
ATOM     81  C   UNL A   1      37.555  31.118  30.025  1.00  0.00     0.148 A 
ATOM     82  C   UNL A   1      37.337  30.750  32.799  1.00  0.00     0.002 A 
ATOM     83  C   UNL A   1      36.480  31.657  30.719  1.00  0.00     0.091 A 
ATOM     84  F   UNL A   1      37.696  31.271  28.700  1.00  0.00    -0.205 F 
ATOM     85  C   UNL A   1      36.364  31.466  32.104  1.00  0.00     0.022 A 
BRANCH  83  86
ATOM     86  S   UNL A   1      35.243  32.695  29.933  1.00  0.00     0.127 S 
ATOM     87  O   UNL A   1      34.693  31.792  28.926  1.00  0.00    -0.237 OA
ATOM     88  O   UNL A   1      34.349  32.992  31.052  1.00  0.00    -0.237 OA
ATOM     89  O   UNL A   1      35.965  33.849  29.413  1.00  0.00    -0.744 OA
ENDBRANCH  83  86
ENDBRANCH  55  79
BRANCH  67  90
ATOM     90  C   UNL A   1      44.803  33.313  29.462  1.00  0.00     0.023 A 
ATOM     91  C   UNL A   1      45.610  33.377  30.614  1.00  0.00     0.012 A 
ATOM     92  C   UNL A   1      44.688  34.439  28.625  1.00  0.00     0.148 A 
ATOM     93  C   UNL A   1      46.291  34.550  30.932  1.00  0.00     0.002 A 
ATOM     94  C   UNL A   1      45.395  35.594  28.932  1.00  0.00     0.091 A 
ATOM     95  F   UNL A   1      43.903  34.351  27.541  1.00  0.00    -0.205 F 
ATOM     96  C   UNL A   1      46.193  35.653  30.087  1.00  0.00     0.022 A 
BRANCH  94  97
ATOM     97  S   UNL A   1      45.393  37.042  27.868  1.00  0.00     0.127 S 
ATOM     98  O   UNL A   1      43.972  37.386  27.839  1.00  0.00    -0.237 OA
ATOM     99  O   UNL A   1      46.232  37.977  28.617  1.00  0.00    -0.237 OA
ATOM    100  O   UNL A   1      45.952  36.608  26.595  1.00  0.00    -0.744 OA
ENDBRANCH  94  97
ENDBRANCH  67  90
ENDBRANCH  41  42
ENDBRANCH  33  36
ENDBRANCH  31  32
ENDBRANCH   1  31
TORSDOF 15
ENDMDL
