MODEL 1
REMARK VINA RESULT:     -12.7      0.000      0.000
REMARK SMILES O=C(NCCCNC(=O)[C@H]1CC=CC[C@H]1C(=O)N[C@@H]1CCN(c2cccc(Cl)c2)C1)c1ccc(-c2c3nc(c(-c4cccc(S(=O)(=O)[O-])c4F)c4ccc([nH]4)c(-c4cccc(S(=O)(=O)[O-])c4F)c4nc(c(-c5cccc(S(=O)(=O)[O-])c5F)c5ccc2[nH]5)C=C4)C=C3)cc1
REMARK SMILES IDX 5 1 4 2 3 3 1 4 2 5 31 7 32 8 93 9 33 10 92 11 34 12 35 13
REMARK SMILES IDX 36 14 86 15 37 16 91 17 85 18 87 19 38 20 90 21 84 22 83 23
REMARK SMILES IDX 39 25 71 26 51 27 70 28 52 29 55 30 69 31 88 32 53 33 54 34
REMARK SMILES IDX 68 36 89 37 56 38 40 39 41 40 49 41 42 42 44 43 50 44 43 45
REMARK SMILES IDX 45 46 46 47 47 48 48 49 72 50 73 51 81 52 74 53 76 54 82 55
REMARK SMILES IDX 75 56 77 57 78 58 79 59 80 60 57 61 58 62 66 63 59 64 61 65
REMARK SMILES IDX 67 66 60 67 62 68 63 69 64 70 65 71 6 72 7 73 8 74 9 76
REMARK SMILES IDX 10 77 11 78 15 79 12 80 14 81 13 82 16 83 17 84 18 85 19 87
REMARK SMILES IDX 20 88 30 89 21 90 22 91 23 92 24 93 29 94 25 95 27 96 26 97
REMARK SMILES IDX 28 98
REMARK H PARENT 3 6 87 24 55 35 7 75 18 86
REMARK Flexibility Score: inf
ROOT
ATOM      1  C   UNL A   1      32.837  29.215  25.517  1.00  0.00     0.042 C 
ENDROOT
BRANCH   1   2
ATOM      2  C   UNL A   1      33.912  29.554  26.546  1.00  0.00     0.118 C 
BRANCH   2   3
ATOM      3  N   UNL A   1      33.777  30.910  27.056  1.00  0.00    -0.352 N 
ATOM      4  O   UNL A   1      34.050  32.611  28.490  1.00  0.00    -0.269 OA
ATOM      5  C   UNL A   1      34.491  31.560  28.033  1.00  0.00     0.251 C 
ATOM      6  H   UNL A   1      33.065  31.443  26.635  1.00  0.00     0.163 HD
BRANCH   5   7
ATOM      7  C   UNL A   1      35.760  30.996  28.545  1.00  0.00     0.039 A 
ATOM      8  C   UNL A   1      35.774  29.844  29.334  1.00  0.00     0.014 A 
ATOM      9  C   UNL A   1      36.966  31.600  28.175  1.00  0.00     0.014 A 
ATOM     10  C   UNL A   1      36.974  29.371  29.858  1.00  0.00     0.010 A 
ATOM     11  C   UNL A   1      38.178  31.077  28.636  1.00  0.00     0.010 A 
ATOM     12  C   UNL A   1      38.191  29.974  29.504  1.00  0.00    -0.014 A 
BRANCH  12  13
ATOM     13  C   UNL A   1      39.472  29.392  29.977  1.00  0.00     0.031 A 
ATOM     14  C   UNL A   1      40.238  30.010  31.112  1.00  0.00     0.074 A 
ATOM     15  C   UNL A   1      39.970  28.316  29.336  1.00  0.00     0.049 A 
ATOM     16  N   UNL A   1      41.381  29.638  31.631  1.00  0.00    -0.248 NA
ATOM     17  C   UNL A   1      39.655  31.204  31.742  1.00  0.00     0.031 C 
ATOM     18  C   UNL A   1      39.349  27.666  28.180  1.00  0.00     0.029 A 
ATOM     19  N   UNL A   1      41.117  27.594  29.547  1.00  0.00    -0.354 N 
ATOM     20  C   UNL A   1      41.675  30.573  32.617  1.00  0.00     0.074 A 
ATOM     21  C   UNL A   1      40.593  31.534  32.619  1.00  0.00     0.031 C 
ATOM     22  C   UNL A   1      40.122  26.648  27.779  1.00  0.00     0.029 A 
ATOM     23  C   UNL A   1      41.312  26.594  28.623  1.00  0.00     0.049 A 
ATOM     24  H   UNL A   1      41.740  27.773  30.288  1.00  0.00     0.167 HD
ATOM     25  C   UNL A   1      42.740  30.613  33.453  1.00  0.00     0.034 A 
ATOM     26  C   UNL A   1      42.342  25.743  28.453  1.00  0.00     0.034 A 
ATOM     27  C   UNL A   1      43.791  29.630  33.474  1.00  0.00     0.049 A 
ATOM     28  C   UNL A   1      43.490  25.783  29.418  1.00  0.00     0.074 A 
ATOM     29  C   UNL A   1      44.858  29.531  34.349  1.00  0.00     0.029 A 
ATOM     30  N   UNL A   1      43.914  28.583  32.573  1.00  0.00    -0.354 N 
ATOM     31  N   UNL A   1      43.669  26.574  30.448  1.00  0.00    -0.248 NA
ATOM     32  C   UNL A   1      44.560  24.796  29.223  1.00  0.00     0.031 C 
ATOM     33  C   UNL A   1      45.638  28.433  33.965  1.00  0.00     0.029 A 
ATOM     34  C   UNL A   1      45.048  27.841  32.860  1.00  0.00     0.049 A 
ATOM     35  H   UNL A   1      43.288  28.394  31.838  1.00  0.00     0.167 HD
ATOM     36  C   UNL A   1      44.861  26.171  31.036  1.00  0.00     0.074 A 
ATOM     37  C   UNL A   1      45.349  25.049  30.260  1.00  0.00     0.031 C 
ATOM     38  C   UNL A   1      45.500  26.697  32.109  1.00  0.00     0.034 A 
BRANCH  25  39
ATOM     39  C   UNL A   1      42.801  31.738  34.454  1.00  0.00     0.023 A 
ATOM     40  C   UNL A   1      43.436  32.946  34.102  1.00  0.00     0.012 A 
ATOM     41  C   UNL A   1      42.186  31.623  35.716  1.00  0.00     0.148 A 
ATOM     42  C   UNL A   1      43.485  34.011  35.001  1.00  0.00     0.002 A 
ATOM     43  C   UNL A   1      42.208  32.703  36.593  1.00  0.00     0.091 A 
ATOM     44  F   UNL A   1      41.608  30.460  36.046  1.00  0.00    -0.205 F 
ATOM     45  C   UNL A   1      42.864  33.894  36.241  1.00  0.00     0.022 A 
BRANCH  43  46
ATOM     46  S   UNL A   1      41.371  32.658  38.182  1.00  0.00     0.127 S 
ATOM     47  O   UNL A   1      41.504  34.044  38.627  1.00  0.00    -0.237 OA
ATOM     48  O   UNL A   1      40.009  32.267  37.811  1.00  0.00    -0.237 OA
ATOM     49  O   UNL A   1      42.084  31.664  38.973  1.00  0.00    -0.744 OA
ENDBRANCH  43  46
ENDBRANCH  25  39
BRANCH  26  50
ATOM     50  C   UNL A   1      42.286  24.759  27.337  1.00  0.00     0.023 A 
ATOM     51  C   UNL A   1      43.121  24.930  26.218  1.00  0.00     0.012 A 
ATOM     52  C   UNL A   1      41.485  23.603  27.429  1.00  0.00     0.148 A 
ATOM     53  C   UNL A   1      43.152  23.972  25.204  1.00  0.00     0.002 A 
ATOM     54  C   UNL A   1      41.563  22.626  26.446  1.00  0.00     0.091 A 
ATOM     55  F   UNL A   1      40.687  23.468  28.498  1.00  0.00    -0.205 F 
ATOM     56  C   UNL A   1      42.387  22.814  25.325  1.00  0.00     0.022 A 
BRANCH  54  57
ATOM     57  S   UNL A   1      40.729  21.042  26.597  1.00  0.00     0.127 S 
ATOM     58  O   UNL A   1      41.541  20.192  25.730  1.00  0.00    -0.237 OA
ATOM     59  O   UNL A   1      40.858  20.764  28.028  1.00  0.00    -0.237 OA
ATOM     60  O   UNL A   1      39.361  21.276  26.156  1.00  0.00    -0.744 OA
ENDBRANCH  54  57
ENDBRANCH  26  50
BRANCH  38  61
ATOM     61  C   UNL A   1      46.801  26.065  32.525  1.00  0.00     0.023 A 
ATOM     62  C   UNL A   1      48.012  26.579  32.023  1.00  0.00     0.012 A 
ATOM     63  C   UNL A   1      46.831  25.026  33.475  1.00  0.00     0.148 A 
ATOM     64  C   UNL A   1      49.233  26.057  32.446  1.00  0.00     0.002 A 
ATOM     65  C   UNL A   1      48.052  24.538  33.925  1.00  0.00     0.091 A 
ATOM     66  F   UNL A   1      45.665  24.537  33.924  1.00  0.00    -0.205 F 
ATOM     67  C   UNL A   1      49.254  25.047  33.405  1.00  0.00     0.022 A 
BRANCH  65  68
ATOM     68  S   UNL A   1      48.178  23.299  35.219  1.00  0.00     0.127 S 
ATOM     69  O   UNL A   1      47.535  23.976  36.344  1.00  0.00    -0.237 OA
ATOM     70  O   UNL A   1      47.412  22.184  34.660  1.00  0.00    -0.237 OA
ATOM     71  O   UNL A   1      49.601  23.032  35.381  1.00  0.00    -0.744 OA
ENDBRANCH  65  68
ENDBRANCH  38  61
ENDBRANCH  12  13
ENDBRANCH   5   7
ENDBRANCH   2   3
ENDBRANCH   1   2
BRANCH   1  72
ATOM     72  C   UNL A   1      31.638  28.447  26.079  1.00  0.00     0.117 C 
BRANCH  72  73
ATOM     73  N   UNL A   1      31.778  27.000  25.970  1.00  0.00    -0.356 N 
ATOM     74  C   UNL A   1      30.677  26.221  25.745  1.00  0.00     0.224 C 
ATOM     75  H   UNL A   1      32.666  26.583  26.060  1.00  0.00     0.163 HD
ATOM     76  O   UNL A   1      30.066  25.790  26.721  1.00  0.00    -0.275 OA
BRANCH  74  77
ATOM     77  C   UNL A   1      30.247  25.926  24.311  1.00  0.00     0.095 C 
ATOM     78  C   UNL A   1      28.932  26.584  23.853  1.00  0.00     0.041 C 
ATOM     79  C   UNL A   1      31.368  26.099  23.242  1.00  0.00     0.095 C 
ATOM     80  C   UNL A   1      29.088  27.927  23.213  1.00  0.00    -0.030 C 
ATOM     81  C   UNL A   1      31.420  27.440  22.481  1.00  0.00     0.041 C 
ATOM     82  C   UNL A   1      30.211  28.308  22.595  1.00  0.00    -0.030 C 
BRANCH  79  83
ATOM     83  C   UNL A   1      32.781  25.636  23.622  1.00  0.00     0.224 C 
ATOM     84  O   UNL A   1      33.701  26.460  23.660  1.00  0.00    -0.275 OA
ATOM     85  N   UNL A   1      33.075  24.356  23.988  1.00  0.00    -0.351 N 
ATOM     86  H   UNL A   1      33.966  24.236  24.387  1.00  0.00     0.163 HD
BRANCH  85  87
ATOM     87  C   UNL A   1      32.283  23.130  23.884  1.00  0.00     0.103 C 
ATOM     88  C   UNL A   1      31.768  22.649  25.246  1.00  0.00     0.048 C 
ATOM     89  C   UNL A   1      33.091  21.942  23.303  1.00  0.00     0.141 C 
ATOM     90  C   UNL A   1      32.629  21.450  25.615  1.00  0.00     0.119 C 
ATOM     91  N   UNL A   1      33.028  20.911  24.332  1.00  0.00    -0.369 N 
BRANCH  91  92
ATOM     92  C   UNL A   1      33.131  19.583  24.007  1.00  0.00     0.038 A 
ATOM     93  C   UNL A   1      32.379  19.019  22.967  1.00  0.00     0.026 A 
ATOM     94  C   UNL A   1      34.044  18.751  24.669  1.00  0.00     0.046 A 
ATOM     95  C   UNL A   1      32.542  17.681  22.587  1.00  0.00     0.004 A 
ATOM     96  C   UNL A   1      34.190  17.410  24.310  1.00  0.00     0.043 A 
ATOM     97  C   UNL A   1      33.448  16.872  23.265  1.00  0.00     0.020 A 
ATOM     98  Cl  UNL A   1      35.302  16.415  25.170  1.00  0.00    -0.084 Cl
ENDBRANCH  91  92
ENDBRANCH  85  87
ENDBRANCH  79  83
ENDBRANCH  74  77
ENDBRANCH  72  73
ENDBRANCH   1  72
TORSDOF 16
ENDMDL
MODEL 2
REMARK VINA RESULT:     -12.6      1.807      2.360
REMARK SMILES O=C(NCCCNC(=O)[C@H]1CC=CC[C@H]1C(=O)N[C@@H]1CCN(c2cccc(Cl)c2)C1)c1ccc(-c2c3nc(c(-c4cccc(S(=O)(=O)[O-])c4F)c4ccc([nH]4)c(-c4cccc(S(=O)(=O)[O-])c4F)c4nc(c(-c5cccc(S(=O)(=O)[O-])c5F)c5ccc2[nH]5)C=C4)C=C3)cc1
REMARK SMILES IDX 5 1 4 2 3 3 1 4 2 5 31 7 32 8 93 9 33 10 92 11 34 12 35 13
REMARK SMILES IDX 36 14 86 15 37 16 91 17 85 18 87 19 38 20 90 21 84 22 83 23
REMARK SMILES IDX 39 25 71 26 51 27 70 28 52 29 55 30 69 31 88 32 53 33 54 34
REMARK SMILES IDX 68 36 89 37 56 38 40 39 41 40 49 41 42 42 44 43 50 44 43 45
REMARK SMILES IDX 45 46 46 47 47 48 48 49 72 50 73 51 81 52 74 53 76 54 82 55
REMARK SMILES IDX 75 56 77 57 78 58 79 59 80 60 57 61 58 62 66 63 59 64 61 65
REMARK SMILES IDX 67 66 60 67 62 68 63 69 64 70 65 71 6 72 7 73 8 74 9 76
REMARK SMILES IDX 10 77 11 78 15 79 12 80 14 81 13 82 16 83 17 84 18 85 19 87
REMARK SMILES IDX 20 88 30 89 21 90 22 91 23 92 24 93 29 94 25 95 27 96 26 97
REMARK SMILES IDX 28 98
REMARK H PARENT 3 6 87 24 55 35 7 75 18 86
REMARK Flexibility Score: inf
ROOT
ATOM      1  C   UNL A   1      31.466  30.888  26.369  1.00  0.00     0.042 C 
ENDROOT
BRANCH   1   2
ATOM      2  C   UNL A   1      32.793  31.248  27.031  1.00  0.00     0.118 C 
BRANCH   2   3
ATOM      3  N   UNL A   1      32.958  32.685  27.187  1.00  0.00    -0.352 N 
ATOM      4  O   UNL A   1      33.656  34.590  28.141  1.00  0.00    -0.269 OA
ATOM      5  C   UNL A   1      33.853  33.393  27.952  1.00  0.00     0.251 C 
ATOM      6  H   UNL A   1      32.332  33.234  26.663  1.00  0.00     0.163 HD
BRANCH   5   7
ATOM      7  C   UNL A   1      35.026  32.723  28.558  1.00  0.00     0.039 A 
ATOM      8  C   UNL A   1      36.325  33.162  28.296  1.00  0.00     0.014 A 
ATOM      9  C   UNL A   1      34.815  31.672  29.457  1.00  0.00     0.014 A 
ATOM     10  C   UNL A   1      37.414  32.475  28.826  1.00  0.00     0.010 A 
ATOM     11  C   UNL A   1      35.907  31.033  30.050  1.00  0.00     0.010 A 
ATOM     12  C   UNL A   1      37.217  31.411  29.720  1.00  0.00    -0.014 A 
BRANCH  12  13
ATOM     13  C   UNL A   1      38.385  30.760  30.366  1.00  0.00     0.031 A 
ATOM     14  C   UNL A   1      38.833  31.155  31.745  1.00  0.00     0.074 A 
ATOM     15  C   UNL A   1      39.074  29.832  29.674  1.00  0.00     0.049 A 
ATOM     16  N   UNL A   1      39.845  30.702  32.441  1.00  0.00    -0.248 NA
ATOM     17  C   UNL A   1      38.057  32.201  32.428  1.00  0.00     0.031 C 
ATOM     18  C   UNL A   1      38.773  29.411  28.305  1.00  0.00     0.029 A 
ATOM     19  N   UNL A   1      40.180  29.094  30.013  1.00  0.00    -0.354 N 
ATOM     20  C   UNL A   1      39.853  31.432  33.623  1.00  0.00     0.074 A 
ATOM     21  C   UNL A   1      38.748  32.364  33.548  1.00  0.00     0.031 C 
ATOM     22  C   UNL A   1      39.672  28.496  27.917  1.00  0.00     0.029 A 
ATOM     23  C   UNL A   1      40.636  28.293  28.993  1.00  0.00     0.049 A 
ATOM     24  H   UNL A   1      40.605  29.133  30.901  1.00  0.00     0.167 HD
ATOM     25  C   UNL A   1      40.693  31.320  34.681  1.00  0.00     0.034 A 
ATOM     26  C   UNL A   1      41.722  27.500  28.917  1.00  0.00     0.034 A 
ATOM     27  C   UNL A   1      41.762  30.361  34.768  1.00  0.00     0.049 A 
ATOM     28  C   UNL A   1      42.613  27.364  30.116  1.00  0.00     0.074 A 
ATOM     29  C   UNL A   1      42.603  30.105  35.836  1.00  0.00     0.029 A 
ATOM     30  N   UNL A   1      42.146  29.508  33.744  1.00  0.00    -0.354 N 
ATOM     31  N   UNL A   1      42.507  27.944  31.287  1.00  0.00    -0.248 NA
ATOM     32  C   UNL A   1      43.752  26.443  30.001  1.00  0.00     0.031 C 
ATOM     33  C   UNL A   1      43.508  29.110  35.451  1.00  0.00     0.029 A 
ATOM     34  C   UNL A   1      43.222  28.735  34.148  1.00  0.00     0.049 A 
ATOM     35  H   UNL A   1      41.717  29.459  32.859  1.00  0.00     0.167 HD
ATOM     36  C   UNL A   1      43.552  27.447  32.056  1.00  0.00     0.074 A 
ATOM     37  C   UNL A   1      44.266  26.499  31.224  1.00  0.00     0.031 C 
ATOM     38  C   UNL A   1      43.897  27.762  33.328  1.00  0.00     0.034 A 
BRANCH  25  39
ATOM     39  C   UNL A   1      40.460  32.232  35.858  1.00  0.00     0.023 A 
ATOM     40  C   UNL A   1      41.311  33.337  36.058  1.00  0.00     0.012 A 
ATOM     41  C   UNL A   1      39.373  32.030  36.731  1.00  0.00     0.148 A 
ATOM     42  C   UNL A   1      41.104  34.210  37.125  1.00  0.00     0.002 A 
ATOM     43  C   UNL A   1      39.152  32.926  37.772  1.00  0.00     0.091 A 
ATOM     44  F   UNL A   1      38.588  30.961  36.544  1.00  0.00    -0.205 F 
ATOM     45  C   UNL A   1      40.020  34.011  37.975  1.00  0.00     0.022 A 
BRANCH  43  46
ATOM     46  S   UNL A   1      37.737  32.780  38.870  1.00  0.00     0.127 S 
ATOM     47  O   UNL A   1      37.976  31.479  39.491  1.00  0.00    -0.237 OA
ATOM     48  O   UNL A   1      37.913  33.924  39.767  1.00  0.00    -0.237 OA
ATOM     49  O   UNL A   1      36.563  32.869  38.012  1.00  0.00    -0.744 OA
ENDBRANCH  43  46
ENDBRANCH  25  39
BRANCH  26  50
ATOM     50  C   UNL A   1      41.979  26.748  27.658  1.00  0.00     0.023 A 
ATOM     51  C   UNL A   1      42.601  27.397  26.576  1.00  0.00     0.012 A 
ATOM     52  C   UNL A   1      41.701  25.370  27.567  1.00  0.00     0.148 A 
ATOM     53  C   UNL A   1      42.933  26.689  25.420  1.00  0.00     0.002 A 
ATOM     54  C   UNL A   1      42.087  24.658  26.438  1.00  0.00     0.091 A 
ATOM     55  F   UNL A   1      41.095  24.774  28.605  1.00  0.00    -0.205 F 
ATOM     56  C   UNL A   1      42.691  25.318  25.358  1.00  0.00     0.022 A 
BRANCH  54  57
ATOM     57  S   UNL A   1      41.950  22.870  26.337  1.00  0.00     0.127 S 
ATOM     58  O   UNL A   1      42.529  22.599  25.023  1.00  0.00    -0.237 OA
ATOM     59  O   UNL A   1      42.767  22.436  27.471  1.00  0.00    -0.237 OA
ATOM     60  O   UNL A   1      40.531  22.577  26.478  1.00  0.00    -0.744 OA
ENDBRANCH  54  57
ENDBRANCH  26  50
BRANCH  38  61
ATOM     61  C   UNL A   1      45.100  27.074  33.915  1.00  0.00     0.023 A 
ATOM     62  C   UNL A   1      46.361  27.695  33.833  1.00  0.00     0.012 A 
ATOM     63  C   UNL A   1      44.968  25.862  34.621  1.00  0.00     0.148 A 
ATOM     64  C   UNL A   1      47.477  27.111  34.430  1.00  0.00     0.002 A 
ATOM     65  C   UNL A   1      46.077  25.307  35.250  1.00  0.00     0.091 A 
ATOM     66  F   UNL A   1      43.761  25.278  34.669  1.00  0.00    -0.205 F 
ATOM     67  C   UNL A   1      47.333  25.926  35.148  1.00  0.00     0.022 A 
BRANCH  65  68
ATOM     68  S   UNL A   1      45.969  23.831  36.268  1.00  0.00     0.127 S 
ATOM     69  O   UNL A   1      45.459  22.847  35.315  1.00  0.00    -0.237 OA
ATOM     70  O   UNL A   1      47.361  23.627  36.669  1.00  0.00    -0.237 OA
ATOM     71  O   UNL A   1      45.068  24.165  37.364  1.00  0.00    -0.744 OA
ENDBRANCH  65  68
ENDBRANCH  38  61
ENDBRANCH  12  13
ENDBRANCH   5   7
ENDBRANCH   2   3
ENDBRANCH   1   2
BRANCH   1  72
ATOM     72  C   UNL A   1      31.558  29.767  25.330  1.00  0.00     0.117 C 
BRANCH  72  73
ATOM     73  N   UNL A   1      32.189  28.556  25.842  1.00  0.00    -0.356 N 
ATOM     74  C   UNL A   1      31.417  27.525  26.301  1.00  0.00     0.224 C 
ATOM     75  H   UNL A   1      33.170  28.482  25.859  1.00  0.00     0.163 HD
ATOM     76  O   UNL A   1      31.115  27.516  27.493  1.00  0.00    -0.275 OA
BRANCH  74  77
ATOM     77  C   UNL A   1      30.956  26.442  25.329  1.00  0.00     0.095 C 
ATOM     78  C   UNL A   1      29.641  26.725  24.580  1.00  0.00     0.041 C 
ATOM     79  C   UNL A   1      32.059  25.920  24.360  1.00  0.00     0.095 C 
ATOM     80  C   UNL A   1      29.801  27.416  23.264  1.00  0.00    -0.030 C 
ATOM     81  C   UNL A   1      32.113  26.541  22.949  1.00  0.00     0.041 C 
ATOM     82  C   UNL A   1      30.917  27.331  22.532  1.00  0.00    -0.030 C 
BRANCH  79  83
ATOM     83  C   UNL A   1      33.473  25.746  24.930  1.00  0.00     0.224 C 
ATOM     84  O   UNL A   1      34.315  26.632  24.750  1.00  0.00    -0.275 OA
ATOM     85  N   UNL A   1      33.846  24.677  25.691  1.00  0.00    -0.351 N 
ATOM     86  H   UNL A   1      34.712  24.780  26.148  1.00  0.00     0.163 HD
BRANCH  85  87
ATOM     87  C   UNL A   1      33.171  23.404  25.940  1.00  0.00     0.103 C 
ATOM     88  C   UNL A   1      33.873  22.571  27.019  1.00  0.00     0.048 C 
ATOM     89  C   UNL A   1      33.120  22.496  24.685  1.00  0.00     0.141 C 
ATOM     90  C   UNL A   1      34.595  21.455  26.279  1.00  0.00     0.119 C 
ATOM     91  N   UNL A   1      33.797  21.269  25.085  1.00  0.00    -0.369 N 
BRANCH  91  92
ATOM     92  C   UNL A   1      33.496  20.072  24.489  1.00  0.00     0.038 A 
ATOM     93  C   UNL A   1      32.492  19.964  23.516  1.00  0.00     0.026 A 
ATOM     94  C   UNL A   1      34.227  18.915  24.792  1.00  0.00     0.046 A 
ATOM     95  C   UNL A   1      32.238  18.757  22.856  1.00  0.00     0.004 A 
ATOM     96  C   UNL A   1      33.960  17.703  24.153  1.00  0.00     0.043 A 
ATOM     97  C   UNL A   1      32.972  17.620  23.179  1.00  0.00     0.020 A 
ATOM     98  Cl  UNL A   1      34.863  16.300  24.576  1.00  0.00    -0.084 Cl
ENDBRANCH  91  92
ENDBRANCH  85  87
ENDBRANCH  79  83
ENDBRANCH  74  77
ENDBRANCH  72  73
ENDBRANCH   1  72
TORSDOF 16
ENDMDL
MODEL 3
REMARK VINA RESULT:     -12.5      5.217     10.278
REMARK SMILES O=C(NCCCNC(=O)[C@H]1CC=CC[C@H]1C(=O)N[C@@H]1CCN(c2cccc(Cl)c2)C1)c1ccc(-c2c3nc(c(-c4cccc(S(=O)(=O)[O-])c4F)c4ccc([nH]4)c(-c4cccc(S(=O)(=O)[O-])c4F)c4nc(c(-c5cccc(S(=O)(=O)[O-])c5F)c5ccc2[nH]5)C=C4)C=C3)cc1
REMARK SMILES IDX 5 1 4 2 3 3 1 4 2 5 31 7 32 8 93 9 33 10 92 11 34 12 35 13
REMARK SMILES IDX 36 14 86 15 37 16 91 17 85 18 87 19 38 20 90 21 84 22 83 23
REMARK SMILES IDX 39 25 71 26 51 27 70 28 52 29 55 30 69 31 88 32 53 33 54 34
REMARK SMILES IDX 68 36 89 37 56 38 40 39 41 40 49 41 42 42 44 43 50 44 43 45
REMARK SMILES IDX 45 46 46 47 47 48 48 49 72 50 73 51 81 52 74 53 76 54 82 55
REMARK SMILES IDX 75 56 77 57 78 58 79 59 80 60 57 61 58 62 66 63 59 64 61 65
REMARK SMILES IDX 67 66 60 67 62 68 63 69 64 70 65 71 6 72 7 73 8 74 9 76
REMARK SMILES IDX 10 77 11 78 15 79 12 80 14 81 13 82 16 83 17 84 18 85 19 87
REMARK SMILES IDX 20 88 30 89 21 90 22 91 23 92 24 93 29 94 25 95 27 96 26 97
REMARK SMILES IDX 28 98
REMARK H PARENT 3 6 87 24 55 35 7 75 18 86
REMARK Flexibility Score: inf
ROOT
ATOM      1  C   UNL A   1      37.189  20.390  24.737  1.00  0.00     0.042 C 
ENDROOT
BRANCH   1   2
ATOM      2  C   UNL A   1      38.261  21.154  25.508  1.00  0.00     0.118 C 
BRANCH   2   3
ATOM      3  N   UNL A   1      39.207  20.264  26.164  1.00  0.00    -0.352 N 
ATOM      4  O   UNL A   1      41.175  19.610  27.015  1.00  0.00    -0.269 OA
ATOM      5  C   UNL A   1      40.419  20.540  26.750  1.00  0.00     0.251 C 
ATOM      6  H   UNL A   1      38.937  19.318  26.192  1.00  0.00     0.163 HD
BRANCH   5   7
ATOM      7  C   UNL A   1      40.819  21.936  27.039  1.00  0.00     0.039 A 
ATOM      8  C   UNL A   1      41.573  22.252  28.172  1.00  0.00     0.014 A 
ATOM      9  C   UNL A   1      40.484  22.939  26.124  1.00  0.00     0.014 A 
ATOM     10  C   UNL A   1      41.880  23.580  28.456  1.00  0.00     0.010 A 
ATOM     11  C   UNL A   1      40.861  24.262  26.371  1.00  0.00     0.010 A 
ATOM     12  C   UNL A   1      41.540  24.599  27.553  1.00  0.00    -0.014 A 
BRANCH  12  13
ATOM     13  C   UNL A   1      41.972  25.995  27.812  1.00  0.00     0.031 A 
ATOM     14  C   UNL A   1      43.348  26.467  27.436  1.00  0.00     0.074 A 
ATOM     15  C   UNL A   1      41.122  26.831  28.439  1.00  0.00     0.049 A 
ATOM     16  N   UNL A   1      43.890  27.645  27.613  1.00  0.00    -0.248 NA
ATOM     17  C   UNL A   1      44.238  25.491  26.788  1.00  0.00     0.031 C 
ATOM     18  C   UNL A   1      39.783  26.469  28.909  1.00  0.00     0.029 A 
ATOM     19  N   UNL A   1      41.261  28.144  28.810  1.00  0.00    -0.354 N 
ATOM     20  C   UNL A   1      45.192  27.544  27.139  1.00  0.00     0.074 A 
ATOM     21  C   UNL A   1      45.363  26.184  26.672  1.00  0.00     0.031 C 
ATOM     22  C   UNL A   1      39.226  27.528  29.510  1.00  0.00     0.029 A 
ATOM     23  C   UNL A   1      40.179  28.633  29.504  1.00  0.00     0.049 A 
ATOM     24  H   UNL A   1      42.057  28.685  28.599  1.00  0.00     0.167 HD
ATOM     25  C   UNL A   1      46.149  28.501  27.082  1.00  0.00     0.034 A 
ATOM     26  C   UNL A   1      39.980  29.828  30.093  1.00  0.00     0.034 A 
ATOM     27  C   UNL A   1      45.959  29.862  27.509  1.00  0.00     0.049 A 
ATOM     28  C   UNL A   1      41.040  30.884  29.980  1.00  0.00     0.074 A 
ATOM     29  C   UNL A   1      46.835  30.928  27.400  1.00  0.00     0.029 A 
ATOM     30  N   UNL A   1      44.819  30.344  28.136  1.00  0.00    -0.354 N 
ATOM     31  N   UNL A   1      42.204  30.817  29.382  1.00  0.00    -0.248 NA
ATOM     32  C   UNL A   1      40.751  32.188  30.591  1.00  0.00     0.031 C 
ATOM     33  C   UNL A   1      46.231  32.051  27.979  1.00  0.00     0.029 A 
ATOM     34  C   UNL A   1      44.974  31.688  28.435  1.00  0.00     0.049 A 
ATOM     35  H   UNL A   1      44.018  29.810  28.339  1.00  0.00     0.167 HD
ATOM     36  C   UNL A   1      42.781  32.072  29.526  1.00  0.00     0.074 A 
ATOM     37  C   UNL A   1      41.826  32.888  30.250  1.00  0.00     0.031 C 
ATOM     38  C   UNL A   1      43.998  32.502  29.114  1.00  0.00     0.034 A 
BRANCH  25  39
ATOM     39  C   UNL A   1      47.483  28.122  26.493  1.00  0.00     0.023 A 
ATOM     40  C   UNL A   1      48.569  27.854  27.350  1.00  0.00     0.012 A 
ATOM     41  C   UNL A   1      47.649  27.978  25.101  1.00  0.00     0.148 A 
ATOM     42  C   UNL A   1      49.808  27.478  26.832  1.00  0.00     0.002 A 
ATOM     43  C   UNL A   1      48.879  27.567  24.595  1.00  0.00     0.091 A 
ATOM     44  F   UNL A   1      46.615  28.261  24.298  1.00  0.00    -0.205 F 
ATOM     45  C   UNL A   1      49.960  27.325  25.457  1.00  0.00     0.022 A 
BRANCH  43  46
ATOM     46  S   UNL A   1      49.137  27.279  22.840  1.00  0.00     0.127 S 
ATOM     47  O   UNL A   1      48.541  28.477  22.252  1.00  0.00    -0.237 OA
ATOM     48  O   UNL A   1      50.597  27.215  22.742  1.00  0.00    -0.237 OA
ATOM     49  O   UNL A   1      48.462  26.022  22.545  1.00  0.00    -0.744 OA
ENDBRANCH  43  46
ENDBRANCH  25  39
BRANCH  26  50
ATOM     50  C   UNL A   1      38.694  30.078  30.800  1.00  0.00     0.023 A 
ATOM     51  C   UNL A   1      38.524  29.612  32.116  1.00  0.00     0.012 A 
ATOM     52  C   UNL A   1      37.682  30.860  30.210  1.00  0.00     0.148 A 
ATOM     53  C   UNL A   1      37.363  29.913  32.830  1.00  0.00     0.002 A 
ATOM     54  C   UNL A   1      36.556  31.205  30.945  1.00  0.00     0.091 A 
ATOM     55  F   UNL A   1      37.860  31.282  28.949  1.00  0.00    -0.205 F 
ATOM     56  C   UNL A   1      36.388  30.722  32.251  1.00  0.00     0.022 A 
BRANCH  54  57
ATOM     57  S   UNL A   1      35.326  32.362  30.331  1.00  0.00     0.127 S 
ATOM     58  O   UNL A   1      34.376  32.406  31.441  1.00  0.00    -0.237 OA
ATOM     59  O   UNL A   1      36.116  33.580  30.150  1.00  0.00    -0.237 OA
ATOM     60  O   UNL A   1      34.827  31.784  29.092  1.00  0.00    -0.744 OA
ENDBRANCH  54  57
ENDBRANCH  26  50
BRANCH  38  61
ATOM     61  C   UNL A   1      44.377  33.926  29.422  1.00  0.00     0.023 A 
ATOM     62  C   UNL A   1      45.240  34.193  30.503  1.00  0.00     0.012 A 
ATOM     63  C   UNL A   1      43.953  34.984  28.595  1.00  0.00     0.148 A 
ATOM     64  C   UNL A   1      45.661  35.496  30.766  1.00  0.00     0.002 A 
ATOM     65  C   UNL A   1      44.410  36.274  28.838  1.00  0.00     0.091 A 
ATOM     66  F   UNL A   1      43.115  34.709  27.584  1.00  0.00    -0.205 F 
ATOM     67  C   UNL A   1      45.258  36.533  29.928  1.00  0.00     0.022 A 
BRANCH  65  68
ATOM     68  S   UNL A   1      44.013  37.656  27.761  1.00  0.00     0.127 S 
ATOM     69  O   UNL A   1      43.253  38.524  28.658  1.00  0.00    -0.237 OA
ATOM     70  O   UNL A   1      45.338  38.162  27.401  1.00  0.00    -0.237 OA
ATOM     71  O   UNL A   1      43.260  37.092  26.649  1.00  0.00    -0.744 OA
ENDBRANCH  65  68
ENDBRANCH  38  61
ENDBRANCH  12  13
ENDBRANCH   5   7
ENDBRANCH   2   3
ENDBRANCH   1   2
BRANCH   1  72
ATOM     72  C   UNL A   1      35.766  20.921  24.932  1.00  0.00     0.117 C 
BRANCH  72  73
ATOM     73  N   UNL A   1      35.659  22.364  24.746  1.00  0.00    -0.356 N 
ATOM     74  C   UNL A   1      35.199  22.867  23.560  1.00  0.00     0.224 C 
ATOM     75  H   UNL A   1      35.919  22.974  25.472  1.00  0.00     0.163 HD
ATOM     76  O   UNL A   1      36.022  23.114  22.680  1.00  0.00    -0.275 OA
BRANCH  74  77
ATOM     77  C   UNL A   1      33.701  23.094  23.371  1.00  0.00     0.095 C 
ATOM     78  C   UNL A   1      32.912  21.912  22.778  1.00  0.00     0.041 C 
ATOM     79  C   UNL A   1      32.970  23.701  24.606  1.00  0.00     0.095 C 
ATOM     80  C   UNL A   1      32.337  20.969  23.786  1.00  0.00    -0.030 C 
ATOM     81  C   UNL A   1      32.252  22.720  25.556  1.00  0.00     0.041 C 
ATOM     82  C   UNL A   1      32.041  21.337  25.036  1.00  0.00    -0.030 C 
BRANCH  79  83
ATOM     83  C   UNL A   1      33.713  24.782  25.403  1.00  0.00     0.224 C 
ATOM     84  O   UNL A   1      34.262  24.482  26.468  1.00  0.00    -0.275 OA
ATOM     85  N   UNL A   1      33.855  26.066  24.966  1.00  0.00    -0.351 N 
ATOM     86  H   UNL A   1      34.508  26.602  25.472  1.00  0.00     0.163 HD
BRANCH  85  87
ATOM     87  C   UNL A   1      33.199  26.778  23.871  1.00  0.00     0.103 C 
ATOM     88  C   UNL A   1      33.691  28.224  23.734  1.00  0.00     0.048 C 
ATOM     89  C   UNL A   1      31.663  26.879  24.055  1.00  0.00     0.141 C 
ATOM     90  C   UNL A   1      32.574  29.096  24.286  1.00  0.00     0.119 C 
ATOM     91  N   UNL A   1      31.382  28.310  24.052  1.00  0.00    -0.369 N 
BRANCH  91  92
ATOM     92  C   UNL A   1      30.160  28.787  23.652  1.00  0.00     0.038 A 
ATOM     93  C   UNL A   1      29.099  27.925  23.340  1.00  0.00     0.026 A 
ATOM     94  C   UNL A   1      29.911  30.165  23.599  1.00  0.00     0.046 A 
ATOM     95  C   UNL A   1      27.832  28.416  23.006  1.00  0.00     0.004 A 
ATOM     96  C   UNL A   1      28.655  30.658  23.240  1.00  0.00     0.043 A 
ATOM     97  C   UNL A   1      27.610  29.788  22.951  1.00  0.00     0.020 A 
ATOM     98  Cl  UNL A   1      28.399  32.359  23.159  1.00  0.00    -0.084 Cl
ENDBRANCH  91  92
ENDBRANCH  85  87
ENDBRANCH  79  83
ENDBRANCH  74  77
ENDBRANCH  72  73
ENDBRANCH   1  72
TORSDOF 16
ENDMDL
