MODEL 1
REMARK VINA RESULT:     -13.3      0.000      0.000
REMARK SMILES Nc1c(C(=O)NCCCNC(=O)c2ccc(-c3c4nc(c(-c5cccc(S(=O)(=O)[O-])c5F)c5ccc([nH]5)c(-c5cccc(S(=O)(=O)[O-])c5F)c5nc(c(-c6cccc(S(=O)(=O)[O-])c6F)c6ccc3[nH]6)C=C5)C=C4)cc2)cccc1-c1cc(F)c(F)c(F)c1
REMARK SMILES IDX 9 1 8 2 7 3 6 4 4 5 5 6 3 8 2 9 79 10 76 11 78 12 77 13 1 14
REMARK SMILES IDX 80 17 81 18 88 19 82 20 86 21 83 22 84 23 87 24 85 25 10 26
REMARK SMILES IDX 11 27 12 29 13 30 14 31 75 32 15 33 74 34 16 35 17 36 18 37
REMARK SMILES IDX 68 38 19 39 73 40 67 41 69 42 20 43 72 44 66 45 65 46 21 48
REMARK SMILES IDX 53 49 33 50 52 51 34 52 37 53 51 54 70 55 35 56 36 57 50 59
REMARK SMILES IDX 71 60 38 61 22 62 23 63 31 64 24 65 26 66 32 67 25 68 27 69
REMARK SMILES IDX 28 70 29 71 30 72 54 73 55 74 63 75 56 76 58 77 64 78 57 79
REMARK SMILES IDX 59 80 60 81 61 82 62 83 39 84 40 85 48 86 41 87 43 88 49 89
REMARK SMILES IDX 42 90 44 91 45 92 46 93 47 94
REMARK H PARENT 6 7 1 15 1 16 10 28 69 47 37 58
REMARK Flexibility Score: inf
ROOT
ATOM      1  C   UNL A   1      32.431  29.918  26.171  1.00  0.00     0.118 C 
ENDROOT
BRANCH   1   2
ATOM      2  C   UNL A   1      31.592  29.038  27.086  1.00  0.00     0.042 C 
BRANCH   2   3
ATOM      3  C   UNL A   1      31.739  27.544  26.856  1.00  0.00     0.118 C 
BRANCH   3   4
ATOM      4  N   UNL A   1      32.599  27.166  25.741  1.00  0.00    -0.352 N 
ATOM      5  C   UNL A   1      32.346  27.161  24.386  1.00  0.00     0.253 C 
ATOM      6  O   UNL A   1      33.248  26.825  23.619  1.00  0.00    -0.269 OA
ATOM      7  H   UNL A   1      33.501  26.868  25.996  1.00  0.00     0.163 HD
BRANCH   5   8
ATOM      8  C   UNL A   1      30.997  27.466  23.833  1.00  0.00     0.063 A 
ATOM      9  C   UNL A   1      30.711  28.591  23.025  1.00  0.00     0.052 A 
ATOM     10  C   UNL A   1      29.352  28.940  22.797  1.00  0.00     0.006 A 
ATOM     11  C   UNL A   1      29.973  26.587  24.219  1.00  0.00     0.016 A 
ATOM     12  C   UNL A   1      28.347  28.035  23.203  1.00  0.00     0.011 A 
ATOM     13  C   UNL A   1      28.655  26.853  23.874  1.00  0.00     0.002 A 
BRANCH   9  14
ATOM     14  N   UNL A   1      31.744  29.307  22.409  1.00  0.00    -0.398 N 
ATOM     15  H   UNL A   1      32.153  28.966  21.581  1.00  0.00     0.156 HD
ATOM     16  H   UNL A   1      32.063  30.150  22.806  1.00  0.00     0.156 HD
ENDBRANCH   9  14
BRANCH  10  17
ATOM     17  C   UNL A   1      28.947  30.260  22.254  1.00  0.00    -0.010 A 
ATOM     18  C   UNL A   1      28.333  30.334  20.986  1.00  0.00     0.051 A 
ATOM     19  C   UNL A   1      29.079  31.455  22.979  1.00  0.00     0.051 A 
ATOM     20  C   UNL A   1      27.847  31.543  20.490  1.00  0.00     0.162 A 
ATOM     21  C   UNL A   1      28.557  32.651  22.485  1.00  0.00     0.162 A 
ATOM     22  F   UNL A   1      27.279  31.571  19.278  1.00  0.00    -0.204 F 
ATOM     23  C   UNL A   1      27.941  32.700  21.245  1.00  0.00     0.194 A 
ATOM     24  F   UNL A   1      28.644  33.757  23.237  1.00  0.00    -0.204 F 
ATOM     25  F   UNL A   1      27.444  33.855  20.782  1.00  0.00    -0.200 F 
ENDBRANCH  10  17
ENDBRANCH   5   8
ENDBRANCH   3   4
ENDBRANCH   2   3
ENDBRANCH   1   2
BRANCH   1  26
ATOM     26  N   UNL A   1      32.425  31.335  26.522  1.00  0.00    -0.352 N 
ATOM     27  C   UNL A   1      33.303  32.106  27.251  1.00  0.00     0.251 C 
ATOM     28  H   UNL A   1      31.650  31.831  26.176  1.00  0.00     0.163 HD
ATOM     29  O   UNL A   1      33.012  33.280  27.479  1.00  0.00    -0.269 OA
BRANCH  27  30
ATOM     30  C   UNL A   1      34.560  31.544  27.799  1.00  0.00     0.039 A 
ATOM     31  C   UNL A   1      35.611  32.411  28.119  1.00  0.00     0.014 A 
ATOM     32  C   UNL A   1      34.720  30.176  28.002  1.00  0.00     0.014 A 
ATOM     33  C   UNL A   1      36.765  31.915  28.737  1.00  0.00     0.010 A 
ATOM     34  C   UNL A   1      35.805  29.704  28.734  1.00  0.00     0.010 A 
ATOM     35  C   UNL A   1      36.846  30.564  29.107  1.00  0.00    -0.014 A 
BRANCH  35  36
ATOM     36  C   UNL A   1      37.995  30.019  29.884  1.00  0.00     0.031 A 
ATOM     37  C   UNL A   1      38.236  30.471  31.303  1.00  0.00     0.074 A 
ATOM     38  C   UNL A   1      38.894  29.217  29.276  1.00  0.00     0.049 A 
ATOM     39  N   UNL A   1      39.248  30.213  32.091  1.00  0.00    -0.248 NA
ATOM     40  C   UNL A   1      37.231  31.367  31.900  1.00  0.00     0.031 C 
ATOM     41  C   UNL A   1      38.836  28.781  27.879  1.00  0.00     0.029 A 
ATOM     42  N   UNL A   1      40.052  28.649  29.748  1.00  0.00    -0.354 N 
ATOM     43  C   UNL A   1      39.030  30.958  33.245  1.00  0.00     0.074 A 
ATOM     44  C   UNL A   1      37.814  31.710  33.039  1.00  0.00     0.031 C 
ATOM     45  C   UNL A   1      39.902  28.009  27.611  1.00  0.00     0.029 A 
ATOM     46  C   UNL A   1      40.738  27.921  28.803  1.00  0.00     0.049 A 
ATOM     47  H   UNL A   1      40.363  28.753  30.677  1.00  0.00     0.167 HD
ATOM     48  C   UNL A   1      39.756  30.989  34.388  1.00  0.00     0.034 A 
ATOM     49  C   UNL A   1      41.912  27.264  28.881  1.00  0.00     0.034 A 
ATOM     50  C   UNL A   1      40.921  30.180  34.623  1.00  0.00     0.049 A 
ATOM     51  C   UNL A   1      42.655  27.246  30.189  1.00  0.00     0.074 A 
ATOM     52  C   UNL A   1      41.657  30.050  35.787  1.00  0.00     0.029 A 
ATOM     53  N   UNL A   1      41.516  29.360  33.678  1.00  0.00    -0.354 N 
ATOM     54  N   UNL A   1      42.343  27.828  31.322  1.00  0.00    -0.248 NA
ATOM     55  C   UNL A   1      43.890  26.451  30.243  1.00  0.00     0.031 C 
ATOM     56  C   UNL A   1      42.708  29.161  35.541  1.00  0.00     0.029 A 
ATOM     57  C   UNL A   1      42.613  28.722  34.229  1.00  0.00     0.049 A 
ATOM     58  H   UNL A   1      41.205  29.247  32.751  1.00  0.00     0.167 HD
ATOM     59  C   UNL A   1      43.322  27.442  32.230  1.00  0.00     0.074 A 
ATOM     60  C   UNL A   1      44.225  26.559  31.522  1.00  0.00     0.031 C 
ATOM     61  C   UNL A   1      43.469  27.800  33.530  1.00  0.00     0.034 A 
BRANCH  48  62
ATOM     62  C   UNL A   1      39.268  31.878  35.505  1.00  0.00     0.023 A 
ATOM     63  C   UNL A   1      38.337  31.376  36.437  1.00  0.00     0.012 A 
ATOM     64  C   UNL A   1      39.769  33.185  35.664  1.00  0.00     0.148 A 
ATOM     65  C   UNL A   1      37.879  32.172  37.485  1.00  0.00     0.002 A 
ATOM     66  C   UNL A   1      39.343  33.957  36.739  1.00  0.00     0.091 A 
ATOM     67  F   UNL A   1      40.638  33.654  34.758  1.00  0.00    -0.205 F 
ATOM     68  C   UNL A   1      38.390  33.458  37.643  1.00  0.00     0.022 A 
BRANCH  66  69
ATOM     69  S   UNL A   1      40.000  35.594  37.078  1.00  0.00     0.127 S 
ATOM     70  O   UNL A   1      39.312  35.937  38.322  1.00  0.00    -0.237 OA
ATOM     71  O   UNL A   1      41.431  35.327  37.227  1.00  0.00    -0.237 OA
ATOM     72  O   UNL A   1      39.654  36.412  35.925  1.00  0.00    -0.744 OA
ENDBRANCH  66  69
ENDBRANCH  48  62
BRANCH  49  73
ATOM     73  C   UNL A   1      42.418  26.501  27.704  1.00  0.00     0.023 A 
ATOM     74  C   UNL A   1      43.305  27.130  26.806  1.00  0.00     0.012 A 
ATOM     75  C   UNL A   1      42.060  25.158  27.485  1.00  0.00     0.148 A 
ATOM     76  C   UNL A   1      43.799  26.445  25.696  1.00  0.00     0.002 A 
ATOM     77  C   UNL A   1      42.599  24.465  26.406  1.00  0.00     0.091 A 
ATOM     78  F   UNL A   1      41.207  24.580  28.343  1.00  0.00    -0.205 F 
ATOM     79  C   UNL A   1      43.454  25.110  25.502  1.00  0.00     0.022 A 
BRANCH  77  80
ATOM     80  S   UNL A   1      42.315  22.708  26.153  1.00  0.00     0.127 S 
ATOM     81  O   UNL A   1      43.001  22.474  24.886  1.00  0.00    -0.237 OA
ATOM     82  O   UNL A   1      42.969  22.125  27.326  1.00  0.00    -0.237 OA
ATOM     83  O   UNL A   1      40.867  22.544  26.132  1.00  0.00    -0.744 OA
ENDBRANCH  77  80
ENDBRANCH  49  73
BRANCH  61  84
ATOM     84  C   UNL A   1      44.627  27.212  34.291  1.00  0.00     0.023 A 
ATOM     85  C   UNL A   1      45.837  27.926  34.385  1.00  0.00     0.012 A 
ATOM     86  C   UNL A   1      44.486  25.993  34.984  1.00  0.00     0.148 A 
ATOM     87  C   UNL A   1      46.902  27.421  35.131  1.00  0.00     0.002 A 
ATOM     88  C   UNL A   1      45.533  25.520  35.766  1.00  0.00     0.091 A 
ATOM     89  F   UNL A   1      43.332  25.320  34.867  1.00  0.00    -0.205 F 
ATOM     90  C   UNL A   1      46.745  26.226  35.831  1.00  0.00     0.022 A 
BRANCH  88  91
ATOM     91  S   UNL A   1      45.385  24.043  36.777  1.00  0.00     0.127 S 
ATOM     92  O   UNL A   1      44.521  24.510  37.862  1.00  0.00    -0.237 OA
ATOM     93  O   UNL A   1      44.750  23.098  35.858  1.00  0.00    -0.237 OA
ATOM     94  O   UNL A   1      46.742  23.686  37.167  1.00  0.00    -0.744 OA
ENDBRANCH  88  91
ENDBRANCH  61  84
ENDBRANCH  35  36
ENDBRANCH  27  30
ENDBRANCH   1  26
TORSDOF 15
ENDMDL
MODEL 2
REMARK VINA RESULT:     -13.2      1.453      7.748
REMARK SMILES Nc1c(C(=O)NCCCNC(=O)c2ccc(-c3c4nc(c(-c5cccc(S(=O)(=O)[O-])c5F)c5ccc([nH]5)c(-c5cccc(S(=O)(=O)[O-])c5F)c5nc(c(-c6cccc(S(=O)(=O)[O-])c6F)c6ccc3[nH]6)C=C5)C=C4)cc2)cccc1-c1cc(F)c(F)c(F)c1
REMARK SMILES IDX 9 1 8 2 7 3 6 4 4 5 5 6 3 8 2 9 79 10 76 11 78 12 77 13 1 14
REMARK SMILES IDX 80 17 81 18 88 19 82 20 86 21 83 22 84 23 87 24 85 25 10 26
REMARK SMILES IDX 11 27 12 29 13 30 14 31 75 32 15 33 74 34 16 35 17 36 18 37
REMARK SMILES IDX 68 38 19 39 73 40 67 41 69 42 20 43 72 44 66 45 65 46 21 48
REMARK SMILES IDX 53 49 33 50 52 51 34 52 37 53 51 54 70 55 35 56 36 57 50 59
REMARK SMILES IDX 71 60 38 61 22 62 23 63 31 64 24 65 26 66 32 67 25 68 27 69
REMARK SMILES IDX 28 70 29 71 30 72 54 73 55 74 63 75 56 76 58 77 64 78 57 79
REMARK SMILES IDX 59 80 60 81 61 82 62 83 39 84 40 85 48 86 41 87 43 88 49 89
REMARK SMILES IDX 42 90 44 91 45 92 46 93 47 94
REMARK H PARENT 6 7 1 15 1 16 10 28 69 47 37 58
REMARK Flexibility Score: inf
ROOT
ATOM      1  C   UNL A   1      32.258  30.065  26.185  1.00  0.00     0.118 C 
ENDROOT
BRANCH   1   2
ATOM      2  C   UNL A   1      31.712  29.092  27.219  1.00  0.00     0.042 C 
BRANCH   2   3
ATOM      3  C   UNL A   1      31.880  27.624  26.875  1.00  0.00     0.118 C 
BRANCH   3   4
ATOM      4  N   UNL A   1      32.768  27.344  25.752  1.00  0.00    -0.352 N 
ATOM      5  C   UNL A   1      32.510  27.330  24.397  1.00  0.00     0.253 C 
ATOM      6  O   UNL A   1      33.437  27.092  23.624  1.00  0.00    -0.269 OA
ATOM      7  H   UNL A   1      33.696  27.131  26.000  1.00  0.00     0.163 HD
BRANCH   5   8
ATOM      8  C   UNL A   1      31.136  27.511  23.853  1.00  0.00     0.063 A 
ATOM      9  C   UNL A   1      30.735  28.622  23.076  1.00  0.00     0.052 A 
ATOM     10  C   UNL A   1      29.347  28.836  22.857  1.00  0.00     0.006 A 
ATOM     11  C   UNL A   1      30.208  26.522  24.215  1.00  0.00     0.016 A 
ATOM     12  C   UNL A   1      28.440  27.823  23.238  1.00  0.00     0.011 A 
ATOM     13  C   UNL A   1      28.869  26.661  23.878  1.00  0.00     0.002 A 
BRANCH   9  14
ATOM     14  N   UNL A   1      31.688  29.456  22.479  1.00  0.00    -0.398 N 
ATOM     15  H   UNL A   1      32.130  30.157  23.011  1.00  0.00     0.156 HD
ATOM     16  H   UNL A   1      31.915  29.341  21.528  1.00  0.00     0.156 HD
ENDBRANCH   9  14
BRANCH  10  17
ATOM     17  C   UNL A   1      28.807  30.122  22.349  1.00  0.00    -0.010 A 
ATOM     18  C   UNL A   1      28.984  31.300  23.104  1.00  0.00     0.051 A 
ATOM     19  C   UNL A   1      28.179  30.243  21.098  1.00  0.00     0.051 A 
ATOM     20  C   UNL A   1      28.580  32.540  22.609  1.00  0.00     0.162 A 
ATOM     21  C   UNL A   1      27.814  31.494  20.601  1.00  0.00     0.162 A 
ATOM     22  F   UNL A   1      28.759  33.633  23.362  1.00  0.00    -0.204 F 
ATOM     23  C   UNL A   1      28.012  32.643  21.351  1.00  0.00     0.194 A 
ATOM     24  F   UNL A   1      27.278  31.575  19.376  1.00  0.00    -0.204 F 
ATOM     25  F   UNL A   1      27.655  33.838  20.863  1.00  0.00    -0.200 F 
ENDBRANCH  10  17
ENDBRANCH   5   8
ENDBRANCH   3   4
ENDBRANCH   2   3
ENDBRANCH   1   2
BRANCH   1  26
ATOM     26  N   UNL A   1      32.127  31.473  26.549  1.00  0.00    -0.352 N 
ATOM     27  C   UNL A   1      32.940  32.316  27.274  1.00  0.00     0.251 C 
ATOM     28  H   UNL A   1      31.304  31.898  26.217  1.00  0.00     0.163 HD
ATOM     29  O   UNL A   1      32.544  33.456  27.516  1.00  0.00    -0.269 OA
BRANCH  27  30
ATOM     30  C   UNL A   1      34.250  31.868  27.800  1.00  0.00     0.039 A 
ATOM     31  C   UNL A   1      35.264  32.813  27.995  1.00  0.00     0.014 A 
ATOM     32  C   UNL A   1      34.496  30.532  28.105  1.00  0.00     0.014 A 
ATOM     33  C   UNL A   1      36.472  32.431  28.592  1.00  0.00     0.010 A 
ATOM     34  C   UNL A   1      35.638  30.181  28.817  1.00  0.00     0.010 A 
ATOM     35  C   UNL A   1      36.646  31.122  29.066  1.00  0.00    -0.014 A 
BRANCH  35  36
ATOM     36  C   UNL A   1      37.859  30.704  29.825  1.00  0.00     0.031 A 
ATOM     37  C   UNL A   1      38.838  29.731  29.216  1.00  0.00     0.074 A 
ATOM     38  C   UNL A   1      38.016  31.098  31.105  1.00  0.00     0.049 A 
ATOM     39  N   UNL A   1      39.875  29.152  29.764  1.00  0.00    -0.248 NA
ATOM     40  C   UNL A   1      38.596  29.321  27.822  1.00  0.00     0.031 C 
ATOM     41  C   UNL A   1      37.093  31.959  31.849  1.00  0.00     0.029 A 
ATOM     42  N   UNL A   1      38.995  30.799  32.021  1.00  0.00    -0.354 N 
ATOM     43  C   UNL A   1      40.368  28.270  28.809  1.00  0.00     0.074 A 
ATOM     44  C   UNL A   1      39.493  28.360  27.662  1.00  0.00     0.031 C 
ATOM     45  C   UNL A   1      37.553  32.126  33.100  1.00  0.00     0.029 A 
ATOM     46  C   UNL A   1      38.784  31.359  33.261  1.00  0.00     0.049 A 
ATOM     47  H   UNL A   1      39.775  30.237  31.810  1.00  0.00     0.167 HD
ATOM     48  C   UNL A   1      41.468  27.482  28.863  1.00  0.00     0.034 A 
ATOM     49  C   UNL A   1      39.494  31.261  34.403  1.00  0.00     0.034 A 
ATOM     50  C   UNL A   1      42.381  27.454  29.973  1.00  0.00     0.049 A 
ATOM     51  C   UNL A   1      40.758  30.445  34.410  1.00  0.00     0.074 A 
ATOM     52  C   UNL A   1      43.585  26.780  30.077  1.00  0.00     0.029 A 
ATOM     53  N   UNL A   1      42.195  28.132  31.166  1.00  0.00    -0.354 N 
ATOM     54  N   UNL A   1      41.295  29.748  33.438  1.00  0.00    -0.248 NA
ATOM     55  C   UNL A   1      41.536  30.433  35.657  1.00  0.00     0.031 C 
ATOM     56  C   UNL A   1      44.121  27.040  31.343  1.00  0.00     0.029 A 
ATOM     57  C   UNL A   1      43.260  27.892  32.017  1.00  0.00     0.049 A 
ATOM     58  H   UNL A   1      41.420  28.700  31.378  1.00  0.00     0.167 HD
ATOM     59  C   UNL A   1      42.487  29.244  33.944  1.00  0.00     0.074 A 
ATOM     60  C   UNL A   1      42.605  29.734  35.301  1.00  0.00     0.031 C 
ATOM     61  C   UNL A   1      43.394  28.434  33.344  1.00  0.00     0.034 A 
BRANCH  48  62
ATOM     62  C   UNL A   1      41.784  26.635  27.656  1.00  0.00     0.023 A 
ATOM     63  C   UNL A   1      42.389  27.230  26.529  1.00  0.00     0.012 A 
ATOM     64  C   UNL A   1      41.536  25.249  27.655  1.00  0.00     0.148 A 
ATOM     65  C   UNL A   1      42.704  26.468  25.405  1.00  0.00     0.002 A 
ATOM     66  C   UNL A   1      41.896  24.488  26.548  1.00  0.00     0.091 A 
ATOM     67  F   UNL A   1      40.942  24.703  28.725  1.00  0.00    -0.205 F 
ATOM     68  C   UNL A   1      42.468  25.097  25.419  1.00  0.00     0.022 A 
BRANCH  66  69
ATOM     69  S   UNL A   1      41.709  22.702  26.499  1.00  0.00     0.127 S 
ATOM     70  O   UNL A   1      42.382  22.300  27.733  1.00  0.00    -0.237 OA
ATOM     71  O   UNL A   1      40.254  22.543  26.520  1.00  0.00    -0.237 OA
ATOM     72  O   UNL A   1      42.348  22.265  25.266  1.00  0.00    -0.744 OA
ENDBRANCH  66  69
ENDBRANCH  48  62
BRANCH  49  73
ATOM     73  C   UNL A   1      39.066  32.019  35.613  1.00  0.00     0.023 A 
ATOM     74  C   UNL A   1      39.366  33.393  35.706  1.00  0.00     0.012 A 
ATOM     75  C   UNL A   1      38.339  31.405  36.650  1.00  0.00     0.148 A 
ATOM     76  C   UNL A   1      38.979  34.133  36.823  1.00  0.00     0.002 A 
ATOM     77  C   UNL A   1      37.909  32.161  37.736  1.00  0.00     0.091 A 
ATOM     78  F   UNL A   1      38.072  30.095  36.550  1.00  0.00    -0.205 F 
ATOM     79  C   UNL A   1      38.242  33.520  37.833  1.00  0.00     0.022 A 
BRANCH  77  80
ATOM     80  S   UNL A   1      36.843  31.486  39.016  1.00  0.00     0.127 S 
ATOM     81  O   UNL A   1      37.635  31.721  40.219  1.00  0.00    -0.237 OA
ATOM     82  O   UNL A   1      35.650  32.324  38.888  1.00  0.00    -0.237 OA
ATOM     83  O   UNL A   1      36.635  30.089  38.655  1.00  0.00    -0.744 OA
ENDBRANCH  77  80
ENDBRANCH  49  73
BRANCH  61  84
ATOM     84  C   UNL A   1      44.618  28.050  34.131  1.00  0.00     0.023 A 
ATOM     85  C   UNL A   1      45.757  28.878  34.102  1.00  0.00     0.012 A 
ATOM     86  C   UNL A   1      44.609  26.914  34.965  1.00  0.00     0.148 A 
ATOM     87  C   UNL A   1      46.880  28.565  34.867  1.00  0.00     0.002 A 
ATOM     88  C   UNL A   1      45.712  26.636  35.762  1.00  0.00     0.091 A 
ATOM     89  F   UNL A   1      43.521  26.129  34.964  1.00  0.00    -0.205 F 
ATOM     90  C   UNL A   1      46.853  27.453  35.706  1.00  0.00     0.022 A 
BRANCH  88  91
ATOM     91  S   UNL A   1      45.726  25.282  36.944  1.00  0.00     0.127 S 
ATOM     92  O   UNL A   1      45.574  24.121  36.068  1.00  0.00    -0.237 OA
ATOM     93  O   UNL A   1      47.049  25.416  37.555  1.00  0.00    -0.237 OA
ATOM     94  O   UNL A   1      44.615  25.531  37.852  1.00  0.00    -0.744 OA
ENDBRANCH  88  91
ENDBRANCH  61  84
ENDBRANCH  35  36
ENDBRANCH  27  30
ENDBRANCH   1  26
TORSDOF 15
ENDMDL
MODEL 3
REMARK VINA RESULT:     -12.9      6.366     11.538
REMARK SMILES Nc1c(C(=O)NCCCNC(=O)c2ccc(-c3c4nc(c(-c5cccc(S(=O)(=O)[O-])c5F)c5ccc([nH]5)c(-c5cccc(S(=O)(=O)[O-])c5F)c5nc(c(-c6cccc(S(=O)(=O)[O-])c6F)c6ccc3[nH]6)C=C5)C=C4)cc2)cccc1-c1cc(F)c(F)c(F)c1
REMARK SMILES IDX 9 1 8 2 7 3 6 4 4 5 5 6 3 8 2 9 79 10 76 11 78 12 77 13 1 14
REMARK SMILES IDX 80 17 81 18 88 19 82 20 86 21 83 22 84 23 87 24 85 25 10 26
REMARK SMILES IDX 11 27 12 29 13 30 14 31 75 32 15 33 74 34 16 35 17 36 18 37
REMARK SMILES IDX 68 38 19 39 73 40 67 41 69 42 20 43 72 44 66 45 65 46 21 48
REMARK SMILES IDX 53 49 33 50 52 51 34 52 37 53 51 54 70 55 35 56 36 57 50 59
REMARK SMILES IDX 71 60 38 61 22 62 23 63 31 64 24 65 26 66 32 67 25 68 27 69
REMARK SMILES IDX 28 70 29 71 30 72 54 73 55 74 63 75 56 76 58 77 64 78 57 79
REMARK SMILES IDX 59 80 60 81 61 82 62 83 39 84 40 85 48 86 41 87 43 88 49 89
REMARK SMILES IDX 42 90 44 91 45 92 46 93 47 94
REMARK H PARENT 6 7 1 15 1 16 10 28 69 47 37 58
REMARK Flexibility Score: inf
ROOT
ATOM      1  C   UNL A   1      36.841  21.548  25.439  1.00  0.00     0.118 C 
ENDROOT
BRANCH   1   2
ATOM      2  C   UNL A   1      36.636  21.970  23.992  1.00  0.00     0.042 C 
BRANCH   2   3
ATOM      3  C   UNL A   1      35.869  23.266  23.800  1.00  0.00     0.118 C 
BRANCH   3   4
ATOM      4  N   UNL A   1      34.996  23.643  24.905  1.00  0.00    -0.352 N 
ATOM      5  C   UNL A   1      33.837  23.054  25.363  1.00  0.00     0.253 C 
ATOM      6  O   UNL A   1      33.277  23.539  26.346  1.00  0.00    -0.269 OA
ATOM      7  H   UNL A   1      35.279  24.444  25.402  1.00  0.00     0.163 HD
BRANCH   5   8
ATOM      8  C   UNL A   1      33.201  21.907  24.657  1.00  0.00     0.063 A 
ATOM      9  C   UNL A   1      33.191  20.582  25.152  1.00  0.00     0.052 A 
ATOM     10  C   UNL A   1      32.819  19.528  24.274  1.00  0.00     0.006 A 
ATOM     11  C   UNL A   1      32.649  22.203  23.401  1.00  0.00     0.016 A 
ATOM     12  C   UNL A   1      32.271  19.862  23.015  1.00  0.00     0.011 A 
ATOM     13  C   UNL A   1      32.153  21.186  22.597  1.00  0.00     0.002 A 
BRANCH   9  14
ATOM     14  N   UNL A   1      33.478  20.322  26.497  1.00  0.00    -0.398 N 
ATOM     15  H   UNL A   1      34.344  20.597  26.877  1.00  0.00     0.156 HD
ATOM     16  H   UNL A   1      32.815  19.864  27.062  1.00  0.00     0.156 HD
ENDBRANCH   9  14
BRANCH  10  17
ATOM     17  C   UNL A   1      33.085  18.101  24.581  1.00  0.00    -0.010 A 
ATOM     18  C   UNL A   1      34.414  17.629  24.608  1.00  0.00     0.051 A 
ATOM     19  C   UNL A   1      32.069  17.194  24.922  1.00  0.00     0.051 A 
ATOM     20  C   UNL A   1      34.706  16.321  24.992  1.00  0.00     0.162 A 
ATOM     21  C   UNL A   1      32.379  15.899  25.339  1.00  0.00     0.162 A 
ATOM     22  F   UNL A   1      35.981  15.910  24.996  1.00  0.00    -0.204 F 
ATOM     23  C   UNL A   1      33.693  15.459  25.376  1.00  0.00     0.194 A 
ATOM     24  F   UNL A   1      31.387  15.084  25.721  1.00  0.00    -0.204 F 
ATOM     25  F   UNL A   1      33.977  14.213  25.777  1.00  0.00    -0.200 F 
ENDBRANCH  10  17
ENDBRANCH   5   8
ENDBRANCH   3   4
ENDBRANCH   2   3
ENDBRANCH   1   2
BRANCH   1  26
ATOM     26  N   UNL A   1      37.975  20.654  25.654  1.00  0.00    -0.352 N 
ATOM     27  C   UNL A   1      39.249  20.879  26.127  1.00  0.00     0.251 C 
ATOM     28  H   UNL A   1      37.797  19.717  25.414  1.00  0.00     0.163 HD
ATOM     29  O   UNL A   1      40.055  19.949  26.124  1.00  0.00    -0.269 OA
BRANCH  27  30
ATOM     30  C   UNL A   1      39.678  22.218  26.594  1.00  0.00     0.039 A 
ATOM     31  C   UNL A   1      40.734  22.315  27.506  1.00  0.00     0.014 A 
ATOM     32  C   UNL A   1      39.055  23.381  26.148  1.00  0.00     0.014 A 
ATOM     33  C   UNL A   1      41.227  23.572  27.878  1.00  0.00     0.010 A 
ATOM     34  C   UNL A   1      39.627  24.621  26.412  1.00  0.00     0.010 A 
ATOM     35  C   UNL A   1      40.717  24.736  27.285  1.00  0.00    -0.014 A 
BRANCH  35  36
ATOM     36  C   UNL A   1      41.297  26.083  27.549  1.00  0.00     0.031 A 
ATOM     37  C   UNL A   1      42.704  26.404  27.112  1.00  0.00     0.074 A 
ATOM     38  C   UNL A   1      40.608  26.975  28.292  1.00  0.00     0.049 A 
ATOM     39  N   UNL A   1      43.426  27.466  27.363  1.00  0.00    -0.248 NA
ATOM     40  C   UNL A   1      43.411  25.378  26.326  1.00  0.00     0.031 C 
ATOM     41  C   UNL A   1      39.277  26.758  28.863  1.00  0.00     0.029 A 
ATOM     42  N   UNL A   1      40.947  28.235  28.722  1.00  0.00    -0.354 N 
ATOM     43  C   UNL A   1      44.681  27.211  26.821  1.00  0.00     0.074 A 
ATOM     44  C   UNL A   1      44.636  25.878  26.264  1.00  0.00     0.031 C 
ATOM     45  C   UNL A   1      38.910  27.847  29.557  1.00  0.00     0.029 A 
ATOM     46  C   UNL A   1      39.988  28.827  29.513  1.00  0.00     0.049 A 
ATOM     47  H   UNL A   1      41.796  28.674  28.486  1.00  0.00     0.167 HD
ATOM     48  C   UNL A   1      45.763  28.022  26.759  1.00  0.00     0.034 A 
ATOM     49  C   UNL A   1      39.980  30.020  30.140  1.00  0.00     0.034 A 
ATOM     50  C   UNL A   1      45.780  29.376  27.242  1.00  0.00     0.049 A 
ATOM     51  C   UNL A   1      41.163  30.937  29.984  1.00  0.00     0.074 A 
ATOM     52  C   UNL A   1      46.786  30.318  27.121  1.00  0.00     0.029 A 
ATOM     53  N   UNL A   1      44.743  29.982  27.931  1.00  0.00    -0.354 N 
ATOM     54  N   UNL A   1      42.280  30.737  29.325  1.00  0.00    -0.248 NA
ATOM     55  C   UNL A   1      41.072  32.257  30.624  1.00  0.00     0.031 C 
ATOM     56  C   UNL A   1      46.362  31.492  27.752  1.00  0.00     0.029 A 
ATOM     57  C   UNL A   1      45.083  31.286  28.247  1.00  0.00     0.049 A 
ATOM     58  H   UNL A   1      43.890  29.550  28.163  1.00  0.00     0.167 HD
ATOM     59  C   UNL A   1      43.007  31.916  29.442  1.00  0.00     0.074 A 
ATOM     60  C   UNL A   1      42.195  32.832  30.216  1.00  0.00     0.031 C 
ATOM     61  C   UNL A   1      44.242  32.207  28.966  1.00  0.00     0.034 A 
BRANCH  48  62
ATOM     62  C   UNL A   1      47.001  27.490  26.082  1.00  0.00     0.023 A 
ATOM     63  C   UNL A   1      47.187  27.710  24.702  1.00  0.00     0.012 A 
ATOM     64  C   UNL A   1      48.001  26.823  26.816  1.00  0.00     0.148 A 
ATOM     65  C   UNL A   1      48.328  27.240  24.053  1.00  0.00     0.002 A 
ATOM     66  C   UNL A   1      49.158  26.398  26.171  1.00  0.00     0.091 A 
ATOM     67  F   UNL A   1      47.800  26.604  28.123  1.00  0.00    -0.205 F 
ATOM     68  C   UNL A   1      49.317  26.594  24.789  1.00  0.00     0.022 A 
BRANCH  66  69
ATOM     69  S   UNL A   1      50.528  25.630  27.044  1.00  0.00     0.127 S 
ATOM     70  O   UNL A   1      49.884  24.453  27.626  1.00  0.00    -0.237 OA
ATOM     71  O   UNL A   1      51.461  25.337  25.956  1.00  0.00    -0.237 OA
ATOM     72  O   UNL A   1      51.001  26.621  27.999  1.00  0.00    -0.744 OA
ENDBRANCH  66  69
ENDBRANCH  48  62
BRANCH  49  73
ATOM     73  C   UNL A   1      38.777  30.449  30.908  1.00  0.00     0.023 A 
ATOM     74  C   UNL A   1      38.717  30.194  32.292  1.00  0.00     0.012 A 
ATOM     75  C   UNL A   1      37.712  31.134  30.291  1.00  0.00     0.148 A 
ATOM     76  C   UNL A   1      37.607  30.583  33.042  1.00  0.00     0.002 A 
ATOM     77  C   UNL A   1      36.634  31.568  31.055  1.00  0.00     0.091 A 
ATOM     78  F   UNL A   1      37.782  31.359  28.971  1.00  0.00    -0.205 F 
ATOM     79  C   UNL A   1      36.571  31.278  32.426  1.00  0.00     0.022 A 
BRANCH  77  80
ATOM     80  S   UNL A   1      35.319  32.584  30.371  1.00  0.00     0.127 S 
ATOM     81  O   UNL A   1      34.411  32.704  31.508  1.00  0.00    -0.237 OA
ATOM     82  O   UNL A   1      36.036  33.812  30.022  1.00  0.00    -0.237 OA
ATOM     83  O   UNL A   1      34.807  31.844  29.225  1.00  0.00    -0.744 OA
ENDBRANCH  77  80
ENDBRANCH  49  73
BRANCH  61  84
ATOM     84  C   UNL A   1      44.788  33.585  29.230  1.00  0.00     0.023 A 
ATOM     85  C   UNL A   1      45.496  33.841  30.420  1.00  0.00     0.012 A 
ATOM     86  C   UNL A   1      44.671  34.602  28.261  1.00  0.00     0.148 A 
ATOM     87  C   UNL A   1      46.055  35.097  30.656  1.00  0.00     0.002 A 
ATOM     88  C   UNL A   1      45.272  35.835  28.481  1.00  0.00     0.091 A 
ATOM     89  F   UNL A   1      43.977  34.343  27.143  1.00  0.00    -0.205 F 
ATOM     90  C   UNL A   1      45.954  36.088  29.682  1.00  0.00     0.022 A 
BRANCH  88  91
ATOM     91  S   UNL A   1      45.277  37.135  27.242  1.00  0.00     0.127 S 
ATOM     92  O   UNL A   1      46.027  36.507  26.154  1.00  0.00    -0.237 OA
ATOM     93  O   UNL A   1      43.850  37.315  26.973  1.00  0.00    -0.237 OA
ATOM     94  O   UNL A   1      45.921  38.282  27.866  1.00  0.00    -0.744 OA
ENDBRANCH  88  91
ENDBRANCH  61  84
ENDBRANCH  35  36
ENDBRANCH  27  30
ENDBRANCH   1  26
TORSDOF 15
ENDMDL
