MODEL 1
REMARK VINA RESULT:     -12.7      0.000      0.000
REMARK SMILES CSc1ccc(/C=C2\C(C)=C(CC(=O)NCCCNC(=O)c3ccc(-c4c5nc(c(-c6cccc(S(=O)(=O)[O-])c6F)c6ccc([nH]6)c(-c6cccc(S(=O)(=O)[O-])c6F)c6nc(c(-c7cccc(S(=O)(=O)[O-])c7F)c7ccc4[nH]7)C=C6)C=C5)cc3)c3cc(F)ccc32)cc1
REMARK SMILES IDX 17 1 16 2 15 3 13 4 14 5 12 7 11 8 7 9 8 10 9 11 91 12 10 13
REMARK SMILES IDX 85 14 90 15 86 16 89 17 87 18 88 19 6 20 3 21 4 22 93 23
REMARK SMILES IDX 5 24 92 25 2 26 1 27 18 28 19 29 20 30 21 32 22 33 23 34
REMARK SMILES IDX 84 35 24 36 83 37 25 38 26 39 27 40 77 41 28 42 82 43 76 44
REMARK SMILES IDX 78 45 29 46 81 47 75 48 74 49 30 51 62 52 42 53 61 54 43 55
REMARK SMILES IDX 46 56 60 57 79 58 44 59 45 60 59 62 80 63 47 64 31 65 32 66
REMARK SMILES IDX 40 67 33 68 35 69 41 70 34 71 36 72 37 73 38 74 39 75 63 76
REMARK SMILES IDX 64 77 72 78 65 79 67 80 73 81 66 82 68 83 69 84 70 85 71 86
REMARK SMILES IDX 48 87 49 88 57 89 50 90 52 91 58 92 51 93 53 94 54 95 55 96
REMARK SMILES IDX 56 97
REMARK H PARENT 15 6 19 31 78 50 46 61
REMARK Flexibility Score: inf
ROOT
ATOM      1  C   UNL A   1      32.603  27.885  26.502  1.00  0.00     0.042 C 
ENDROOT
BRANCH   1   2
ATOM      2  C   UNL A   1      32.870  26.391  26.633  1.00  0.00     0.117 C 
BRANCH   2   3
ATOM      3  N   UNL A   1      31.646  25.618  26.752  1.00  0.00    -0.356 N 
ATOM      4  C   UNL A   1      31.480  24.264  26.781  1.00  0.00     0.224 C 
ATOM      5  O   UNL A   1      30.333  23.812  26.779  1.00  0.00    -0.275 OA
ATOM      6  H   UNL A   1      30.819  26.147  26.822  1.00  0.00     0.163 HD
BRANCH   4   7
ATOM      7  C   UNL A   1      32.691  23.353  26.840  1.00  0.00     0.136 C 
BRANCH   7   8
ATOM      8  C   UNL A   1      32.991  22.742  25.485  1.00  0.00    -0.027 C 
ATOM      9  C   UNL A   1      34.181  25.459  23.656  1.00  0.00     0.017 C 
ATOM     10  C   UNL A   1      34.007  24.216  24.126  1.00  0.00    -0.014 C 
ATOM     11  C   UNL A   1      32.765  23.446  24.337  1.00  0.00    -0.039 C 
ATOM     12  C   UNL A   1      35.080  23.303  24.550  1.00  0.00    -0.010 A 
ATOM     13  C   UNL A   1      32.429  22.628  23.077  1.00  0.00     0.045 C 
ATOM     14  C   UNL A   1      34.413  22.334  25.324  1.00  0.00    -0.011 A 
ATOM     15  C   UNL A   1      36.316  23.053  23.978  1.00  0.00     0.012 A 
ATOM     16  C   UNL A   1      34.958  21.080  25.534  1.00  0.00     0.048 A 
ATOM     17  C   UNL A   1      36.865  21.782  24.170  1.00  0.00     0.040 A 
ATOM     18  C   UNL A   1      36.184  20.816  24.932  1.00  0.00     0.123 A 
ATOM     19  F   UNL A   1      36.689  19.577  25.001  1.00  0.00    -0.207 F 
BRANCH   9  20
ATOM     20  C   UNL A   1      33.242  26.349  22.935  1.00  0.00    -0.025 A 
ATOM     21  C   UNL A   1      31.332  28.379  22.897  1.00  0.00     0.007 A 
ATOM     22  C   UNL A   1      32.651  28.671  22.571  1.00  0.00     0.015 A 
ATOM     23  C   UNL A   1      30.921  27.051  22.986  1.00  0.00     0.015 A 
ATOM     24  C   UNL A   1      33.595  27.648  22.562  1.00  0.00     0.009 A 
ATOM     25  C   UNL A   1      31.878  26.032  23.004  1.00  0.00     0.009 A 
BRANCH  21  26
ATOM     26  S   UNL A   1      30.277  29.675  23.511  1.00  0.00    -0.130 SA
ATOM     27  C   UNL A   1      29.255  29.856  22.001  1.00  0.00     0.091 C 
ENDBRANCH  21  26
ENDBRANCH   9  20
ENDBRANCH   7   8
ENDBRANCH   4   7
ENDBRANCH   2   3
ENDBRANCH   1   2
BRANCH   1  28
ATOM     28  C   UNL A   1      33.819  28.719  26.133  1.00  0.00     0.118 C 
BRANCH  28  29
ATOM     29  N   UNL A   1      33.678  30.100  26.555  1.00  0.00    -0.352 N 
ATOM     30  C   UNL A   1      34.376  30.807  27.500  1.00  0.00     0.251 C 
ATOM     31  H   UNL A   1      32.973  30.607  26.091  1.00  0.00     0.163 HD
ATOM     32  O   UNL A   1      33.923  31.877  27.900  1.00  0.00    -0.269 OA
BRANCH  30  33
ATOM     33  C   UNL A   1      35.658  30.297  28.041  1.00  0.00     0.039 A 
ATOM     34  C   UNL A   1      36.808  30.398  27.251  1.00  0.00     0.014 A 
ATOM     35  C   UNL A   1      35.722  29.661  29.283  1.00  0.00     0.014 A 
ATOM     36  C   UNL A   1      38.023  29.889  27.721  1.00  0.00     0.010 A 
ATOM     37  C   UNL A   1      36.948  29.230  29.784  1.00  0.00     0.010 A 
ATOM     38  C   UNL A   1      38.105  29.315  28.998  1.00  0.00    -0.014 A 
BRANCH  38  39
ATOM     39  C   UNL A   1      39.384  28.771  29.522  1.00  0.00     0.031 A 
ATOM     40  C   UNL A   1      40.091  29.461  30.657  1.00  0.00     0.074 A 
ATOM     41  C   UNL A   1      39.959  27.716  28.911  1.00  0.00     0.049 A 
ATOM     42  N   UNL A   1      41.246  29.179  31.204  1.00  0.00    -0.248 NA
ATOM     43  C   UNL A   1      39.433  30.647  31.231  1.00  0.00     0.031 C 
ATOM     44  C   UNL A   1      39.421  27.023  27.738  1.00  0.00     0.029 A 
ATOM     45  N   UNL A   1      41.141  27.068  29.168  1.00  0.00    -0.354 N 
ATOM     46  C   UNL A   1      41.474  30.175  32.145  1.00  0.00     0.074 A 
ATOM     47  C   UNL A   1      40.353  31.086  32.078  1.00  0.00     0.031 C 
ATOM     48  C   UNL A   1      40.275  26.055  27.371  1.00  0.00     0.029 A 
ATOM     49  C   UNL A   1      41.427  26.067  28.269  1.00  0.00     0.049 A 
ATOM     50  H   UNL A   1      41.728  27.297  29.924  1.00  0.00     0.167 HD
ATOM     51  C   UNL A   1      42.508  30.305  33.011  1.00  0.00     0.034 A 
ATOM     52  C   UNL A   1      42.497  25.254  28.175  1.00  0.00     0.034 A 
ATOM     53  C   UNL A   1      43.581  29.354  33.127  1.00  0.00     0.049 A 
ATOM     54  C   UNL A   1      43.581  25.352  29.213  1.00  0.00     0.074 A 
ATOM     55  C   UNL A   1      44.603  29.320  34.058  1.00  0.00     0.029 A 
ATOM     56  N   UNL A   1      43.770  28.271  32.283  1.00  0.00    -0.354 N 
ATOM     57  N   UNL A   1      43.684  26.185  30.220  1.00  0.00    -0.248 NA
ATOM     58  C   UNL A   1      44.675  24.372  29.130  1.00  0.00     0.031 C 
ATOM     59  C   UNL A   1      45.416  28.217  33.772  1.00  0.00     0.029 A 
ATOM     60  C   UNL A   1      44.895  27.563  32.666  1.00  0.00     0.049 A 
ATOM     61  H   UNL A   1      43.188  28.039  31.523  1.00  0.00     0.167 HD
ATOM     62  C   UNL A   1      44.836  25.818  30.906  1.00  0.00     0.074 A 
ATOM     63  C   UNL A   1      45.385  24.669  30.212  1.00  0.00     0.031 C 
ATOM     64  C   UNL A   1      45.399  26.390  31.997  1.00  0.00     0.034 A 
BRANCH  51  65
ATOM     65  C   UNL A   1      42.490  31.482  33.950  1.00  0.00     0.023 A 
ATOM     66  C   UNL A   1      43.027  32.715  33.525  1.00  0.00     0.012 A 
ATOM     67  C   UNL A   1      41.906  31.387  35.227  1.00  0.00     0.148 A 
ATOM     68  C   UNL A   1      43.016  33.824  34.370  1.00  0.00     0.002 A 
ATOM     69  C   UNL A   1      41.862  32.508  36.049  1.00  0.00     0.091 A 
ATOM     70  F   UNL A   1      41.425  30.201  35.627  1.00  0.00    -0.205 F 
ATOM     71  C   UNL A   1      42.425  33.723  35.626  1.00  0.00     0.022 A 
BRANCH  69  72
ATOM     72  S   UNL A   1      41.054  32.490  37.654  1.00  0.00     0.127 S 
ATOM     73  O   UNL A   1      39.737  31.953  37.315  1.00  0.00    -0.237 OA
ATOM     74  O   UNL A   1      41.903  31.578  38.422  1.00  0.00    -0.237 OA
ATOM     75  O   UNL A   1      41.075  33.868  38.121  1.00  0.00    -0.744 OA
ENDBRANCH  69  72
ENDBRANCH  51  65
BRANCH  52  76
ATOM     76  C   UNL A   1      42.538  24.222  27.101  1.00  0.00     0.023 A 
ATOM     77  C   UNL A   1      43.299  24.463  25.942  1.00  0.00     0.012 A 
ATOM     78  C   UNL A   1      41.893  22.979  27.255  1.00  0.00     0.148 A 
ATOM     79  C   UNL A   1      43.402  23.492  24.945  1.00  0.00     0.002 A 
ATOM     80  C   UNL A   1      42.044  21.995  26.282  1.00  0.00     0.091 A 
ATOM     81  F   UNL A   1      41.161  22.773  28.358  1.00  0.00    -0.205 F 
ATOM     82  C   UNL A   1      42.787  22.255  25.121  1.00  0.00     0.022 A 
BRANCH  80  83
ATOM     83  S   UNL A   1      41.398  20.332  26.501  1.00  0.00     0.127 S 
ATOM     84  O   UNL A   1      39.960  20.546  26.359  1.00  0.00    -0.237 OA
ATOM     85  O   UNL A   1      42.023  19.606  25.393  1.00  0.00    -0.237 OA
ATOM     86  O   UNL A   1      41.854  19.906  27.815  1.00  0.00    -0.744 OA
ENDBRANCH  80  83
ENDBRANCH  52  76
BRANCH  64  87
ATOM     87  C   UNL A   1      46.672  25.785  32.527  1.00  0.00     0.023 A 
ATOM     88  C   UNL A   1      47.912  26.282  32.079  1.00  0.00     0.012 A 
ATOM     89  C   UNL A   1      46.642  24.794  33.526  1.00  0.00     0.148 A 
ATOM     90  C   UNL A   1      49.104  25.784  32.602  1.00  0.00     0.002 A 
ATOM     91  C   UNL A   1      47.834  24.332  34.073  1.00  0.00     0.091 A 
ATOM     92  F   UNL A   1      45.452  24.319  33.924  1.00  0.00    -0.205 F 
ATOM     93  C   UNL A   1      49.066  24.819  33.606  1.00  0.00     0.022 A 
BRANCH  91  94
ATOM     94  S   UNL A   1      47.869  23.157  35.433  1.00  0.00     0.127 S 
ATOM     95  O   UNL A   1      47.267  21.974  34.821  1.00  0.00    -0.237 OA
ATOM     96  O   UNL A   1      49.302  23.038  35.709  1.00  0.00    -0.237 OA
ATOM     97  O   UNL A   1      47.100  23.773  36.507  1.00  0.00    -0.744 OA
ENDBRANCH  91  94
ENDBRANCH  64  87
ENDBRANCH  38  39
ENDBRANCH  30  33
ENDBRANCH  28  29
ENDBRANCH   1  28
TORSDOF 16
ENDMDL
MODEL 2
REMARK VINA RESULT:     -12.5      3.626      9.081
REMARK SMILES CSc1ccc(/C=C2\C(C)=C(CC(=O)NCCCNC(=O)c3ccc(-c4c5nc(c(-c6cccc(S(=O)(=O)[O-])c6F)c6ccc([nH]6)c(-c6cccc(S(=O)(=O)[O-])c6F)c6nc(c(-c7cccc(S(=O)(=O)[O-])c7F)c7ccc4[nH]7)C=C6)C=C5)cc3)c3cc(F)ccc32)cc1
REMARK SMILES IDX 17 1 16 2 15 3 13 4 14 5 12 7 11 8 7 9 8 10 9 11 91 12 10 13
REMARK SMILES IDX 85 14 90 15 86 16 89 17 87 18 88 19 6 20 3 21 4 22 93 23
REMARK SMILES IDX 5 24 92 25 2 26 1 27 18 28 19 29 20 30 21 32 22 33 23 34
REMARK SMILES IDX 84 35 24 36 83 37 25 38 26 39 27 40 77 41 28 42 82 43 76 44
REMARK SMILES IDX 78 45 29 46 81 47 75 48 74 49 30 51 62 52 42 53 61 54 43 55
REMARK SMILES IDX 46 56 60 57 79 58 44 59 45 60 59 62 80 63 47 64 31 65 32 66
REMARK SMILES IDX 40 67 33 68 35 69 41 70 34 71 36 72 37 73 38 74 39 75 63 76
REMARK SMILES IDX 64 77 72 78 65 79 67 80 73 81 66 82 68 83 69 84 70 85 71 86
REMARK SMILES IDX 48 87 49 88 57 89 50 90 52 91 58 92 51 93 53 94 54 95 55 96
REMARK SMILES IDX 56 97
REMARK H PARENT 15 6 19 31 78 50 46 61
REMARK Flexibility Score: inf
ROOT
ATOM      1  C   UNL A   1      31.549  32.174  26.843  1.00  0.00     0.042 C 
ENDROOT
BRANCH   1   2
ATOM      2  C   UNL A   1      31.720  30.662  26.759  1.00  0.00     0.117 C 
BRANCH   2   3
ATOM      3  N   UNL A   1      33.116  30.265  26.711  1.00  0.00    -0.356 N 
ATOM      4  C   UNL A   1      33.662  29.019  26.814  1.00  0.00     0.224 C 
ATOM      5  O   UNL A   1      34.890  28.917  26.855  1.00  0.00    -0.275 OA
ATOM      6  H   UNL A   1      33.759  30.999  26.585  1.00  0.00     0.163 HD
BRANCH   4   7
ATOM      7  C   UNL A   1      32.764  27.798  26.851  1.00  0.00     0.136 C 
BRANCH   7   8
ATOM      8  C   UNL A   1      32.544  27.231  25.461  1.00  0.00    -0.027 C 
ATOM      9  C   UNL A   1      30.916  24.217  26.104  1.00  0.00     0.017 C 
ATOM     10  C   UNL A   1      31.289  25.367  25.525  1.00  0.00    -0.014 C 
ATOM     11  C   UNL A   1      32.640  25.888  25.233  1.00  0.00    -0.039 C 
ATOM     12  C   UNL A   1      30.379  26.409  25.024  1.00  0.00    -0.010 A 
ATOM     13  C   UNL A   1      33.082  25.454  23.823  1.00  0.00     0.045 C 
ATOM     14  C   UNL A   1      31.201  27.545  24.902  1.00  0.00    -0.011 A 
ATOM     15  C   UNL A   1      29.190  26.292  24.325  1.00  0.00     0.012 A 
ATOM     16  C   UNL A   1      30.863  28.592  24.064  1.00  0.00     0.048 A 
ATOM     17  C   UNL A   1      28.850  27.337  23.462  1.00  0.00     0.040 A 
ATOM     18  C   UNL A   1      29.684  28.462  23.336  1.00  0.00     0.123 A 
ATOM     19  F   UNL A   1      29.380  29.391  22.419  1.00  0.00    -0.207 F 
BRANCH   9  20
ATOM     20  C   UNL A   1      31.694  22.985  26.374  1.00  0.00    -0.025 A 
ATOM     21  C   UNL A   1      33.915  21.353  25.966  1.00  0.00     0.007 A 
ATOM     22  C   UNL A   1      33.861  22.170  27.089  1.00  0.00     0.015 A 
ATOM     23  C   UNL A   1      32.769  21.158  25.197  1.00  0.00     0.015 A 
ATOM     24  C   UNL A   1      32.736  22.961  27.304  1.00  0.00     0.009 A 
ATOM     25  C   UNL A   1      31.655  21.976  25.403  1.00  0.00     0.009 A 
BRANCH  21  26
ATOM     26  S   UNL A   1      35.500  20.835  25.339  1.00  0.00    -0.130 SA
ATOM     27  C   UNL A   1      35.740  22.234  24.180  1.00  0.00     0.091 C 
ENDBRANCH  21  26
ENDBRANCH   9  20
ENDBRANCH   7   8
ENDBRANCH   4   7
ENDBRANCH   2   3
ENDBRANCH   1   2
BRANCH   1  28
ATOM     28  C   UNL A   1      32.845  32.952  27.010  1.00  0.00     0.118 C 
BRANCH  28  29
ATOM     29  N   UNL A   1      32.623  34.249  27.623  1.00  0.00    -0.352 N 
ATOM     30  C   UNL A   1      33.141  34.777  28.777  1.00  0.00     0.251 C 
ATOM     31  H   UNL A   1      32.005  34.840  27.134  1.00  0.00     0.163 HD
ATOM     32  O   UNL A   1      32.618  35.778  29.262  1.00  0.00    -0.269 OA
BRANCH  30  33
ATOM     33  C   UNL A   1      34.313  34.159  29.439  1.00  0.00     0.039 A 
ATOM     34  C   UNL A   1      34.098  33.283  30.509  1.00  0.00     0.014 A 
ATOM     35  C   UNL A   1      35.618  34.488  29.064  1.00  0.00     0.014 A 
ATOM     36  C   UNL A   1      35.187  32.717  31.176  1.00  0.00     0.010 A 
ATOM     37  C   UNL A   1      36.700  33.860  29.676  1.00  0.00     0.010 A 
ATOM     38  C   UNL A   1      36.497  32.988  30.755  1.00  0.00    -0.014 A 
BRANCH  38  39
ATOM     39  C   UNL A   1      37.672  32.398  31.445  1.00  0.00     0.031 A 
ATOM     40  C   UNL A   1      38.442  31.276  30.801  1.00  0.00     0.074 A 
ATOM     41  C   UNL A   1      37.984  32.799  32.693  1.00  0.00     0.049 A 
ATOM     42  N   UNL A   1      39.448  30.588  31.275  1.00  0.00    -0.248 NA
ATOM     43  C   UNL A   1      38.002  30.846  29.463  1.00  0.00     0.031 C 
ATOM     44  C   UNL A   1      37.251  33.807  33.463  1.00  0.00     0.029 A 
ATOM     45  N   UNL A   1      38.973  32.382  33.547  1.00  0.00    -0.354 N 
ATOM     46  C   UNL A   1      39.727  29.616  30.321  1.00  0.00     0.074 A 
ATOM     47  C   UNL A   1      38.767  29.785  29.253  1.00  0.00     0.031 C 
ATOM     48  C   UNL A   1      37.809  33.922  34.678  1.00  0.00     0.029 A 
ATOM     49  C   UNL A   1      38.926  32.987  34.781  1.00  0.00     0.049 A 
ATOM     50  H   UNL A   1      39.651  31.714  33.300  1.00  0.00     0.167 HD
ATOM     51  C   UNL A   1      40.713  28.687  30.318  1.00  0.00     0.034 A 
ATOM     52  C   UNL A   1      39.693  32.807  35.875  1.00  0.00     0.034 A 
ATOM     53  C   UNL A   1      41.712  28.575  31.345  1.00  0.00     0.049 A 
ATOM     54  C   UNL A   1      40.845  31.843  35.807  1.00  0.00     0.074 A 
ATOM     55  C   UNL A   1      42.829  27.760  31.373  1.00  0.00     0.029 A 
ATOM     56  N   UNL A   1      41.714  29.299  32.527  1.00  0.00    -0.354 N 
ATOM     57  N   UNL A   1      41.211  31.066  34.816  1.00  0.00    -0.248 NA
ATOM     58  C   UNL A   1      41.717  31.760  36.988  1.00  0.00     0.031 C 
ATOM     59  C   UNL A   1      43.504  27.986  32.578  1.00  0.00     0.029 A 
ATOM     60  C   UNL A   1      42.808  28.947  33.296  1.00  0.00     0.049 A 
ATOM     61  H   UNL A   1      41.036  29.966  32.781  1.00  0.00     0.167 HD
ATOM     62  C   UNL A   1      42.367  30.421  35.241  1.00  0.00     0.074 A 
ATOM     63  C   UNL A   1      42.655  30.917  36.572  1.00  0.00     0.031 C 
ATOM     64  C   UNL A   1      43.111  29.489  34.597  1.00  0.00     0.034 A 
BRANCH  51  65
ATOM     65  C   UNL A   1      40.800  27.765  29.131  1.00  0.00     0.023 A 
ATOM     66  C   UNL A   1      39.983  26.616  29.084  1.00  0.00     0.012 A 
ATOM     67  C   UNL A   1      41.648  28.052  28.044  1.00  0.00     0.148 A 
ATOM     68  C   UNL A   1      40.036  25.748  27.994  1.00  0.00     0.002 A 
ATOM     69  C   UNL A   1      41.666  27.205  26.941  1.00  0.00     0.091 A 
ATOM     70  F   UNL A   1      42.438  29.134  28.114  1.00  0.00    -0.205 F 
ATOM     71  C   UNL A   1      40.869  26.049  26.919  1.00  0.00     0.022 A 
BRANCH  69  72
ATOM     72  S   UNL A   1      42.652  27.552  25.480  1.00  0.00     0.127 S 
ATOM     73  O   UNL A   1      42.401  26.364  24.666  1.00  0.00    -0.237 OA
ATOM     74  O   UNL A   1      42.035  28.778  24.971  1.00  0.00    -0.237 OA
ATOM     75  O   UNL A   1      44.017  27.718  25.956  1.00  0.00    -0.744 OA
ENDBRANCH  69  72
ENDBRANCH  51  65
BRANCH  52  76
ATOM     76  C   UNL A   1      39.436  33.629  37.091  1.00  0.00     0.023 A 
ATOM     77  C   UNL A   1      39.846  34.975  37.112  1.00  0.00     0.012 A 
ATOM     78  C   UNL A   1      38.725  33.109  38.190  1.00  0.00     0.148 A 
ATOM     79  C   UNL A   1      39.569  35.785  38.213  1.00  0.00     0.002 A 
ATOM     80  C   UNL A   1      38.405  33.936  39.262  1.00  0.00     0.091 A 
ATOM     81  F   UNL A   1      38.355  31.821  38.158  1.00  0.00    -0.205 F 
ATOM     82  C   UNL A   1      38.838  35.270  39.281  1.00  0.00     0.022 A 
BRANCH  80  83
ATOM     83  S   UNL A   1      37.349  33.385  40.609  1.00  0.00     0.127 S 
ATOM     84  O   UNL A   1      37.196  34.609  41.391  1.00  0.00    -0.237 OA
ATOM     85  O   UNL A   1      36.141  32.953  39.902  1.00  0.00    -0.237 OA
ATOM     86  O   UNL A   1      38.073  32.301  41.254  1.00  0.00    -0.744 OA
ENDBRANCH  80  83
ENDBRANCH  52  76
BRANCH  64  87
ATOM     87  C   UNL A   1      44.319  28.943  35.310  1.00  0.00     0.023 A 
ATOM     88  C   UNL A   1      45.581  29.524  35.075  1.00  0.00     0.012 A 
ATOM     89  C   UNL A   1      44.193  27.923  36.273  1.00  0.00     0.148 A 
ATOM     90  C   UNL A   1      46.704  29.081  35.772  1.00  0.00     0.002 A 
ATOM     91  C   UNL A   1      45.310  27.515  36.994  1.00  0.00     0.091 A 
ATOM     92  F   UNL A   1      42.987  27.369  36.467  1.00  0.00    -0.205 F 
ATOM     93  C   UNL A   1      46.568  28.086  36.738  1.00  0.00     0.022 A 
BRANCH  91  94
ATOM     94  S   UNL A   1      45.202  26.307  38.319  1.00  0.00     0.127 S 
ATOM     95  O   UNL A   1      44.238  26.936  39.219  1.00  0.00    -0.237 OA
ATOM     96  O   UNL A   1      44.702  25.120  37.622  1.00  0.00    -0.237 OA
ATOM     97  O   UNL A   1      46.556  26.170  38.840  1.00  0.00    -0.744 OA
ENDBRANCH  91  94
ENDBRANCH  64  87
ENDBRANCH  38  39
ENDBRANCH  30  33
ENDBRANCH  28  29
ENDBRANCH   1  28
TORSDOF 16
ENDMDL
MODEL 3
REMARK VINA RESULT:     -12.4      5.212      8.235
REMARK SMILES CSc1ccc(/C=C2\C(C)=C(CC(=O)NCCCNC(=O)c3ccc(-c4c5nc(c(-c6cccc(S(=O)(=O)[O-])c6F)c6ccc([nH]6)c(-c6cccc(S(=O)(=O)[O-])c6F)c6nc(c(-c7cccc(S(=O)(=O)[O-])c7F)c7ccc4[nH]7)C=C6)C=C5)cc3)c3cc(F)ccc32)cc1
REMARK SMILES IDX 17 1 16 2 15 3 13 4 14 5 12 7 11 8 7 9 8 10 9 11 91 12 10 13
REMARK SMILES IDX 85 14 90 15 86 16 89 17 87 18 88 19 6 20 3 21 4 22 93 23
REMARK SMILES IDX 5 24 92 25 2 26 1 27 18 28 19 29 20 30 21 32 22 33 23 34
REMARK SMILES IDX 84 35 24 36 83 37 25 38 26 39 27 40 77 41 28 42 82 43 76 44
REMARK SMILES IDX 78 45 29 46 81 47 75 48 74 49 30 51 62 52 42 53 61 54 43 55
REMARK SMILES IDX 46 56 60 57 79 58 44 59 45 60 59 62 80 63 47 64 31 65 32 66
REMARK SMILES IDX 40 67 33 68 35 69 41 70 34 71 36 72 37 73 38 74 39 75 63 76
REMARK SMILES IDX 64 77 72 78 65 79 67 80 73 81 66 82 68 83 69 84 70 85 71 86
REMARK SMILES IDX 48 87 49 88 57 89 50 90 52 91 58 92 51 93 53 94 54 95 55 96
REMARK SMILES IDX 56 97
REMARK H PARENT 15 6 19 31 78 50 46 61
REMARK Flexibility Score: inf
ROOT
ATOM      1  C   UNL A   1      38.330  19.678  24.984  1.00  0.00     0.042 C 
ENDROOT
BRANCH   1   2
ATOM      2  C   UNL A   1      37.502  20.900  24.605  1.00  0.00     0.117 C 
BRANCH   2   3
ATOM      3  N   UNL A   1      37.695  22.005  25.527  1.00  0.00    -0.356 N 
ATOM      4  C   UNL A   1      37.205  23.278  25.462  1.00  0.00     0.224 C 
ATOM      5  O   UNL A   1      37.584  24.096  26.303  1.00  0.00    -0.275 OA
ATOM      6  H   UNL A   1      38.258  21.809  26.310  1.00  0.00     0.163 HD
BRANCH   4   7
ATOM      7  C   UNL A   1      36.200  23.650  24.390  1.00  0.00     0.136 C 
BRANCH   7   8
ATOM      8  C   UNL A   1      34.776  23.443  24.869  1.00  0.00    -0.027 C 
ATOM      9  C   UNL A   1      32.898  25.145  22.477  1.00  0.00     0.017 C 
ATOM     10  C   UNL A   1      33.287  24.240  23.387  1.00  0.00    -0.014 C 
ATOM     11  C   UNL A   1      33.846  24.434  24.740  1.00  0.00    -0.039 C 
ATOM     12  C   UNL A   1      33.229  22.779  23.221  1.00  0.00    -0.010 A 
ATOM     13  C   UNL A   1      32.713  24.461  25.782  1.00  0.00     0.045 C 
ATOM     14  C   UNL A   1      34.097  22.291  24.217  1.00  0.00    -0.011 A 
ATOM     15  C   UNL A   1      32.243  21.984  22.660  1.00  0.00     0.012 A 
ATOM     16  C   UNL A   1      33.992  20.996  24.691  1.00  0.00     0.048 A 
ATOM     17  C   UNL A   1      32.120  20.680  23.147  1.00  0.00     0.040 A 
ATOM     18  C   UNL A   1      32.980  20.207  24.153  1.00  0.00     0.123 A 
ATOM     19  F   UNL A   1      32.760  18.990  24.670  1.00  0.00    -0.207 F 
BRANCH   9  20
ATOM     20  C   UNL A   1      32.630  26.594  22.624  1.00  0.00    -0.025 A 
ATOM     21  C   UNL A   1      32.392  28.896  24.178  1.00  0.00     0.007 A 
ATOM     22  C   UNL A   1      33.561  28.671  23.458  1.00  0.00     0.015 A 
ATOM     23  C   UNL A   1      31.264  28.120  23.922  1.00  0.00     0.015 A 
ATOM     24  C   UNL A   1      33.662  27.535  22.660  1.00  0.00     0.009 A 
ATOM     25  C   UNL A   1      31.382  26.967  23.142  1.00  0.00     0.009 A 
BRANCH  21  26
ATOM     26  S   UNL A   1      32.445  29.932  25.625  1.00  0.00    -0.130 SA
ATOM     27  C   UNL A   1      31.782  28.693  26.801  1.00  0.00     0.091 C 
ENDBRANCH  21  26
ENDBRANCH   9  20
ENDBRANCH   7   8
ENDBRANCH   4   7
ENDBRANCH   2   3
ENDBRANCH   1   2
BRANCH   1  28
ATOM     28  C   UNL A   1      39.202  19.857  26.216  1.00  0.00     0.118 C 
BRANCH  28  29
ATOM     29  N   UNL A   1      40.421  19.074  26.135  1.00  0.00    -0.352 N 
ATOM     30  C   UNL A   1      41.728  19.484  26.067  1.00  0.00     0.251 C 
ATOM     31  H   UNL A   1      40.289  18.098  26.129  1.00  0.00     0.163 HD
ATOM     32  O   UNL A   1      42.589  18.676  25.729  1.00  0.00    -0.269 OA
BRANCH  30  33
ATOM     33  C   UNL A   1      42.107  20.879  26.392  1.00  0.00     0.039 A 
ATOM     34  C   UNL A   1      42.121  21.829  25.365  1.00  0.00     0.014 A 
ATOM     35  C   UNL A   1      42.515  21.241  27.678  1.00  0.00     0.014 A 
ATOM     36  C   UNL A   1      42.513  23.143  25.636  1.00  0.00     0.010 A 
ATOM     37  C   UNL A   1      42.825  22.568  27.965  1.00  0.00     0.010 A 
ATOM     38  C   UNL A   1      42.853  23.527  26.942  1.00  0.00    -0.014 A 
BRANCH  38  39
ATOM     39  C   UNL A   1      43.271  24.917  27.258  1.00  0.00     0.031 A 
ATOM     40  C   UNL A   1      42.306  25.863  27.922  1.00  0.00     0.074 A 
ATOM     41  C   UNL A   1      44.479  25.358  26.856  1.00  0.00     0.049 A 
ATOM     42  N   UNL A   1      42.462  27.129  28.214  1.00  0.00    -0.248 NA
ATOM     43  C   UNL A   1      40.980  25.327  28.273  1.00  0.00     0.031 C 
ATOM     44  C   UNL A   1      45.463  24.566  26.114  1.00  0.00     0.029 A 
ATOM     45  N   UNL A   1      45.069  26.590  26.981  1.00  0.00    -0.354 N 
ATOM     46  C   UNL A   1      41.243  27.551  28.733  1.00  0.00     0.074 A 
ATOM     47  C   UNL A   1      40.349  26.415  28.691  1.00  0.00     0.031 C 
ATOM     48  C   UNL A   1      46.528  25.334  25.840  1.00  0.00     0.029 A 
ATOM     49  C   UNL A   1      46.299  26.676  26.371  1.00  0.00     0.049 A 
ATOM     50  H   UNL A   1      44.652  27.341  27.461  1.00  0.00     0.167 HD
ATOM     51  C   UNL A   1      40.907  28.766  29.229  1.00  0.00     0.034 A 
ATOM     52  C   UNL A   1      47.145  27.717  26.249  1.00  0.00     0.034 A 
ATOM     53  C   UNL A   1      41.823  29.868  29.340  1.00  0.00     0.049 A 
ATOM     54  C   UNL A   1      46.791  29.025  26.900  1.00  0.00     0.074 A 
ATOM     55  C   UNL A   1      41.624  31.095  29.947  1.00  0.00     0.029 A 
ATOM     56  N   UNL A   1      43.112  29.878  28.830  1.00  0.00    -0.354 N 
ATOM     57  N   UNL A   1      45.704  29.349  27.559  1.00  0.00    -0.248 NA
ATOM     58  C   UNL A   1      47.793  30.099  26.831  1.00  0.00     0.031 C 
ATOM     59  C   UNL A   1      42.792  31.850  29.798  1.00  0.00     0.029 A 
ATOM     60  C   UNL A   1      43.720  31.090  29.102  1.00  0.00     0.049 A 
ATOM     61  H   UNL A   1      43.533  29.131  28.346  1.00  0.00     0.167 HD
ATOM     62  C   UNL A   1      45.900  30.652  28.004  1.00  0.00     0.074 A 
ATOM     63  C   UNL A   1      47.221  31.049  27.560  1.00  0.00     0.031 C 
ATOM     64  C   UNL A   1      45.055  31.452  28.700  1.00  0.00     0.034 A 
BRANCH  51  65
ATOM     65  C   UNL A   1      39.508  28.942  29.755  1.00  0.00     0.023 A 
ATOM     66  C   UNL A   1      39.215  28.569  31.084  1.00  0.00     0.012 A 
ATOM     67  C   UNL A   1      38.496  29.516  28.961  1.00  0.00     0.148 A 
ATOM     68  C   UNL A   1      37.930  28.729  31.601  1.00  0.00     0.002 A 
ATOM     69  C   UNL A   1      37.227  29.710  29.497  1.00  0.00     0.091 A 
ATOM     70  F   UNL A   1      38.782  29.840  27.692  1.00  0.00    -0.205 F 
ATOM     71  C   UNL A   1      36.940  29.309  30.811  1.00  0.00     0.022 A 
BRANCH  69  72
ATOM     72  S   UNL A   1      35.911  30.517  28.578  1.00  0.00     0.127 S 
ATOM     73  O   UNL A   1      35.140  31.141  29.652  1.00  0.00    -0.237 OA
ATOM     74  O   UNL A   1      36.650  31.458  27.734  1.00  0.00    -0.237 OA
ATOM     75  O   UNL A   1      35.234  29.457  27.846  1.00  0.00    -0.744 OA
ENDBRANCH  69  72
ENDBRANCH  51  65
BRANCH  52  76
ATOM     76  C   UNL A   1      48.446  27.523  25.550  1.00  0.00     0.023 A 
ATOM     77  C   UNL A   1      49.575  27.129  26.292  1.00  0.00     0.012 A 
ATOM     78  C   UNL A   1      48.553  27.651  24.151  1.00  0.00     0.148 A 
ATOM     79  C   UNL A   1      50.793  26.884  25.657  1.00  0.00     0.002 A 
ATOM     80  C   UNL A   1      49.756  27.353  23.518  1.00  0.00     0.091 A 
ATOM     81  F   UNL A   1      47.472  28.041  23.462  1.00  0.00    -0.205 F 
ATOM     82  C   UNL A   1      50.881  26.983  24.270  1.00  0.00     0.022 A 
BRANCH  80  83
ATOM     83  S   UNL A   1      49.909  27.323  21.727  1.00  0.00     0.127 S 
ATOM     84  O   UNL A   1      49.691  28.726  21.382  1.00  0.00    -0.237 OA
ATOM     85  O   UNL A   1      51.282  26.850  21.538  1.00  0.00    -0.237 OA
ATOM     86  O   UNL A   1      48.895  26.387  21.265  1.00  0.00    -0.744 OA
ENDBRANCH  80  83
ENDBRANCH  52  76
BRANCH  64  87
ATOM     87  C   UNL A   1      45.529  32.840  29.040  1.00  0.00     0.023 A 
ATOM     88  C   UNL A   1      46.238  33.055  30.237  1.00  0.00     0.012 A 
ATOM     89  C   UNL A   1      45.351  33.907  28.137  1.00  0.00     0.148 A 
ATOM     90  C   UNL A   1      46.744  34.317  30.543  1.00  0.00     0.002 A 
ATOM     91  C   UNL A   1      45.894  35.153  28.430  1.00  0.00     0.091 A 
ATOM     92  F   UNL A   1      44.655  33.687  27.012  1.00  0.00    -0.205 F 
ATOM     93  C   UNL A   1      46.583  35.363  29.636  1.00  0.00     0.022 A 
BRANCH  91  94
ATOM     94  S   UNL A   1      45.812  36.526  27.274  1.00  0.00     0.127 S 
ATOM     95  O   UNL A   1      46.392  35.938  26.069  1.00  0.00    -0.237 OA
ATOM     96  O   UNL A   1      44.372  36.783  27.194  1.00  0.00    -0.237 OA
ATOM     97  O   UNL A   1      46.580  37.603  27.884  1.00  0.00    -0.744 OA
ENDBRANCH  91  94
ENDBRANCH  64  87
ENDBRANCH  38  39
ENDBRANCH  30  33
ENDBRANCH  28  29
ENDBRANCH   1  28
TORSDOF 16
ENDMDL
