MODEL 1
REMARK VINA RESULT:     -11.7      0.000      0.000
REMARK SMILES Cc1ccc(OCCC[N@H+]2CCCC[C@@H]2C(=O)NCCCNC(=O)c2ccc(-c3c4nc(c(-c5cccc(S(=O)(=O)[O-])c5F)c5ccc([nH]5)c(-c5cccc(S(=O)(=O)[O-])c5F)c5nc(c(-c6cccc(S(=O)(=O)[O-])c6F)c6ccc3[nH]6)C=C5)C=C4)cc2)cc1C
REMARK SMILES IDX 19 1 18 2 16 3 17 4 15 6 10 7 11 8 12 10 14 11 13 12 9 13
REMARK SMILES IDX 8 14 7 15 6 16 5 17 1 18 2 19 3 20 89 21 4 22 88 23 90 24
REMARK SMILES IDX 20 25 21 26 22 27 23 28 24 30 25 31 26 32 87 33 27 34 86 35
REMARK SMILES IDX 28 36 29 37 30 38 80 39 31 40 85 41 79 42 81 43 32 44 84 45
REMARK SMILES IDX 78 46 77 47 33 49 65 50 45 51 64 52 46 53 49 54 63 55 82 56
REMARK SMILES IDX 47 57 48 58 62 60 83 61 50 62 34 63 35 64 43 65 36 66 38 67
REMARK SMILES IDX 44 68 37 69 39 70 40 71 41 72 42 73 66 74 67 75 75 76 68 77
REMARK SMILES IDX 70 78 76 79 69 80 71 81 72 82 73 83 74 84 51 85 52 86 60 87
REMARK SMILES IDX 53 88 55 89 61 90 54 91 56 92 57 93 58 94 59 95
REMARK H PARENT 18 5 10 9 22 29 81 48 49 59
REMARK Flexibility Score: inf
ROOT
ATOM      1  C   UNL A   1      35.312  23.663  25.809  1.00  0.00     0.118 C 
ENDROOT
BRANCH   1   2
ATOM      2  N   UNL A   1      34.841  24.200  24.540  1.00  0.00    -0.351 N 
ATOM      3  C   UNL A   1      33.879  25.134  24.284  1.00  0.00     0.278 C 
ATOM      4  O   UNL A   1      33.591  25.367  23.105  1.00  0.00    -0.268 OA
ATOM      5  H   UNL A   1      35.286  23.832  23.743  1.00  0.00     0.163 HD
BRANCH   3   6
ATOM      6  C   UNL A   1      33.117  25.852  25.414  1.00  0.00     0.274 C 
ATOM      7  N   UNL A   1      31.675  26.088  25.063  1.00  0.00    -0.325 N 
ATOM      8  C   UNL A   1      31.031  26.941  26.087  1.00  0.00     0.262 C 
ATOM      9  H   UNL A   1      31.639  26.555  24.157  1.00  0.00     0.348 HD
ATOM     10  C   UNL A   1      31.801  28.225  26.403  1.00  0.00     0.062 C 
ATOM     11  C   UNL A   1      33.923  27.104  25.794  1.00  0.00     0.076 C 
ATOM     12  C   UNL A   1      33.216  27.912  26.865  1.00  0.00     0.012 C 
BRANCH   7  13
ATOM     13  C   UNL A   1      30.946  24.792  24.986  1.00  0.00     0.266 C 
BRANCH  13  14
ATOM     14  C   UNL A   1      31.223  23.806  26.139  1.00  0.00     0.103 C 
BRANCH  14  15
ATOM     15  C   UNL A   1      31.318  22.332  25.722  1.00  0.00     0.235 C 
BRANCH  15  16
ATOM     16  O   UNL A   1      32.415  22.068  24.821  1.00  0.00    -0.493 OA
BRANCH  16  17
ATOM     17  C   UNL A   1      32.555  20.725  24.585  1.00  0.00     0.119 A 
ATOM     18  C   UNL A   1      33.435  16.567  23.931  1.00  0.00     0.044 C 
ATOM     19  C   UNL A   1      33.035  18.005  24.123  1.00  0.00    -0.048 A 
ATOM     20  C   UNL A   1      33.137  18.547  25.412  1.00  0.00     0.007 A 
ATOM     21  C   UNL A   1      32.550  18.814  23.077  1.00  0.00    -0.045 A 
ATOM     22  C   UNL A   1      32.854  19.887  25.647  1.00  0.00     0.047 A 
ATOM     23  C   UNL A   1      32.339  20.190  23.316  1.00  0.00     0.050 A 
ATOM     24  C   UNL A   1      32.153  18.239  21.743  1.00  0.00     0.045 C 
ENDBRANCH  16  17
ENDBRANCH  15  16
ENDBRANCH  14  15
ENDBRANCH  13  14
ENDBRANCH   7  13
ENDBRANCH   3   6
ENDBRANCH   1   2
BRANCH   1  25
ATOM     25  C   UNL A   1      35.765  22.216  25.687  1.00  0.00     0.042 C 
BRANCH  25  26
ATOM     26  C   UNL A   1      37.024  22.052  24.841  1.00  0.00     0.118 C 
BRANCH  26  27
ATOM     27  N   UNL A   1      37.828  20.896  25.229  1.00  0.00    -0.352 N 
ATOM     28  C   UNL A   1      39.023  20.851  25.915  1.00  0.00     0.251 C 
ATOM     29  H   UNL A   1      37.463  20.021  24.962  1.00  0.00     0.163 HD
ATOM     30  O   UNL A   1      39.639  19.799  26.016  1.00  0.00    -0.269 OA
BRANCH  28  31
ATOM     31  C   UNL A   1      39.562  22.093  26.506  1.00  0.00     0.039 A 
ATOM     32  C   UNL A   1      40.565  22.012  27.475  1.00  0.00     0.014 A 
ATOM     33  C   UNL A   1      39.100  23.336  26.069  1.00  0.00     0.014 A 
ATOM     34  C   UNL A   1      41.174  23.182  27.938  1.00  0.00     0.010 A 
ATOM     35  C   UNL A   1      39.758  24.492  26.472  1.00  0.00     0.010 A 
ATOM     36  C   UNL A   1      40.805  24.428  27.404  1.00  0.00    -0.014 A 
BRANCH  36  37
ATOM     37  C   UNL A   1      41.505  25.684  27.772  1.00  0.00     0.031 A 
ATOM     38  C   UNL A   1      40.759  26.768  28.499  1.00  0.00     0.074 A 
ATOM     39  C   UNL A   1      42.759  25.905  27.330  1.00  0.00     0.049 A 
ATOM     40  N   UNL A   1      41.134  27.992  28.766  1.00  0.00    -0.248 NA
ATOM     41  C   UNL A   1      39.395  26.445  28.954  1.00  0.00     0.031 C 
ATOM     42  C   UNL A   1      43.560  24.962  26.544  1.00  0.00     0.029 A 
ATOM     43  N   UNL A   1      43.566  27.011  27.440  1.00  0.00    -0.354 N 
ATOM     44  C   UNL A   1      40.039  28.600  29.367  1.00  0.00     0.074 A 
ATOM     45  C   UNL A   1      38.978  27.617  29.410  1.00  0.00     0.031 C 
ATOM     46  C   UNL A   1      44.737  25.532  26.238  1.00  0.00     0.029 A 
ATOM     47  C   UNL A   1      44.765  26.887  26.776  1.00  0.00     0.049 A 
ATOM     48  H   UNL A   1      43.310  27.815  27.946  1.00  0.00     0.167 HD
ATOM     49  C   UNL A   1      39.935  29.854  29.866  1.00  0.00     0.034 A 
ATOM     50  C   UNL A   1      45.769  27.771  26.610  1.00  0.00     0.034 A 
ATOM     51  C   UNL A   1      41.014  30.801  29.890  1.00  0.00     0.049 A 
ATOM     52  C   UNL A   1      45.655  29.134  27.239  1.00  0.00     0.074 A 
ATOM     53  C   UNL A   1      41.042  32.059  30.466  1.00  0.00     0.029 A 
ATOM     54  N   UNL A   1      42.260  30.593  29.319  1.00  0.00    -0.354 N 
ATOM     55  N   UNL A   1      44.669  29.636  27.942  1.00  0.00    -0.248 NA
ATOM     56  C   UNL A   1      46.804  30.040  27.083  1.00  0.00     0.031 C 
ATOM     57  C   UNL A   1      42.307  32.611  30.243  1.00  0.00     0.029 A 
ATOM     58  C   UNL A   1      43.067  31.696  29.532  1.00  0.00     0.049 A 
ATOM     59  H   UNL A   1      42.531  29.780  28.835  1.00  0.00     0.167 HD
ATOM     60  C   UNL A   1      45.091  30.899  28.341  1.00  0.00     0.074 A 
ATOM     61  C   UNL A   1      46.427  31.080  27.815  1.00  0.00     0.031 C 
ATOM     62  C   UNL A   1      44.422  31.832  29.063  1.00  0.00     0.034 A 
BRANCH  49  63
ATOM     63  C   UNL A   1      38.627  30.248  30.496  1.00  0.00     0.023 A 
ATOM     64  C   UNL A   1      38.374  29.899  31.838  1.00  0.00     0.012 A 
ATOM     65  C   UNL A   1      37.674  31.005  29.786  1.00  0.00     0.148 A 
ATOM     66  C   UNL A   1      37.182  30.271  32.457  1.00  0.00     0.002 A 
ATOM     67  C   UNL A   1      36.503  31.405  30.422  1.00  0.00     0.091 A 
ATOM     68  F   UNL A   1      37.919  31.305  28.503  1.00  0.00    -0.205 F 
ATOM     69  C   UNL A   1      36.253  31.032  31.753  1.00  0.00     0.022 A 
BRANCH  67  70
ATOM     70  S   UNL A   1      35.280  32.448  29.619  1.00  0.00     0.127 S 
ATOM     71  O   UNL A   1      34.711  31.530  28.634  1.00  0.00    -0.237 OA
ATOM     72  O   UNL A   1      34.384  32.787  30.725  1.00  0.00    -0.237 OA
ATOM     73  O   UNL A   1      36.021  33.578  29.075  1.00  0.00    -0.744 OA
ENDBRANCH  67  70
ENDBRANCH  49  63
BRANCH  50  74
ATOM     74  C   UNL A   1      47.004  27.362  25.884  1.00  0.00     0.023 A 
ATOM     75  C   UNL A   1      47.136  27.692  24.521  1.00  0.00     0.012 A 
ATOM     76  C   UNL A   1      48.060  26.693  26.533  1.00  0.00     0.148 A 
ATOM     77  C   UNL A   1      48.285  27.342  23.811  1.00  0.00     0.002 A 
ATOM     78  C   UNL A   1      49.223  26.391  25.832  1.00  0.00     0.091 A 
ATOM     79  F   UNL A   1      47.912  26.372  27.826  1.00  0.00    -0.205 F 
ATOM     80  C   UNL A   1      49.332  26.702  24.468  1.00  0.00     0.022 A 
BRANCH  78  81
ATOM     81  S   UNL A   1      50.668  25.689  26.636  1.00  0.00     0.127 S 
ATOM     82  O   UNL A   1      51.591  25.533  25.515  1.00  0.00    -0.237 OA
ATOM     83  O   UNL A   1      51.030  26.737  27.592  1.00  0.00    -0.237 OA
ATOM     84  O   UNL A   1      50.203  24.455  27.257  1.00  0.00    -0.744 OA
ENDBRANCH  78  81
ENDBRANCH  50  74
BRANCH  62  85
ATOM     85  C   UNL A   1      45.128  33.125  29.366  1.00  0.00     0.023 A 
ATOM     86  C   UNL A   1      45.881  33.242  30.550  1.00  0.00     0.012 A 
ATOM     87  C   UNL A   1      45.133  34.178  28.431  1.00  0.00     0.148 A 
ATOM     88  C   UNL A   1      46.617  34.398  30.807  1.00  0.00     0.002 A 
ATOM     89  C   UNL A   1      45.901  35.310  28.675  1.00  0.00     0.091 A 
ATOM     90  F   UNL A   1      44.393  34.052  27.320  1.00  0.00    -0.205 F 
ATOM     91  C   UNL A   1      46.639  35.424  29.865  1.00  0.00     0.022 A 
BRANCH  89  92
ATOM     92  S   UNL A   1      46.060  36.640  27.478  1.00  0.00     0.127 S 
ATOM     93  O   UNL A   1      44.781  37.332  27.629  1.00  0.00    -0.237 OA
ATOM     94  O   UNL A   1      47.218  37.380  27.982  1.00  0.00    -0.237 OA
ATOM     95  O   UNL A   1      46.274  35.993  26.190  1.00  0.00    -0.744 OA
ENDBRANCH  89  92
ENDBRANCH  62  85
ENDBRANCH  36  37
ENDBRANCH  28  31
ENDBRANCH  26  27
ENDBRANCH  25  26
ENDBRANCH   1  25
TORSDOF 18
ENDMDL
MODEL 2
REMARK VINA RESULT:     -11.3      2.334      4.577
REMARK SMILES Cc1ccc(OCCC[N@H+]2CCCC[C@@H]2C(=O)NCCCNC(=O)c2ccc(-c3c4nc(c(-c5cccc(S(=O)(=O)[O-])c5F)c5ccc([nH]5)c(-c5cccc(S(=O)(=O)[O-])c5F)c5nc(c(-c6cccc(S(=O)(=O)[O-])c6F)c6ccc3[nH]6)C=C5)C=C4)cc2)cc1C
REMARK SMILES IDX 19 1 18 2 16 3 17 4 15 6 10 7 11 8 12 10 14 11 13 12 9 13
REMARK SMILES IDX 8 14 7 15 6 16 5 17 1 18 2 19 3 20 89 21 4 22 88 23 90 24
REMARK SMILES IDX 20 25 21 26 22 27 23 28 24 30 25 31 26 32 87 33 27 34 86 35
REMARK SMILES IDX 28 36 29 37 30 38 80 39 31 40 85 41 79 42 81 43 32 44 84 45
REMARK SMILES IDX 78 46 77 47 33 49 65 50 45 51 64 52 46 53 49 54 63 55 82 56
REMARK SMILES IDX 47 57 48 58 62 60 83 61 50 62 34 63 35 64 43 65 36 66 38 67
REMARK SMILES IDX 44 68 37 69 39 70 40 71 41 72 42 73 66 74 67 75 75 76 68 77
REMARK SMILES IDX 70 78 76 79 69 80 71 81 72 82 73 83 74 84 51 85 52 86 60 87
REMARK SMILES IDX 53 88 55 89 61 90 54 91 56 92 57 93 58 94 59 95
REMARK H PARENT 18 5 10 9 22 29 81 48 49 59
REMARK Flexibility Score: inf
ROOT
ATOM      1  C   UNL A   1      37.329  21.886  25.091  1.00  0.00     0.118 C 
ENDROOT
BRANCH   1   2
ATOM      2  N   UNL A   1      36.316  21.826  26.135  1.00  0.00    -0.351 N 
ATOM      3  C   UNL A   1      34.958  21.724  26.036  1.00  0.00     0.278 C 
ATOM      4  O   UNL A   1      34.292  21.780  27.076  1.00  0.00    -0.268 OA
ATOM      5  H   UNL A   1      36.664  21.867  27.055  1.00  0.00     0.163 HD
BRANCH   3   6
ATOM      6  C   UNL A   1      34.245  21.597  24.676  1.00  0.00     0.274 C 
ATOM      7  N   UNL A   1      33.452  22.826  24.337  1.00  0.00    -0.325 N 
ATOM      8  C   UNL A   1      32.637  22.591  23.123  1.00  0.00     0.262 C 
ATOM      9  H   UNL A   1      32.839  23.038  25.124  1.00  0.00     0.348 HD
ATOM     10  C   UNL A   1      31.795  21.315  23.175  1.00  0.00     0.062 C 
ATOM     11  C   UNL A   1      33.458  20.277  24.687  1.00  0.00     0.076 C 
ATOM     12  C   UNL A   1      32.671  20.094  23.403  1.00  0.00     0.012 C 
BRANCH   7  13
ATOM     13  C   UNL A   1      34.364  23.976  24.090  1.00  0.00     0.266 C 
BRANCH  13  14
ATOM     14  C   UNL A   1      34.547  24.944  25.277  1.00  0.00     0.103 C 
BRANCH  14  15
ATOM     15  C   UNL A   1      33.245  25.522  25.849  1.00  0.00     0.235 C 
BRANCH  15  16
ATOM     16  O   UNL A   1      32.102  25.297  24.995  1.00  0.00    -0.493 OA
BRANCH  16  17
ATOM     17  C   UNL A   1      31.471  26.473  24.687  1.00  0.00     0.119 A 
ATOM     18  C   UNL A   1      29.642  30.107  23.295  1.00  0.00     0.044 C 
ATOM     19  C   UNL A   1      30.259  28.864  23.875  1.00  0.00    -0.048 A 
ATOM     20  C   UNL A   1      29.783  27.625  23.424  1.00  0.00     0.007 A 
ATOM     21  C   UNL A   1      31.269  28.893  24.857  1.00  0.00    -0.045 A 
ATOM     22  C   UNL A   1      30.357  26.437  23.863  1.00  0.00     0.047 A 
ATOM     23  C   UNL A   1      31.891  27.683  25.236  1.00  0.00     0.050 A 
ATOM     24  C   UNL A   1      31.634  30.158  25.587  1.00  0.00     0.045 C 
ENDBRANCH  16  17
ENDBRANCH  15  16
ENDBRANCH  14  15
ENDBRANCH  13  14
ENDBRANCH   7  13
ENDBRANCH   3   6
ENDBRANCH   1   2
BRANCH   1  25
ATOM     25  C   UNL A   1      38.206  20.643  25.071  1.00  0.00     0.042 C 
BRANCH  25  26
ATOM     26  C   UNL A   1      39.336  20.691  26.095  1.00  0.00     0.118 C 
BRANCH  26  27
ATOM     27  N   UNL A   1      40.242  19.549  26.000  1.00  0.00    -0.352 N 
ATOM     28  C   UNL A   1      41.619  19.518  26.049  1.00  0.00     0.251 C 
ATOM     29  H   UNL A   1      39.806  18.674  25.883  1.00  0.00     0.163 HD
ATOM     30  O   UNL A   1      42.225  18.486  25.793  1.00  0.00    -0.269 OA
BRANCH  28  31
ATOM     31  C   UNL A   1      42.357  20.752  26.392  1.00  0.00     0.039 A 
ATOM     32  C   UNL A   1      42.927  21.516  25.371  1.00  0.00     0.014 A 
ATOM     33  C   UNL A   1      42.447  21.168  27.722  1.00  0.00     0.014 A 
ATOM     34  C   UNL A   1      43.506  22.752  25.675  1.00  0.00     0.010 A 
ATOM     35  C   UNL A   1      42.953  22.429  28.013  1.00  0.00     0.010 A 
ATOM     36  C   UNL A   1      43.481  23.237  26.993  1.00  0.00    -0.014 A 
BRANCH  36  37
ATOM     37  C   UNL A   1      43.973  24.593  27.345  1.00  0.00     0.031 A 
ATOM     38  C   UNL A   1      43.011  25.622  27.872  1.00  0.00     0.074 A 
ATOM     39  C   UNL A   1      45.244  24.938  27.058  1.00  0.00     0.049 A 
ATOM     40  N   UNL A   1      43.202  26.898  28.083  1.00  0.00    -0.248 NA
ATOM     41  C   UNL A   1      41.642  25.163  28.165  1.00  0.00     0.031 C 
ATOM     42  C   UNL A   1      46.251  24.051  26.469  1.00  0.00     0.029 A 
ATOM     43  N   UNL A   1      45.895  26.141  27.182  1.00  0.00    -0.354 N 
ATOM     44  C   UNL A   1      41.970  27.404  28.478  1.00  0.00     0.074 A 
ATOM     45  C   UNL A   1      41.033  26.302  28.460  1.00  0.00     0.031 C 
ATOM     46  C   UNL A   1      47.387  24.742  26.277  1.00  0.00     0.029 A 
ATOM     47  C   UNL A   1      47.183  26.123  26.698  1.00  0.00     0.049 A 
ATOM     48  H   UNL A   1      45.480  26.939  27.580  1.00  0.00     0.167 HD
ATOM     49  C   UNL A   1      41.654  28.666  28.851  1.00  0.00     0.034 A 
ATOM     50  C   UNL A   1      48.094  27.112  26.594  1.00  0.00     0.034 A 
ATOM     51  C   UNL A   1      42.603  29.740  28.940  1.00  0.00     0.049 A 
ATOM     52  C   UNL A   1      47.736  28.489  27.086  1.00  0.00     0.074 A 
ATOM     53  C   UNL A   1      42.405  31.027  29.407  1.00  0.00     0.029 A 
ATOM     54  N   UNL A   1      43.934  29.651  28.561  1.00  0.00    -0.354 N 
ATOM     55  N   UNL A   1      46.609  28.911  27.605  1.00  0.00    -0.248 NA
ATOM     56  C   UNL A   1      48.784  29.519  27.009  1.00  0.00     0.031 C 
ATOM     57  C   UNL A   1      43.618  31.717  29.310  1.00  0.00     0.029 A 
ATOM     58  C   UNL A   1      44.571  30.858  28.786  1.00  0.00     0.049 A 
ATOM     59  H   UNL A   1      44.362  28.847  28.187  1.00  0.00     0.167 HD
ATOM     60  C   UNL A   1      46.822  30.240  27.949  1.00  0.00     0.074 A 
ATOM     61  C   UNL A   1      48.190  30.551  27.594  1.00  0.00     0.031 C 
ATOM     62  C   UNL A   1      45.955  31.129  28.493  1.00  0.00     0.034 A 
BRANCH  49  63
ATOM     63  C   UNL A   1      40.233  28.936  29.264  1.00  0.00     0.023 A 
ATOM     64  C   UNL A   1      39.263  29.192  28.273  1.00  0.00     0.012 A 
ATOM     65  C   UNL A   1      39.842  28.884  30.616  1.00  0.00     0.148 A 
ATOM     66  C   UNL A   1      37.934  29.421  28.621  1.00  0.00     0.002 A 
ATOM     67  C   UNL A   1      38.507  29.075  30.954  1.00  0.00     0.091 A 
ATOM     68  F   UNL A   1      40.782  28.665  31.547  1.00  0.00    -0.205 F 
ATOM     69  C   UNL A   1      37.555  29.352  29.959  1.00  0.00     0.022 A 
BRANCH  67  70
ATOM     70  S   UNL A   1      37.911  28.935  32.643  1.00  0.00     0.127 S 
ATOM     71  O   UNL A   1      36.628  29.628  32.563  1.00  0.00    -0.237 OA
ATOM     72  O   UNL A   1      37.811  27.485  32.819  1.00  0.00    -0.237 OA
ATOM     73  O   UNL A   1      38.923  29.574  33.473  1.00  0.00    -0.744 OA
ENDBRANCH  67  70
ENDBRANCH  49  63
BRANCH  50  74
ATOM     74  C   UNL A   1      49.459  26.812  26.078  1.00  0.00     0.023 A 
ATOM     75  C   UNL A   1      50.358  26.102  26.897  1.00  0.00     0.012 A 
ATOM     76  C   UNL A   1      49.858  27.180  24.779  1.00  0.00     0.148 A 
ATOM     77  C   UNL A   1      51.639  25.786  26.442  1.00  0.00     0.002 A 
ATOM     78  C   UNL A   1      51.118  26.817  24.313  1.00  0.00     0.091 A 
ATOM     79  F   UNL A   1      48.995  27.868  24.017  1.00  0.00    -0.205 F 
ATOM     80  C   UNL A   1      52.015  26.133  25.148  1.00  0.00     0.022 A 
BRANCH  78  81
ATOM     81  S   UNL A   1      51.630  27.110  22.616  1.00  0.00     0.127 S 
ATOM     82  O   UNL A   1      50.475  26.627  21.865  1.00  0.00    -0.237 OA
ATOM     83  O   UNL A   1      51.816  28.562  22.595  1.00  0.00    -0.237 OA
ATOM     84  O   UNL A   1      52.863  26.352  22.448  1.00  0.00    -0.744 OA
ENDBRANCH  78  81
ENDBRANCH  50  74
BRANCH  62  85
ATOM     85  C   UNL A   1      46.458  32.517  28.779  1.00  0.00     0.023 A 
ATOM     86  C   UNL A   1      47.000  32.811  30.045  1.00  0.00     0.012 A 
ATOM     87  C   UNL A   1      46.492  33.493  27.764  1.00  0.00     0.148 A 
ATOM     88  C   UNL A   1      47.554  34.064  30.301  1.00  0.00     0.002 A 
ATOM     89  C   UNL A   1      47.084  34.726  28.014  1.00  0.00     0.091 A 
ATOM     90  F   UNL A   1      45.952  33.197  26.572  1.00  0.00    -0.205 F 
ATOM     91  C   UNL A   1      47.610  35.015  29.284  1.00  0.00     0.022 A 
BRANCH  89  92
ATOM     92  S   UNL A   1      47.279  35.974  26.738  1.00  0.00     0.127 S 
ATOM     93  O   UNL A   1      48.045  37.002  27.441  1.00  0.00    -0.237 OA
ATOM     94  O   UNL A   1      48.027  35.255  25.706  1.00  0.00    -0.237 OA
ATOM     95  O   UNL A   1      45.930  36.358  26.345  1.00  0.00    -0.744 OA
ENDBRANCH  89  92
ENDBRANCH  62  85
ENDBRANCH  36  37
ENDBRANCH  28  31
ENDBRANCH  26  27
ENDBRANCH  25  26
ENDBRANCH   1  25
TORSDOF 18
ENDMDL
MODEL 3
REMARK VINA RESULT:     -11.1      5.192      9.724
REMARK SMILES Cc1ccc(OCCC[N@H+]2CCCC[C@@H]2C(=O)NCCCNC(=O)c2ccc(-c3c4nc(c(-c5cccc(S(=O)(=O)[O-])c5F)c5ccc([nH]5)c(-c5cccc(S(=O)(=O)[O-])c5F)c5nc(c(-c6cccc(S(=O)(=O)[O-])c6F)c6ccc3[nH]6)C=C5)C=C4)cc2)cc1C
REMARK SMILES IDX 19 1 18 2 16 3 17 4 15 6 10 7 11 8 12 10 14 11 13 12 9 13
REMARK SMILES IDX 8 14 7 15 6 16 5 17 1 18 2 19 3 20 89 21 4 22 88 23 90 24
REMARK SMILES IDX 20 25 21 26 22 27 23 28 24 30 25 31 26 32 87 33 27 34 86 35
REMARK SMILES IDX 28 36 29 37 30 38 80 39 31 40 85 41 79 42 81 43 32 44 84 45
REMARK SMILES IDX 78 46 77 47 33 49 65 50 45 51 64 52 46 53 49 54 63 55 82 56
REMARK SMILES IDX 47 57 48 58 62 60 83 61 50 62 34 63 35 64 43 65 36 66 38 67
REMARK SMILES IDX 44 68 37 69 39 70 40 71 41 72 42 73 66 74 67 75 75 76 68 77
REMARK SMILES IDX 70 78 76 79 69 80 71 81 72 82 73 83 74 84 51 85 52 86 60 87
REMARK SMILES IDX 53 88 55 89 61 90 54 91 56 92 57 93 58 94 59 95
REMARK H PARENT 18 5 10 9 22 29 81 48 49 59
REMARK Flexibility Score: inf
ROOT
ATOM      1  C   UNL A   1      33.066  28.829  23.523  1.00  0.00     0.118 C 
ENDROOT
BRANCH   1   2
ATOM      2  N   UNL A   1      31.623  28.636  23.552  1.00  0.00    -0.351 N 
ATOM      3  C   UNL A   1      30.887  27.492  23.428  1.00  0.00     0.278 C 
ATOM      4  O   UNL A   1      29.655  27.593  23.397  1.00  0.00    -0.268 OA
ATOM      5  H   UNL A   1      31.096  29.457  23.682  1.00  0.00     0.163 HD
BRANCH   3   6
ATOM      6  C   UNL A   1      31.547  26.109  23.270  1.00  0.00     0.274 C 
ATOM      7  N   UNL A   1      32.529  25.823  24.371  1.00  0.00    -0.325 N 
ATOM      8  C   UNL A   1      33.274  24.577  24.081  1.00  0.00     0.262 C 
ATOM      9  H   UNL A   1      33.181  26.605  24.428  1.00  0.00     0.348 HD
ATOM     10  C   UNL A   1      33.891  24.531  22.683  1.00  0.00     0.062 C 
ATOM     11  C   UNL A   1      32.103  26.021  21.841  1.00  0.00     0.076 C 
ATOM     12  C   UNL A   1      32.827  24.709  21.611  1.00  0.00     0.012 C 
BRANCH   7  13
ATOM     13  C   UNL A   1      31.817  25.670  25.669  1.00  0.00     0.266 C 
BRANCH  13  14
ATOM     14  C   UNL A   1      30.667  24.643  25.678  1.00  0.00     0.103 C 
BRANCH  14  15
ATOM     15  C   UNL A   1      30.808  23.520  26.715  1.00  0.00     0.235 C 
BRANCH  15  16
ATOM     16  O   UNL A   1      30.737  22.200  26.134  1.00  0.00    -0.493 OA
BRANCH  16  17
ATOM     17  C   UNL A   1      31.987  21.678  25.927  1.00  0.00     0.119 A 
ATOM     18  C   UNL A   1      36.017  20.436  25.083  1.00  0.00     0.044 C 
ATOM     19  C   UNL A   1      34.587  20.776  25.404  1.00  0.00    -0.048 A 
ATOM     20  C   UNL A   1      34.349  21.782  26.351  1.00  0.00     0.007 A 
ATOM     21  C   UNL A   1      33.489  20.119  24.814  1.00  0.00    -0.045 A 
ATOM     22  C   UNL A   1      33.055  22.197  26.642  1.00  0.00     0.047 A 
ATOM     23  C   UNL A   1      32.186  20.601  25.064  1.00  0.00     0.050 A 
ATOM     24  C   UNL A   1      33.655  18.858  24.009  1.00  0.00     0.045 C 
ENDBRANCH  16  17
ENDBRANCH  15  16
ENDBRANCH  14  15
ENDBRANCH  13  14
ENDBRANCH   7  13
ENDBRANCH   3   6
ENDBRANCH   1   2
BRANCH   1  25
ATOM     25  C   UNL A   1      33.604  29.339  24.851  1.00  0.00     0.042 C 
BRANCH  25  26
ATOM     26  C   UNL A   1      32.542  29.401  25.944  1.00  0.00     0.118 C 
BRANCH  26  27
ATOM     27  N   UNL A   1      32.175  30.767  26.308  1.00  0.00    -0.352 N 
ATOM     28  C   UNL A   1      32.831  31.660  27.129  1.00  0.00     0.251 C 
ATOM     29  H   UNL A   1      31.338  31.098  25.911  1.00  0.00     0.163 HD
ATOM     30  O   UNL A   1      32.297  32.713  27.450  1.00  0.00    -0.269 OA
BRANCH  28  31
ATOM     31  C   UNL A   1      34.178  31.321  27.634  1.00  0.00     0.039 A 
ATOM     32  C   UNL A   1      35.166  32.307  27.668  1.00  0.00     0.014 A 
ATOM     33  C   UNL A   1      34.445  30.035  28.109  1.00  0.00     0.014 A 
ATOM     34  C   UNL A   1      36.397  32.030  28.270  1.00  0.00     0.010 A 
ATOM     35  C   UNL A   1      35.639  29.785  28.775  1.00  0.00     0.010 A 
ATOM     36  C   UNL A   1      36.624  30.780  28.869  1.00  0.00    -0.014 A 
BRANCH  36  37
ATOM     37  C   UNL A   1      37.866  30.480  29.625  1.00  0.00     0.031 A 
ATOM     38  C   UNL A   1      38.883  29.536  29.046  1.00  0.00     0.074 A 
ATOM     39  C   UNL A   1      38.009  30.940  30.885  1.00  0.00     0.049 A 
ATOM     40  N   UNL A   1      39.944  29.020  29.608  1.00  0.00    -0.248 NA
ATOM     41  C   UNL A   1      38.655  29.084  27.662  1.00  0.00     0.031 C 
ATOM     42  C   UNL A   1      37.051  31.798  31.589  1.00  0.00     0.029 A 
ATOM     43  N   UNL A   1      38.994  30.714  31.814  1.00  0.00    -0.354 N 
ATOM     44  C   UNL A   1      40.478  28.143  28.672  1.00  0.00     0.074 A 
ATOM     45  C   UNL A   1      39.615  28.183  27.512  1.00  0.00     0.031 C 
ATOM     46  C   UNL A   1      37.493  32.018  32.837  1.00  0.00     0.029 A 
ATOM     47  C   UNL A   1      38.744  31.297  33.035  1.00  0.00     0.049 A 
ATOM     48  H   UNL A   1      39.803  30.187  31.623  1.00  0.00     0.167 HD
ATOM     49  C   UNL A   1      41.603  27.395  28.759  1.00  0.00     0.034 A 
ATOM     50  C   UNL A   1      39.441  31.245  34.189  1.00  0.00     0.034 A 
ATOM     51  C   UNL A   1      42.498  27.416  29.882  1.00  0.00     0.049 A 
ATOM     52  C   UNL A   1      40.727  30.464  34.233  1.00  0.00     0.074 A 
ATOM     53  C   UNL A   1      43.716  26.776  30.024  1.00  0.00     0.029 A 
ATOM     54  N   UNL A   1      42.276  28.121  31.056  1.00  0.00    -0.354 N 
ATOM     55  N   UNL A   1      41.298  29.765  33.282  1.00  0.00    -0.248 NA
ATOM     56  C   UNL A   1      41.481  30.489  35.495  1.00  0.00     0.031 C 
ATOM     57  C   UNL A   1      44.231  27.094  31.284  1.00  0.00     0.029 A 
ATOM     58  C   UNL A   1      43.335  27.935  31.925  1.00  0.00     0.049 A 
ATOM     59  H   UNL A   1      41.482  28.672  31.242  1.00  0.00     0.167 HD
ATOM     60  C   UNL A   1      42.493  29.299  33.817  1.00  0.00     0.074 A 
ATOM     61  C   UNL A   1      42.572  29.807  35.170  1.00  0.00     0.031 C 
ATOM     62  C   UNL A   1      43.432  28.506  33.244  1.00  0.00     0.034 A 
BRANCH  49  63
ATOM     63  C   UNL A   1      41.969  26.545  27.573  1.00  0.00     0.023 A 
ATOM     64  C   UNL A   1      42.641  27.134  26.483  1.00  0.00     0.012 A 
ATOM     65  C   UNL A   1      41.700  25.163  27.555  1.00  0.00     0.148 A 
ATOM     66  C   UNL A   1      43.014  26.369  25.380  1.00  0.00     0.002 A 
ATOM     67  C   UNL A   1      42.110  24.398  26.468  1.00  0.00     0.091 A 
ATOM     68  F   UNL A   1      41.037  24.624  28.588  1.00  0.00    -0.205 F 
ATOM     69  C   UNL A   1      42.758  25.000  25.378  1.00  0.00     0.022 A 
BRANCH  67  70
ATOM     70  S   UNL A   1      41.888  22.616  26.407  1.00  0.00     0.127 S 
ATOM     71  O   UNL A   1      40.432  22.501  26.377  1.00  0.00    -0.237 OA
ATOM     72  O   UNL A   1      42.553  22.261  25.153  1.00  0.00    -0.237 OA
ATOM     73  O   UNL A   1      42.538  22.095  27.603  1.00  0.00    -0.744 OA
ENDBRANCH  67  70
ENDBRANCH  49  63
BRANCH  50  74
ATOM     74  C   UNL A   1      38.976  32.024  35.371  1.00  0.00     0.023 A 
ATOM     75  C   UNL A   1      39.106  33.427  35.358  1.00  0.00     0.012 A 
ATOM     76  C   UNL A   1      38.371  31.402  36.479  1.00  0.00     0.148 A 
ATOM     77  C   UNL A   1      38.666  34.193  36.437  1.00  0.00     0.002 A 
ATOM     78  C   UNL A   1      37.889  32.176  37.530  1.00  0.00     0.091 A 
ATOM     79  F   UNL A   1      38.270  30.065  36.483  1.00  0.00    -0.205 F 
ATOM     80  C   UNL A   1      38.048  33.570  37.518  1.00  0.00     0.022 A 
BRANCH  78  81
ATOM     81  S   UNL A   1      36.964  31.463  38.896  1.00  0.00     0.127 S 
ATOM     82  O   UNL A   1      36.785  30.084  38.451  1.00  0.00    -0.237 OA
ATOM     83  O   UNL A   1      37.888  31.634  40.018  1.00  0.00    -0.237 OA
ATOM     84  O   UNL A   1      35.751  32.263  38.999  1.00  0.00    -0.744 OA
ENDBRANCH  78  81
ENDBRANCH  50  74
BRANCH  62  85
ATOM     85  C   UNL A   1      44.650  28.160  34.055  1.00  0.00     0.023 A 
ATOM     86  C   UNL A   1      45.748  29.042  34.067  1.00  0.00     0.012 A 
ATOM     87  C   UNL A   1      44.663  27.022  34.884  1.00  0.00     0.148 A 
ATOM     88  C   UNL A   1      46.849  28.787  34.883  1.00  0.00     0.002 A 
ATOM     89  C   UNL A   1      45.746  26.796  35.725  1.00  0.00     0.091 A 
ATOM     90  F   UNL A   1      43.615  26.186  34.841  1.00  0.00    -0.205 F 
ATOM     91  C   UNL A   1      46.843  27.674  35.721  1.00  0.00     0.022 A 
BRANCH  89  92
ATOM     92  S   UNL A   1      45.782  25.439  36.901  1.00  0.00     0.127 S 
ATOM     93  O   UNL A   1      45.938  24.283  36.019  1.00  0.00    -0.237 OA
ATOM     94  O   UNL A   1      46.962  25.754  37.708  1.00  0.00    -0.237 OA
ATOM     95  O   UNL A   1      44.522  25.507  37.628  1.00  0.00    -0.744 OA
ENDBRANCH  89  92
ENDBRANCH  62  85
ENDBRANCH  36  37
ENDBRANCH  28  31
ENDBRANCH  26  27
ENDBRANCH  25  26
ENDBRANCH   1  25
TORSDOF 18
ENDMDL
