MODEL 1
REMARK VINA RESULT:     -12.1      0.000      0.000
REMARK SMILES O=C(NCCCNC(=O)c1ccc(-c2c3nc(c(-c4cccc(S(=O)(=O)[O-])c4F)c4ccc([nH]4)c(-c4cccc(S(=O)(=O)[O-])c4F)c4nc(c(-c5cccc(S(=O)(=O)[O-])c5F)c5ccc2[nH]5)C=C4)C=C3)cc1)c1ccc(NS(=O)(=O)Cc2c(Cl)cccc2Cl)cc1
REMARK SMILES IDX 4 1 3 2 1 3 2 4 73 6 74 7 91 8 75 9 90 10 76 11 77 12 78 14
REMARK SMILES IDX 79 15 80 16 81 17 82 18 83 19 88 20 84 21 85 22 87 23 89 24
REMARK SMILES IDX 86 25 5 26 6 27 7 28 8 29 9 31 10 32 11 33 72 34 12 35 71 36
REMARK SMILES IDX 13 37 14 38 15 39 65 40 16 41 70 42 64 43 66 44 17 45 69 46
REMARK SMILES IDX 63 47 62 48 18 50 50 51 30 52 49 53 31 54 34 55 48 56 67 57
REMARK SMILES IDX 32 58 33 59 47 61 68 62 35 63 19 64 20 65 28 66 21 67 23 68
REMARK SMILES IDX 29 69 22 70 24 71 25 72 26 73 27 74 51 75 52 76 60 77 53 78
REMARK SMILES IDX 55 79 61 80 54 81 56 82 57 83 58 84 59 85 36 86 37 87 45 88
REMARK SMILES IDX 38 89 40 90 46 91 39 92 41 93 42 94 43 95 44 96
REMARK H PARENT 3 5 77 13 7 30 66 49 34 60
REMARK Flexibility Score: inf
ROOT
ATOM      1  C   UNL A   1      31.395  29.537  25.103  1.00  0.00     0.118 C 
ENDROOT
BRANCH   1   2
ATOM      2  N   UNL A   1      30.851  29.983  23.829  1.00  0.00    -0.352 N 
ATOM      3  O   UNL A   1      30.120  29.745  21.698  1.00  0.00    -0.269 OA
ATOM      4  C   UNL A   1      30.420  29.226  22.766  1.00  0.00     0.251 C 
ATOM      5  H   UNL A   1      30.781  30.958  23.714  1.00  0.00     0.163 HD
BRANCH   4   6
ATOM      6  C   UNL A   1      30.332  27.764  22.923  1.00  0.00     0.039 A 
ATOM      7  C   UNL A   1      29.298  27.205  23.677  1.00  0.00     0.016 A 
ATOM      8  C   UNL A   1      31.311  26.955  22.350  1.00  0.00     0.016 A 
ATOM      9  C   UNL A   1      29.307  25.839  23.951  1.00  0.00     0.027 A 
ATOM     10  C   UNL A   1      31.323  25.590  22.644  1.00  0.00     0.027 A 
ATOM     11  C   UNL A   1      30.351  25.037  23.488  1.00  0.00     0.049 A 
BRANCH  11  12
ATOM     12  N   UNL A   1      30.567  23.707  23.933  1.00  0.00    -0.283 N 
ATOM     13  H   UNL A   1      30.253  22.986  23.341  1.00  0.00     0.180 HD
BRANCH  12  14
ATOM     14  S   UNL A   1      31.292  23.249  25.346  1.00  0.00     0.237 S 
ATOM     15  O   UNL A   1      32.022  24.387  25.875  1.00  0.00    -0.206 OA
ATOM     16  O   UNL A   1      30.227  22.668  26.139  1.00  0.00    -0.206 OA
BRANCH  14  17
ATOM     17  C   UNL A   1      32.476  21.925  24.989  1.00  0.00     0.198 C 
BRANCH  17  18
ATOM     18  C   UNL A   1      33.935  22.318  24.868  1.00  0.00     0.006 A 
ATOM     19  C   UNL A   1      34.455  22.812  23.648  1.00  0.00     0.046 A 
ATOM     20  C   UNL A   1      34.802  22.341  25.977  1.00  0.00     0.046 A 
ATOM     21  Cl  UNL A   1      33.505  22.932  22.204  1.00  0.00    -0.084 Cl
ATOM     22  C   UNL A   1      35.776  23.266  23.541  1.00  0.00     0.021 A 
ATOM     23  C   UNL A   1      36.137  22.756  25.856  1.00  0.00     0.021 A 
ATOM     24  Cl  UNL A   1      34.274  21.940  27.574  1.00  0.00    -0.084 Cl
ATOM     25  C   UNL A   1      36.623  23.223  24.642  1.00  0.00     0.003 A 
ENDBRANCH  17  18
ENDBRANCH  14  17
ENDBRANCH  12  14
ENDBRANCH  11  12
ENDBRANCH   4   6
ENDBRANCH   1   2
BRANCH   1  26
ATOM     26  C   UNL A   1      32.914  29.426  25.091  1.00  0.00     0.042 C 
BRANCH  26  27
ATOM     27  C   UNL A   1      33.563  29.444  26.467  1.00  0.00     0.118 C 
BRANCH  27  28
ATOM     28  N   UNL A   1      33.577  30.772  27.068  1.00  0.00    -0.352 N 
ATOM     29  C   UNL A   1      34.443  31.331  27.976  1.00  0.00     0.251 C 
ATOM     30  H   UNL A   1      32.846  31.364  26.776  1.00  0.00     0.163 HD
ATOM     31  O   UNL A   1      34.163  32.418  28.476  1.00  0.00    -0.269 OA
BRANCH  29  32
ATOM     32  C   UNL A   1      35.686  30.630  28.378  1.00  0.00     0.039 A 
ATOM     33  C   UNL A   1      36.860  30.870  27.655  1.00  0.00     0.014 A 
ATOM     34  C   UNL A   1      35.705  29.729  29.444  1.00  0.00     0.014 A 
ATOM     35  C   UNL A   1      38.058  30.269  28.051  1.00  0.00     0.010 A 
ATOM     36  C   UNL A   1      36.915  29.208  29.895  1.00  0.00     0.010 A 
ATOM     37  C   UNL A   1      38.106  29.467  29.202  1.00  0.00    -0.014 A 
BRANCH  37  38
ATOM     38  C   UNL A   1      39.389  28.904  29.703  1.00  0.00     0.031 A 
ATOM     39  C   UNL A   1      40.131  29.574  30.830  1.00  0.00     0.074 A 
ATOM     40  C   UNL A   1      39.934  27.836  29.085  1.00  0.00     0.049 A 
ATOM     41  N   UNL A   1      41.286  29.261  31.357  1.00  0.00    -0.248 NA
ATOM     42  C   UNL A   1      39.506  30.767  31.425  1.00  0.00     0.031 C 
ATOM     43  C   UNL A   1      39.358  27.140  27.932  1.00  0.00     0.029 A 
ATOM     44  N   UNL A   1      41.109  27.166  29.322  1.00  0.00    -0.354 N 
ATOM     45  C   UNL A   1      41.544  30.234  32.315  1.00  0.00     0.074 A 
ATOM     46  C   UNL A   1      40.443  31.170  32.272  1.00  0.00     0.031 C 
ATOM     47  C   UNL A   1      40.173  26.138  27.570  1.00  0.00     0.029 A 
ATOM     48  C   UNL A   1      41.348  26.141  28.434  1.00  0.00     0.049 A 
ATOM     49  H   UNL A   1      41.722  27.396  30.057  1.00  0.00     0.167 HD
ATOM     50  C   UNL A   1      42.588  30.328  33.174  1.00  0.00     0.034 A 
ATOM     51  C   UNL A   1      42.400  25.306  28.320  1.00  0.00     0.034 A 
ATOM     52  C   UNL A   1      43.667  29.379  33.240  1.00  0.00     0.049 A 
ATOM     53  C   UNL A   1      43.536  25.419  29.299  1.00  0.00     0.074 A 
ATOM     54  C   UNL A   1      44.722  29.338  34.133  1.00  0.00     0.029 A 
ATOM     55  N   UNL A   1      43.839  28.313  32.369  1.00  0.00    -0.354 N 
ATOM     56  N   UNL A   1      43.683  26.250  30.300  1.00  0.00    -0.248 NA
ATOM     57  C   UNL A   1      44.637  24.454  29.152  1.00  0.00     0.031 C 
ATOM     58  C   UNL A   1      45.553  28.270  33.780  1.00  0.00     0.029 A 
ATOM     59  C   UNL A   1      44.994  27.620  32.692  1.00  0.00     0.049 A 
ATOM     60  H   UNL A   1      43.230  28.084  31.631  1.00  0.00     0.167 HD
ATOM     61  C   UNL A   1      44.873  25.890  30.924  1.00  0.00     0.074 A 
ATOM     62  C   UNL A   1      45.393  24.749  30.200  1.00  0.00     0.031 C 
ATOM     63  C   UNL A   1      45.483  26.460  31.992  1.00  0.00     0.034 A 
BRANCH  50  64
ATOM     64  C   UNL A   1      42.594  31.482  34.145  1.00  0.00     0.023 A 
ATOM     65  C   UNL A   1      43.272  32.673  33.814  1.00  0.00     0.012 A 
ATOM     66  C   UNL A   1      41.885  31.408  35.361  1.00  0.00     0.148 A 
ATOM     67  C   UNL A   1      43.282  33.755  34.693  1.00  0.00     0.002 A 
ATOM     68  C   UNL A   1      41.858  32.509  36.210  1.00  0.00     0.091 A 
ATOM     69  F   UNL A   1      41.260  30.263  35.669  1.00  0.00    -0.205 F 
ATOM     70  C   UNL A   1      42.568  33.677  35.884  1.00  0.00     0.022 A 
BRANCH  68  71
ATOM     71  S   UNL A   1      40.900  32.540  37.729  1.00  0.00     0.127 S 
ATOM     72  O   UNL A   1      41.766  31.791  38.638  1.00  0.00    -0.237 OA
ATOM     73  O   UNL A   1      40.815  33.973  38.009  1.00  0.00    -0.237 OA
ATOM     74  O   UNL A   1      39.627  31.905  37.414  1.00  0.00    -0.744 OA
ENDBRANCH  68  71
ENDBRANCH  50  64
BRANCH  51  75
ATOM     75  C   UNL A   1      42.402  24.254  27.263  1.00  0.00     0.023 A 
ATOM     76  C   UNL A   1      43.243  24.396  26.143  1.00  0.00     0.012 A 
ATOM     77  C   UNL A   1      41.596  23.104  27.374  1.00  0.00     0.148 A 
ATOM     78  C   UNL A   1      43.258  23.431  25.136  1.00  0.00     0.002 A 
ATOM     79  C   UNL A   1      41.659  22.118  26.398  1.00  0.00     0.091 A 
ATOM     80  F   UNL A   1      40.796  22.991  28.444  1.00  0.00    -0.205 F 
ATOM     81  C   UNL A   1      42.474  22.288  25.268  1.00  0.00     0.022 A 
BRANCH  79  82
ATOM     82  S   UNL A   1      40.793  20.552  26.552  1.00  0.00     0.127 S 
ATOM     83  O   UNL A   1      39.436  20.921  26.156  1.00  0.00    -0.237 OA
ATOM     84  O   UNL A   1      41.511  19.716  25.590  1.00  0.00    -0.237 OA
ATOM     85  O   UNL A   1      40.956  20.144  27.940  1.00  0.00    -0.744 OA
ENDBRANCH  79  82
ENDBRANCH  51  75
BRANCH  63  86
ATOM     86  C   UNL A   1      46.770  25.840  32.476  1.00  0.00     0.023 A 
ATOM     87  C   UNL A   1      46.753  24.939  33.560  1.00  0.00     0.012 A 
ATOM     88  C   UNL A   1      47.984  26.098  31.810  1.00  0.00     0.148 A 
ATOM     89  C   UNL A   1      47.932  24.334  33.996  1.00  0.00     0.002 A 
ATOM     90  C   UNL A   1      49.144  25.450  32.216  1.00  0.00     0.091 A 
ATOM     91  F   UNL A   1      47.982  26.971  30.792  1.00  0.00    -0.205 F 
ATOM     92  C   UNL A   1      49.123  24.580  33.318  1.00  0.00     0.022 A 
BRANCH  90  93
ATOM     93  S   UNL A   1      50.704  25.629  31.344  1.00  0.00     0.127 S 
ATOM     94  O   UNL A   1      51.584  24.763  32.127  1.00  0.00    -0.237 OA
ATOM     95  O   UNL A   1      50.372  25.118  30.013  1.00  0.00    -0.237 OA
ATOM     96  O   UNL A   1      51.029  27.047  31.384  1.00  0.00    -0.744 OA
ENDBRANCH  90  93
ENDBRANCH  63  86
ENDBRANCH  37  38
ENDBRANCH  29  32
ENDBRANCH  27  28
ENDBRANCH  26  27
ENDBRANCH   1  26
TORSDOF 17
ENDMDL
MODEL 2
REMARK VINA RESULT:     -12.0      5.022      8.170
REMARK SMILES O=C(NCCCNC(=O)c1ccc(-c2c3nc(c(-c4cccc(S(=O)(=O)[O-])c4F)c4ccc([nH]4)c(-c4cccc(S(=O)(=O)[O-])c4F)c4nc(c(-c5cccc(S(=O)(=O)[O-])c5F)c5ccc2[nH]5)C=C4)C=C3)cc1)c1ccc(NS(=O)(=O)Cc2c(Cl)cccc2Cl)cc1
REMARK SMILES IDX 4 1 3 2 1 3 2 4 73 6 74 7 91 8 75 9 90 10 76 11 77 12 78 14
REMARK SMILES IDX 79 15 80 16 81 17 82 18 83 19 88 20 84 21 85 22 87 23 89 24
REMARK SMILES IDX 86 25 5 26 6 27 7 28 8 29 9 31 10 32 11 33 72 34 12 35 71 36
REMARK SMILES IDX 13 37 14 38 15 39 65 40 16 41 70 42 64 43 66 44 17 45 69 46
REMARK SMILES IDX 63 47 62 48 18 50 50 51 30 52 49 53 31 54 34 55 48 56 67 57
REMARK SMILES IDX 32 58 33 59 47 61 68 62 35 63 19 64 20 65 28 66 21 67 23 68
REMARK SMILES IDX 29 69 22 70 24 71 25 72 26 73 27 74 51 75 52 76 60 77 53 78
REMARK SMILES IDX 55 79 61 80 54 81 56 82 57 83 58 84 59 85 36 86 37 87 45 88
REMARK SMILES IDX 38 89 40 90 46 91 39 92 41 93 42 94 43 95 44 96
REMARK H PARENT 3 5 77 13 7 30 66 49 34 60
REMARK Flexibility Score: inf
ROOT
ATOM      1  C   UNL A   1      35.260  20.485  25.262  1.00  0.00     0.118 C 
ENDROOT
BRANCH   1   2
ATOM      2  N   UNL A   1      34.261  19.439  25.427  1.00  0.00    -0.352 N 
ATOM      3  O   UNL A   1      32.169  18.572  25.492  1.00  0.00    -0.269 OA
ATOM      4  C   UNL A   1      32.913  19.488  25.166  1.00  0.00     0.251 C 
ATOM      5  H   UNL A   1      34.596  18.581  25.773  1.00  0.00     0.163 HD
BRANCH   4   6
ATOM      6  C   UNL A   1      32.363  20.676  24.489  1.00  0.00     0.039 A 
ATOM      7  C   UNL A   1      32.259  20.699  23.097  1.00  0.00     0.016 A 
ATOM      8  C   UNL A   1      31.991  21.784  25.248  1.00  0.00     0.016 A 
ATOM      9  C   UNL A   1      31.884  21.878  22.454  1.00  0.00     0.027 A 
ATOM     10  C   UNL A   1      31.635  22.967  24.596  1.00  0.00     0.027 A 
ATOM     11  C   UNL A   1      31.631  23.032  23.196  1.00  0.00     0.049 A 
BRANCH  11  12
ATOM     12  N   UNL A   1      31.499  24.318  22.613  1.00  0.00    -0.283 N 
ATOM     13  H   UNL A   1      30.672  24.813  22.816  1.00  0.00     0.180 HD
BRANCH  12  14
ATOM     14  S   UNL A   1      32.594  25.069  21.628  1.00  0.00     0.237 S 
ATOM     15  O   UNL A   1      33.554  24.079  21.175  1.00  0.00    -0.206 OA
ATOM     16  O   UNL A   1      31.791  25.768  20.645  1.00  0.00    -0.206 OA
BRANCH  14  17
ATOM     17  C   UNL A   1      33.476  26.325  22.590  1.00  0.00     0.198 C 
BRANCH  17  18
ATOM     18  C   UNL A   1      32.960  26.616  23.984  1.00  0.00     0.006 A 
ATOM     19  C   UNL A   1      31.824  27.437  24.180  1.00  0.00     0.046 A 
ATOM     20  C   UNL A   1      33.487  25.987  25.129  1.00  0.00     0.046 A 
ATOM     21  Cl  UNL A   1      30.998  28.224  22.876  1.00  0.00    -0.084 Cl
ATOM     22  C   UNL A   1      31.276  27.644  25.454  1.00  0.00     0.021 A 
ATOM     23  C   UNL A   1      32.962  26.230  26.406  1.00  0.00     0.021 A 
ATOM     24  Cl  UNL A   1      34.757  24.818  25.040  1.00  0.00    -0.084 Cl
ATOM     25  C   UNL A   1      31.856  27.054  26.569  1.00  0.00     0.003 A 
ENDBRANCH  17  18
ENDBRANCH  14  17
ENDBRANCH  12  14
ENDBRANCH  11  12
ENDBRANCH   4   6
ENDBRANCH   1   2
BRANCH   1  26
ATOM     26  C   UNL A   1      36.555  19.972  24.646  1.00  0.00     0.042 C 
BRANCH  26  27
ATOM     27  C   UNL A   1      37.814  20.657  25.157  1.00  0.00     0.118 C 
BRANCH  27  28
ATOM     28  N   UNL A   1      38.852  19.711  25.549  1.00  0.00    -0.352 N 
ATOM     29  C   UNL A   1      40.111  19.927  26.055  1.00  0.00     0.251 C 
ATOM     30  H   UNL A   1      38.612  18.763  25.430  1.00  0.00     0.163 HD
ATOM     31  O   UNL A   1      40.884  18.977  26.156  1.00  0.00    -0.269 OA
BRANCH  29  32
ATOM     32  C   UNL A   1      40.552  21.285  26.451  1.00  0.00     0.039 A 
ATOM     33  C   UNL A   1      41.512  21.415  27.461  1.00  0.00     0.014 A 
ATOM     34  C   UNL A   1      40.022  22.429  25.853  1.00  0.00     0.014 A 
ATOM     35  C   UNL A   1      41.989  22.681  27.812  1.00  0.00     0.010 A 
ATOM     36  C   UNL A   1      40.568  23.680  26.134  1.00  0.00     0.010 A 
ATOM     37  C   UNL A   1      41.554  23.822  27.120  1.00  0.00    -0.014 A 
BRANCH  37  38
ATOM     38  C   UNL A   1      42.127  25.167  27.402  1.00  0.00     0.031 A 
ATOM     39  C   UNL A   1      41.312  26.212  28.118  1.00  0.00     0.074 A 
ATOM     40  C   UNL A   1      43.353  25.478  26.936  1.00  0.00     0.049 A 
ATOM     41  N   UNL A   1      41.623  27.451  28.397  1.00  0.00    -0.248 NA
ATOM     42  C   UNL A   1      39.960  25.823  28.553  1.00  0.00     0.031 C 
ATOM     43  C   UNL A   1      44.216  24.584  26.160  1.00  0.00     0.029 A 
ATOM     44  N   UNL A   1      44.077  26.642  27.021  1.00  0.00    -0.354 N 
ATOM     45  C   UNL A   1      40.500  27.999  29.004  1.00  0.00     0.074 A 
ATOM     46  C   UNL A   1      39.485  26.969  29.019  1.00  0.00     0.031 C 
ATOM     47  C   UNL A   1      45.352  25.227  25.851  1.00  0.00     0.029 A 
ATOM     48  C   UNL A   1      45.287  26.590  26.368  1.00  0.00     0.049 A 
ATOM     49  H   UNL A   1      43.760  27.439  27.505  1.00  0.00     0.167 HD
ATOM     50  C   UNL A   1      40.334  29.238  29.528  1.00  0.00     0.034 A 
ATOM     51  C   UNL A   1      46.233  27.534  26.193  1.00  0.00     0.034 A 
ATOM     52  C   UNL A   1      41.354  30.252  29.543  1.00  0.00     0.049 A 
ATOM     53  C   UNL A   1      46.033  28.895  26.802  1.00  0.00     0.074 A 
ATOM     54  C   UNL A   1      41.313  31.504  30.128  1.00  0.00     0.029 A 
ATOM     55  N   UNL A   1      42.594  30.137  28.932  1.00  0.00    -0.354 N 
ATOM     56  N   UNL A   1      45.025  29.341  27.511  1.00  0.00    -0.248 NA
ATOM     57  C   UNL A   1      47.116  29.872  26.615  1.00  0.00     0.031 C 
ATOM     58  C   UNL A   1      42.513  32.162  29.838  1.00  0.00     0.029 A 
ATOM     59  C   UNL A   1      43.319  31.304  29.109  1.00  0.00     0.049 A 
ATOM     60  H   UNL A   1      42.912  29.343  28.445  1.00  0.00     0.167 HD
ATOM     61  C   UNL A   1      45.366  30.637  27.884  1.00  0.00     0.074 A 
ATOM     62  C   UNL A   1      46.684  30.894  27.342  1.00  0.00     0.031 C 
ATOM     63  C   UNL A   1      44.647  31.535  28.601  1.00  0.00     0.034 A 
BRANCH  50  64
ATOM     64  C   UNL A   1      39.005  29.554  30.168  1.00  0.00     0.023 A 
ATOM     65  C   UNL A   1      38.729  29.095  31.472  1.00  0.00     0.012 A 
ATOM     66  C   UNL A   1      38.052  30.350  29.502  1.00  0.00     0.148 A 
ATOM     67  C   UNL A   1      37.511  29.384  32.087  1.00  0.00     0.002 A 
ATOM     68  C   UNL A   1      36.861  30.676  30.140  1.00  0.00     0.091 A 
ATOM     69  F   UNL A   1      38.323  30.764  28.255  1.00  0.00    -0.205 F 
ATOM     70  C   UNL A   1      36.583  30.182  31.425  1.00  0.00     0.022 A 
BRANCH  68  71
ATOM     71  S   UNL A   1      35.635  31.765  29.408  1.00  0.00     0.127 S 
ATOM     72  O   UNL A   1      35.013  30.887  28.418  1.00  0.00    -0.237 OA
ATOM     73  O   UNL A   1      34.787  32.088  30.556  1.00  0.00    -0.237 OA
ATOM     74  O   UNL A   1      36.375  32.895  28.862  1.00  0.00    -0.744 OA
ENDBRANCH  68  71
ENDBRANCH  50  64
BRANCH  51  75
ATOM     75  C   UNL A   1      47.482  27.206  25.447  1.00  0.00     0.023 A 
ATOM     76  C   UNL A   1      48.502  26.477  26.088  1.00  0.00     0.012 A 
ATOM     77  C   UNL A   1      47.653  27.591  24.103  1.00  0.00     0.148 A 
ATOM     78  C   UNL A   1      49.684  26.165  25.416  1.00  0.00     0.002 A 
ATOM     79  C   UNL A   1      48.807  27.226  23.421  1.00  0.00     0.091 A 
ATOM     80  F   UNL A   1      46.674  28.292  23.514  1.00  0.00    -0.205 F 
ATOM     81  C   UNL A   1      49.833  26.531  24.080  1.00  0.00     0.022 A 
BRANCH  79  82
ATOM     82  S   UNL A   1      49.026  27.532  21.665  1.00  0.00     0.127 S 
ATOM     83  O   UNL A   1      49.143  28.987  21.626  1.00  0.00    -0.237 OA
ATOM     84  O   UNL A   1      50.264  26.804  21.386  1.00  0.00    -0.237 OA
ATOM     85  O   UNL A   1      47.846  26.976  21.016  1.00  0.00    -0.744 OA
ENDBRANCH  79  82
ENDBRANCH  51  75
BRANCH  63  86
ATOM     86  C   UNL A   1      45.280  32.876  28.880  1.00  0.00     0.023 A 
ATOM     87  C   UNL A   1      46.075  33.054  30.029  1.00  0.00     0.012 A 
ATOM     88  C   UNL A   1      45.142  33.937  27.963  1.00  0.00     0.148 A 
ATOM     89  C   UNL A   1      46.692  34.279  30.281  1.00  0.00     0.002 A 
ATOM     90  C   UNL A   1      45.804  35.137  28.193  1.00  0.00     0.091 A 
ATOM     91  F   UNL A   1      44.368  33.753  26.884  1.00  0.00    -0.205 F 
ATOM     92  C   UNL A   1      46.566  35.315  29.358  1.00  0.00     0.022 A 
BRANCH  90  93
ATOM     93  S   UNL A   1      45.780  36.492  27.015  1.00  0.00     0.127 S 
ATOM     94  O   UNL A   1      46.308  35.850  25.812  1.00  0.00    -0.237 OA
ATOM     95  O   UNL A   1      44.356  36.823  26.955  1.00  0.00    -0.237 OA
ATOM     96  O   UNL A   1      46.621  37.536  27.583  1.00  0.00    -0.744 OA
ENDBRANCH  90  93
ENDBRANCH  63  86
ENDBRANCH  37  38
ENDBRANCH  29  32
ENDBRANCH  27  28
ENDBRANCH  26  27
ENDBRANCH   1  26
TORSDOF 17
ENDMDL
MODEL 3
REMARK VINA RESULT:     -12.0      2.218      2.625
REMARK SMILES O=C(NCCCNC(=O)c1ccc(-c2c3nc(c(-c4cccc(S(=O)(=O)[O-])c4F)c4ccc([nH]4)c(-c4cccc(S(=O)(=O)[O-])c4F)c4nc(c(-c5cccc(S(=O)(=O)[O-])c5F)c5ccc2[nH]5)C=C4)C=C3)cc1)c1ccc(NS(=O)(=O)Cc2c(Cl)cccc2Cl)cc1
REMARK SMILES IDX 4 1 3 2 1 3 2 4 73 6 74 7 91 8 75 9 90 10 76 11 77 12 78 14
REMARK SMILES IDX 79 15 80 16 81 17 82 18 83 19 88 20 84 21 85 22 87 23 89 24
REMARK SMILES IDX 86 25 5 26 6 27 7 28 8 29 9 31 10 32 11 33 72 34 12 35 71 36
REMARK SMILES IDX 13 37 14 38 15 39 65 40 16 41 70 42 64 43 66 44 17 45 69 46
REMARK SMILES IDX 63 47 62 48 18 50 50 51 30 52 49 53 31 54 34 55 48 56 67 57
REMARK SMILES IDX 32 58 33 59 47 61 68 62 35 63 19 64 20 65 28 66 21 67 23 68
REMARK SMILES IDX 29 69 22 70 24 71 25 72 26 73 27 74 51 75 52 76 60 77 53 78
REMARK SMILES IDX 55 79 61 80 54 81 56 82 57 83 58 84 59 85 36 86 37 87 45 88
REMARK SMILES IDX 38 89 40 90 46 91 39 92 41 93 42 94 43 95 44 96
REMARK H PARENT 3 5 77 13 7 30 66 49 34 60
REMARK Flexibility Score: inf
ROOT
ATOM      1  C   UNL A   1      30.866  29.871  24.987  1.00  0.00     0.118 C 
ENDROOT
BRANCH   1   2
ATOM      2  N   UNL A   1      30.437  30.092  23.613  1.00  0.00    -0.352 N 
ATOM      3  O   UNL A   1      29.975  29.508  21.473  1.00  0.00    -0.269 OA
ATOM      4  C   UNL A   1      30.192  29.165  22.629  1.00  0.00     0.251 C 
ATOM      5  H   UNL A   1      30.304  31.033  23.355  1.00  0.00     0.163 HD
BRANCH   4   6
ATOM      6  C   UNL A   1      30.202  27.734  22.982  1.00  0.00     0.039 A 
ATOM      7  C   UNL A   1      29.116  27.175  23.657  1.00  0.00     0.016 A 
ATOM      8  C   UNL A   1      31.321  26.963  22.673  1.00  0.00     0.016 A 
ATOM      9  C   UNL A   1      29.197  25.864  24.123  1.00  0.00     0.027 A 
ATOM     10  C   UNL A   1      31.402  25.656  23.160  1.00  0.00     0.027 A 
ATOM     11  C   UNL A   1      30.362  25.120  23.930  1.00  0.00     0.049 A 
BRANCH  11  12
ATOM     12  N   UNL A   1      30.617  23.890  24.588  1.00  0.00    -0.283 N 
ATOM     13  H   UNL A   1      30.788  23.108  24.014  1.00  0.00     0.180 HD
BRANCH  12  14
ATOM     14  S   UNL A   1      30.656  23.637  26.221  1.00  0.00     0.237 S 
ATOM     15  O   UNL A   1      30.372  24.896  26.885  1.00  0.00    -0.206 OA
ATOM     16  O   UNL A   1      29.772  22.511  26.444  1.00  0.00    -0.206 OA
BRANCH  14  17
ATOM     17  C   UNL A   1      32.324  23.108  26.688  1.00  0.00     0.198 C 
BRANCH  17  18
ATOM     18  C   UNL A   1      33.413  23.255  25.644  1.00  0.00     0.006 A 
ATOM     19  C   UNL A   1      33.789  22.161  24.828  1.00  0.00     0.046 A 
ATOM     20  C   UNL A   1      34.002  24.498  25.341  1.00  0.00     0.046 A 
ATOM     21  Cl  UNL A   1      33.105  20.579  25.006  1.00  0.00    -0.084 Cl
ATOM     22  C   UNL A   1      34.728  22.301  23.797  1.00  0.00     0.021 A 
ATOM     23  C   UNL A   1      34.972  24.624  24.336  1.00  0.00     0.021 A 
ATOM     24  Cl  UNL A   1      33.523  25.964  26.122  1.00  0.00    -0.084 Cl
ATOM     25  C   UNL A   1      35.332  23.529  23.561  1.00  0.00     0.003 A 
ENDBRANCH  17  18
ENDBRANCH  14  17
ENDBRANCH  12  14
ENDBRANCH  11  12
ENDBRANCH   4   6
ENDBRANCH   1   2
BRANCH   1  26
ATOM     26  C   UNL A   1      32.373  29.692  25.113  1.00  0.00     0.042 C 
BRANCH  26  27
ATOM     27  C   UNL A   1      32.929  29.961  26.504  1.00  0.00     0.118 C 
BRANCH  27  28
ATOM     28  N   UNL A   1      32.950  31.380  26.839  1.00  0.00    -0.352 N 
ATOM     29  C   UNL A   1      33.821  32.098  27.622  1.00  0.00     0.251 C 
ATOM     30  H   UNL A   1      32.222  31.909  26.440  1.00  0.00     0.163 HD
ATOM     31  O   UNL A   1      33.547  33.262  27.905  1.00  0.00    -0.269 OA
BRANCH  29  32
ATOM     32  C   UNL A   1      35.062  31.481  28.149  1.00  0.00     0.039 A 
ATOM     33  C   UNL A   1      36.227  32.254  28.207  1.00  0.00     0.014 A 
ATOM     34  C   UNL A   1      35.096  30.151  28.569  1.00  0.00     0.014 A 
ATOM     35  C   UNL A   1      37.395  31.715  28.755  1.00  0.00     0.010 A 
ATOM     36  C   UNL A   1      36.229  29.647  29.202  1.00  0.00     0.010 A 
ATOM     37  C   UNL A   1      37.395  30.421  29.299  1.00  0.00    -0.014 A 
BRANCH  37  38
ATOM     38  C   UNL A   1      38.594  29.866  29.984  1.00  0.00     0.031 A 
ATOM     39  C   UNL A   1      39.023  30.397  31.327  1.00  0.00     0.074 A 
ATOM     40  C   UNL A   1      39.351  28.943  29.357  1.00  0.00     0.049 A 
ATOM     41  N   UNL A   1      40.069  30.077  32.043  1.00  0.00    -0.248 NA
ATOM     42  C   UNL A   1      38.182  31.443  31.931  1.00  0.00     0.031 C 
ATOM     43  C   UNL A   1      39.091  28.401  28.021  1.00  0.00     0.029 A 
ATOM     44  N   UNL A   1      40.509  28.316  29.747  1.00  0.00    -0.354 N 
ATOM     45  C   UNL A   1      40.034  30.903  33.160  1.00  0.00     0.074 A 
ATOM     46  C   UNL A   1      38.883  31.766  33.009  1.00  0.00     0.031 C 
ATOM     47  C   UNL A   1      40.052  27.519  27.709  1.00  0.00     0.029 A 
ATOM     48  C   UNL A   1      41.019  27.459  28.799  1.00  0.00     0.049 A 
ATOM     49  H   UNL A   1      40.934  28.466  30.623  1.00  0.00     0.167 HD
ATOM     50  C   UNL A   1      40.865  30.926  34.229  1.00  0.00     0.034 A 
ATOM     51  C   UNL A   1      42.145  26.717  28.801  1.00  0.00     0.034 A 
ATOM     52  C   UNL A   1      41.991  30.046  34.395  1.00  0.00     0.049 A 
ATOM     53  C   UNL A   1      43.041  26.745  30.009  1.00  0.00     0.074 A 
ATOM     54  C   UNL A   1      42.839  29.931  35.482  1.00  0.00     0.029 A 
ATOM     55  N   UNL A   1      42.436  29.141  33.444  1.00  0.00    -0.354 N 
ATOM     56  N   UNL A   1      42.900  27.419  31.124  1.00  0.00    -0.248 NA
ATOM     57  C   UNL A   1      44.232  25.884  29.972  1.00  0.00     0.031 C 
ATOM     58  C   UNL A   1      43.821  28.983  35.173  1.00  0.00     0.029 A 
ATOM     59  C   UNL A   1      43.559  28.477  33.910  1.00  0.00     0.049 A 
ATOM     60  H   UNL A   1      42.016  28.992  32.567  1.00  0.00     0.167 HD
ATOM     61  C   UNL A   1      43.965  27.039  31.935  1.00  0.00     0.074 A 
ATOM     62  C   UNL A   1      44.727  26.058  31.190  1.00  0.00     0.031 C 
ATOM     63  C   UNL A   1      44.287  27.472  33.179  1.00  0.00     0.034 A 
BRANCH  50  64
ATOM     64  C   UNL A   1      40.564  31.913  35.329  1.00  0.00     0.023 A 
ATOM     65  C   UNL A   1      41.369  33.061  35.479  1.00  0.00     0.012 A 
ATOM     66  C   UNL A   1      39.455  31.734  36.180  1.00  0.00     0.148 A 
ATOM     67  C   UNL A   1      41.103  33.992  36.484  1.00  0.00     0.002 A 
ATOM     68  C   UNL A   1      39.167  32.691  37.146  1.00  0.00     0.091 A 
ATOM     69  F   UNL A   1      38.711  30.628  36.036  1.00  0.00    -0.205 F 
ATOM     70  C   UNL A   1      39.998  33.812  37.309  1.00  0.00     0.022 A 
BRANCH  68  71
ATOM     71  S   UNL A   1      37.720  32.594  38.205  1.00  0.00     0.127 S 
ATOM     72  O   UNL A   1      38.067  33.539  39.266  1.00  0.00    -0.237 OA
ATOM     73  O   UNL A   1      36.654  33.047  37.310  1.00  0.00    -0.237 OA
ATOM     74  O   UNL A   1      37.616  31.201  38.619  1.00  0.00    -0.744 OA
ENDBRANCH  68  71
ENDBRANCH  50  64
BRANCH  51  75
ATOM     75  C   UNL A   1      42.461  25.844  27.634  1.00  0.00     0.023 A 
ATOM     76  C   UNL A   1      43.239  26.353  26.577  1.00  0.00     0.012 A 
ATOM     77  C   UNL A   1      42.019  24.508  27.580  1.00  0.00     0.148 A 
ATOM     78  C   UNL A   1      43.542  25.560  25.470  1.00  0.00     0.002 A 
ATOM     79  C   UNL A   1      42.374  23.705  26.503  1.00  0.00     0.091 A 
ATOM     80  F   UNL A   1      41.274  24.044  28.593  1.00  0.00    -0.205 F 
ATOM     81  C   UNL A   1      43.119  24.234  25.437  1.00  0.00     0.022 A 
BRANCH  79  82
ATOM     82  S   UNL A   1      41.993  21.951  26.441  1.00  0.00     0.127 S 
ATOM     83  O   UNL A   1      42.421  21.505  27.764  1.00  0.00    -0.237 OA
ATOM     84  O   UNL A   1      40.545  21.967  26.233  1.00  0.00    -0.237 OA
ATOM     85  O   UNL A   1      42.754  21.419  25.319  1.00  0.00    -0.744 OA
ENDBRANCH  79  82
ENDBRANCH  51  75
BRANCH  63  86
ATOM     86  C   UNL A   1      45.498  26.864  33.840  1.00  0.00     0.023 A 
ATOM     87  C   UNL A   1      46.744  27.519  33.767  1.00  0.00     0.012 A 
ATOM     88  C   UNL A   1      45.383  25.679  34.592  1.00  0.00     0.148 A 
ATOM     89  C   UNL A   1      47.864  26.983  34.402  1.00  0.00     0.002 A 
ATOM     90  C   UNL A   1      46.492  25.180  35.267  1.00  0.00     0.091 A 
ATOM     91  F   UNL A   1      44.194  25.061  34.636  1.00  0.00    -0.205 F 
ATOM     92  C   UNL A   1      47.736  25.822  35.160  1.00  0.00     0.022 A 
BRANCH  90  93
ATOM     93  S   UNL A   1      46.400  23.747  36.346  1.00  0.00     0.127 S 
ATOM     94  O   UNL A   1      46.015  22.693  35.409  1.00  0.00    -0.237 OA
ATOM     95  O   UNL A   1      47.772  23.649  36.844  1.00  0.00    -0.237 OA
ATOM     96  O   UNL A   1      45.408  24.070  37.362  1.00  0.00    -0.744 OA
ENDBRANCH  90  93
ENDBRANCH  63  86
ENDBRANCH  37  38
ENDBRANCH  29  32
ENDBRANCH  27  28
ENDBRANCH  26  27
ENDBRANCH   1  26
TORSDOF 17
ENDMDL
