MODEL 1
REMARK VINA RESULT:     -11.8      0.000      0.000
REMARK SMILES C[C@H]1CC[C@@H]([C@H](C(=O)NCCCNC(=O)c2ccc(-c3c4nc(c(-c5cccc(S(=O)(=O)[O-])c5F)c5ccc([nH]5)c(-c5cccc(S(=O)(=O)[O-])c5F)c5nc(c(-c6cccc(S(=O)(=O)[O-])c6F)c6ccc3[nH]6)C=C5)C=C4)cc2)[C@@H]2CCS(=O)(=O)C2)C[C@@H]1C
REMARK SMILES IDX 12 1 11 2 10 3 9 4 7 5 8 6 6 8 5 9 1 10 2 11 3 12 87 13 4 14
REMARK SMILES IDX 86 15 88 16 79 17 80 18 85 19 81 20 82 21 83 22 84 23 13 24
REMARK SMILES IDX 14 25 15 27 16 28 17 29 78 30 18 31 77 32 19 33 20 34 21 35
REMARK SMILES IDX 71 36 22 37 76 38 70 39 72 40 23 41 75 42 69 43 68 44 24 46
REMARK SMILES IDX 56 47 36 48 55 49 37 50 40 51 54 52 73 53 38 54 39 55 53 57
REMARK SMILES IDX 74 58 41 59 25 60 26 61 34 62 27 63 29 64 35 65 28 66 30 67
REMARK SMILES IDX 31 68 32 69 33 70 57 71 58 72 66 73 59 74 61 75 67 76 60 77
REMARK SMILES IDX 62 78 63 79 64 80 65 81 42 82 43 83 51 84 44 85 46 86 52 87
REMARK SMILES IDX 45 88 47 89 48 90 49 91 50 92
REMARK H PARENT 9 7 13 26 72 45 40 56
REMARK Flexibility Score: inf
ROOT
ATOM      1  C   UNL A   1      34.252  28.706  25.864  1.00  0.00     0.118 C 
ENDROOT
BRANCH   1   2
ATOM      2  C   UNL A   1      33.531  27.684  26.737  1.00  0.00     0.042 C 
BRANCH   2   3
ATOM      3  C   UNL A   1      32.123  28.080  27.240  1.00  0.00     0.117 C 
BRANCH   3   4
ATOM      4  N   UNL A   1      31.028  27.172  26.899  1.00  0.00    -0.356 N 
ATOM      5  C   UNL A   1      30.843  25.925  26.414  1.00  0.00     0.223 C 
ATOM      6  O   UNL A   1      29.685  25.509  26.608  1.00  0.00    -0.275 OA
ATOM      7  H   UNL A   1      30.161  27.602  27.076  1.00  0.00     0.163 HD
BRANCH   5   8
ATOM      8  C   UNL A   1      31.833  24.933  25.721  1.00  0.00     0.085 C 
BRANCH   8   9
ATOM      9  C   UNL A   1      32.242  23.549  26.315  1.00  0.00     0.002 C 
ATOM     10  C   UNL A   1      35.608  22.676  23.595  1.00  0.00     0.008 C 
ATOM     11  C   UNL A   1      34.643  22.465  24.766  1.00  0.00    -0.011 C 
ATOM     12  C   UNL A   1      34.672  23.677  25.688  1.00  0.00     0.004 C 
ATOM     13  C   UNL A   1      33.200  22.145  24.291  1.00  0.00    -0.011 C 
ATOM     14  C   UNL A   1      33.666  23.447  26.805  1.00  0.00     0.005 C 
ATOM     15  C   UNL A   1      32.095  22.326  25.371  1.00  0.00     0.008 C 
ATOM     16  C   UNL A   1      33.155  20.698  23.777  1.00  0.00     0.008 C 
ENDBRANCH   8   9
BRANCH   8  17
ATOM     17  C   UNL A   1      31.585  25.017  24.171  1.00  0.00     0.018 C 
ATOM     18  C   UNL A   1      32.763  25.479  23.298  1.00  0.00     0.021 C 
ATOM     19  C   UNL A   1      30.368  25.839  23.720  1.00  0.00     0.141 C 
ATOM     20  C   UNL A   1      32.697  26.987  23.097  1.00  0.00     0.137 C 
ATOM     21  S   UNL A   1      30.971  27.420  23.155  1.00  0.00     0.150 S 
ATOM     22  O   UNL A   1      30.776  28.409  24.190  1.00  0.00    -0.229 OA
ATOM     23  O   UNL A   1      30.501  27.632  21.797  1.00  0.00    -0.229 OA
ENDBRANCH   8  17
ENDBRANCH   5   8
ENDBRANCH   3   4
ENDBRANCH   2   3
ENDBRANCH   1   2
BRANCH   1  24
ATOM     24  N   UNL A   1      33.969  30.045  26.343  1.00  0.00    -0.352 N 
ATOM     25  C   UNL A   1      34.424  30.618  27.510  1.00  0.00     0.251 C 
ATOM     26  H   UNL A   1      33.391  30.603  25.774  1.00  0.00     0.163 HD
ATOM     27  O   UNL A   1      33.741  31.473  28.066  1.00  0.00    -0.269 OA
BRANCH  25  28
ATOM     28  C   UNL A   1      35.737  30.222  28.078  1.00  0.00     0.039 A 
ATOM     29  C   UNL A   1      36.899  30.380  27.314  1.00  0.00     0.014 A 
ATOM     30  C   UNL A   1      35.810  29.597  29.327  1.00  0.00     0.014 A 
ATOM     31  C   UNL A   1      38.127  29.915  27.802  1.00  0.00     0.010 A 
ATOM     32  C   UNL A   1      37.042  29.201  29.841  1.00  0.00     0.010 A 
ATOM     33  C   UNL A   1      38.209  29.319  29.070  1.00  0.00    -0.014 A 
BRANCH  33  34
ATOM     34  C   UNL A   1      39.474  28.737  29.595  1.00  0.00     0.031 A 
ATOM     35  C   UNL A   1      40.200  29.435  30.718  1.00  0.00     0.074 A 
ATOM     36  C   UNL A   1      40.021  27.653  29.010  1.00  0.00     0.049 A 
ATOM     37  N   UNL A   1      41.382  29.190  31.220  1.00  0.00    -0.248 NA
ATOM     38  C   UNL A   1      39.516  30.585  31.335  1.00  0.00     0.031 C 
ATOM     39  C   UNL A   1      39.441  26.914  27.887  1.00  0.00     0.029 A 
ATOM     40  N   UNL A   1      41.209  27.009  29.254  1.00  0.00    -0.354 N 
ATOM     41  C   UNL A   1      41.605  30.183  32.168  1.00  0.00     0.074 A 
ATOM     42  C   UNL A   1      40.450  31.050  32.152  1.00  0.00     0.031 C 
ATOM     43  C   UNL A   1      40.279  25.928  27.531  1.00  0.00     0.029 A 
ATOM     44  C   UNL A   1      41.473  25.988  28.370  1.00  0.00     0.049 A 
ATOM     45  H   UNL A   1      41.815  27.255  29.990  1.00  0.00     0.167 HD
ATOM     46  C   UNL A   1      42.666  30.347  32.994  1.00  0.00     0.034 A 
ATOM     47  C   UNL A   1      42.564  25.207  28.234  1.00  0.00     0.034 A 
ATOM     48  C   UNL A   1      43.791  29.453  33.038  1.00  0.00     0.049 A 
ATOM     49  C   UNL A   1      43.723  25.395  29.178  1.00  0.00     0.074 A 
ATOM     50  C   UNL A   1      44.876  29.480  33.894  1.00  0.00     0.029 A 
ATOM     51  N   UNL A   1      43.979  28.378  32.184  1.00  0.00    -0.354 N 
ATOM     52  N   UNL A   1      43.861  26.262  30.152  1.00  0.00    -0.248 NA
ATOM     53  C   UNL A   1      44.865  24.479  29.025  1.00  0.00     0.031 C 
ATOM     54  C   UNL A   1      45.740  28.442  33.535  1.00  0.00     0.029 A 
ATOM     55  C   UNL A   1      45.168  27.740  32.485  1.00  0.00     0.049 A 
ATOM     56  H   UNL A   1      43.358  28.109  31.468  1.00  0.00     0.167 HD
ATOM     57  C   UNL A   1      45.077  25.965  30.758  1.00  0.00     0.074 A 
ATOM     58  C   UNL A   1      45.635  24.835  30.044  1.00  0.00     0.031 C 
ATOM     59  C   UNL A   1      45.678  26.577  31.806  1.00  0.00     0.034 A 
BRANCH  46  60
ATOM     60  C   UNL A   1      42.648  31.518  33.944  1.00  0.00     0.023 A 
ATOM     61  C   UNL A   1      43.180  32.759  33.539  1.00  0.00     0.012 A 
ATOM     62  C   UNL A   1      42.052  31.405  35.216  1.00  0.00     0.148 A 
ATOM     63  C   UNL A   1      43.160  33.857  34.399  1.00  0.00     0.002 A 
ATOM     64  C   UNL A   1      41.989  32.518  36.048  1.00  0.00     0.091 A 
ATOM     65  F   UNL A   1      41.565  30.215  35.592  1.00  0.00    -0.205 F 
ATOM     66  C   UNL A   1      42.556  33.739  35.647  1.00  0.00     0.022 A 
BRANCH  64  67
ATOM     67  S   UNL A   1      41.158  32.494  37.639  1.00  0.00     0.127 S 
ATOM     68  O   UNL A   1      42.027  31.609  38.413  1.00  0.00    -0.237 OA
ATOM     69  O   UNL A   1      41.214  33.902  38.035  1.00  0.00    -0.237 OA
ATOM     70  O   UNL A   1      39.817  31.985  37.388  1.00  0.00    -0.744 OA
ENDBRANCH  64  67
ENDBRANCH  46  60
BRANCH  47  71
ATOM     71  C   UNL A   1      42.596  24.143  27.190  1.00  0.00     0.023 A 
ATOM     72  C   UNL A   1      43.245  24.393  25.964  1.00  0.00     0.012 A 
ATOM     73  C   UNL A   1      42.009  22.881  27.410  1.00  0.00     0.148 A 
ATOM     74  C   UNL A   1      43.276  23.421  24.964  1.00  0.00     0.002 A 
ATOM     75  C   UNL A   1      42.093  21.898  26.431  1.00  0.00     0.091 A 
ATOM     76  F   UNL A   1      41.389  22.665  28.580  1.00  0.00    -0.205 F 
ATOM     77  C   UNL A   1      42.708  22.172  25.200  1.00  0.00     0.022 A 
BRANCH  75  78
ATOM     78  S   UNL A   1      41.504  20.222  26.694  1.00  0.00     0.127 S 
ATOM     79  O   UNL A   1      40.069  20.432  26.862  1.00  0.00    -0.237 OA
ATOM     80  O   UNL A   1      41.889  19.570  25.442  1.00  0.00    -0.237 OA
ATOM     81  O   UNL A   1      42.214  19.734  27.869  1.00  0.00    -0.744 OA
ENDBRANCH  75  78
ENDBRANCH  47  71
BRANCH  59  82
ATOM     82  C   UNL A   1      46.978  26.007  32.311  1.00  0.00     0.023 A 
ATOM     83  C   UNL A   1      48.205  26.522  31.853  1.00  0.00     0.012 A 
ATOM     84  C   UNL A   1      46.970  25.035  33.332  1.00  0.00     0.148 A 
ATOM     85  C   UNL A   1      49.408  26.063  32.392  1.00  0.00     0.002 A 
ATOM     86  C   UNL A   1      48.168  24.623  33.901  1.00  0.00     0.091 A 
ATOM     87  F   UNL A   1      45.789  24.549  33.741  1.00  0.00    -0.205 F 
ATOM     88  C   UNL A   1      49.388  25.127  33.425  1.00  0.00     0.022 A 
BRANCH  86  89
ATOM     89  S   UNL A   1      48.235  23.505  35.305  1.00  0.00     0.127 S 
ATOM     90  O   UNL A   1      49.674  23.418  35.548  1.00  0.00    -0.237 OA
ATOM     91  O   UNL A   1      47.488  24.244  36.323  1.00  0.00    -0.237 OA
ATOM     92  O   UNL A   1      47.605  22.266  34.868  1.00  0.00    -0.744 OA
ENDBRANCH  86  89
ENDBRANCH  59  82
ENDBRANCH  33  34
ENDBRANCH  25  28
ENDBRANCH   1  24
TORSDOF 15
ENDMDL
MODEL 2
REMARK VINA RESULT:     -11.6      2.073      7.754
REMARK SMILES C[C@H]1CC[C@@H]([C@H](C(=O)NCCCNC(=O)c2ccc(-c3c4nc(c(-c5cccc(S(=O)(=O)[O-])c5F)c5ccc([nH]5)c(-c5cccc(S(=O)(=O)[O-])c5F)c5nc(c(-c6cccc(S(=O)(=O)[O-])c6F)c6ccc3[nH]6)C=C5)C=C4)cc2)[C@@H]2CCS(=O)(=O)C2)C[C@@H]1C
REMARK SMILES IDX 12 1 11 2 10 3 9 4 7 5 8 6 6 8 5 9 1 10 2 11 3 12 87 13 4 14
REMARK SMILES IDX 86 15 88 16 79 17 80 18 85 19 81 20 82 21 83 22 84 23 13 24
REMARK SMILES IDX 14 25 15 27 16 28 17 29 78 30 18 31 77 32 19 33 20 34 21 35
REMARK SMILES IDX 71 36 22 37 76 38 70 39 72 40 23 41 75 42 69 43 68 44 24 46
REMARK SMILES IDX 56 47 36 48 55 49 37 50 40 51 54 52 73 53 38 54 39 55 53 57
REMARK SMILES IDX 74 58 41 59 25 60 26 61 34 62 27 63 29 64 35 65 28 66 30 67
REMARK SMILES IDX 31 68 32 69 33 70 57 71 58 72 66 73 59 74 61 75 67 76 60 77
REMARK SMILES IDX 62 78 63 79 64 80 65 81 42 82 43 83 51 84 44 85 46 86 52 87
REMARK SMILES IDX 45 88 47 89 48 90 49 91 50 92
REMARK H PARENT 9 7 13 26 72 45 40 56
REMARK Flexibility Score: inf
ROOT
ATOM      1  C   UNL A   1      33.934  28.684  25.303  1.00  0.00     0.118 C 
ENDROOT
BRANCH   1   2
ATOM      2  C   UNL A   1      33.217  27.510  25.962  1.00  0.00     0.042 C 
BRANCH   2   3
ATOM      3  C   UNL A   1      31.974  27.853  26.816  1.00  0.00     0.117 C 
BRANCH   3   4
ATOM      4  N   UNL A   1      30.814  26.975  26.664  1.00  0.00    -0.356 N 
ATOM      5  C   UNL A   1      30.458  25.851  26.007  1.00  0.00     0.223 C 
ATOM      6  O   UNL A   1      29.425  25.336  26.475  1.00  0.00    -0.275 OA
ATOM      7  H   UNL A   1      30.063  27.307  27.206  1.00  0.00     0.163 HD
BRANCH   5   8
ATOM      8  C   UNL A   1      31.144  25.087  24.828  1.00  0.00     0.085 C 
BRANCH   8   9
ATOM      9  C   UNL A   1      31.609  23.600  24.903  1.00  0.00     0.002 C 
ATOM     10  C   UNL A   1      35.900  24.326  25.644  1.00  0.00     0.008 C 
ATOM     11  C   UNL A   1      34.613  23.516  25.456  1.00  0.00    -0.011 C 
ATOM     12  C   UNL A   1      33.555  23.986  26.446  1.00  0.00     0.004 C 
ATOM     13  C   UNL A   1      34.091  23.568  23.995  1.00  0.00    -0.011 C 
ATOM     14  C   UNL A   1      32.282  23.193  26.191  1.00  0.00     0.005 C 
ATOM     15  C   UNL A   1      32.609  23.136  23.810  1.00  0.00     0.008 C 
ATOM     16  C   UNL A   1      34.979  22.673  23.117  1.00  0.00     0.008 C 
ENDBRANCH   8   9
BRANCH   8  17
ATOM     17  C   UNL A   1      30.477  25.576  23.491  1.00  0.00     0.018 C 
ATOM     18  C   UNL A   1      31.420  25.992  22.350  1.00  0.00     0.021 C 
ATOM     19  C   UNL A   1      29.439  26.700  23.620  1.00  0.00     0.141 C 
ATOM     20  C   UNL A   1      31.691  27.489  22.423  1.00  0.00     0.137 C 
ATOM     21  S   UNL A   1      30.234  28.223  23.138  1.00  0.00     0.150 S 
ATOM     22  O   UNL A   1      30.619  28.961  24.317  1.00  0.00    -0.229 OA
ATOM     23  O   UNL A   1      29.454  28.831  22.075  1.00  0.00    -0.229 OA
ENDBRANCH   8  17
ENDBRANCH   5   8
ENDBRANCH   3   4
ENDBRANCH   2   3
ENDBRANCH   1   2
BRANCH   1  24
ATOM     24  N   UNL A   1      33.242  29.919  25.619  1.00  0.00    -0.352 N 
ATOM     25  C   UNL A   1      33.317  30.630  26.796  1.00  0.00     0.251 C 
ATOM     26  H   UNL A   1      32.657  30.288  24.918  1.00  0.00     0.163 HD
ATOM     27  O   UNL A   1      32.352  31.296  27.159  1.00  0.00    -0.269 OA
BRANCH  25  28
ATOM     28  C   UNL A   1      34.561  30.609  27.607  1.00  0.00     0.039 A 
ATOM     29  C   UNL A   1      35.432  31.703  27.569  1.00  0.00     0.014 A 
ATOM     30  C   UNL A   1      34.919  29.464  28.326  1.00  0.00     0.014 A 
ATOM     31  C   UNL A   1      36.656  31.649  28.249  1.00  0.00     0.010 A 
ATOM     32  C   UNL A   1      36.101  29.440  29.060  1.00  0.00     0.010 A 
ATOM     33  C   UNL A   1      37.002  30.515  29.000  1.00  0.00    -0.014 A 
BRANCH  33  34
ATOM     34  C   UNL A   1      38.323  30.378  29.671  1.00  0.00     0.031 A 
ATOM     35  C   UNL A   1      39.389  29.519  29.037  1.00  0.00     0.074 A 
ATOM     36  C   UNL A   1      38.536  30.932  30.880  1.00  0.00     0.049 A 
ATOM     37  N   UNL A   1      40.545  29.141  29.518  1.00  0.00    -0.248 NA
ATOM     38  C   UNL A   1      39.099  28.985  27.695  1.00  0.00     0.031 C 
ATOM     39  C   UNL A   1      37.571  31.747  31.619  1.00  0.00     0.029 A 
ATOM     40  N   UNL A   1      39.621  30.859  31.720  1.00  0.00    -0.354 N 
ATOM     41  C   UNL A   1      41.092  28.286  28.567  1.00  0.00     0.074 A 
ATOM     42  C   UNL A   1      40.130  28.178  27.493  1.00  0.00     0.031 C 
ATOM     43  C   UNL A   1      38.099  32.087  32.806  1.00  0.00     0.029 A 
ATOM     44  C   UNL A   1      39.423  31.482  32.931  1.00  0.00     0.049 A 
ATOM     45  H   UNL A   1      40.460  30.403  31.478  1.00  0.00     0.167 HD
ATOM     46  C   UNL A   1      42.295  27.664  28.574  1.00  0.00     0.034 A 
ATOM     47  C   UNL A   1      40.207  31.538  34.026  1.00  0.00     0.034 A 
ATOM     48  C   UNL A   1      43.267  27.814  29.623  1.00  0.00     0.049 A 
ATOM     49  C   UNL A   1      41.550  30.855  34.002  1.00  0.00     0.074 A 
ATOM     50  C   UNL A   1      44.547  27.297  29.687  1.00  0.00     0.029 A 
ATOM     51  N   UNL A   1      43.060  28.526  30.794  1.00  0.00    -0.354 N 
ATOM     52  N   UNL A   1      42.102  30.154  33.041  1.00  0.00    -0.248 NA
ATOM     53  C   UNL A   1      42.391  30.994  35.201  1.00  0.00     0.031 C 
ATOM     54  C   UNL A   1      45.104  27.666  30.915  1.00  0.00     0.029 A 
ATOM     55  C   UNL A   1      44.187  28.454  31.593  1.00  0.00     0.049 A 
ATOM     56  H   UNL A   1      42.235  29.012  31.023  1.00  0.00     0.167 HD
ATOM     57  C   UNL A   1      43.370  29.812  33.498  1.00  0.00     0.074 A 
ATOM     58  C   UNL A   1      43.507  30.387  34.820  1.00  0.00     0.031 C 
ATOM     59  C   UNL A   1      44.331  29.085  32.879  1.00  0.00     0.034 A 
BRANCH  46  60
ATOM     60  C   UNL A   1      42.646  26.790  27.396  1.00  0.00     0.023 A 
ATOM     61  C   UNL A   1      43.365  27.330  26.310  1.00  0.00     0.012 A 
ATOM     62  C   UNL A   1      42.313  25.421  27.391  1.00  0.00     0.148 A 
ATOM     63  C   UNL A   1      43.710  26.533  25.219  1.00  0.00     0.002 A 
ATOM     64  C   UNL A   1      42.705  24.621  26.323  1.00  0.00     0.091 A 
ATOM     65  F   UNL A   1      41.615  24.927  28.423  1.00  0.00    -0.205 F 
ATOM     66  C   UNL A   1      43.390  25.179  25.230  1.00  0.00     0.022 A 
BRANCH  64  67
ATOM     67  S   UNL A   1      42.417  22.850  26.279  1.00  0.00     0.127 S 
ATOM     68  O   UNL A   1      43.069  22.474  25.025  1.00  0.00    -0.237 OA
ATOM     69  O   UNL A   1      43.109  22.397  27.486  1.00  0.00    -0.237 OA
ATOM     70  O   UNL A   1      40.971  22.675  26.305  1.00  0.00    -0.744 OA
ENDBRANCH  64  67
ENDBRANCH  46  60
BRANCH  47  71
ATOM     71  C   UNL A   1      39.763  32.305  35.225  1.00  0.00     0.023 A 
ATOM     72  C   UNL A   1      40.129  33.659  35.357  1.00  0.00     0.012 A 
ATOM     73  C   UNL A   1      38.966  31.709  36.222  1.00  0.00     0.148 A 
ATOM     74  C   UNL A   1      39.740  34.396  36.477  1.00  0.00     0.002 A 
ATOM     75  C   UNL A   1      38.536  32.464  37.308  1.00  0.00     0.091 A 
ATOM     76  F   UNL A   1      38.636  30.417  36.083  1.00  0.00    -0.205 F 
ATOM     77  C   UNL A   1      38.938  33.801  37.446  1.00  0.00     0.022 A 
BRANCH  75  78
ATOM     78  S   UNL A   1      37.397  31.823  38.539  1.00  0.00     0.127 S 
ATOM     79  O   UNL A   1      38.159  32.000  39.772  1.00  0.00    -0.237 OA
ATOM     80  O   UNL A   1      36.254  32.721  38.385  1.00  0.00    -0.237 OA
ATOM     81  O   UNL A   1      37.134  30.443  38.152  1.00  0.00    -0.744 OA
ENDBRANCH  75  78
ENDBRANCH  47  71
BRANCH  59  82
ATOM     82  C   UNL A   1      45.654  28.917  33.578  1.00  0.00     0.023 A 
ATOM     83  C   UNL A   1      46.664  29.886  33.430  1.00  0.00     0.012 A 
ATOM     84  C   UNL A   1      45.843  27.848  34.478  1.00  0.00     0.148 A 
ATOM     85  C   UNL A   1      47.853  29.782  34.153  1.00  0.00     0.002 A 
ATOM     86  C   UNL A   1      47.006  27.782  35.235  1.00  0.00     0.091 A 
ATOM     87  F   UNL A   1      44.873  26.930  34.591  1.00  0.00    -0.205 F 
ATOM     88  C   UNL A   1      48.017  28.742  35.066  1.00  0.00     0.022 A 
BRANCH  86  89
ATOM     89  S   UNL A   1      47.258  26.541  36.508  1.00  0.00     0.127 S 
ATOM     90  O   UNL A   1      48.561  26.929  37.048  1.00  0.00    -0.237 OA
ATOM     91  O   UNL A   1      46.129  26.787  37.405  1.00  0.00    -0.237 OA
ATOM     92  O   UNL A   1      47.228  25.252  35.831  1.00  0.00    -0.744 OA
ENDBRANCH  86  89
ENDBRANCH  59  82
ENDBRANCH  33  34
ENDBRANCH  25  28
ENDBRANCH   1  24
TORSDOF 15
ENDMDL
MODEL 3
REMARK VINA RESULT:     -11.5      2.428      8.006
REMARK SMILES C[C@H]1CC[C@@H]([C@H](C(=O)NCCCNC(=O)c2ccc(-c3c4nc(c(-c5cccc(S(=O)(=O)[O-])c5F)c5ccc([nH]5)c(-c5cccc(S(=O)(=O)[O-])c5F)c5nc(c(-c6cccc(S(=O)(=O)[O-])c6F)c6ccc3[nH]6)C=C5)C=C4)cc2)[C@@H]2CCS(=O)(=O)C2)C[C@@H]1C
REMARK SMILES IDX 12 1 11 2 10 3 9 4 7 5 8 6 6 8 5 9 1 10 2 11 3 12 87 13 4 14
REMARK SMILES IDX 86 15 88 16 79 17 80 18 85 19 81 20 82 21 83 22 84 23 13 24
REMARK SMILES IDX 14 25 15 27 16 28 17 29 78 30 18 31 77 32 19 33 20 34 21 35
REMARK SMILES IDX 71 36 22 37 76 38 70 39 72 40 23 41 75 42 69 43 68 44 24 46
REMARK SMILES IDX 56 47 36 48 55 49 37 50 40 51 54 52 73 53 38 54 39 55 53 57
REMARK SMILES IDX 74 58 41 59 25 60 26 61 34 62 27 63 29 64 35 65 28 66 30 67
REMARK SMILES IDX 31 68 32 69 33 70 57 71 58 72 66 73 59 74 61 75 67 76 60 77
REMARK SMILES IDX 62 78 63 79 64 80 65 81 42 82 43 83 51 84 44 85 46 86 52 87
REMARK SMILES IDX 45 88 47 89 48 90 49 91 50 92
REMARK H PARENT 9 7 13 26 72 45 40 56
REMARK Flexibility Score: inf
ROOT
ATOM      1  C   UNL A   1      33.527  28.611  25.250  1.00  0.00     0.118 C 
ENDROOT
BRANCH   1   2
ATOM      2  C   UNL A   1      33.908  28.367  23.793  1.00  0.00     0.042 C 
BRANCH   2   3
ATOM      3  C   UNL A   1      32.780  27.863  22.862  1.00  0.00     0.117 C 
BRANCH   3   4
ATOM      4  N   UNL A   1      33.010  26.584  22.190  1.00  0.00    -0.356 N 
ATOM      5  C   UNL A   1      32.959  25.262  22.457  1.00  0.00     0.223 C 
ATOM      6  O   UNL A   1      32.952  24.569  21.421  1.00  0.00    -0.275 OA
ATOM      7  H   UNL A   1      33.288  26.734  21.258  1.00  0.00     0.163 HD
BRANCH   5   8
ATOM      8  C   UNL A   1      32.855  24.488  23.811  1.00  0.00     0.085 C 
BRANCH   8   9
ATOM      9  C   UNL A   1      33.770  24.761  25.045  1.00  0.00     0.002 C 
ATOM     10  C   UNL A   1      36.008  20.955  25.011  1.00  0.00     0.008 C 
ATOM     11  C   UNL A   1      35.620  22.364  25.468  1.00  0.00    -0.011 C 
ATOM     12  C   UNL A   1      35.696  23.331  24.293  1.00  0.00     0.004 C 
ATOM     13  C   UNL A   1      34.224  22.401  26.147  1.00  0.00    -0.011 C 
ATOM     14  C   UNL A   1      35.255  24.703  24.779  1.00  0.00     0.005 C 
ATOM     15  C   UNL A   1      33.584  23.814  26.261  1.00  0.00     0.008 C 
ATOM     16  C   UNL A   1      34.340  21.797  27.555  1.00  0.00     0.008 C 
ENDBRANCH   8   9
BRANCH   8  17
ATOM     17  C   UNL A   1      31.333  24.201  24.081  1.00  0.00     0.018 C 
ATOM     18  C   UNL A   1      30.318  25.194  23.492  1.00  0.00     0.021 C 
ATOM     19  C   UNL A   1      30.929  23.995  25.549  1.00  0.00     0.141 C 
ATOM     20  C   UNL A   1      29.998  26.274  24.517  1.00  0.00     0.137 C 
ATOM     21  S   UNL A   1      30.179  25.511  26.116  1.00  0.00     0.150 S 
ATOM     22  O   UNL A   1      31.140  26.268  26.884  1.00  0.00    -0.229 OA
ATOM     23  O   UNL A   1      28.858  25.204  26.633  1.00  0.00    -0.229 OA
ENDBRANCH   8  17
ENDBRANCH   5   8
ENDBRANCH   3   4
ENDBRANCH   2   3
ENDBRANCH   1   2
BRANCH   1  24
ATOM     24  N   UNL A   1      32.990  29.950  25.397  1.00  0.00    -0.352 N 
ATOM     25  C   UNL A   1      33.072  30.755  26.512  1.00  0.00     0.251 C 
ATOM     26  H   UNL A   1      32.518  30.324  24.617  1.00  0.00     0.163 HD
ATOM     27  O   UNL A   1      32.183  31.573  26.729  1.00  0.00    -0.269 OA
BRANCH  25  28
ATOM     28  C   UNL A   1      34.234  30.649  27.429  1.00  0.00     0.039 A 
ATOM     29  C   UNL A   1      35.065  31.757  27.628  1.00  0.00     0.014 A 
ATOM     30  C   UNL A   1      34.565  29.423  28.015  1.00  0.00     0.014 A 
ATOM     31  C   UNL A   1      36.220  31.636  28.411  1.00  0.00     0.010 A 
ATOM     32  C   UNL A   1      35.673  29.323  28.852  1.00  0.00     0.010 A 
ATOM     33  C   UNL A   1      36.535  30.416  29.028  1.00  0.00    -0.014 A 
BRANCH  33  34
ATOM     34  C   UNL A   1      37.793  30.217  29.800  1.00  0.00     0.031 A 
ATOM     35  C   UNL A   1      38.867  29.315  29.245  1.00  0.00     0.074 A 
ATOM     36  C   UNL A   1      37.933  30.756  31.027  1.00  0.00     0.049 A 
ATOM     37  N   UNL A   1      39.963  28.884  29.812  1.00  0.00    -0.248 NA
ATOM     38  C   UNL A   1      38.660  28.802  27.879  1.00  0.00     0.031 C 
ATOM     39  C   UNL A   1      36.949  31.609  31.695  1.00  0.00     0.029 A 
ATOM     40  N   UNL A   1      38.944  30.629  31.949  1.00  0.00    -0.354 N 
ATOM     41  C   UNL A   1      40.545  28.010  28.900  1.00  0.00     0.074 A 
ATOM     42  C   UNL A   1      39.668  27.950  27.753  1.00  0.00     0.031 C 
ATOM     43  C   UNL A   1      37.397  31.919  32.922  1.00  0.00     0.029 A 
ATOM     44  C   UNL A   1      38.679  31.255  33.146  1.00  0.00     0.049 A 
ATOM     45  H   UNL A   1      39.778  30.138  31.771  1.00  0.00     0.167 HD
ATOM     46  C   UNL A   1      41.715  27.335  28.996  1.00  0.00     0.034 A 
ATOM     47  C   UNL A   1      39.375  31.270  34.300  1.00  0.00     0.034 A 
ATOM     48  C   UNL A   1      42.607  27.436  30.120  1.00  0.00     0.049 A 
ATOM     49  C   UNL A   1      40.684  30.528  34.376  1.00  0.00     0.074 A 
ATOM     50  C   UNL A   1      43.854  26.862  30.280  1.00  0.00     0.029 A 
ATOM     51  N   UNL A   1      42.340  28.151  31.277  1.00  0.00    -0.354 N 
ATOM     52  N   UNL A   1      41.279  29.808  33.456  1.00  0.00    -0.248 NA
ATOM     53  C   UNL A   1      41.434  30.623  35.639  1.00  0.00     0.031 C 
ATOM     54  C   UNL A   1      44.328  27.200  31.551  1.00  0.00     0.029 A 
ATOM     55  C   UNL A   1      43.395  28.024  32.162  1.00  0.00     0.049 A 
ATOM     56  H   UNL A   1      41.521  28.671  31.444  1.00  0.00     0.167 HD
ATOM     57  C   UNL A   1      42.491  29.408  34.007  1.00  0.00     0.074 A 
ATOM     58  C   UNL A   1      42.548  29.969  35.342  1.00  0.00     0.031 C 
ATOM     59  C   UNL A   1      43.465  28.642  33.461  1.00  0.00     0.034 A 
BRANCH  46  60
ATOM     60  C   UNL A   1      42.119  26.452  27.842  1.00  0.00     0.023 A 
ATOM     61  C   UNL A   1      42.979  26.952  26.843  1.00  0.00     0.012 A 
ATOM     62  C   UNL A   1      41.693  25.111  27.778  1.00  0.00     0.148 A 
ATOM     63  C   UNL A   1      43.375  26.145  25.776  1.00  0.00     0.002 A 
ATOM     64  C   UNL A   1      42.133  24.297  26.739  1.00  0.00     0.091 A 
ATOM     65  F   UNL A   1      40.863  24.656  28.727  1.00  0.00    -0.205 F 
ATOM     66  C   UNL A   1      42.960  24.817  25.730  1.00  0.00     0.022 A 
BRANCH  64  67
ATOM     67  S   UNL A   1      41.726  22.552  26.633  1.00  0.00     0.127 S 
ATOM     68  O   UNL A   1      42.330  22.033  27.859  1.00  0.00    -0.237 OA
ATOM     69  O   UNL A   1      40.263  22.578  26.638  1.00  0.00    -0.237 OA
ATOM     70  O   UNL A   1      42.322  22.072  25.394  1.00  0.00    -0.744 OA
ENDBRANCH  64  67
ENDBRANCH  46  60
BRANCH  47  71
ATOM     71  C   UNL A   1      38.872  32.050  35.467  1.00  0.00     0.023 A 
ATOM     72  C   UNL A   1      39.006  33.453  35.474  1.00  0.00     0.012 A 
ATOM     73  C   UNL A   1      38.245  31.415  36.557  1.00  0.00     0.148 A 
ATOM     74  C   UNL A   1      38.559  34.205  36.560  1.00  0.00     0.002 A 
ATOM     75  C   UNL A   1      37.751  32.177  37.611  1.00  0.00     0.091 A 
ATOM     76  F   UNL A   1      38.135  30.079  36.536  1.00  0.00    -0.205 F 
ATOM     77  C   UNL A   1      37.924  33.569  37.623  1.00  0.00     0.022 A 
BRANCH  75  78
ATOM     78  S   UNL A   1      36.808  31.459  38.960  1.00  0.00     0.127 S 
ATOM     79  O   UNL A   1      37.777  31.491  40.052  1.00  0.00    -0.237 OA
ATOM     80  O   UNL A   1      35.702  32.407  39.089  1.00  0.00    -0.237 OA
ATOM     81  O   UNL A   1      36.413  30.133  38.504  1.00  0.00    -0.744 OA
ENDBRANCH  75  78
ENDBRANCH  47  71
BRANCH  59  82
ATOM     82  C   UNL A   1      44.720  28.411  34.260  1.00  0.00     0.023 A 
ATOM     83  C   UNL A   1      45.793  29.318  34.176  1.00  0.00     0.012 A 
ATOM     84  C   UNL A   1      44.779  27.350  35.186  1.00  0.00     0.148 A 
ATOM     85  C   UNL A   1      46.916  29.161  34.988  1.00  0.00     0.002 A 
ATOM     86  C   UNL A   1      45.876  27.232  36.030  1.00  0.00     0.091 A 
ATOM     87  F   UNL A   1      43.751  26.491  35.238  1.00  0.00    -0.205 F 
ATOM     88  C   UNL A   1      46.950  28.129  35.925  1.00  0.00     0.022 A 
BRANCH  86  89
ATOM     89  S   UNL A   1      45.960  26.002  37.336  1.00  0.00     0.127 S 
ATOM     90  O   UNL A   1      46.063  24.760  36.570  1.00  0.00    -0.237 OA
ATOM     91  O   UNL A   1      47.181  26.386  38.042  1.00  0.00    -0.237 OA
ATOM     92  O   UNL A   1      44.736  26.150  38.112  1.00  0.00    -0.744 OA
ENDBRANCH  86  89
ENDBRANCH  59  82
ENDBRANCH  33  34
ENDBRANCH  25  28
ENDBRANCH   1  24
TORSDOF 15
ENDMDL
