MODEL 1
REMARK VINA RESULT:     -11.4      0.000      0.000
REMARK SMILES O=C(NCCCNC(=O)c1cccc([C@@H]2CCC[N@@H+](Cc3cccc(OCCO)c3)C2)c1)c1ccc(-c2c3nc(c(-c4cccc(S(=O)(=O)[O-])c4F)c4ccc([nH]4)c(-c4cccc(S(=O)(=O)[O-])c4F)c4nc(c(-c5cccc(S(=O)(=O)[O-])c5F)c5ccc2[nH]5)C=C4)C=C3)cc1
REMARK SMILES IDX 7 1 8 2 9 3 6 5 5 6 4 7 3 8 1 9 2 10 33 12 34 13 95 14 35 15
REMARK SMILES IDX 94 16 36 17 37 18 38 19 88 20 39 21 93 22 87 23 89 24 40 25
REMARK SMILES IDX 92 26 86 27 85 28 41 30 73 31 53 32 72 33 54 34 57 35 71 36
REMARK SMILES IDX 90 37 55 38 56 39 70 41 91 42 58 43 42 44 43 45 51 46 44 47
REMARK SMILES IDX 46 48 52 49 45 50 47 51 48 52 49 53 50 54 74 55 75 56 83 57
REMARK SMILES IDX 76 58 78 59 84 60 77 61 79 62 80 63 81 64 82 65 59 66 60 67
REMARK SMILES IDX 68 68 61 69 63 70 69 71 62 72 64 73 65 74 66 75 67 76 10 77
REMARK SMILES IDX 11 78 32 79 12 80 14 81 13 82 15 83 16 84 31 85 17 86 19 87
REMARK SMILES IDX 18 88 20 90 21 91 22 92 30 93 23 94 25 95 24 96 26 97 27 98
REMARK SMILES IDX 28 99 29 100
REMARK H PARENT 7 4 3 11 89 29 57 40 19 89 29 101
REMARK Flexibility Score: inf
ROOT
ATOM      1  N   UNL A   1      31.584  27.298  24.637  1.00  0.00    -0.352 N 
ATOM      2  C   UNL A   1      31.207  26.770  23.418  1.00  0.00     0.251 C 
ATOM      3  O   UNL A   1      30.518  27.422  22.642  1.00  0.00    -0.269 OA
ATOM      4  H   UNL A   1      31.328  28.235  24.806  1.00  0.00     0.163 HD
ENDROOT
BRANCH   1   5
ATOM      5  C   UNL A   1      32.313  26.631  25.695  1.00  0.00     0.118 C 
BRANCH   5   6
ATOM      6  C   UNL A   1      33.375  27.463  26.395  1.00  0.00     0.042 C 
BRANCH   6   7
ATOM      7  C   UNL A   1      33.878  28.658  25.601  1.00  0.00     0.118 C 
BRANCH   7   8
ATOM      8  N   UNL A   1      33.363  29.943  26.066  1.00  0.00    -0.352 N 
ATOM      9  O   UNL A   1      33.162  31.816  27.285  1.00  0.00    -0.269 OA
ATOM     10  C   UNL A   1      33.819  30.815  27.037  1.00  0.00     0.251 C 
ATOM     11  H   UNL A   1      32.544  30.241  25.606  1.00  0.00     0.163 HD
BRANCH  10  12
ATOM     12  C   UNL A   1      35.069  30.539  27.792  1.00  0.00     0.039 A 
ATOM     13  C   UNL A   1      35.207  29.397  28.577  1.00  0.00     0.014 A 
ATOM     14  C   UNL A   1      36.144  31.433  27.696  1.00  0.00     0.014 A 
ATOM     15  C   UNL A   1      36.306  29.253  29.416  1.00  0.00     0.010 A 
ATOM     16  C   UNL A   1      37.307  31.223  28.453  1.00  0.00     0.010 A 
ATOM     17  C   UNL A   1      37.381  30.156  29.360  1.00  0.00    -0.014 A 
BRANCH  17  18
ATOM     18  C   UNL A   1      38.574  29.910  30.218  1.00  0.00     0.031 A 
ATOM     19  C   UNL A   1      38.708  30.528  31.585  1.00  0.00     0.074 A 
ATOM     20  C   UNL A   1      39.534  29.076  29.766  1.00  0.00     0.049 A 
ATOM     21  N   UNL A   1      39.650  30.350  32.477  1.00  0.00    -0.248 NA
ATOM     22  C   UNL A   1      37.660  31.470  32.009  1.00  0.00     0.031 C 
ATOM     23  C   UNL A   1      39.546  28.450  28.442  1.00  0.00     0.029 A 
ATOM     24  N   UNL A   1      40.674  28.601  30.365  1.00  0.00    -0.354 N 
ATOM     25  C   UNL A   1      39.335  31.181  33.545  1.00  0.00     0.074 A 
ATOM     26  C   UNL A   1      38.115  31.873  33.189  1.00  0.00     0.031 C 
ATOM     27  C   UNL A   1      40.610  27.640  28.345  1.00  0.00     0.029 A 
ATOM     28  C   UNL A   1      41.390  27.735  29.573  1.00  0.00     0.049 A 
ATOM     29  H   UNL A   1      40.951  28.855  31.275  1.00  0.00     0.167 HD
ATOM     30  C   UNL A   1      39.990  31.343  34.721  1.00  0.00     0.034 A 
ATOM     31  C   UNL A   1      42.555  27.094  29.795  1.00  0.00     0.034 A 
ATOM     32  C   UNL A   1      41.180  30.621  35.092  1.00  0.00     0.049 A 
ATOM     33  C   UNL A   1      43.243  27.272  31.117  1.00  0.00     0.074 A 
ATOM     34  C   UNL A   1      41.874  30.667  36.290  1.00  0.00     0.029 A 
ATOM     35  N   UNL A   1      41.858  29.732  34.273  1.00  0.00    -0.354 N 
ATOM     36  N   UNL A   1      42.855  27.963  32.160  1.00  0.00    -0.248 NA
ATOM     37  C   UNL A   1      44.519  26.566  31.301  1.00  0.00     0.031 C 
ATOM     38  C   UNL A   1      42.983  29.820  36.187  1.00  0.00     0.029 A 
ATOM     39  C   UNL A   1      42.970  29.232  34.933  1.00  0.00     0.049 A 
ATOM     40  H   UNL A   1      41.589  29.490  33.358  1.00  0.00     0.167 HD
ATOM     41  C   UNL A   1      43.827  27.764  33.132  1.00  0.00     0.074 A 
ATOM     42  C   UNL A   1      44.807  26.860  32.562  1.00  0.00     0.031 C 
ATOM     43  C   UNL A   1      43.913  28.299  34.373  1.00  0.00     0.034 A 
BRANCH  30  44
ATOM     44  C   UNL A   1      39.415  32.310  35.725  1.00  0.00     0.023 A 
ATOM     45  C   UNL A   1      38.423  31.868  36.625  1.00  0.00     0.012 A 
ATOM     46  C   UNL A   1      39.910  33.624  35.834  1.00  0.00     0.148 A 
ATOM     47  C   UNL A   1      37.918  32.727  37.601  1.00  0.00     0.002 A 
ATOM     48  C   UNL A   1      39.426  34.463  36.834  1.00  0.00     0.091 A 
ATOM     49  F   UNL A   1      40.839  34.033  34.958  1.00  0.00    -0.205 F 
ATOM     50  C   UNL A   1      38.425  34.019  37.712  1.00  0.00     0.022 A 
BRANCH  48  51
ATOM     51  S   UNL A   1      40.071  36.118  37.104  1.00  0.00     0.127 S 
ATOM     52  O   UNL A   1      39.249  36.574  38.225  1.00  0.00    -0.237 OA
ATOM     53  O   UNL A   1      41.470  35.855  37.444  1.00  0.00    -0.237 OA
ATOM     54  O   UNL A   1      39.876  36.833  35.851  1.00  0.00    -0.744 OA
ENDBRANCH  48  51
ENDBRANCH  30  44
BRANCH  31  55
ATOM     55  C   UNL A   1      43.113  26.198  28.744  1.00  0.00     0.023 A 
ATOM     56  C   UNL A   1      42.627  24.883  28.619  1.00  0.00     0.012 A 
ATOM     57  C   UNL A   1      44.080  26.663  27.831  1.00  0.00     0.148 A 
ATOM     58  C   UNL A   1      43.106  24.042  27.614  1.00  0.00     0.002 A 
ATOM     59  C   UNL A   1      44.505  25.842  26.793  1.00  0.00     0.091 A 
ATOM     60  F   UNL A   1      44.548  27.911  27.979  1.00  0.00    -0.205 F 
ATOM     61  C   UNL A   1      44.032  24.526  26.692  1.00  0.00     0.022 A 
BRANCH  59  62
ATOM     62  S   UNL A   1      45.574  26.443  25.481  1.00  0.00     0.127 S 
ATOM     63  O   UNL A   1      46.808  26.731  26.207  1.00  0.00    -0.237 OA
ATOM     64  O   UNL A   1      45.639  25.287  24.586  1.00  0.00    -0.237 OA
ATOM     65  O   UNL A   1      44.882  27.594  24.915  1.00  0.00    -0.744 OA
ENDBRANCH  59  62
ENDBRANCH  31  55
BRANCH  43  66
ATOM     66  C   UNL A   1      45.103  27.914  35.213  1.00  0.00     0.023 A 
ATOM     67  C   UNL A   1      46.265  28.710  35.177  1.00  0.00     0.012 A 
ATOM     68  C   UNL A   1      45.047  26.808  36.081  1.00  0.00     0.148 A 
ATOM     69  C   UNL A   1      47.365  28.393  35.972  1.00  0.00     0.002 A 
ATOM     70  C   UNL A   1      46.131  26.524  36.905  1.00  0.00     0.091 A 
ATOM     71  F   UNL A   1      43.940  26.052  36.085  1.00  0.00    -0.205 F 
ATOM     72  C   UNL A   1      47.295  27.309  36.843  1.00  0.00     0.022 A 
BRANCH  70  73
ATOM     73  S   UNL A   1      46.096  25.201  38.119  1.00  0.00     0.127 S 
ATOM     74  O   UNL A   1      46.016  24.016  37.267  1.00  0.00    -0.237 OA
ATOM     75  O   UNL A   1      47.377  25.375  38.805  1.00  0.00    -0.237 OA
ATOM     76  O   UNL A   1      44.927  25.454  38.952  1.00  0.00    -0.744 OA
ENDBRANCH  70  73
ENDBRANCH  43  66
ENDBRANCH  17  18
ENDBRANCH  10  12
ENDBRANCH   7   8
ENDBRANCH   6   7
ENDBRANCH   5   6
ENDBRANCH   1   5
BRANCH   2  77
ATOM     77  C   UNL A   1      31.715  25.437  23.010  1.00  0.00     0.040 A 
ATOM     78  C   UNL A   1      32.514  25.373  21.869  1.00  0.00     0.014 A 
ATOM     79  C   UNL A   1      31.505  24.294  23.794  1.00  0.00     0.018 A 
ATOM     80  C   UNL A   1      33.146  24.176  21.540  1.00  0.00     0.001 A 
ATOM     81  C   UNL A   1      32.215  23.111  23.533  1.00  0.00    -0.039 A 
ATOM     82  C   UNL A   1      33.011  23.061  22.374  1.00  0.00     0.004 A 
BRANCH  81  83
ATOM     83  C   UNL A   1      32.309  21.970  24.548  1.00  0.00     0.074 C 
ATOM     84  C   UNL A   1      31.955  22.320  26.001  1.00  0.00     0.020 C 
ATOM     85  C   UNL A   1      33.682  21.260  24.478  1.00  0.00     0.270 C 
ATOM     86  C   UNL A   1      33.125  22.888  26.809  1.00  0.00     0.062 C 
ATOM     87  N   UNL A   1      34.722  22.006  25.188  1.00  0.00    -0.331 N 
ATOM     88  C   UNL A   1      34.438  22.115  26.611  1.00  0.00     0.262 C 
ATOM     89  H   UNL A   1      34.658  22.956  24.823  1.00  0.00     0.348 HD
BRANCH  87  90
ATOM     90  C   UNL A   1      36.105  21.711  24.826  1.00  0.00     0.299 C 
BRANCH  90  91
ATOM     91  C   UNL A   1      37.249  22.336  25.575  1.00  0.00     0.010 A 
ATOM     92  C   UNL A   1      37.183  23.673  25.977  1.00  0.00     0.010 A 
ATOM     93  C   UNL A   1      38.466  21.657  25.704  1.00  0.00     0.056 A 
ATOM     94  C   UNL A   1      38.305  24.299  26.522  1.00  0.00     0.004 A 
ATOM     95  C   UNL A   1      39.577  22.252  26.295  1.00  0.00     0.119 A 
ATOM     96  C   UNL A   1      39.492  23.584  26.693  1.00  0.00     0.046 A 
BRANCH  95  97
ATOM     97  O   UNL A   1      40.768  21.629  26.547  1.00  0.00    -0.491 OA
BRANCH  97  98
ATOM     98  C   UNL A   1      40.794  20.200  26.646  1.00  0.00     0.257 C 
BRANCH  98  99
ATOM     99  C   UNL A   1      42.198  19.636  26.398  1.00  0.00     0.197 C 
BRANCH  99 100
ATOM    100  O   UNL A   1      43.226  20.615  26.519  1.00  0.00    -0.393 OA
ATOM    101  H   UNL A   1      43.625  20.775  25.650  1.00  0.00     0.210 HD
ENDBRANCH  99 100
ENDBRANCH  98  99
ENDBRANCH  97  98
ENDBRANCH  95  97
ENDBRANCH  90  91
ENDBRANCH  87  90
ENDBRANCH  81  83
ENDBRANCH   2  77
TORSDOF 20
ENDMDL
MODEL 2
REMARK VINA RESULT:     -11.1      2.048      3.114
REMARK SMILES O=C(NCCCNC(=O)c1cccc([C@@H]2CCC[N@@H+](Cc3cccc(OCCO)c3)C2)c1)c1ccc(-c2c3nc(c(-c4cccc(S(=O)(=O)[O-])c4F)c4ccc([nH]4)c(-c4cccc(S(=O)(=O)[O-])c4F)c4nc(c(-c5cccc(S(=O)(=O)[O-])c5F)c5ccc2[nH]5)C=C4)C=C3)cc1
REMARK SMILES IDX 7 1 8 2 9 3 6 5 5 6 4 7 3 8 1 9 2 10 33 12 34 13 95 14 35 15
REMARK SMILES IDX 94 16 36 17 37 18 38 19 88 20 39 21 93 22 87 23 89 24 40 25
REMARK SMILES IDX 92 26 86 27 85 28 41 30 73 31 53 32 72 33 54 34 57 35 71 36
REMARK SMILES IDX 90 37 55 38 56 39 70 41 91 42 58 43 42 44 43 45 51 46 44 47
REMARK SMILES IDX 46 48 52 49 45 50 47 51 48 52 49 53 50 54 74 55 75 56 83 57
REMARK SMILES IDX 76 58 78 59 84 60 77 61 79 62 80 63 81 64 82 65 59 66 60 67
REMARK SMILES IDX 68 68 61 69 63 70 69 71 62 72 64 73 65 74 66 75 67 76 10 77
REMARK SMILES IDX 11 78 32 79 12 80 14 81 13 82 15 83 16 84 31 85 17 86 19 87
REMARK SMILES IDX 18 88 20 90 21 91 22 92 30 93 23 94 25 95 24 96 26 97 27 98
REMARK SMILES IDX 28 99 29 100
REMARK H PARENT 7 4 3 11 89 29 57 40 19 89 29 101
REMARK Flexibility Score: inf
ROOT
ATOM      1  N   UNL A   1      33.142  27.102  21.661  1.00  0.00    -0.352 N 
ATOM      2  C   UNL A   1      32.837  25.945  20.973  1.00  0.00     0.251 C 
ATOM      3  O   UNL A   1      32.971  25.888  19.756  1.00  0.00    -0.269 OA
ATOM      4  H   UNL A   1      33.533  27.835  21.131  1.00  0.00     0.163 HD
ENDROOT
BRANCH   1   5
ATOM      5  C   UNL A   1      32.954  27.359  23.073  1.00  0.00     0.118 C 
BRANCH   5   6
ATOM      6  C   UNL A   1      32.779  28.818  23.464  1.00  0.00     0.042 C 
BRANCH   6   7
ATOM      7  C   UNL A   1      33.512  29.234  24.730  1.00  0.00     0.118 C 
BRANCH   7   8
ATOM      8  N   UNL A   1      32.821  30.256  25.510  1.00  0.00    -0.352 N 
ATOM      9  O   UNL A   1      32.371  31.688  27.179  1.00  0.00    -0.269 OA
ATOM     10  C   UNL A   1      33.165  30.901  26.684  1.00  0.00     0.251 C 
ATOM     11  H   UNL A   1      31.955  30.537  25.134  1.00  0.00     0.163 HD
BRANCH  10  12
ATOM     12  C   UNL A   1      34.463  30.630  27.358  1.00  0.00     0.039 A 
ATOM     13  C   UNL A   1      34.837  29.338  27.720  1.00  0.00     0.014 A 
ATOM     14  C   UNL A   1      35.341  31.691  27.614  1.00  0.00     0.014 A 
ATOM     15  C   UNL A   1      35.963  29.132  28.510  1.00  0.00     0.010 A 
ATOM     16  C   UNL A   1      36.540  31.463  28.307  1.00  0.00     0.010 A 
ATOM     17  C   UNL A   1      36.840  30.188  28.807  1.00  0.00    -0.014 A 
BRANCH  17  18
ATOM     18  C   UNL A   1      38.078  29.899  29.585  1.00  0.00     0.031 A 
ATOM     19  C   UNL A   1      38.289  30.448  30.971  1.00  0.00     0.074 A 
ATOM     20  C   UNL A   1      39.009  29.088  29.040  1.00  0.00     0.049 A 
ATOM     21  N   UNL A   1      39.279  30.227  31.800  1.00  0.00    -0.248 NA
ATOM     22  C   UNL A   1      37.269  31.369  31.498  1.00  0.00     0.031 C 
ATOM     23  C   UNL A   1      38.946  28.528  27.688  1.00  0.00     0.029 A 
ATOM     24  N   UNL A   1      40.178  28.583  29.551  1.00  0.00    -0.354 N 
ATOM     25  C   UNL A   1      39.025  31.004  32.923  1.00  0.00     0.074 A 
ATOM     26  C   UNL A   1      37.790  31.713  32.670  1.00  0.00     0.031 C 
ATOM     27  C   UNL A   1      40.000  27.724  27.492  1.00  0.00     0.029 A 
ATOM     28  C   UNL A   1      40.847  27.757  28.679  1.00  0.00     0.049 A 
ATOM     29  H   UNL A   1      40.507  28.792  30.456  1.00  0.00     0.167 HD
ATOM     30  C   UNL A   1      39.745  31.107  34.068  1.00  0.00     0.034 A 
ATOM     31  C   UNL A   1      42.020  27.105  28.804  1.00  0.00     0.034 A 
ATOM     32  C   UNL A   1      40.951  30.367  34.336  1.00  0.00     0.049 A 
ATOM     33  C   UNL A   1      42.781  27.217  30.093  1.00  0.00     0.074 A 
ATOM     34  C   UNL A   1      41.710  30.353  35.495  1.00  0.00     0.029 A 
ATOM     35  N   UNL A   1      41.580  29.519  33.438  1.00  0.00    -0.354 N 
ATOM     36  N   UNL A   1      42.453  27.856  31.189  1.00  0.00    -0.248 NA
ATOM     37  C   UNL A   1      44.062  26.503  30.171  1.00  0.00     0.031 C 
ATOM     38  C   UNL A   1      42.809  29.512  35.289  1.00  0.00     0.029 A 
ATOM     39  C   UNL A   1      42.725  28.987  34.010  1.00  0.00     0.049 A 
ATOM     40  H   UNL A   1      41.261  29.323  32.528  1.00  0.00     0.167 HD
ATOM     41  C   UNL A   1      43.477  27.609  32.094  1.00  0.00     0.074 A 
ATOM     42  C   UNL A   1      44.420  26.734  31.427  1.00  0.00     0.031 C 
ATOM     43  C   UNL A   1      43.633  28.082  33.354  1.00  0.00     0.034 A 
BRANCH  30  44
ATOM     44  C   UNL A   1      39.229  32.023  35.148  1.00  0.00     0.023 A 
ATOM     45  C   UNL A   1      38.242  31.558  36.041  1.00  0.00     0.012 A 
ATOM     46  C   UNL A   1      39.776  33.308  35.333  1.00  0.00     0.148 A 
ATOM     47  C   UNL A   1      37.791  32.366  37.085  1.00  0.00     0.002 A 
ATOM     48  C   UNL A   1      39.347  34.094  36.399  1.00  0.00     0.091 A 
ATOM     49  F   UNL A   1      40.700  33.742  34.465  1.00  0.00    -0.205 F 
ATOM     50  C   UNL A   1      38.349  33.628  37.270  1.00  0.00     0.022 A 
BRANCH  48  51
ATOM     51  S   UNL A   1      40.060  35.702  36.765  1.00  0.00     0.127 S 
ATOM     52  O   UNL A   1      39.492  35.983  38.083  1.00  0.00    -0.237 OA
ATOM     53  O   UNL A   1      41.494  35.413  36.769  1.00  0.00    -0.237 OA
ATOM     54  O   UNL A   1      39.623  36.586  35.693  1.00  0.00    -0.744 OA
ENDBRANCH  48  51
ENDBRANCH  30  44
BRANCH  31  55
ATOM     55  C   UNL A   1      42.517  26.262  27.681  1.00  0.00     0.023 A 
ATOM     56  C   UNL A   1      43.506  26.766  26.816  1.00  0.00     0.012 A 
ATOM     57  C   UNL A   1      42.058  24.942  27.504  1.00  0.00     0.148 A 
ATOM     58  C   UNL A   1      44.016  25.978  25.784  1.00  0.00     0.002 A 
ATOM     59  C   UNL A   1      42.615  24.141  26.515  1.00  0.00     0.091 A 
ATOM     60  F   UNL A   1      41.099  24.487  28.323  1.00  0.00    -0.205 F 
ATOM     61  C   UNL A   1      43.583  24.661  25.643  1.00  0.00     0.022 A 
BRANCH  59  62
ATOM     62  S   UNL A   1      42.223  22.394  26.373  1.00  0.00     0.127 S 
ATOM     63  O   UNL A   1      40.776  22.426  26.182  1.00  0.00    -0.237 OA
ATOM     64  O   UNL A   1      42.994  22.003  25.192  1.00  0.00    -0.237 OA
ATOM     65  O   UNL A   1      42.690  21.790  27.614  1.00  0.00    -0.744 OA
ENDBRANCH  59  62
ENDBRANCH  31  55
BRANCH  43  66
ATOM     66  C   UNL A   1      44.866  27.655  34.107  1.00  0.00     0.023 A 
ATOM     67  C   UNL A   1      46.021  28.460  34.059  1.00  0.00     0.012 A 
ATOM     68  C   UNL A   1      44.859  26.498  34.908  1.00  0.00     0.148 A 
ATOM     69  C   UNL A   1      47.162  28.104  34.776  1.00  0.00     0.002 A 
ATOM     70  C   UNL A   1      45.985  26.173  35.656  1.00  0.00     0.091 A 
ATOM     71  F   UNL A   1      43.756  25.735  34.923  1.00  0.00    -0.205 F 
ATOM     72  C   UNL A   1      47.141  26.968  35.582  1.00  0.00     0.022 A 
BRANCH  70  73
ATOM     73  S   UNL A   1      46.018  24.779  36.789  1.00  0.00     0.127 S 
ATOM     74  O   UNL A   1      46.625  25.374  37.977  1.00  0.00    -0.237 OA
ATOM     75  O   UNL A   1      44.598  24.455  36.925  1.00  0.00    -0.237 OA
ATOM     76  O   UNL A   1      46.810  23.748  36.130  1.00  0.00    -0.744 OA
ENDBRANCH  70  73
ENDBRANCH  43  66
ENDBRANCH  17  18
ENDBRANCH  10  12
ENDBRANCH   7   8
ENDBRANCH   6   7
ENDBRANCH   5   6
ENDBRANCH   1   5
BRANCH   2  77
ATOM     77  C   UNL A   1      32.425  24.734  21.725  1.00  0.00     0.040 A 
ATOM     78  C   UNL A   1      33.131  23.555  21.486  1.00  0.00     0.014 A 
ATOM     79  C   UNL A   1      31.443  24.783  22.724  1.00  0.00     0.018 A 
ATOM     80  C   UNL A   1      32.891  22.438  22.282  1.00  0.00     0.001 A 
ATOM     81  C   UNL A   1      31.263  23.698  23.599  1.00  0.00    -0.039 A 
ATOM     82  C   UNL A   1      31.978  22.515  23.340  1.00  0.00     0.004 A 
BRANCH  81  83
ATOM     83  C   UNL A   1      30.487  23.824  24.911  1.00  0.00     0.074 C 
ATOM     84  C   UNL A   1      30.437  25.223  25.543  1.00  0.00     0.020 C 
ATOM     85  C   UNL A   1      30.953  22.774  25.949  1.00  0.00     0.270 C 
ATOM     86  C   UNL A   1      31.637  25.547  26.437  1.00  0.00     0.062 C 
ATOM     87  N   UNL A   1      32.190  23.177  26.618  1.00  0.00    -0.331 N 
ATOM     88  C   UNL A   1      32.021  24.402  27.386  1.00  0.00     0.262 C 
ATOM     89  H   UNL A   1      32.831  23.416  25.862  1.00  0.00     0.348 HD
BRANCH  87  90
ATOM     90  C   UNL A   1      32.968  22.118  27.255  1.00  0.00     0.299 C 
BRANCH  90  91
ATOM     91  C   UNL A   1      33.926  21.278  26.457  1.00  0.00     0.010 A 
ATOM     92  C   UNL A   1      35.246  21.700  26.268  1.00  0.00     0.010 A 
ATOM     93  C   UNL A   1      33.465  20.175  25.729  1.00  0.00     0.056 A 
ATOM     94  C   UNL A   1      36.085  21.010  25.393  1.00  0.00     0.004 A 
ATOM     95  C   UNL A   1      34.306  19.445  24.893  1.00  0.00     0.119 A 
ATOM     96  C   UNL A   1      35.619  19.878  24.721  1.00  0.00     0.046 A 
BRANCH  95  97
ATOM     97  O   UNL A   1      33.962  18.303  24.226  1.00  0.00    -0.491 OA
BRANCH  97  98
ATOM     98  C   UNL A   1      32.864  17.521  24.714  1.00  0.00     0.257 C 
BRANCH  98  99
ATOM     99  C   UNL A   1      33.338  16.369  25.607  1.00  0.00     0.197 C 
BRANCH  99 100
ATOM    100  O   UNL A   1      33.171  15.088  25.007  1.00  0.00    -0.393 OA
ATOM    101  H   UNL A   1      33.220  14.401  25.690  1.00  0.00     0.210 HD
ENDBRANCH  99 100
ENDBRANCH  98  99
ENDBRANCH  97  98
ENDBRANCH  95  97
ENDBRANCH  90  91
ENDBRANCH  87  90
ENDBRANCH  81  83
ENDBRANCH   2  77
TORSDOF 20
ENDMDL
MODEL 3
REMARK VINA RESULT:     -10.9      2.636      3.932
REMARK SMILES O=C(NCCCNC(=O)c1cccc([C@@H]2CCC[N@@H+](Cc3cccc(OCCO)c3)C2)c1)c1ccc(-c2c3nc(c(-c4cccc(S(=O)(=O)[O-])c4F)c4ccc([nH]4)c(-c4cccc(S(=O)(=O)[O-])c4F)c4nc(c(-c5cccc(S(=O)(=O)[O-])c5F)c5ccc2[nH]5)C=C4)C=C3)cc1
REMARK SMILES IDX 7 1 8 2 9 3 6 5 5 6 4 7 3 8 1 9 2 10 33 12 34 13 95 14 35 15
REMARK SMILES IDX 94 16 36 17 37 18 38 19 88 20 39 21 93 22 87 23 89 24 40 25
REMARK SMILES IDX 92 26 86 27 85 28 41 30 73 31 53 32 72 33 54 34 57 35 71 36
REMARK SMILES IDX 90 37 55 38 56 39 70 41 91 42 58 43 42 44 43 45 51 46 44 47
REMARK SMILES IDX 46 48 52 49 45 50 47 51 48 52 49 53 50 54 74 55 75 56 83 57
REMARK SMILES IDX 76 58 78 59 84 60 77 61 79 62 80 63 81 64 82 65 59 66 60 67
REMARK SMILES IDX 68 68 61 69 63 70 69 71 62 72 64 73 65 74 66 75 67 76 10 77
REMARK SMILES IDX 11 78 32 79 12 80 14 81 13 82 15 83 16 84 31 85 17 86 19 87
REMARK SMILES IDX 18 88 20 90 21 91 22 92 30 93 23 94 25 95 24 96 26 97 27 98
REMARK SMILES IDX 28 99 29 100
REMARK H PARENT 7 4 3 11 89 29 57 40 19 89 29 101
REMARK Flexibility Score: inf
ROOT
ATOM      1  N   UNL A   1      33.645  27.009  22.039  1.00  0.00    -0.352 N 
ATOM      2  C   UNL A   1      33.107  26.007  21.256  1.00  0.00     0.251 C 
ATOM      3  O   UNL A   1      33.136  26.087  20.034  1.00  0.00    -0.269 OA
ATOM      4  H   UNL A   1      34.106  27.737  21.562  1.00  0.00     0.163 HD
ENDROOT
BRANCH   1   5
ATOM      5  C   UNL A   1      33.610  27.109  23.483  1.00  0.00     0.118 C 
BRANCH   5   6
ATOM      6  C   UNL A   1      33.908  28.483  24.060  1.00  0.00     0.042 C 
BRANCH   6   7
ATOM      7  C   UNL A   1      34.138  28.511  25.563  1.00  0.00     0.118 C 
BRANCH   7   8
ATOM      8  N   UNL A   1      33.681  29.735  26.214  1.00  0.00    -0.352 N 
ATOM      9  O   UNL A   1      33.608  31.456  27.653  1.00  0.00    -0.269 OA
ATOM     10  C   UNL A   1      34.228  30.487  27.237  1.00  0.00     0.251 C 
ATOM     11  H   UNL A   1      32.831  30.089  25.861  1.00  0.00     0.163 HD
BRANCH  10  12
ATOM     12  C   UNL A   1      35.532  30.120  27.848  1.00  0.00     0.039 A 
ATOM     13  C   UNL A   1      36.738  30.416  27.218  1.00  0.00     0.014 A 
ATOM     14  C   UNL A   1      35.554  29.484  29.097  1.00  0.00     0.014 A 
ATOM     15  C   UNL A   1      37.931  29.902  27.714  1.00  0.00     0.010 A 
ATOM     16  C   UNL A   1      36.773  29.072  29.658  1.00  0.00     0.010 A 
ATOM     17  C   UNL A   1      37.971  29.231  28.949  1.00  0.00    -0.014 A 
BRANCH  17  18
ATOM     18  C   UNL A   1      39.287  28.776  29.478  1.00  0.00     0.031 A 
ATOM     19  C   UNL A   1      39.894  29.380  30.717  1.00  0.00     0.074 A 
ATOM     20  C   UNL A   1      39.923  27.766  28.848  1.00  0.00     0.049 A 
ATOM     21  N   UNL A   1      40.995  29.041  31.341  1.00  0.00    -0.248 NA
ATOM     22  C   UNL A   1      39.188  30.513  31.336  1.00  0.00     0.031 C 
ATOM     23  C   UNL A   1      39.464  27.126  27.613  1.00  0.00     0.029 A 
ATOM     24  N   UNL A   1      41.078  27.092  29.159  1.00  0.00    -0.354 N 
ATOM     25  C   UNL A   1      41.135  29.936  32.395  1.00  0.00     0.074 A 
ATOM     26  C   UNL A   1      40.009  30.842  32.325  1.00  0.00     0.031 C 
ATOM     27  C   UNL A   1      40.298  26.126  27.296  1.00  0.00     0.029 A 
ATOM     28  C   UNL A   1      41.386  26.091  28.267  1.00  0.00     0.049 A 
ATOM     29  H   UNL A   1      41.632  27.304  29.945  1.00  0.00     0.167 HD
ATOM     30  C   UNL A   1      42.102  29.989  33.344  1.00  0.00     0.034 A 
ATOM     31  C   UNL A   1      42.432  25.243  28.220  1.00  0.00     0.034 A 
ATOM     32  C   UNL A   1      43.198  29.060  33.438  1.00  0.00     0.049 A 
ATOM     33  C   UNL A   1      43.472  25.308  29.299  1.00  0.00     0.074 A 
ATOM     34  C   UNL A   1      44.186  28.992  34.406  1.00  0.00     0.029 A 
ATOM     35  N   UNL A   1      43.458  28.043  32.533  1.00  0.00    -0.354 N 
ATOM     36  N   UNL A   1      43.512  26.079  30.358  1.00  0.00    -0.248 NA
ATOM     37  C   UNL A   1      44.601  24.375  29.190  1.00  0.00     0.031 C 
ATOM     38  C   UNL A   1      45.055  27.947  34.074  1.00  0.00     0.029 A 
ATOM     39  C   UNL A   1      44.598  27.351  32.911  1.00  0.00     0.049 A 
ATOM     40  H   UNL A   1      42.913  27.841  31.739  1.00  0.00     0.167 HD
ATOM     41  C   UNL A   1      44.658  25.714  31.052  1.00  0.00     0.074 A 
ATOM     42  C   UNL A   1      45.267  24.630  30.309  1.00  0.00     0.031 C 
ATOM     43  C   UNL A   1      45.171  26.245  32.188  1.00  0.00     0.034 A 
BRANCH  30  44
ATOM     44  C   UNL A   1      42.003  31.065  34.395  1.00  0.00     0.023 A 
ATOM     45  C   UNL A   1      41.345  30.790  35.612  1.00  0.00     0.012 A 
ATOM     46  C   UNL A   1      42.629  32.315  34.217  1.00  0.00     0.148 A 
ATOM     47  C   UNL A   1      41.291  31.749  36.623  1.00  0.00     0.002 A 
ATOM     48  C   UNL A   1      42.602  33.253  35.244  1.00  0.00     0.091 A 
ATOM     49  F   UNL A   1      43.234  32.567  33.047  1.00  0.00    -0.205 F 
ATOM     50  C   UNL A   1      41.927  32.975  36.444  1.00  0.00     0.022 A 
BRANCH  48  51
ATOM     51  S   UNL A   1      43.456  34.831  35.138  1.00  0.00     0.127 S 
ATOM     52  O   UNL A   1      42.674  35.651  36.061  1.00  0.00    -0.237 OA
ATOM     53  O   UNL A   1      44.798  34.491  35.613  1.00  0.00    -0.237 OA
ATOM     54  O   UNL A   1      43.391  35.226  33.738  1.00  0.00    -0.744 OA
ENDBRANCH  48  51
ENDBRANCH  30  44
BRANCH  31  55
ATOM     55  C   UNL A   1      42.515  24.239  27.123  1.00  0.00     0.023 A 
ATOM     56  C   UNL A   1      43.253  24.535  25.961  1.00  0.00     0.012 A 
ATOM     57  C   UNL A   1      41.917  22.970  27.251  1.00  0.00     0.148 A 
ATOM     58  C   UNL A   1      43.380  23.592  24.940  1.00  0.00     0.002 A 
ATOM     59  C   UNL A   1      42.099  22.013  26.260  1.00  0.00     0.091 A 
ATOM     60  F   UNL A   1      41.199  22.714  28.354  1.00  0.00    -0.205 F 
ATOM     61  C   UNL A   1      42.817  22.327  25.096  1.00  0.00     0.022 A 
BRANCH  59  62
ATOM     62  S   UNL A   1      41.541  20.318  26.459  1.00  0.00     0.127 S 
ATOM     63  O   UNL A   1      40.096  20.459  26.303  1.00  0.00    -0.237 OA
ATOM     64  O   UNL A   1      42.218  19.641  25.352  1.00  0.00    -0.237 OA
ATOM     65  O   UNL A   1      42.004  19.909  27.779  1.00  0.00    -0.744 OA
ENDBRANCH  59  62
ENDBRANCH  31  55
BRANCH  43  66
ATOM     66  C   UNL A   1      46.454  25.654  32.711  1.00  0.00     0.023 A 
ATOM     67  C   UNL A   1      47.687  26.175  32.273  1.00  0.00     0.012 A 
ATOM     68  C   UNL A   1      46.437  24.632  33.679  1.00  0.00     0.148 A 
ATOM     69  C   UNL A   1      48.887  25.668  32.769  1.00  0.00     0.002 A 
ATOM     70  C   UNL A   1      47.636  24.162  34.203  1.00  0.00     0.091 A 
ATOM     71  F   UNL A   1      45.254  24.136  34.067  1.00  0.00    -0.205 F 
ATOM     72  C   UNL A   1      48.862  24.670  33.741  1.00  0.00     0.022 A 
BRANCH  70  73
ATOM     73  S   UNL A   1      47.697  22.942  35.521  1.00  0.00     0.127 S 
ATOM     74  O   UNL A   1      49.137  22.755  35.687  1.00  0.00    -0.237 OA
ATOM     75  O   UNL A   1      47.040  23.642  36.624  1.00  0.00    -0.237 OA
ATOM     76  O   UNL A   1      46.968  21.782  35.024  1.00  0.00    -0.744 OA
ENDBRANCH  70  73
ENDBRANCH  43  66
ENDBRANCH  17  18
ENDBRANCH  10  12
ENDBRANCH   7   8
ENDBRANCH   6   7
ENDBRANCH   5   6
ENDBRANCH   1   5
BRANCH   2  77
ATOM     77  C   UNL A   1      32.567  24.785  21.901  1.00  0.00     0.040 A 
ATOM     78  C   UNL A   1      33.166  23.567  21.578  1.00  0.00     0.014 A 
ATOM     79  C   UNL A   1      31.572  24.847  22.886  1.00  0.00     0.018 A 
ATOM     80  C   UNL A   1      32.805  22.418  22.278  1.00  0.00     0.001 A 
ATOM     81  C   UNL A   1      31.272  23.718  23.667  1.00  0.00    -0.039 A 
ATOM     82  C   UNL A   1      31.879  22.497  23.324  1.00  0.00     0.004 A 
BRANCH  81  83
ATOM     83  C   UNL A   1      30.481  23.812  24.973  1.00  0.00     0.074 C 
ATOM     84  C   UNL A   1      30.323  25.217  25.576  1.00  0.00     0.020 C 
ATOM     85  C   UNL A   1      31.018  22.822  26.035  1.00  0.00     0.270 C 
ATOM     86  C   UNL A   1      31.490  25.648  26.467  1.00  0.00     0.062 C 
ATOM     87  N   UNL A   1      32.218  23.330  26.700  1.00  0.00    -0.331 N 
ATOM     88  C   UNL A   1      31.953  24.554  27.442  1.00  0.00     0.262 C 
ATOM     89  H   UNL A   1      32.844  23.601  25.942  1.00  0.00     0.348 HD
BRANCH  87  90
ATOM     90  C   UNL A   1      33.069  22.345  27.362  1.00  0.00     0.299 C 
BRANCH  90  91
ATOM     91  C   UNL A   1      34.100  21.572  26.588  1.00  0.00     0.010 A 
ATOM     92  C   UNL A   1      35.410  22.049  26.484  1.00  0.00     0.010 A 
ATOM     93  C   UNL A   1      33.721  20.480  25.799  1.00  0.00     0.056 A 
ATOM     94  C   UNL A   1      36.320  21.424  25.632  1.00  0.00     0.004 A 
ATOM     95  C   UNL A   1      34.632  19.813  24.985  1.00  0.00     0.119 A 
ATOM     96  C   UNL A   1      35.934  20.301  24.897  1.00  0.00     0.046 A 
BRANCH  95  97
ATOM     97  O   UNL A   1      34.368  18.684  24.261  1.00  0.00    -0.491 OA
BRANCH  97  98
ATOM     98  C   UNL A   1      33.335  17.799  24.711  1.00  0.00     0.257 C 
BRANCH  98  99
ATOM     99  C   UNL A   1      33.657  16.336  24.388  1.00  0.00     0.197 C 
BRANCH  99 100
ATOM    100  O   UNL A   1      34.070  16.136  23.039  1.00  0.00    -0.393 OA
ATOM    101  H   UNL A   1      34.157  16.994  22.597  1.00  0.00     0.210 HD
ENDBRANCH  99 100
ENDBRANCH  98  99
ENDBRANCH  97  98
ENDBRANCH  95  97
ENDBRANCH  90  91
ENDBRANCH  87  90
ENDBRANCH  81  83
ENDBRANCH   2  77
TORSDOF 20
ENDMDL
