MODEL 1
REMARK VINA RESULT:     -11.4      0.000      0.000
REMARK SMILES CC(C)(C)[C@H](CCC(=O)NCCCNC(=O)c1ccc(-c2c3nc(c(-c4cccc(S(=O)(=O)[O-])c4F)c4ccc([nH]4)c(-c4cccc(S(=O)(=O)[O-])c4F)c4nc(c(-c5cccc(S(=O)(=O)[O-])c5F)c5ccc2[nH]5)C=C4)C=C3)cc1)CC[NH+]1CCOCC1
REMARK SMILES IDX 11 1 10 2 8 3 9 4 7 6 6 7 5 8 2 9 1 10 3 11 4 12 80 13 81 14
REMARK SMILES IDX 82 15 83 16 87 17 84 19 86 20 85 21 12 22 13 23 14 24 15 25
REMARK SMILES IDX 16 27 17 28 18 29 79 30 19 31 78 32 20 33 21 34 22 35 72 36
REMARK SMILES IDX 23 37 77 38 71 39 73 40 24 41 76 42 70 43 69 44 25 46 57 47
REMARK SMILES IDX 37 48 56 49 38 50 41 51 55 52 74 53 39 54 40 55 54 57 75 58
REMARK SMILES IDX 42 59 26 60 27 61 35 62 28 63 30 64 36 65 29 66 31 67 32 68
REMARK SMILES IDX 33 69 34 70 58 71 59 72 67 73 60 74 62 75 68 76 61 77 63 78
REMARK SMILES IDX 64 79 65 80 66 81 43 82 44 83 52 84 45 85 47 86 53 87 46 88
REMARK SMILES IDX 48 89 49 90 50 91 51 92
REMARK H PARENT 10 5 82 18 14 26 73 45 41 56
REMARK Flexibility Score: inf
ROOT
ATOM      1  C   UNL A   1      32.507  26.810  25.378  1.00  0.00     0.117 C 
ENDROOT
BRANCH   1   2
ATOM      2  N   UNL A   1      31.428  25.880  25.014  1.00  0.00    -0.356 N 
ATOM      3  C   UNL A   1      31.047  24.854  25.839  1.00  0.00     0.220 C 
ATOM      4  O   UNL A   1      30.241  25.117  26.739  1.00  0.00    -0.275 OA
ATOM      5  H   UNL A   1      30.966  25.998  24.153  1.00  0.00     0.163 HD
BRANCH   3   6
ATOM      6  C   UNL A   1      31.350  23.375  25.520  1.00  0.00     0.100 C 
BRANCH   6   7
ATOM      7  C   UNL A   1      32.656  22.608  25.768  1.00  0.00     0.014 C 
BRANCH   7   8
ATOM      8  C   UNL A   1      33.543  22.315  24.562  1.00  0.00     0.000 C 
BRANCH   8   9
ATOM      9  C   UNL A   1      34.699  23.401  24.306  1.00  0.00    -0.035 C 
ATOM     10  C   UNL A   1      36.018  22.775  23.830  1.00  0.00     0.011 C 
ATOM     11  C   UNL A   1      35.013  24.283  25.540  1.00  0.00     0.011 C 
ATOM     12  C   UNL A   1      34.271  24.411  23.212  1.00  0.00     0.011 C 
ENDBRANCH   8   9
BRANCH   8  13
ATOM     13  C   UNL A   1      33.929  20.788  24.471  1.00  0.00     0.065 C 
BRANCH  13  14
ATOM     14  C   UNL A   1      33.127  19.674  25.276  1.00  0.00     0.262 C 
BRANCH  14  15
ATOM     15  N   UNL A   1      33.500  18.263  25.074  1.00  0.00    -0.331 N 
ATOM     16  C   UNL A   1      32.718  17.289  25.878  1.00  0.00     0.291 C 
ATOM     17  C   UNL A   1      33.324  17.797  23.671  1.00  0.00     0.291 C 
ATOM     18  H   UNL A   1      34.478  18.274  25.361  1.00  0.00     0.348 HD
ATOM     19  C   UNL A   1      33.350  15.886  25.727  1.00  0.00     0.221 C 
ATOM     20  C   UNL A   1      34.014  16.431  23.525  1.00  0.00     0.221 C 
ATOM     21  O   UNL A   1      33.388  15.449  24.361  1.00  0.00    -0.370 OA
ENDBRANCH  14  15
ENDBRANCH  13  14
ENDBRANCH   8  13
ENDBRANCH   7   8
ENDBRANCH   6   7
ENDBRANCH   3   6
ENDBRANCH   1   2
BRANCH   1  22
ATOM     22  C   UNL A   1      32.204  28.274  25.040  1.00  0.00     0.042 C 
BRANCH  22  23
ATOM     23  C   UNL A   1      33.210  29.276  25.562  1.00  0.00     0.118 C 
BRANCH  23  24
ATOM     24  N   UNL A   1      32.599  30.502  26.020  1.00  0.00    -0.352 N 
ATOM     25  C   UNL A   1      33.047  31.358  27.006  1.00  0.00     0.251 C 
ATOM     26  H   UNL A   1      31.758  30.758  25.575  1.00  0.00     0.163 HD
ATOM     27  O   UNL A   1      32.337  32.277  27.367  1.00  0.00    -0.269 OA
BRANCH  25  28
ATOM     28  C   UNL A   1      34.370  31.125  27.652  1.00  0.00     0.039 A 
ATOM     29  C   UNL A   1      34.649  29.841  28.125  1.00  0.00     0.014 A 
ATOM     30  C   UNL A   1      35.317  32.140  27.817  1.00  0.00     0.014 A 
ATOM     31  C   UNL A   1      35.873  29.578  28.747  1.00  0.00     0.010 A 
ATOM     32  C   UNL A   1      36.574  31.854  28.355  1.00  0.00     0.010 A 
ATOM     33  C   UNL A   1      36.853  30.580  28.862  1.00  0.00    -0.014 A 
BRANCH  33  34
ATOM     34  C   UNL A   1      38.136  30.283  29.554  1.00  0.00     0.031 A 
ATOM     35  C   UNL A   1      38.390  30.782  30.954  1.00  0.00     0.074 A 
ATOM     36  C   UNL A   1      39.073  29.543  28.929  1.00  0.00     0.049 A 
ATOM     37  N   UNL A   1      39.362  30.468  31.773  1.00  0.00    -0.248 NA
ATOM     38  C   UNL A   1      37.451  31.775  31.501  1.00  0.00     0.031 C 
ATOM     39  C   UNL A   1      39.005  29.093  27.537  1.00  0.00     0.029 A 
ATOM     40  N   UNL A   1      40.262  29.030  29.386  1.00  0.00    -0.354 N 
ATOM     41  C   UNL A   1      39.157  31.230  32.919  1.00  0.00     0.074 A 
ATOM     42  C   UNL A   1      38.004  32.064  32.670  1.00  0.00     0.031 C 
ATOM     43  C   UNL A   1      40.081  28.336  27.266  1.00  0.00     0.029 A 
ATOM     44  C   UNL A   1      40.916  28.250  28.461  1.00  0.00     0.049 A 
ATOM     45  H   UNL A   1      40.613  29.203  30.289  1.00  0.00     0.167 HD
ATOM     46  C   UNL A   1      39.838  31.209  34.091  1.00  0.00     0.034 A 
ATOM     47  C   UNL A   1      42.043  27.518  28.573  1.00  0.00     0.034 A 
ATOM     48  C   UNL A   1      40.963  30.352  34.349  1.00  0.00     0.049 A 
ATOM     49  C   UNL A   1      42.734  27.443  29.909  1.00  0.00     0.074 A 
ATOM     50  C   UNL A   1      41.671  30.191  35.526  1.00  0.00     0.029 A 
ATOM     51  N   UNL A   1      41.549  29.517  33.411  1.00  0.00    -0.354 N 
ATOM     52  N   UNL A   1      42.409  28.019  31.040  1.00  0.00    -0.248 NA
ATOM     53  C   UNL A   1      43.915  26.573  29.996  1.00  0.00     0.031 C 
ATOM     54  C   UNL A   1      42.702  29.272  35.293  1.00  0.00     0.029 A 
ATOM     55  C   UNL A   1      42.615  28.841  33.980  1.00  0.00     0.049 A 
ATOM     56  H   UNL A   1      41.251  29.419  32.479  1.00  0.00     0.167 HD
ATOM     57  C   UNL A   1      43.323  27.558  31.981  1.00  0.00     0.074 A 
ATOM     58  C   UNL A   1      44.195  26.629  31.290  1.00  0.00     0.031 C 
ATOM     59  C   UNL A   1      43.444  27.886  33.291  1.00  0.00     0.034 A 
BRANCH  46  60
ATOM     60  C   UNL A   1      39.339  32.097  35.203  1.00  0.00     0.023 A 
ATOM     61  C   UNL A   1      38.347  31.615  36.084  1.00  0.00     0.012 A 
ATOM     62  C   UNL A   1      39.878  33.381  35.409  1.00  0.00     0.148 A 
ATOM     63  C   UNL A   1      37.873  32.409  37.126  1.00  0.00     0.002 A 
ATOM     64  C   UNL A   1      39.431  34.150  36.479  1.00  0.00     0.091 A 
ATOM     65  F   UNL A   1      40.804  33.832  34.552  1.00  0.00    -0.205 F 
ATOM     66  C   UNL A   1      38.421  33.672  37.329  1.00  0.00     0.022 A 
BRANCH  64  67
ATOM     67  S   UNL A   1      40.129  35.757  36.876  1.00  0.00     0.127 S 
ATOM     68  O   UNL A   1      39.734  36.546  35.709  1.00  0.00    -0.237 OA
ATOM     69  O   UNL A   1      39.424  36.103  38.111  1.00  0.00    -0.237 OA
ATOM     70  O   UNL A   1      41.561  35.546  37.033  1.00  0.00    -0.744 OA
ENDBRANCH  64  67
ENDBRANCH  46  60
BRANCH  47  71
ATOM     71  C   UNL A   1      42.527  26.713  27.414  1.00  0.00     0.023 A 
ATOM     72  C   UNL A   1      43.361  27.311  26.448  1.00  0.00     0.012 A 
ATOM     73  C   UNL A   1      42.186  25.354  27.276  1.00  0.00     0.148 A 
ATOM     74  C   UNL A   1      43.816  26.582  25.349  1.00  0.00     0.002 A 
ATOM     75  C   UNL A   1      42.690  24.617  26.211  1.00  0.00     0.091 A 
ATOM     76  F   UNL A   1      41.382  24.805  28.198  1.00  0.00    -0.205 F 
ATOM     77  C   UNL A   1      43.490  25.233  25.235  1.00  0.00     0.022 A 
BRANCH  75  78
ATOM     78  S   UNL A   1      42.436  22.845  26.065  1.00  0.00     0.127 S 
ATOM     79  O   UNL A   1      40.982  22.743  26.158  1.00  0.00    -0.237 OA
ATOM     80  O   UNL A   1      42.991  22.567  24.740  1.00  0.00    -0.237 OA
ATOM     81  O   UNL A   1      43.186  22.250  27.164  1.00  0.00    -0.744 OA
ENDBRANCH  75  78
ENDBRANCH  47  71
BRANCH  59  82
ATOM     82  C   UNL A   1      44.545  27.218  34.075  1.00  0.00     0.023 A 
ATOM     83  C   UNL A   1      45.843  27.769  34.072  1.00  0.00     0.012 A 
ATOM     84  C   UNL A   1      44.284  26.074  34.853  1.00  0.00     0.148 A 
ATOM     85  C   UNL A   1      46.873  27.165  34.792  1.00  0.00     0.002 A 
ATOM     86  C   UNL A   1      45.303  25.507  35.609  1.00  0.00     0.091 A 
ATOM     87  F   UNL A   1      43.049  25.549  34.830  1.00  0.00    -0.205 F 
ATOM     88  C   UNL A   1      46.601  26.041  35.569  1.00  0.00     0.022 A 
BRANCH  86  89
ATOM     89  S   UNL A   1      45.014  24.119  36.713  1.00  0.00     0.127 S 
ATOM     90  O   UNL A   1      46.348  23.892  37.264  1.00  0.00    -0.237 OA
ATOM     91  O   UNL A   1      44.047  24.669  37.663  1.00  0.00    -0.237 OA
ATOM     92  O   UNL A   1      44.487  23.051  35.873  1.00  0.00    -0.744 OA
ENDBRANCH  86  89
ENDBRANCH  59  82
ENDBRANCH  33  34
ENDBRANCH  25  28
ENDBRANCH  23  24
ENDBRANCH  22  23
ENDBRANCH   1  22
TORSDOF 19
ENDMDL
MODEL 2
REMARK VINA RESULT:     -11.3      2.032      2.659
REMARK SMILES CC(C)(C)[C@H](CCC(=O)NCCCNC(=O)c1ccc(-c2c3nc(c(-c4cccc(S(=O)(=O)[O-])c4F)c4ccc([nH]4)c(-c4cccc(S(=O)(=O)[O-])c4F)c4nc(c(-c5cccc(S(=O)(=O)[O-])c5F)c5ccc2[nH]5)C=C4)C=C3)cc1)CC[NH+]1CCOCC1
REMARK SMILES IDX 11 1 10 2 8 3 9 4 7 6 6 7 5 8 2 9 1 10 3 11 4 12 80 13 81 14
REMARK SMILES IDX 82 15 83 16 87 17 84 19 86 20 85 21 12 22 13 23 14 24 15 25
REMARK SMILES IDX 16 27 17 28 18 29 79 30 19 31 78 32 20 33 21 34 22 35 72 36
REMARK SMILES IDX 23 37 77 38 71 39 73 40 24 41 76 42 70 43 69 44 25 46 57 47
REMARK SMILES IDX 37 48 56 49 38 50 41 51 55 52 74 53 39 54 40 55 54 57 75 58
REMARK SMILES IDX 42 59 26 60 27 61 35 62 28 63 30 64 36 65 29 66 31 67 32 68
REMARK SMILES IDX 33 69 34 70 58 71 59 72 67 73 60 74 62 75 68 76 61 77 63 78
REMARK SMILES IDX 64 79 65 80 66 81 43 82 44 83 52 84 45 85 47 86 53 87 46 88
REMARK SMILES IDX 48 89 49 90 50 91 51 92
REMARK H PARENT 10 5 82 18 14 26 73 45 41 56
REMARK Flexibility Score: inf
ROOT
ATOM      1  C   UNL A   1      31.832  27.664  25.817  1.00  0.00     0.117 C 
ENDROOT
BRANCH   1   2
ATOM      2  N   UNL A   1      31.753  26.294  25.289  1.00  0.00    -0.356 N 
ATOM      3  C   UNL A   1      32.286  25.227  25.965  1.00  0.00     0.220 C 
ATOM      4  O   UNL A   1      31.593  24.710  26.849  1.00  0.00    -0.275 OA
ATOM      5  H   UNL A   1      31.304  26.139  24.427  1.00  0.00     0.163 HD
BRANCH   3   6
ATOM      6  C   UNL A   1      33.552  24.489  25.485  1.00  0.00     0.100 C 
BRANCH   6   7
ATOM      7  C   UNL A   1      34.298  23.345  26.186  1.00  0.00     0.014 C 
BRANCH   7   8
ATOM      8  C   UNL A   1      34.798  22.193  25.321  1.00  0.00     0.000 C 
BRANCH   8   9
ATOM      9  C   UNL A   1      36.308  22.362  24.795  1.00  0.00    -0.035 C 
ATOM     10  C   UNL A   1      37.076  21.034  24.736  1.00  0.00     0.011 C 
ATOM     11  C   UNL A   1      37.152  23.360  25.626  1.00  0.00     0.011 C 
ATOM     12  C   UNL A   1      36.325  22.946  23.360  1.00  0.00     0.011 C 
ENDBRANCH   8   9
BRANCH   8  13
ATOM     13  C   UNL A   1      34.371  20.790  25.903  1.00  0.00     0.065 C 
BRANCH  13  14
ATOM     14  C   UNL A   1      33.493  19.768  25.057  1.00  0.00     0.262 C 
BRANCH  14  15
ATOM     15  N   UNL A   1      33.669  18.326  25.305  1.00  0.00    -0.331 N 
ATOM     16  C   UNL A   1      32.443  17.508  25.129  1.00  0.00     0.291 C 
ATOM     17  C   UNL A   1      34.665  17.684  24.402  1.00  0.00     0.291 C 
ATOM     18  H   UNL A   1      33.972  18.329  26.278  1.00  0.00     0.348 HD
ATOM     19  C   UNL A   1      32.720  16.068  25.622  1.00  0.00     0.221 C 
ATOM     20  C   UNL A   1      34.974  16.279  24.945  1.00  0.00     0.221 C 
ATOM     21  O   UNL A   1      33.806  15.450  24.916  1.00  0.00    -0.370 OA
ENDBRANCH  14  15
ENDBRANCH  13  14
ENDBRANCH   8  13
ENDBRANCH   7   8
ENDBRANCH   6   7
ENDBRANCH   3   6
ENDBRANCH   1   2
BRANCH   1  22
ATOM     22  C   UNL A   1      32.964  27.874  26.830  1.00  0.00     0.042 C 
BRANCH  22  23
ATOM     23  C   UNL A   1      34.033  28.857  26.406  1.00  0.00     0.118 C 
BRANCH  23  24
ATOM     24  N   UNL A   1      33.799  30.193  26.902  1.00  0.00    -0.352 N 
ATOM     25  C   UNL A   1      34.591  30.930  27.761  1.00  0.00     0.251 C 
ATOM     26  H   UNL A   1      32.974  30.632  26.592  1.00  0.00     0.163 HD
ATOM     27  O   UNL A   1      34.177  31.989  28.193  1.00  0.00    -0.269 OA
BRANCH  25  28
ATOM     28  C   UNL A   1      35.918  30.405  28.188  1.00  0.00     0.039 A 
ATOM     29  C   UNL A   1      35.976  29.652  29.362  1.00  0.00     0.014 A 
ATOM     30  C   UNL A   1      37.094  30.657  27.474  1.00  0.00     0.014 A 
ATOM     31  C   UNL A   1      37.202  29.148  29.808  1.00  0.00     0.010 A 
ATOM     32  C   UNL A   1      38.300  30.077  27.870  1.00  0.00     0.010 A 
ATOM     33  C   UNL A   1      38.376  29.348  29.062  1.00  0.00    -0.014 A 
BRANCH  33  34
ATOM     34  C   UNL A   1      39.673  28.826  29.572  1.00  0.00     0.031 A 
ATOM     35  C   UNL A   1      40.288  29.385  30.831  1.00  0.00     0.074 A 
ATOM     36  C   UNL A   1      40.295  27.829  28.912  1.00  0.00     0.049 A 
ATOM     37  N   UNL A   1      41.306  28.932  31.517  1.00  0.00    -0.248 NA
ATOM     38  C   UNL A   1      39.704  30.619  31.380  1.00  0.00     0.031 C 
ATOM     39  C   UNL A   1      39.871  27.274  27.625  1.00  0.00     0.029 A 
ATOM     40  N   UNL A   1      41.411  27.097  29.236  1.00  0.00    -0.354 N 
ATOM     41  C   UNL A   1      41.490  29.829  32.565  1.00  0.00     0.074 A 
ATOM     42  C   UNL A   1      40.517  30.882  32.393  1.00  0.00     0.031 C 
ATOM     43  C   UNL A   1      40.688  26.262  27.290  1.00  0.00     0.029 A 
ATOM     44  C   UNL A   1      41.696  26.098  28.334  1.00  0.00     0.049 A 
ATOM     45  H   UNL A   1      41.954  27.270  30.038  1.00  0.00     0.167 HD
ATOM     46  C   UNL A   1      42.359  29.762  33.603  1.00  0.00     0.034 A 
ATOM     47  C   UNL A   1      42.640  25.136  28.363  1.00  0.00     0.034 A 
ATOM     48  C   UNL A   1      43.302  28.694  33.792  1.00  0.00     0.049 A 
ATOM     49  C   UNL A   1      43.538  25.031  29.567  1.00  0.00     0.074 A 
ATOM     50  C   UNL A   1      44.168  28.485  34.850  1.00  0.00     0.029 A 
ATOM     51  N   UNL A   1      43.507  27.657  32.895  1.00  0.00    -0.354 N 
ATOM     52  N   UNL A   1      43.563  25.775  30.646  1.00  0.00    -0.248 NA
ATOM     53  C   UNL A   1      44.500  23.920  29.581  1.00  0.00     0.031 C 
ATOM     54  C   UNL A   1      44.915  27.332  34.582  1.00  0.00     0.029 A 
ATOM     55  C   UNL A   1      44.492  26.807  33.372  1.00  0.00     0.049 A 
ATOM     56  H   UNL A   1      43.025  27.541  32.046  1.00  0.00     0.167 HD
ATOM     57  C   UNL A   1      44.518  25.205  31.481  1.00  0.00     0.074 A 
ATOM     58  C   UNL A   1      45.024  24.034  30.793  1.00  0.00     0.031 C 
ATOM     59  C   UNL A   1      44.952  25.621  32.697  1.00  0.00     0.034 A 
BRANCH  46  60
ATOM     60  C   UNL A   1      42.281  30.846  34.648  1.00  0.00     0.023 A 
ATOM     61  C   UNL A   1      41.448  30.667  35.774  1.00  0.00     0.012 A 
ATOM     62  C   UNL A   1      43.060  32.015  34.547  1.00  0.00     0.148 A 
ATOM     63  C   UNL A   1      41.362  31.647  36.759  1.00  0.00     0.002 A 
ATOM     64  C   UNL A   1      43.002  32.969  35.558  1.00  0.00     0.091 A 
ATOM     65  F   UNL A   1      43.829  32.179  33.462  1.00  0.00    -0.205 F 
ATOM     66  C   UNL A   1      42.145  32.793  36.657  1.00  0.00     0.022 A 
BRANCH  64  67
ATOM     67  S   UNL A   1      44.031  34.441  35.562  1.00  0.00     0.127 S 
ATOM     68  O   UNL A   1      43.354  35.276  34.570  1.00  0.00    -0.237 OA
ATOM     69  O   UNL A   1      43.898  34.907  36.942  1.00  0.00    -0.237 OA
ATOM     70  O   UNL A   1      45.369  33.998  35.197  1.00  0.00    -0.744 OA
ENDBRANCH  64  67
ENDBRANCH  46  60
BRANCH  47  71
ATOM     71  C   UNL A   1      42.712  24.131  27.263  1.00  0.00     0.023 A 
ATOM     72  C   UNL A   1      43.473  24.412  26.110  1.00  0.00     0.012 A 
ATOM     73  C   UNL A   1      42.054  22.891  27.363  1.00  0.00     0.148 A 
ATOM     74  C   UNL A   1      43.545  23.492  25.063  1.00  0.00     0.002 A 
ATOM     75  C   UNL A   1      42.178  21.955  26.343  1.00  0.00     0.091 A 
ATOM     76  F   UNL A   1      41.326  22.646  28.462  1.00  0.00    -0.205 F 
ATOM     77  C   UNL A   1      42.907  22.261  25.183  1.00  0.00     0.022 A 
BRANCH  75  78
ATOM     78  S   UNL A   1      41.507  20.295  26.477  1.00  0.00     0.127 S 
ATOM     79  O   UNL A   1      41.988  19.883  27.794  1.00  0.00    -0.237 OA
ATOM     80  O   UNL A   1      40.067  20.541  26.395  1.00  0.00    -0.237 OA
ATOM     81  O   UNL A   1      42.053  19.560  25.343  1.00  0.00    -0.744 OA
ENDBRANCH  75  78
ENDBRANCH  47  71
BRANCH  59  82
ATOM     82  C   UNL A   1      46.012  24.793  33.376  1.00  0.00     0.023 A 
ATOM     83  C   UNL A   1      47.365  25.176  33.289  1.00  0.00     0.012 A 
ATOM     84  C   UNL A   1      45.663  23.663  34.141  1.00  0.00     0.148 A 
ATOM     85  C   UNL A   1      48.359  24.422  33.913  1.00  0.00     0.002 A 
ATOM     86  C   UNL A   1      46.652  22.946  34.803  1.00  0.00     0.091 A 
ATOM     87  F   UNL A   1      44.373  23.299  34.198  1.00  0.00    -0.205 F 
ATOM     88  C   UNL A   1      48.002  23.314  34.678  1.00  0.00     0.022 A 
BRANCH  86  89
ATOM     89  S   UNL A   1      46.268  21.566  35.887  1.00  0.00     0.127 S 
ATOM     90  O   UNL A   1      47.599  21.139  36.311  1.00  0.00    -0.237 OA
ATOM     91  O   UNL A   1      45.469  22.203  36.936  1.00  0.00    -0.237 OA
ATOM     92  O   UNL A   1      45.530  20.614  35.068  1.00  0.00    -0.744 OA
ENDBRANCH  86  89
ENDBRANCH  59  82
ENDBRANCH  33  34
ENDBRANCH  25  28
ENDBRANCH  23  24
ENDBRANCH  22  23
ENDBRANCH   1  22
TORSDOF 19
ENDMDL
MODEL 3
REMARK VINA RESULT:     -10.8      2.347      8.229
REMARK SMILES CC(C)(C)[C@H](CCC(=O)NCCCNC(=O)c1ccc(-c2c3nc(c(-c4cccc(S(=O)(=O)[O-])c4F)c4ccc([nH]4)c(-c4cccc(S(=O)(=O)[O-])c4F)c4nc(c(-c5cccc(S(=O)(=O)[O-])c5F)c5ccc2[nH]5)C=C4)C=C3)cc1)CC[NH+]1CCOCC1
REMARK SMILES IDX 11 1 10 2 8 3 9 4 7 6 6 7 5 8 2 9 1 10 3 11 4 12 80 13 81 14
REMARK SMILES IDX 82 15 83 16 87 17 84 19 86 20 85 21 12 22 13 23 14 24 15 25
REMARK SMILES IDX 16 27 17 28 18 29 79 30 19 31 78 32 20 33 21 34 22 35 72 36
REMARK SMILES IDX 23 37 77 38 71 39 73 40 24 41 76 42 70 43 69 44 25 46 57 47
REMARK SMILES IDX 37 48 56 49 38 50 41 51 55 52 74 53 39 54 40 55 54 57 75 58
REMARK SMILES IDX 42 59 26 60 27 61 35 62 28 63 30 64 36 65 29 66 31 67 32 68
REMARK SMILES IDX 33 69 34 70 58 71 59 72 67 73 60 74 62 75 68 76 61 77 63 78
REMARK SMILES IDX 64 79 65 80 66 81 43 82 44 83 52 84 45 85 47 86 53 87 46 88
REMARK SMILES IDX 48 89 49 90 50 91 51 92
REMARK H PARENT 10 5 82 18 14 26 73 45 41 56
REMARK Flexibility Score: inf
ROOT
ATOM      1  C   UNL A   1      31.995  27.722  25.914  1.00  0.00     0.117 C 
ENDROOT
BRANCH   1   2
ATOM      2  N   UNL A   1      31.658  26.390  25.389  1.00  0.00    -0.356 N 
ATOM      3  C   UNL A   1      32.137  25.242  25.967  1.00  0.00     0.220 C 
ATOM      4  O   UNL A   1      31.518  24.793  26.938  1.00  0.00    -0.275 OA
ATOM      5  H   UNL A   1      31.072  26.320  24.602  1.00  0.00     0.163 HD
BRANCH   3   6
ATOM      6  C   UNL A   1      33.211  24.361  25.296  1.00  0.00     0.100 C 
BRANCH   6   7
ATOM      7  C   UNL A   1      34.198  23.401  25.974  1.00  0.00     0.014 C 
BRANCH   7   8
ATOM      8  C   UNL A   1      34.806  22.294  25.120  1.00  0.00     0.000 C 
BRANCH   8   9
ATOM      9  C   UNL A   1      36.305  22.585  24.621  1.00  0.00    -0.035 C 
ATOM     10  C   UNL A   1      37.027  23.643  25.467  1.00  0.00     0.011 C 
ATOM     11  C   UNL A   1      36.397  23.022  23.138  1.00  0.00     0.011 C 
ATOM     12  C   UNL A   1      37.167  21.299  24.695  1.00  0.00     0.011 C 
ENDBRANCH   8   9
BRANCH   8  13
ATOM     13  C   UNL A   1      34.483  20.860  25.696  1.00  0.00     0.065 C 
BRANCH  13  14
ATOM     14  C   UNL A   1      33.526  19.848  24.927  1.00  0.00     0.262 C 
BRANCH  14  15
ATOM     15  N   UNL A   1      33.673  18.407  25.199  1.00  0.00    -0.331 N 
ATOM     16  C   UNL A   1      32.428  17.612  25.044  1.00  0.00     0.291 C 
ATOM     17  C   UNL A   1      34.648  17.729  24.302  1.00  0.00     0.291 C 
ATOM     18  H   UNL A   1      33.981  18.420  26.170  1.00  0.00     0.348 HD
ATOM     19  C   UNL A   1      32.677  16.176  25.560  1.00  0.00     0.221 C 
ATOM     20  C   UNL A   1      34.931  16.327  24.866  1.00  0.00     0.221 C 
ATOM     21  O   UNL A   1      33.745  15.522  24.859  1.00  0.00    -0.370 OA
ENDBRANCH  14  15
ENDBRANCH  13  14
ENDBRANCH   8  13
ENDBRANCH   7   8
ENDBRANCH   6   7
ENDBRANCH   3   6
ENDBRANCH   1   2
BRANCH   1  22
ATOM     22  C   UNL A   1      33.331  27.773  26.664  1.00  0.00     0.042 C 
BRANCH  22  23
ATOM     23  C   UNL A   1      34.315  28.804  26.156  1.00  0.00     0.118 C 
BRANCH  23  24
ATOM     24  N   UNL A   1      34.074  30.124  26.689  1.00  0.00    -0.352 N 
ATOM     25  C   UNL A   1      34.816  30.808  27.630  1.00  0.00     0.251 C 
ATOM     26  H   UNL A   1      33.282  30.594  26.339  1.00  0.00     0.163 HD
ATOM     27  O   UNL A   1      34.394  31.859  28.075  1.00  0.00    -0.269 OA
BRANCH  25  28
ATOM     28  C   UNL A   1      36.098  30.237  28.129  1.00  0.00     0.039 A 
ATOM     29  C   UNL A   1      36.086  29.580  29.361  1.00  0.00     0.014 A 
ATOM     30  C   UNL A   1      37.301  30.354  27.425  1.00  0.00     0.014 A 
ATOM     31  C   UNL A   1      37.268  29.037  29.874  1.00  0.00     0.010 A 
ATOM     32  C   UNL A   1      38.459  29.732  27.894  1.00  0.00     0.010 A 
ATOM     33  C   UNL A   1      38.466  29.099  29.142  1.00  0.00    -0.014 A 
BRANCH  33  34
ATOM     34  C   UNL A   1      39.717  28.539  29.722  1.00  0.00     0.031 A 
ATOM     35  C   UNL A   1      40.444  27.408  29.040  1.00  0.00     0.074 A 
ATOM     36  C   UNL A   1      40.215  29.063  30.860  1.00  0.00     0.049 A 
ATOM     37  N   UNL A   1      41.632  26.923  29.298  1.00  0.00    -0.248 NA
ATOM     38  C   UNL A   1      39.746  26.716  27.945  1.00  0.00     0.031 C 
ATOM     39  C   UNL A   1      39.556  30.081  31.681  1.00  0.00     0.029 A 
ATOM     40  N   UNL A   1      41.396  28.821  31.518  1.00  0.00    -0.354 N 
ATOM     41  C   UNL A   1      41.816  25.869  28.410  1.00  0.00     0.074 A 
ATOM     42  C   UNL A   1      40.597  25.746  27.645  1.00  0.00     0.031 C 
ATOM     43  C   UNL A   1      40.358  30.406  32.708  1.00  0.00     0.029 A 
ATOM     44  C   UNL A   1      41.586  29.619  32.621  1.00  0.00     0.049 A 
ATOM     45  H   UNL A   1      42.044  28.140  31.227  1.00  0.00     0.167 HD
ATOM     46  C   UNL A   1      42.914  25.099  28.214  1.00  0.00     0.034 A 
ATOM     47  C   UNL A   1      42.644  29.732  33.448  1.00  0.00     0.034 A 
ATOM     48  C   UNL A   1      44.139  25.247  28.952  1.00  0.00     0.049 A 
ATOM     49  C   UNL A   1      43.884  28.928  33.160  1.00  0.00     0.074 A 
ATOM     50  C   UNL A   1      45.337  24.578  28.778  1.00  0.00     0.029 A 
ATOM     51  N   UNL A   1      44.320  26.122  30.011  1.00  0.00    -0.354 N 
ATOM     52  N   UNL A   1      44.109  28.075  32.189  1.00  0.00    -0.248 NA
ATOM     53  C   UNL A   1      45.035  29.142  34.048  1.00  0.00     0.031 C 
ATOM     54  C   UNL A   1      46.237  25.033  29.748  1.00  0.00     0.029 A 
ATOM     55  C   UNL A   1      45.607  26.007  30.506  1.00  0.00     0.049 A 
ATOM     56  H   UNL A   1      43.634  26.736  30.360  1.00  0.00     0.167 HD
ATOM     57  C   UNL A   1      45.434  27.676  32.330  1.00  0.00     0.074 A 
ATOM     58  C   UNL A   1      45.969  28.407  33.461  1.00  0.00     0.031 C 
ATOM     59  C   UNL A   1      46.139  26.774  31.603  1.00  0.00     0.034 A 
BRANCH  46  60
ATOM     60  C   UNL A   1      42.857  24.070  27.113  1.00  0.00     0.023 A 
ATOM     61  C   UNL A   1      43.469  24.346  25.872  1.00  0.00     0.012 A 
ATOM     62  C   UNL A   1      42.245  22.818  27.316  1.00  0.00     0.148 A 
ATOM     63  C   UNL A   1      43.439  23.411  24.840  1.00  0.00     0.002 A 
ATOM     64  C   UNL A   1      42.259  21.872  26.296  1.00  0.00     0.091 A 
ATOM     65  F   UNL A   1      41.650  22.579  28.493  1.00  0.00    -0.205 F 
ATOM     66  C   UNL A   1      42.844  22.171  25.054  1.00  0.00     0.022 A 
BRANCH  64  67
ATOM     67  S   UNL A   1      41.590  20.217  26.497  1.00  0.00     0.127 S 
ATOM     68  O   UNL A   1      40.151  20.472  26.438  1.00  0.00    -0.237 OA
ATOM     69  O   UNL A   1      42.134  19.521  25.331  1.00  0.00    -0.237 OA
ATOM     70  O   UNL A   1      42.088  19.736  27.777  1.00  0.00    -0.744 OA
ENDBRANCH  64  67
ENDBRANCH  46  60
BRANCH  47  71
ATOM     71  C   UNL A   1      42.616  30.721  34.564  1.00  0.00     0.023 A 
ATOM     72  C   UNL A   1      42.213  30.311  35.851  1.00  0.00     0.012 A 
ATOM     73  C   UNL A   1      43.008  32.059  34.364  1.00  0.00     0.148 A 
ATOM     74  C   UNL A   1      42.166  31.221  36.907  1.00  0.00     0.002 A 
ATOM     75  C   UNL A   1      43.016  32.947  35.434  1.00  0.00     0.091 A 
ATOM     76  F   UNL A   1      43.377  32.434  33.131  1.00  0.00    -0.205 F 
ATOM     77  C   UNL A   1      42.577  32.535  36.702  1.00  0.00     0.022 A 
BRANCH  75  78
ATOM     78  S   UNL A   1      43.661  34.616  35.290  1.00  0.00     0.127 S 
ATOM     79  O   UNL A   1      43.221  35.216  36.547  1.00  0.00    -0.237 OA
ATOM     80  O   UNL A   1      45.101  34.377  35.191  1.00  0.00    -0.237 OA
ATOM     81  O   UNL A   1      43.062  35.164  34.080  1.00  0.00    -0.744 OA
ENDBRANCH  75  78
ENDBRANCH  47  71
BRANCH  59  82
ATOM     82  C   UNL A   1      47.576  26.542  31.991  1.00  0.00     0.023 A 
ATOM     83  C   UNL A   1      48.590  27.356  31.448  1.00  0.00     0.012 A 
ATOM     84  C   UNL A   1      47.918  25.550  32.931  1.00  0.00     0.148 A 
ATOM     85  C   UNL A   1      49.926  27.156  31.798  1.00  0.00     0.002 A 
ATOM     86  C   UNL A   1      49.244  25.390  33.314  1.00  0.00     0.091 A 
ATOM     87  F   UNL A   1      46.944  24.770  33.425  1.00  0.00    -0.205 F 
ATOM     88  C   UNL A   1      50.251  26.182  32.737  1.00  0.00     0.022 A 
BRANCH  86  89
ATOM     89  S   UNL A   1      49.736  24.226  34.591  1.00  0.00     0.127 S 
ATOM     90  O   UNL A   1      51.167  24.496  34.707  1.00  0.00    -0.237 OA
ATOM     91  O   UNL A   1      48.938  24.662  35.738  1.00  0.00    -0.237 OA
ATOM     92  O   UNL A   1      49.381  22.908  34.080  1.00  0.00    -0.744 OA
ENDBRANCH  86  89
ENDBRANCH  59  82
ENDBRANCH  33  34
ENDBRANCH  25  28
ENDBRANCH  23  24
ENDBRANCH  22  23
ENDBRANCH   1  22
TORSDOF 19
ENDMDL
