MODEL 1
REMARK VINA RESULT:     -13.1      0.000      0.000
REMARK SMILES O=C(NCCCNC(=O)c1cccn2c(=O)c3ccc(Cl)cc3nc12)c1ccc(-c2c3nc(c(-c4cccc(S(=O)(=O)[O-])c4F)c4ccc([nH]4)c(-c4cccc(S(=O)(=O)[O-])c4F)c4nc(c(-c5cccc(S(=O)(=O)[O-])c5F)c5ccc2[nH]5)C=C4)C=C3)cc1
REMARK SMILES IDX 1 1 2 2 3 3 26 5 27 6 88 7 28 8 87 9 29 10 30 11 31 12 81 13
REMARK SMILES IDX 32 14 86 15 80 16 82 17 33 18 85 19 79 20 78 21 34 23 66 24
REMARK SMILES IDX 46 25 65 26 47 27 50 28 64 29 83 30 48 31 49 32 63 34 84 35
REMARK SMILES IDX 51 36 35 37 36 38 44 39 37 40 39 41 45 42 38 43 40 44 41 45
REMARK SMILES IDX 42 46 43 47 67 48 68 49 76 50 69 51 71 52 77 53 70 54 72 55
REMARK SMILES IDX 73 56 74 57 75 58 52 59 53 60 61 61 54 62 56 63 62 64 55 65
REMARK SMILES IDX 57 66 58 67 59 68 60 69 4 70 5 71 6 72 7 73 8 74 9 76 10 77
REMARK SMILES IDX 11 78 25 79 12 80 14 81 24 82 13 83 15 84 23 85 16 86 17 87
REMARK SMILES IDX 22 88 18 89 20 90 19 91 21 92
REMARK H PARENT 3 4 82 22 50 33 7 75
REMARK Flexibility Score: inf
ROOT
ATOM      1  O   UNL A   1      38.966  20.257  25.377  1.00  0.00    -0.269 OA
ATOM      2  C   UNL A   1      38.291  21.200  25.785  1.00  0.00     0.251 C 
ATOM      3  N   UNL A   1      36.924  21.106  25.724  1.00  0.00    -0.352 N 
ATOM      4  H   UNL A   1      36.584  20.202  25.530  1.00  0.00     0.163 HD
ENDROOT
BRANCH   2   5
ATOM      5  C   UNL A   1      38.963  22.402  26.333  1.00  0.00     0.039 A 
ATOM      6  C   UNL A   1      38.529  23.666  25.914  1.00  0.00     0.014 A 
ATOM      7  C   UNL A   1      40.076  22.297  27.170  1.00  0.00     0.014 A 
ATOM      8  C   UNL A   1      39.197  24.815  26.344  1.00  0.00     0.010 A 
ATOM      9  C   UNL A   1      40.691  23.444  27.663  1.00  0.00     0.010 A 
ATOM     10  C   UNL A   1      40.284  24.712  27.225  1.00  0.00    -0.014 A 
BRANCH  10  11
ATOM     11  C   UNL A   1      41.089  25.894  27.620  1.00  0.00     0.031 A 
ATOM     12  C   UNL A   1      40.441  26.986  28.429  1.00  0.00     0.074 A 
ATOM     13  C   UNL A   1      42.364  26.025  27.213  1.00  0.00     0.049 A 
ATOM     14  N   UNL A   1      40.904  28.168  28.742  1.00  0.00    -0.248 NA
ATOM     15  C   UNL A   1      39.081  26.721  28.928  1.00  0.00     0.031 C 
ATOM     16  C   UNL A   1      43.103  25.049  26.414  1.00  0.00     0.029 A 
ATOM     17  N   UNL A   1      43.255  27.051  27.401  1.00  0.00    -0.354 N 
ATOM     18  C   UNL A   1      39.879  28.801  29.435  1.00  0.00     0.074 A 
ATOM     19  C   UNL A   1      38.760  27.885  29.471  1.00  0.00     0.031 C 
ATOM     20  C   UNL A   1      44.339  25.521  26.183  1.00  0.00     0.029 A 
ATOM     21  C   UNL A   1      44.466  26.846  26.785  1.00  0.00     0.049 A 
ATOM     22  H   UNL A   1      43.047  27.857  27.925  1.00  0.00     0.167 HD
ATOM     23  C   UNL A   1      39.876  30.021  30.021  1.00  0.00     0.034 A 
ATOM     24  C   UNL A   1      45.550  27.641  26.703  1.00  0.00     0.034 A 
ATOM     25  C   UNL A   1      41.005  30.910  30.040  1.00  0.00     0.049 A 
ATOM     26  C   UNL A   1      45.533  28.990  27.362  1.00  0.00     0.074 A 
ATOM     27  C   UNL A   1      41.114  32.149  30.644  1.00  0.00     0.029 A 
ATOM     28  N   UNL A   1      42.226  30.647  29.438  1.00  0.00    -0.354 N 
ATOM     29  N   UNL A   1      44.575  29.553  28.058  1.00  0.00    -0.248 NA
ATOM     30  C   UNL A   1      46.749  29.808  27.239  1.00  0.00     0.031 C 
ATOM     31  C   UNL A   1      42.405  32.636  30.408  1.00  0.00     0.029 A 
ATOM     32  C   UNL A   1      43.099  31.697  29.661  1.00  0.00     0.049 A 
ATOM     33  H   UNL A   1      42.440  29.834  28.927  1.00  0.00     0.167 HD
ATOM     34  C   UNL A   1      45.070  30.787  28.461  1.00  0.00     0.074 A 
ATOM     35  C   UNL A   1      46.425  30.879  27.954  1.00  0.00     0.031 C 
ATOM     36  C   UNL A   1      44.453  31.762  29.173  1.00  0.00     0.034 A 
BRANCH  23  37
ATOM     37  C   UNL A   1      38.627  30.430  30.749  1.00  0.00     0.023 A 
ATOM     38  C   UNL A   1      38.471  30.062  32.101  1.00  0.00     0.012 A 
ATOM     39  C   UNL A   1      37.624  31.188  30.117  1.00  0.00     0.148 A 
ATOM     40  C   UNL A   1      37.322  30.418  32.806  1.00  0.00     0.002 A 
ATOM     41  C   UNL A   1      36.496  31.569  30.836  1.00  0.00     0.091 A 
ATOM     42  F   UNL A   1      37.782  31.506  28.823  1.00  0.00    -0.205 F 
ATOM     43  C   UNL A   1      36.340  31.177  32.177  1.00  0.00     0.022 A 
BRANCH  41  44
ATOM     44  S   UNL A   1      35.194  32.587  30.134  1.00  0.00     0.127 S 
ATOM     45  O   UNL A   1      35.937  33.780  29.732  1.00  0.00    -0.237 OA
ATOM     46  O   UNL A   1      34.721  31.760  29.023  1.00  0.00    -0.237 OA
ATOM     47  O   UNL A   1      34.222  32.788  31.199  1.00  0.00    -0.744 OA
ENDBRANCH  41  44
ENDBRANCH  23  37
BRANCH  24  48
ATOM     48  C   UNL A   1      46.764  27.127  26.014  1.00  0.00     0.023 A 
ATOM     49  C   UNL A   1      46.916  27.367  24.636  1.00  0.00     0.012 A 
ATOM     50  C   UNL A   1      47.806  26.505  26.729  1.00  0.00     0.148 A 
ATOM     51  C   UNL A   1      48.090  27.000  23.979  1.00  0.00     0.002 A 
ATOM     52  C   UNL A   1      48.987  26.176  26.076  1.00  0.00     0.091 A 
ATOM     53  F   UNL A   1      47.635  26.297  28.042  1.00  0.00    -0.205 F 
ATOM     54  C   UNL A   1      49.128  26.415  24.699  1.00  0.00     0.022 A 
BRANCH  52  55
ATOM     55  S   UNL A   1      50.421  25.517  26.935  1.00  0.00     0.127 S 
ATOM     56  O   UNL A   1      51.354  25.291  25.832  1.00  0.00    -0.237 OA
ATOM     57  O   UNL A   1      50.772  26.631  27.816  1.00  0.00    -0.237 OA
ATOM     58  O   UNL A   1      49.963  24.316  27.613  1.00  0.00    -0.744 OA
ENDBRANCH  52  55
ENDBRANCH  24  48
BRANCH  36  59
ATOM     59  C   UNL A   1      45.221  33.028  29.440  1.00  0.00     0.023 A 
ATOM     60  C   UNL A   1      46.047  33.101  30.578  1.00  0.00     0.012 A 
ATOM     61  C   UNL A   1      45.202  34.097  28.524  1.00  0.00     0.148 A 
ATOM     62  C   UNL A   1      46.834  34.228  30.810  1.00  0.00     0.002 A 
ATOM     63  C   UNL A   1      46.014  35.205  28.745  1.00  0.00     0.091 A 
ATOM     64  F   UNL A   1      44.398  34.010  27.455  1.00  0.00    -0.205 F 
ATOM     65  C   UNL A   1      46.826  35.273  29.889  1.00  0.00     0.022 A 
BRANCH  63  66
ATOM     66  S   UNL A   1      46.125  36.568  27.580  1.00  0.00     0.127 S 
ATOM     67  O   UNL A   1      44.769  37.113  27.631  1.00  0.00    -0.237 OA
ATOM     68  O   UNL A   1      47.148  37.417  28.192  1.00  0.00    -0.237 OA
ATOM     69  O   UNL A   1      46.512  35.978  26.306  1.00  0.00    -0.744 OA
ENDBRANCH  63  66
ENDBRANCH  36  59
ENDBRANCH  10  11
ENDBRANCH   2   5
BRANCH   3  70
ATOM     70  C   UNL A   1      35.892  22.116  25.901  1.00  0.00     0.118 C 
BRANCH  70  71
ATOM     71  C   UNL A   1      34.647  21.566  26.585  1.00  0.00     0.042 C 
BRANCH  71  72
ATOM     72  C   UNL A   1      33.800  22.611  27.297  1.00  0.00     0.118 C 
BRANCH  72  73
ATOM     73  N   UNL A   1      32.368  22.384  27.158  1.00  0.00    -0.352 N 
ATOM     74  C   UNL A   1      31.548  22.536  26.072  1.00  0.00     0.255 C 
ATOM     75  H   UNL A   1      31.918  22.072  27.976  1.00  0.00     0.163 HD
ATOM     76  O   UNL A   1      30.354  22.271  26.180  1.00  0.00    -0.269 OA
BRANCH  74  77
ATOM     77  C   UNL A   1      32.131  22.965  24.778  1.00  0.00     0.083 A 
ATOM     78  C   UNL A   1      32.207  22.062  23.785  1.00  0.00     0.019 A 
ATOM     79  C   UNL A   1      32.498  24.395  24.500  1.00  0.00     0.153 A 
ATOM     80  C   UNL A   1      32.776  22.406  22.514  1.00  0.00     0.019 A 
ATOM     81  N   UNL A   1      33.008  24.672  23.225  1.00  0.00    -0.267 N 
ATOM     82  N   UNL A   1      32.343  25.306  25.411  1.00  0.00    -0.229 NA
ATOM     83  C   UNL A   1      33.156  23.665  22.277  1.00  0.00     0.096 A 
ATOM     84  C   UNL A   1      33.382  25.970  22.865  1.00  0.00     0.265 A 
ATOM     85  C   UNL A   1      32.642  26.637  25.107  1.00  0.00     0.080 A 
ATOM     86  O   UNL A   1      33.855  26.289  21.773  1.00  0.00    -0.268 OA
ATOM     87  C   UNL A   1      33.158  27.020  23.873  1.00  0.00     0.066 A 
ATOM     88  C   UNL A   1      32.384  27.621  26.066  1.00  0.00     0.049 A 
ATOM     89  C   UNL A   1      33.427  28.364  23.586  1.00  0.00     0.017 A 
ATOM     90  C   UNL A   1      32.640  28.964  25.782  1.00  0.00     0.043 A 
ATOM     91  C   UNL A   1      33.164  29.340  24.546  1.00  0.00     0.021 A 
ATOM     92  Cl  UNL A   1      32.295  30.172  26.958  1.00  0.00    -0.084 Cl
ENDBRANCH  74  77
ENDBRANCH  72  73
ENDBRANCH  71  72
ENDBRANCH  70  71
ENDBRANCH   3  70
TORSDOF 13
ENDMDL
MODEL 2
REMARK VINA RESULT:     -13.1      4.739      9.775
REMARK SMILES O=C(NCCCNC(=O)c1cccn2c(=O)c3ccc(Cl)cc3nc12)c1ccc(-c2c3nc(c(-c4cccc(S(=O)(=O)[O-])c4F)c4ccc([nH]4)c(-c4cccc(S(=O)(=O)[O-])c4F)c4nc(c(-c5cccc(S(=O)(=O)[O-])c5F)c5ccc2[nH]5)C=C4)C=C3)cc1
REMARK SMILES IDX 1 1 2 2 3 3 26 5 27 6 88 7 28 8 87 9 29 10 30 11 31 12 81 13
REMARK SMILES IDX 32 14 86 15 80 16 82 17 33 18 85 19 79 20 78 21 34 23 66 24
REMARK SMILES IDX 46 25 65 26 47 27 50 28 64 29 83 30 48 31 49 32 63 34 84 35
REMARK SMILES IDX 51 36 35 37 36 38 44 39 37 40 39 41 45 42 38 43 40 44 41 45
REMARK SMILES IDX 42 46 43 47 67 48 68 49 76 50 69 51 71 52 77 53 70 54 72 55
REMARK SMILES IDX 73 56 74 57 75 58 52 59 53 60 61 61 54 62 56 63 62 64 55 65
REMARK SMILES IDX 57 66 58 67 59 68 60 69 4 70 5 71 6 72 7 73 8 74 9 76 10 77
REMARK SMILES IDX 11 78 25 79 12 80 14 81 24 82 13 83 15 84 23 85 16 86 17 87
REMARK SMILES IDX 22 88 18 89 20 90 19 91 21 92
REMARK H PARENT 3 4 82 22 50 33 7 75
REMARK Flexibility Score: inf
ROOT
ATOM      1  O   UNL A   1      32.352  32.160  27.247  1.00  0.00    -0.269 OA
ATOM      2  C   UNL A   1      33.027  31.222  26.827  1.00  0.00     0.251 C 
ATOM      3  N   UNL A   1      32.539  30.476  25.784  1.00  0.00    -0.352 N 
ATOM      4  H   UNL A   1      31.762  30.872  25.324  1.00  0.00     0.163 HD
ENDROOT
BRANCH   2   5
ATOM      5  C   UNL A   1      34.339  30.925  27.446  1.00  0.00     0.039 A 
ATOM      6  C   UNL A   1      34.609  29.614  27.858  1.00  0.00     0.014 A 
ATOM      7  C   UNL A   1      35.263  31.938  27.718  1.00  0.00     0.014 A 
ATOM      8  C   UNL A   1      35.802  29.319  28.523  1.00  0.00     0.010 A 
ATOM      9  C   UNL A   1      36.485  31.629  28.307  1.00  0.00     0.010 A 
ATOM     10  C   UNL A   1      36.751  30.326  28.751  1.00  0.00    -0.014 A 
BRANCH  10  11
ATOM     11  C   UNL A   1      37.979  30.082  29.547  1.00  0.00     0.031 A 
ATOM     12  C   UNL A   1      39.046  29.177  28.992  1.00  0.00     0.074 A 
ATOM     13  C   UNL A   1      38.117  30.609  30.778  1.00  0.00     0.049 A 
ATOM     14  N   UNL A   1      40.113  28.702  29.578  1.00  0.00    -0.248 NA
ATOM     15  C   UNL A   1      38.874  28.729  27.600  1.00  0.00     0.031 C 
ATOM     16  C   UNL A   1      37.151  31.487  31.437  1.00  0.00     0.029 A 
ATOM     17  N   UNL A   1      39.121  30.458  31.700  1.00  0.00    -0.354 N 
ATOM     18  C   UNL A   1      40.714  27.866  28.644  1.00  0.00     0.074 A 
ATOM     19  C   UNL A   1      39.878  27.877  27.464  1.00  0.00     0.031 C 
ATOM     20  C   UNL A   1      37.612  31.802  32.658  1.00  0.00     0.029 A 
ATOM     21  C   UNL A   1      38.884  31.120  32.881  1.00  0.00     0.049 A 
ATOM     22  H   UNL A   1      39.932  29.928  31.533  1.00  0.00     0.167 HD
ATOM     23  C   UNL A   1      41.875  27.178  28.741  1.00  0.00     0.034 A 
ATOM     24  C   UNL A   1      39.605  31.161  34.018  1.00  0.00     0.034 A 
ATOM     25  C   UNL A   1      42.739  27.212  29.888  1.00  0.00     0.049 A 
ATOM     26  C   UNL A   1      40.893  30.395  34.110  1.00  0.00     0.074 A 
ATOM     27  C   UNL A   1      43.958  26.582  30.066  1.00  0.00     0.029 A 
ATOM     28  N   UNL A   1      42.482  27.926  31.049  1.00  0.00    -0.354 N 
ATOM     29  N   UNL A   1      41.474  29.651  33.199  1.00  0.00    -0.248 NA
ATOM     30  C   UNL A   1      41.634  30.484  35.377  1.00  0.00     0.031 C 
ATOM     31  C   UNL A   1      44.440  26.917  31.337  1.00  0.00     0.029 A 
ATOM     32  C   UNL A   1      43.523  27.759  31.946  1.00  0.00     0.049 A 
ATOM     33  H   UNL A   1      41.680  28.471  31.210  1.00  0.00     0.167 HD
ATOM     34  C   UNL A   1      42.649  29.188  33.777  1.00  0.00     0.074 A 
ATOM     35  C   UNL A   1      42.712  29.756  35.109  1.00  0.00     0.031 C 
ATOM     36  C   UNL A   1      43.584  28.353  33.257  1.00  0.00     0.034 A 
BRANCH  23  37
ATOM     37  C   UNL A   1      42.305  26.384  27.540  1.00  0.00     0.023 A 
ATOM     38  C   UNL A   1      43.024  27.030  26.513  1.00  0.00     0.012 A 
ATOM     39  C   UNL A   1      42.025  25.009  27.431  1.00  0.00     0.148 A 
ATOM     40  C   UNL A   1      43.432  26.327  25.382  1.00  0.00     0.002 A 
ATOM     41  C   UNL A   1      42.465  24.306  26.315  1.00  0.00     0.091 A 
ATOM     42  F   UNL A   1      41.319  24.421  28.408  1.00  0.00    -0.205 F 
ATOM     43  C   UNL A   1      43.161  24.965  25.286  1.00  0.00     0.022 A 
BRANCH  41  44
ATOM     44  S   UNL A   1      42.209  22.539  26.115  1.00  0.00     0.127 S 
ATOM     45  O   UNL A   1      42.883  22.286  24.843  1.00  0.00    -0.237 OA
ATOM     46  O   UNL A   1      42.895  21.995  27.288  1.00  0.00    -0.237 OA
ATOM     47  O   UNL A   1      40.767  22.340  26.107  1.00  0.00    -0.744 OA
ENDBRANCH  41  44
ENDBRANCH  23  37
BRANCH  24  48
ATOM     48  C   UNL A   1      39.132  32.024  35.134  1.00  0.00     0.023 A 
ATOM     49  C   UNL A   1      38.255  31.479  36.090  1.00  0.00     0.012 A 
ATOM     50  C   UNL A   1      39.627  33.331  35.311  1.00  0.00     0.148 A 
ATOM     51  C   UNL A   1      37.880  32.220  37.210  1.00  0.00     0.002 A 
ATOM     52  C   UNL A   1      39.277  34.050  36.447  1.00  0.00     0.091 A 
ATOM     53  F   UNL A   1      40.466  33.819  34.388  1.00  0.00    -0.205 F 
ATOM     54  C   UNL A   1      38.397  33.500  37.394  1.00  0.00     0.022 A 
BRANCH  52  55
ATOM     55  S   UNL A   1      39.973  35.661  36.830  1.00  0.00     0.127 S 
ATOM     56  O   UNL A   1      39.314  35.981  38.095  1.00  0.00    -0.237 OA
ATOM     57  O   UNL A   1      41.398  35.346  36.942  1.00  0.00    -0.237 OA
ATOM     58  O   UNL A   1      39.620  36.524  35.714  1.00  0.00    -0.744 OA
ENDBRANCH  52  55
ENDBRANCH  24  48
BRANCH  36  59
ATOM     59  C   UNL A   1      44.753  27.982  34.128  1.00  0.00     0.023 A 
ATOM     60  C   UNL A   1      45.902  28.797  34.115  1.00  0.00     0.012 A 
ATOM     61  C   UNL A   1      44.680  26.897  35.021  1.00  0.00     0.148 A 
ATOM     62  C   UNL A   1      46.970  28.528  34.969  1.00  0.00     0.002 A 
ATOM     63  C   UNL A   1      45.736  26.653  35.893  1.00  0.00     0.091 A 
ATOM     64  F   UNL A   1      43.582  26.128  35.005  1.00  0.00    -0.205 F 
ATOM     65  C   UNL A   1      46.882  27.463  35.864  1.00  0.00     0.022 A 
BRANCH  63  66
ATOM     66  S   UNL A   1      45.686  25.350  37.129  1.00  0.00     0.127 S 
ATOM     67  O   UNL A   1      46.953  25.558  37.830  1.00  0.00    -0.237 OA
ATOM     68  O   UNL A   1      44.495  25.702  37.903  1.00  0.00    -0.237 OA
ATOM     69  O   UNL A   1      45.580  24.099  36.391  1.00  0.00    -0.744 OA
ENDBRANCH  63  66
ENDBRANCH  36  59
ENDBRANCH  10  11
ENDBRANCH   2   5
BRANCH   3  70
ATOM     70  C   UNL A   1      32.977  29.199  25.241  1.00  0.00     0.118 C 
BRANCH  70  71
ATOM     71  C   UNL A   1      33.117  29.227  23.724  1.00  0.00     0.042 C 
BRANCH  71  72
ATOM     72  C   UNL A   1      33.818  28.014  23.129  1.00  0.00     0.118 C 
BRANCH  72  73
ATOM     73  N   UNL A   1      33.071  27.391  22.046  1.00  0.00    -0.352 N 
ATOM     74  C   UNL A   1      32.014  26.521  22.084  1.00  0.00     0.255 C 
ATOM     75  H   UNL A   1      33.374  27.634  21.141  1.00  0.00     0.163 HD
ATOM     76  O   UNL A   1      31.524  26.125  21.029  1.00  0.00    -0.269 OA
BRANCH  74  77
ATOM     77  C   UNL A   1      31.453  26.119  23.395  1.00  0.00     0.083 A 
ATOM     78  C   UNL A   1      30.224  26.555  23.721  1.00  0.00     0.019 A 
ATOM     79  C   UNL A   1      32.145  25.134  24.294  1.00  0.00     0.153 A 
ATOM     80  C   UNL A   1      29.629  26.218  24.982  1.00  0.00     0.019 A 
ATOM     81  N   UNL A   1      31.490  24.814  25.492  1.00  0.00    -0.267 N 
ATOM     82  N   UNL A   1      33.289  24.622  23.957  1.00  0.00    -0.229 NA
ATOM     83  C   UNL A   1      30.263  25.385  25.812  1.00  0.00     0.096 A 
ATOM     84  C   UNL A   1      32.049  23.910  26.400  1.00  0.00     0.265 A 
ATOM     85  C   UNL A   1      33.884  23.667  24.787  1.00  0.00     0.080 A 
ATOM     86  O   UNL A   1      31.546  23.594  27.477  1.00  0.00    -0.268 OA
ATOM     87  C   UNL A   1      33.321  23.282  26.000  1.00  0.00     0.066 A 
ATOM     88  C   UNL A   1      35.069  23.057  24.369  1.00  0.00     0.049 A 
ATOM     89  C   UNL A   1      33.925  22.307  26.802  1.00  0.00     0.017 A 
ATOM     90  C   UNL A   1      35.671  22.076  25.158  1.00  0.00     0.043 A 
ATOM     91  C   UNL A   1      35.106  21.699  26.376  1.00  0.00     0.021 A 
ATOM     92  Cl  UNL A   1      37.116  21.309  24.624  1.00  0.00    -0.084 Cl
ENDBRANCH  74  77
ENDBRANCH  72  73
ENDBRANCH  71  72
ENDBRANCH  70  71
ENDBRANCH   3  70
TORSDOF 13
ENDMDL
MODEL 3
REMARK VINA RESULT:     -12.8      2.117      3.284
REMARK SMILES O=C(NCCCNC(=O)c1cccn2c(=O)c3ccc(Cl)cc3nc12)c1ccc(-c2c3nc(c(-c4cccc(S(=O)(=O)[O-])c4F)c4ccc([nH]4)c(-c4cccc(S(=O)(=O)[O-])c4F)c4nc(c(-c5cccc(S(=O)(=O)[O-])c5F)c5ccc2[nH]5)C=C4)C=C3)cc1
REMARK SMILES IDX 1 1 2 2 3 3 26 5 27 6 88 7 28 8 87 9 29 10 30 11 31 12 81 13
REMARK SMILES IDX 32 14 86 15 80 16 82 17 33 18 85 19 79 20 78 21 34 23 66 24
REMARK SMILES IDX 46 25 65 26 47 27 50 28 64 29 83 30 48 31 49 32 63 34 84 35
REMARK SMILES IDX 51 36 35 37 36 38 44 39 37 40 39 41 45 42 38 43 40 44 41 45
REMARK SMILES IDX 42 46 43 47 67 48 68 49 76 50 69 51 71 52 77 53 70 54 72 55
REMARK SMILES IDX 73 56 74 57 75 58 52 59 53 60 61 61 54 62 56 63 62 64 55 65
REMARK SMILES IDX 57 66 58 67 59 68 60 69 4 70 5 71 6 72 7 73 8 74 9 76 10 77
REMARK SMILES IDX 11 78 25 79 12 80 14 81 24 82 13 83 15 84 23 85 16 86 17 87
REMARK SMILES IDX 22 88 18 89 20 90 19 91 21 92
REMARK H PARENT 3 4 82 22 50 33 7 75
REMARK Flexibility Score: inf
ROOT
ATOM      1  O   UNL A   1      39.314  19.770  25.635  1.00  0.00    -0.269 OA
ATOM      2  C   UNL A   1      38.636  20.786  25.775  1.00  0.00     0.251 C 
ATOM      3  N   UNL A   1      37.307  20.742  25.433  1.00  0.00    -0.352 N 
ATOM      4  H   UNL A   1      36.954  19.836  25.278  1.00  0.00     0.163 HD
ENDROOT
BRANCH   2   5
ATOM      5  C   UNL A   1      39.259  22.019  26.308  1.00  0.00     0.039 A 
ATOM      6  C   UNL A   1      38.800  23.260  25.848  1.00  0.00     0.014 A 
ATOM      7  C   UNL A   1      40.355  21.966  27.173  1.00  0.00     0.014 A 
ATOM      8  C   UNL A   1      39.425  24.438  26.266  1.00  0.00     0.010 A 
ATOM      9  C   UNL A   1      40.925  23.142  27.652  1.00  0.00     0.010 A 
ATOM     10  C   UNL A   1      40.493  24.387  27.173  1.00  0.00    -0.014 A 
BRANCH  10  11
ATOM     11  C   UNL A   1      41.254  25.601  27.558  1.00  0.00     0.031 A 
ATOM     12  C   UNL A   1      40.562  26.684  28.342  1.00  0.00     0.074 A 
ATOM     13  C   UNL A   1      42.529  25.768  27.162  1.00  0.00     0.049 A 
ATOM     14  N   UNL A   1      40.983  27.885  28.642  1.00  0.00    -0.248 NA
ATOM     15  C   UNL A   1      39.206  26.382  28.832  1.00  0.00     0.031 C 
ATOM     16  C   UNL A   1      43.308  24.804  26.386  1.00  0.00     0.029 A 
ATOM     17  N   UNL A   1      43.383  26.825  27.342  1.00  0.00    -0.354 N 
ATOM     18  C   UNL A   1      39.930  28.495  29.314  1.00  0.00     0.074 A 
ATOM     19  C   UNL A   1      38.842  27.543  29.353  1.00  0.00     0.031 C 
ATOM     20  C   UNL A   1      44.530  25.313  26.160  1.00  0.00     0.029 A 
ATOM     21  C   UNL A   1      44.607  26.651  26.742  1.00  0.00     0.049 A 
ATOM     22  H   UNL A   1      43.144  27.632  27.852  1.00  0.00     0.167 HD
ATOM     23  C   UNL A   1      39.881  29.722  29.880  1.00  0.00     0.034 A 
ATOM     24  C   UNL A   1      45.665  27.480  26.659  1.00  0.00     0.034 A 
ATOM     25  C   UNL A   1      40.979  30.648  29.897  1.00  0.00     0.049 A 
ATOM     26  C   UNL A   1      45.597  28.838  27.296  1.00  0.00     0.074 A 
ATOM     27  C   UNL A   1      41.041  31.900  30.482  1.00  0.00     0.029 A 
ATOM     28  N   UNL A   1      42.215  30.416  29.311  1.00  0.00    -0.354 N 
ATOM     29  N   UNL A   1      44.613  29.379  27.973  1.00  0.00    -0.248 NA
ATOM     30  C   UNL A   1      46.786  29.693  27.173  1.00  0.00     0.031 C 
ATOM     31  C   UNL A   1      42.318  32.425  30.252  1.00  0.00     0.029 A 
ATOM     32  C   UNL A   1      43.050  31.499  29.527  1.00  0.00     0.049 A 
ATOM     33  H   UNL A   1      42.461  29.603  28.816  1.00  0.00     0.167 HD
ATOM     34  C   UNL A   1      45.063  30.635  28.362  1.00  0.00     0.074 A 
ATOM     35  C   UNL A   1      46.420  30.764  27.868  1.00  0.00     0.031 C 
ATOM     36  C   UNL A   1      44.406  31.601  29.052  1.00  0.00     0.034 A 
BRANCH  23  37
ATOM     37  C   UNL A   1      38.611  30.101  30.590  1.00  0.00     0.023 A 
ATOM     38  C   UNL A   1      38.388  29.623  31.897  1.00  0.00     0.012 A 
ATOM     39  C   UNL A   1      37.655  30.938  29.985  1.00  0.00     0.148 A 
ATOM     40  C   UNL A   1      37.219  29.948  32.581  1.00  0.00     0.002 A 
ATOM     41  C   UNL A   1      36.506  31.286  30.687  1.00  0.00     0.091 A 
ATOM     42  F   UNL A   1      37.877  31.361  28.731  1.00  0.00    -0.205 F 
ATOM     43  C   UNL A   1      36.283  30.785  31.981  1.00  0.00     0.022 A 
BRANCH  41  44
ATOM     44  S   UNL A   1      35.259  32.396  30.023  1.00  0.00     0.127 S 
ATOM     45  O   UNL A   1      36.065  33.563  29.667  1.00  0.00    -0.237 OA
ATOM     46  O   UNL A   1      34.748  31.636  28.881  1.00  0.00    -0.237 OA
ATOM     47  O   UNL A   1      34.297  32.606  31.095  1.00  0.00    -0.744 OA
ENDBRANCH  41  44
ENDBRANCH  23  37
BRANCH  24  48
ATOM     48  C   UNL A   1      46.903  26.995  25.991  1.00  0.00     0.023 A 
ATOM     49  C   UNL A   1      47.077  27.249  24.618  1.00  0.00     0.012 A 
ATOM     50  C   UNL A   1      47.942  26.390  26.722  1.00  0.00     0.148 A 
ATOM     51  C   UNL A   1      48.271  26.910  23.981  1.00  0.00     0.002 A 
ATOM     52  C   UNL A   1      49.143  26.089  26.090  1.00  0.00     0.091 A 
ATOM     53  F   UNL A   1      47.750  26.168  28.030  1.00  0.00    -0.205 F 
ATOM     54  C   UNL A   1      49.306  26.341  24.718  1.00  0.00     0.022 A 
BRANCH  52  55
ATOM     55  S   UNL A   1      50.572  25.453  26.972  1.00  0.00     0.127 S 
ATOM     56  O   UNL A   1      50.904  26.572  27.854  1.00  0.00    -0.237 OA
ATOM     57  O   UNL A   1      50.005  24.287  27.649  1.00  0.00    -0.237 OA
ATOM     58  O   UNL A   1      51.567  25.152  25.957  1.00  0.00    -0.744 OA
ENDBRANCH  52  55
ENDBRANCH  24  48
BRANCH  36  59
ATOM     59  C   UNL A   1      45.130  32.895  29.307  1.00  0.00     0.023 A 
ATOM     60  C   UNL A   1      45.932  33.017  30.458  1.00  0.00     0.012 A 
ATOM     61  C   UNL A   1      45.095  33.944  28.369  1.00  0.00     0.148 A 
ATOM     62  C   UNL A   1      46.679  34.172  30.680  1.00  0.00     0.002 A 
ATOM     63  C   UNL A   1      45.868  35.081  28.581  1.00  0.00     0.091 A 
ATOM     64  F   UNL A   1      44.313  33.811  27.287  1.00  0.00    -0.205 F 
ATOM     65  C   UNL A   1      46.655  35.198  29.738  1.00  0.00     0.022 A 
BRANCH  63  66
ATOM     66  S   UNL A   1      45.958  36.424  27.391  1.00  0.00     0.127 S 
ATOM     67  O   UNL A   1      44.573  36.896  27.371  1.00  0.00    -0.237 OA
ATOM     68  O   UNL A   1      46.905  37.340  28.027  1.00  0.00    -0.237 OA
ATOM     69  O   UNL A   1      46.432  35.829  26.149  1.00  0.00    -0.744 OA
ENDBRANCH  63  66
ENDBRANCH  36  59
ENDBRANCH  10  11
ENDBRANCH   2   5
BRANCH   3  70
ATOM     70  C   UNL A   1      36.333  21.809  25.263  1.00  0.00     0.118 C 
BRANCH  70  71
ATOM     71  C   UNL A   1      35.393  21.937  26.456  1.00  0.00     0.042 C 
BRANCH  71  72
ATOM     72  C   UNL A   1      34.789  23.322  26.642  1.00  0.00     0.118 C 
BRANCH  72  73
ATOM     73  N   UNL A   1      33.515  23.304  27.346  1.00  0.00    -0.352 N 
ATOM     74  C   UNL A   1      32.236  23.245  26.861  1.00  0.00     0.255 C 
ATOM     75  H   UNL A   1      33.584  23.340  28.327  1.00  0.00     0.163 HD
ATOM     76  O   UNL A   1      31.294  23.229  27.650  1.00  0.00    -0.269 OA
BRANCH  74  77
ATOM     77  C   UNL A   1      32.019  23.148  25.398  1.00  0.00     0.083 A 
ATOM     78  C   UNL A   1      31.839  24.286  24.705  1.00  0.00     0.019 A 
ATOM     79  C   UNL A   1      32.138  21.847  24.655  1.00  0.00     0.153 A 
ATOM     80  C   UNL A   1      31.607  24.262  23.290  1.00  0.00     0.019 A 
ATOM     81  N   UNL A   1      31.942  21.900  23.268  1.00  0.00    -0.267 N 
ATOM     82  N   UNL A   1      32.407  20.747  25.288  1.00  0.00    -0.229 NA
ATOM     83  C   UNL A   1      31.657  23.102  22.629  1.00  0.00     0.096 A 
ATOM     84  C   UNL A   1      32.029  20.746  22.484  1.00  0.00     0.265 A 
ATOM     85  C   UNL A   1      32.567  19.562  24.565  1.00  0.00     0.080 A 
ATOM     86  O   UNL A   1      31.851  20.709  21.266  1.00  0.00    -0.268 OA
ATOM     87  C   UNL A   1      32.389  19.502  23.186  1.00  0.00     0.066 A 
ATOM     88  C   UNL A   1      32.947  18.403  25.247  1.00  0.00     0.049 A 
ATOM     89  C   UNL A   1      32.577  18.306  22.482  1.00  0.00     0.017 A 
ATOM     90  C   UNL A   1      33.146  17.210  24.550  1.00  0.00     0.043 A 
ATOM     91  C   UNL A   1      32.960  17.155  23.169  1.00  0.00     0.021 A 
ATOM     92  Cl  UNL A   1      33.640  15.794  25.393  1.00  0.00    -0.084 Cl
ENDBRANCH  74  77
ENDBRANCH  72  73
ENDBRANCH  71  72
ENDBRANCH  70  71
ENDBRANCH   3  70
TORSDOF 13
ENDMDL
