MODEL 1
REMARK VINA RESULT:     -12.6      0.000      0.000
REMARK SMILES Cc1ccc(-c2nn(CCC(=O)NCCCNC(=O)c3ccc(-c4c5nc(c(-c6cccc(S(=O)(=O)[O-])c6F)c6ccc([nH]6)c(-c6cccc(S(=O)(=O)[O-])c6F)c6nc(c(-c7cccc(S(=O)(=O)[O-])c7F)c7ccc4[nH]7)C=C6)C=C5)cc3)c(=O)c3noc(C)c23)cc1C
REMARK SMILES IDX 15 1 14 2 13 3 11 4 12 5 10 7 9 8 8 9 6 10 7 11 90 12 85 13
REMARK SMILES IDX 88 14 83 15 86 16 87 17 89 18 84 19 5 20 1 21 2 22 3 23
REMARK SMILES IDX 92 24 4 25 91 26 93 27 16 28 17 29 18 30 19 32 20 33 21 34
REMARK SMILES IDX 82 35 22 36 81 37 23 38 24 39 25 40 75 41 26 42 80 43 74 44
REMARK SMILES IDX 76 45 27 46 79 47 73 48 72 49 28 51 60 52 40 53 59 54 41 55
REMARK SMILES IDX 44 56 58 57 77 58 42 59 43 60 57 62 78 63 45 64 29 65 30 66
REMARK SMILES IDX 38 67 31 68 33 69 39 70 32 71 34 72 35 73 36 74 37 75 61 76
REMARK SMILES IDX 62 77 70 78 63 79 65 80 71 81 64 82 66 83 67 84 68 85 69 86
REMARK SMILES IDX 46 87 47 88 55 89 48 90 50 91 56 92 49 93 51 94 52 95 53 96
REMARK SMILES IDX 54 97
REMARK H PARENT 13 6 17 31 76 50 44 61
REMARK Flexibility Score: inf
ROOT
ATOM      1  C   UNL A   1      38.999  23.261  26.123  1.00  0.00     0.042 C 
ENDROOT
BRANCH   1   2
ATOM      2  C   UNL A   1      37.541  23.694  25.956  1.00  0.00     0.117 C 
BRANCH   2   3
ATOM      3  N   UNL A   1      37.136  23.583  24.560  1.00  0.00    -0.356 N 
ATOM      4  C   UNL A   1      36.399  22.657  23.893  1.00  0.00     0.221 C 
ATOM      5  O   UNL A   1      36.327  22.745  22.664  1.00  0.00    -0.275 OA
ATOM      6  H   UNL A   1      37.457  24.320  23.992  1.00  0.00     0.163 HD
BRANCH   4   7
ATOM      7  C   UNL A   1      35.628  21.579  24.619  1.00  0.00     0.124 C 
BRANCH   7   8
ATOM      8  C   UNL A   1      34.300  21.246  23.945  1.00  0.00     0.158 C 
BRANCH   8   9
ATOM      9  N   UNL A   1      33.231  22.154  24.358  1.00  0.00    -0.227 N 
ATOM     10  C   UNL A   1      32.486  24.379  24.328  1.00  0.00     0.104 A 
ATOM     11  N   UNL A   1      33.317  23.481  23.874  1.00  0.00    -0.169 NA
ATOM     12  C   UNL A   1      31.583  24.045  25.387  1.00  0.00     0.078 A 
ATOM     13  C   UNL A   1      31.335  22.702  25.687  1.00  0.00     0.183 A 
ATOM     14  C   UNL A   1      30.858  24.752  26.313  1.00  0.00     0.143 A 
ATOM     15  C   UNL A   1      32.140  21.643  25.105  1.00  0.00     0.296 A 
ATOM     16  N   UNL A   1      30.408  22.570  26.641  1.00  0.00    -0.074 NA
ATOM     17  O   UNL A   1      30.119  23.866  27.045  1.00  0.00    -0.360 OA
ATOM     18  C   UNL A   1      30.742  26.165  26.721  1.00  0.00     0.091 C 
ATOM     19  O   UNL A   1      31.968  20.449  25.321  1.00  0.00    -0.265 OA
BRANCH  10  20
ATOM     20  C   UNL A   1      32.265  25.646  23.615  1.00  0.00     0.003 A 
ATOM     21  C   UNL A   1      30.892  29.452  22.165  1.00  0.00     0.044 C 
ATOM     22  C   UNL A   1      31.433  28.127  22.631  1.00  0.00    -0.048 A 
ATOM     23  C   UNL A   1      30.636  26.986  22.451  1.00  0.00     0.004 A 
ATOM     24  C   UNL A   1      32.689  28.006  23.271  1.00  0.00    -0.048 A 
ATOM     25  C   UNL A   1      31.046  25.753  22.942  1.00  0.00     0.011 A 
ATOM     26  C   UNL A   1      33.104  26.749  23.753  1.00  0.00     0.014 A 
ATOM     27  C   UNL A   1      33.573  29.192  23.549  1.00  0.00     0.044 C 
ENDBRANCH  10  20
ENDBRANCH   8   9
ENDBRANCH   7   8
ENDBRANCH   4   7
ENDBRANCH   2   3
ENDBRANCH   1   2
BRANCH   1  28
ATOM     28  C   UNL A   1      39.265  21.812  26.532  1.00  0.00     0.118 C 
BRANCH  28  29
ATOM     29  N   UNL A   1      40.664  21.444  26.436  1.00  0.00    -0.352 N 
ATOM     30  C   UNL A   1      41.839  22.137  26.576  1.00  0.00     0.251 C 
ATOM     31  H   UNL A   1      40.800  20.491  26.228  1.00  0.00     0.163 HD
ATOM     32  O   UNL A   1      42.860  21.504  26.277  1.00  0.00    -0.269 OA
BRANCH  30  33
ATOM     33  C   UNL A   1      41.978  23.555  27.032  1.00  0.00     0.039 A 
ATOM     34  C   UNL A   1      42.589  24.437  26.120  1.00  0.00     0.014 A 
ATOM     35  C   UNL A   1      41.631  24.058  28.289  1.00  0.00     0.014 A 
ATOM     36  C   UNL A   1      42.792  25.786  26.429  1.00  0.00     0.010 A 
ATOM     37  C   UNL A   1      41.806  25.422  28.591  1.00  0.00     0.010 A 
ATOM     38  C   UNL A   1      42.370  26.299  27.658  1.00  0.00    -0.014 A 
BRANCH  38  39
ATOM     39  C   UNL A   1      42.439  27.766  27.858  1.00  0.00     0.031 A 
ATOM     40  C   UNL A   1      41.127  28.484  27.846  1.00  0.00     0.074 A 
ATOM     41  C   UNL A   1      43.487  28.364  28.467  1.00  0.00     0.049 A 
ATOM     42  N   UNL A   1      40.358  28.549  28.893  1.00  0.00    -0.248 NA
ATOM     43  C   UNL A   1      40.492  28.970  26.621  1.00  0.00     0.031 C 
ATOM     44  C   UNL A   1      44.259  27.730  29.544  1.00  0.00     0.029 A 
ATOM     45  N   UNL A   1      43.915  29.675  28.469  1.00  0.00    -0.354 N 
ATOM     46  C   UNL A   1      39.124  29.016  28.477  1.00  0.00     0.074 A 
ATOM     47  C   UNL A   1      39.261  29.282  27.061  1.00  0.00     0.031 C 
ATOM     48  C   UNL A   1      44.935  28.688  30.212  1.00  0.00     0.029 A 
ATOM     49  C   UNL A   1      44.782  29.968  29.523  1.00  0.00     0.049 A 
ATOM     50  H   UNL A   1      43.638  30.337  27.795  1.00  0.00     0.167 HD
ATOM     51  C   UNL A   1      38.069  29.153  29.325  1.00  0.00     0.034 A 
ATOM     52  C   UNL A   1      44.899  31.185  30.129  1.00  0.00     0.034 A 
ATOM     53  C   UNL A   1      38.345  28.804  30.692  1.00  0.00     0.049 A 
ATOM     54  C   UNL A   1      43.571  31.293  30.831  1.00  0.00     0.074 A 
ATOM     55  C   UNL A   1      38.207  27.692  31.495  1.00  0.00     0.029 A 
ATOM     56  N   UNL A   1      39.017  29.715  31.473  1.00  0.00    -0.354 N 
ATOM     57  N   UNL A   1      43.251  30.678  31.940  1.00  0.00    -0.248 NA
ATOM     58  C   UNL A   1      42.433  31.790  30.058  1.00  0.00     0.031 C 
ATOM     59  C   UNL A   1      39.189  27.839  32.526  1.00  0.00     0.029 A 
ATOM     60  C   UNL A   1      39.893  29.013  32.264  1.00  0.00     0.049 A 
ATOM     61  H   UNL A   1      38.892  30.690  31.465  1.00  0.00     0.167 HD
ATOM     62  C   UNL A   1      41.880  30.426  31.838  1.00  0.00     0.074 A 
ATOM     63  C   UNL A   1      41.438  31.159  30.666  1.00  0.00     0.031 C 
ATOM     64  C   UNL A   1      41.214  29.506  32.597  1.00  0.00     0.034 A 
BRANCH  51  65
ATOM     65  C   UNL A   1      36.769  29.781  28.986  1.00  0.00     0.023 A 
ATOM     66  C   UNL A   1      36.000  29.130  27.998  1.00  0.00     0.012 A 
ATOM     67  C   UNL A   1      36.382  31.058  29.428  1.00  0.00     0.148 A 
ATOM     68  C   UNL A   1      34.901  29.753  27.416  1.00  0.00     0.002 A 
ATOM     69  C   UNL A   1      35.271  31.673  28.848  1.00  0.00     0.091 A 
ATOM     70  F   UNL A   1      37.128  31.669  30.360  1.00  0.00    -0.205 F 
ATOM     71  C   UNL A   1      34.542  31.027  27.834  1.00  0.00     0.022 A 
BRANCH  69  72
ATOM     72  S   UNL A   1      34.698  33.316  29.299  1.00  0.00     0.127 S 
ATOM     73  O   UNL A   1      35.895  34.127  29.080  1.00  0.00    -0.237 OA
ATOM     74  O   UNL A   1      33.627  33.539  28.326  1.00  0.00    -0.237 OA
ATOM     75  O   UNL A   1      34.251  33.220  30.680  1.00  0.00    -0.744 OA
ENDBRANCH  69  72
ENDBRANCH  51  65
BRANCH  52  76
ATOM     76  C   UNL A   1      45.508  32.268  29.284  1.00  0.00     0.023 A 
ATOM     77  C   UNL A   1      46.712  32.839  29.767  1.00  0.00     0.012 A 
ATOM     78  C   UNL A   1      45.004  32.769  28.069  1.00  0.00     0.148 A 
ATOM     79  C   UNL A   1      47.440  33.775  29.027  1.00  0.00     0.002 A 
ATOM     80  C   UNL A   1      45.765  33.651  27.298  1.00  0.00     0.091 A 
ATOM     81  F   UNL A   1      43.786  32.394  27.663  1.00  0.00    -0.205 F 
ATOM     82  C   UNL A   1      46.983  34.156  27.774  1.00  0.00     0.022 A 
BRANCH  80  83
ATOM     83  S   UNL A   1      45.300  34.125  25.626  1.00  0.00     0.127 S 
ATOM     84  O   UNL A   1      44.276  35.140  25.867  1.00  0.00    -0.237 OA
ATOM     85  O   UNL A   1      46.567  34.638  25.111  1.00  0.00    -0.237 OA
ATOM     86  O   UNL A   1      44.819  32.906  24.989  1.00  0.00    -0.744 OA
ENDBRANCH  80  83
ENDBRANCH  52  76
BRANCH  64  87
ATOM     87  C   UNL A   1      41.989  28.867  33.711  1.00  0.00     0.023 A 
ATOM     88  C   UNL A   1      41.882  29.419  35.002  1.00  0.00     0.012 A 
ATOM     89  C   UNL A   1      42.752  27.694  33.530  1.00  0.00     0.148 A 
ATOM     90  C   UNL A   1      42.495  28.808  36.095  1.00  0.00     0.002 A 
ATOM     91  C   UNL A   1      43.324  27.064  34.630  1.00  0.00     0.091 A 
ATOM     92  F   UNL A   1      42.896  27.200  32.292  1.00  0.00    -0.205 F 
ATOM     93  C   UNL A   1      43.200  27.622  35.913  1.00  0.00     0.022 A 
BRANCH  91  94
ATOM     94  S   UNL A   1      44.187  25.490  34.520  1.00  0.00     0.127 S 
ATOM     95  O   UNL A   1      43.127  24.590  34.062  1.00  0.00    -0.237 OA
ATOM     96  O   UNL A   1      45.213  25.779  33.517  1.00  0.00    -0.237 OA
ATOM     97  O   UNL A   1      44.697  25.204  35.854  1.00  0.00    -0.744 OA
ENDBRANCH  91  94
ENDBRANCH  64  87
ENDBRANCH  38  39
ENDBRANCH  30  33
ENDBRANCH  28  29
ENDBRANCH   1  28
TORSDOF 16
ENDMDL
MODEL 2
REMARK VINA RESULT:     -12.5      4.980     10.240
REMARK SMILES Cc1ccc(-c2nn(CCC(=O)NCCCNC(=O)c3ccc(-c4c5nc(c(-c6cccc(S(=O)(=O)[O-])c6F)c6ccc([nH]6)c(-c6cccc(S(=O)(=O)[O-])c6F)c6nc(c(-c7cccc(S(=O)(=O)[O-])c7F)c7ccc4[nH]7)C=C6)C=C5)cc3)c(=O)c3noc(C)c23)cc1C
REMARK SMILES IDX 15 1 14 2 13 3 11 4 12 5 10 7 9 8 8 9 6 10 7 11 90 12 85 13
REMARK SMILES IDX 88 14 83 15 86 16 87 17 89 18 84 19 5 20 1 21 2 22 3 23
REMARK SMILES IDX 92 24 4 25 91 26 93 27 16 28 17 29 18 30 19 32 20 33 21 34
REMARK SMILES IDX 82 35 22 36 81 37 23 38 24 39 25 40 75 41 26 42 80 43 74 44
REMARK SMILES IDX 76 45 27 46 79 47 73 48 72 49 28 51 60 52 40 53 59 54 41 55
REMARK SMILES IDX 44 56 58 57 77 58 42 59 43 60 57 62 78 63 45 64 29 65 30 66
REMARK SMILES IDX 38 67 31 68 33 69 39 70 32 71 34 72 35 73 36 74 37 75 61 76
REMARK SMILES IDX 62 77 70 78 63 79 65 80 71 81 64 82 66 83 67 84 68 85 69 86
REMARK SMILES IDX 46 87 47 88 55 89 48 90 50 91 56 92 49 93 51 94 52 95 53 96
REMARK SMILES IDX 54 97
REMARK H PARENT 13 6 17 31 76 50 44 61
REMARK Flexibility Score: inf
ROOT
ATOM      1  C   UNL A   1      41.455  26.025  36.182  1.00  0.00     0.042 C 
ENDROOT
BRANCH   1   2
ATOM      2  C   UNL A   1      41.540  27.228  35.240  1.00  0.00     0.117 C 
BRANCH   2   3
ATOM      3  N   UNL A   1      41.205  28.455  35.954  1.00  0.00    -0.356 N 
ATOM      4  C   UNL A   1      41.547  29.754  35.750  1.00  0.00     0.221 C 
ATOM      5  O   UNL A   1      41.224  30.582  36.606  1.00  0.00    -0.275 OA
ATOM      6  H   UNL A   1      40.618  28.315  36.732  1.00  0.00     0.163 HD
BRANCH   4   7
ATOM      7  C   UNL A   1      42.247  30.204  34.488  1.00  0.00     0.124 C 
BRANCH   7   8
ATOM      8  C   UNL A   1      42.691  31.663  34.548  1.00  0.00     0.158 C 
BRANCH   8   9
ATOM      9  N   UNL A   1      41.942  32.504  33.617  1.00  0.00    -0.227 N 
ATOM     10  C   UNL A   1      39.828  32.930  32.690  1.00  0.00     0.104 A 
ATOM     11  N   UNL A   1      40.539  32.326  33.603  1.00  0.00    -0.169 NA
ATOM     12  C   UNL A   1      40.481  33.663  31.648  1.00  0.00     0.078 A 
ATOM     13  C   UNL A   1      41.820  34.036  31.798  1.00  0.00     0.183 A 
ATOM     14  C   UNL A   1      40.131  34.104  30.397  1.00  0.00     0.143 A 
ATOM     15  C   UNL A   1      42.629  33.502  32.880  1.00  0.00     0.296 A 
ATOM     16  N   UNL A   1      42.245  34.783  30.775  1.00  0.00    -0.074 NA
ATOM     17  O   UNL A   1      41.181  34.814  29.884  1.00  0.00    -0.360 OA
ATOM     18  C   UNL A   1      38.971  33.950  29.499  1.00  0.00     0.091 C 
ATOM     19  O   UNL A   1      43.804  33.794  33.070  1.00  0.00    -0.265 OA
BRANCH  10  20
ATOM     20  C   UNL A   1      38.375  33.099  32.839  1.00  0.00     0.003 A 
ATOM     21  C   UNL A   1      34.283  34.411  32.773  1.00  0.00     0.044 C 
ATOM     22  C   UNL A   1      35.693  33.886  32.822  1.00  0.00    -0.048 A 
ATOM     23  C   UNL A   1      36.639  34.600  33.573  1.00  0.00     0.004 A 
ATOM     24  C   UNL A   1      36.095  32.731  32.111  1.00  0.00    -0.048 A 
ATOM     25  C   UNL A   1      37.973  34.212  33.581  1.00  0.00     0.011 A 
ATOM     26  C   UNL A   1      37.447  32.336  32.136  1.00  0.00     0.014 A 
ATOM     27  C   UNL A   1      35.150  31.948  31.239  1.00  0.00     0.044 C 
ENDBRANCH  10  20
ENDBRANCH   8   9
ENDBRANCH   7   8
ENDBRANCH   4   7
ENDBRANCH   2   3
ENDBRANCH   1   2
BRANCH   1  28
ATOM     28  C   UNL A   1      42.653  25.754  37.093  1.00  0.00     0.118 C 
BRANCH  28  29
ATOM     29  N   UNL A   1      43.319  24.500  36.796  1.00  0.00    -0.352 N 
ATOM     30  C   UNL A   1      44.050  24.044  35.731  1.00  0.00     0.251 C 
ATOM     31  H   UNL A   1      43.228  23.835  37.516  1.00  0.00     0.163 HD
ATOM     32  O   UNL A   1      44.346  22.843  35.773  1.00  0.00    -0.269 OA
BRANCH  30  33
ATOM     33  C   UNL A   1      44.491  24.852  34.551  1.00  0.00     0.039 A 
ATOM     34  C   UNL A   1      44.100  24.363  33.290  1.00  0.00     0.014 A 
ATOM     35  C   UNL A   1      45.304  25.989  34.584  1.00  0.00     0.014 A 
ATOM     36  C   UNL A   1      44.459  25.017  32.107  1.00  0.00     0.010 A 
ATOM     37  C   UNL A   1      45.640  26.667  33.396  1.00  0.00     0.010 A 
ATOM     38  C   UNL A   1      45.205  26.197  32.152  1.00  0.00    -0.014 A 
BRANCH  38  39
ATOM     39  C   UNL A   1      45.396  26.947  30.888  1.00  0.00     0.031 A 
ATOM     40  C   UNL A   1      45.506  26.115  29.650  1.00  0.00     0.074 A 
ATOM     41  C   UNL A   1      45.033  28.242  30.754  1.00  0.00     0.049 A 
ATOM     42  N   UNL A   1      44.463  25.658  29.022  1.00  0.00    -0.248 NA
ATOM     43  C   UNL A   1      46.769  25.553  29.172  1.00  0.00     0.031 C 
ATOM     44  C   UNL A   1      43.884  28.831  31.453  1.00  0.00     0.029 A 
ATOM     45  N   UNL A   1      45.399  29.203  29.834  1.00  0.00    -0.354 N 
ATOM     46  C   UNL A   1      44.902  24.709  28.116  1.00  0.00     0.074 A 
ATOM     47  C   UNL A   1      46.344  24.693  28.232  1.00  0.00     0.031 C 
ATOM     48  C   UNL A   1      43.533  29.972  30.822  1.00  0.00     0.029 A 
ATOM     49  C   UNL A   1      44.517  30.284  29.788  1.00  0.00     0.049 A 
ATOM     50  H   UNL A   1      46.201  29.133  29.268  1.00  0.00     0.167 HD
ATOM     51  C   UNL A   1      44.049  23.999  27.329  1.00  0.00     0.034 A 
ATOM     52  C   UNL A   1      44.256  31.038  28.682  1.00  0.00     0.034 A 
ATOM     53  C   UNL A   1      42.660  24.332  27.491  1.00  0.00     0.049 A 
ATOM     54  C   UNL A   1      43.518  30.048  27.819  1.00  0.00     0.074 A 
ATOM     55  C   UNL A   1      41.590  23.860  28.219  1.00  0.00     0.029 A 
ATOM     56  N   UNL A   1      42.188  25.468  26.876  1.00  0.00    -0.354 N 
ATOM     57  N   UNL A   1      42.269  29.694  27.975  1.00  0.00    -0.248 NA
ATOM     58  C   UNL A   1      44.316  29.133  27.004  1.00  0.00     0.031 C 
ATOM     59  C   UNL A   1      40.700  24.972  28.359  1.00  0.00     0.029 A 
ATOM     60  C   UNL A   1      41.302  26.065  27.739  1.00  0.00     0.049 A 
ATOM     61  H   UNL A   1      42.439  25.792  25.982  1.00  0.00     0.167 HD
ATOM     62  C   UNL A   1      42.211  28.361  27.558  1.00  0.00     0.074 A 
ATOM     63  C   UNL A   1      43.501  28.088  26.951  1.00  0.00     0.031 C 
ATOM     64  C   UNL A   1      41.198  27.504  27.880  1.00  0.00     0.034 A 
BRANCH  51  65
ATOM     65  C   UNL A   1      44.451  23.077  26.239  1.00  0.00     0.023 A 
ATOM     66  C   UNL A   1      45.039  23.674  25.103  1.00  0.00     0.012 A 
ATOM     67  C   UNL A   1      44.092  21.719  26.194  1.00  0.00     0.148 A 
ATOM     68  C   UNL A   1      45.217  22.956  23.925  1.00  0.00     0.002 A 
ATOM     69  C   UNL A   1      44.284  21.001  25.012  1.00  0.00     0.091 A 
ATOM     70  F   UNL A   1      43.525  21.168  27.277  1.00  0.00    -0.205 F 
ATOM     71  C   UNL A   1      44.831  21.623  23.876  1.00  0.00     0.022 A 
BRANCH  69  72
ATOM     72  S   UNL A   1      43.832  19.272  24.817  1.00  0.00     0.127 S 
ATOM     73  O   UNL A   1      44.664  18.624  25.830  1.00  0.00    -0.237 OA
ATOM     74  O   UNL A   1      42.402  19.297  25.129  1.00  0.00    -0.237 OA
ATOM     75  O   UNL A   1      44.145  18.930  23.438  1.00  0.00    -0.744 OA
ENDBRANCH  69  72
ENDBRANCH  51  65
BRANCH  52  76
ATOM     76  C   UNL A   1      45.391  31.903  28.210  1.00  0.00     0.023 A 
ATOM     77  C   UNL A   1      46.684  31.548  28.670  1.00  0.00     0.012 A 
ATOM     78  C   UNL A   1      45.297  33.023  27.362  1.00  0.00     0.148 A 
ATOM     79  C   UNL A   1      47.836  32.199  28.221  1.00  0.00     0.002 A 
ATOM     80  C   UNL A   1      46.452  33.627  26.861  1.00  0.00     0.091 A 
ATOM     81  F   UNL A   1      44.090  33.504  27.047  1.00  0.00    -0.205 F 
ATOM     82  C   UNL A   1      47.722  33.218  27.288  1.00  0.00     0.022 A 
BRANCH  80  83
ATOM     83  S   UNL A   1      46.405  34.889  25.579  1.00  0.00     0.127 S 
ATOM     84  O   UNL A   1      47.805  34.955  25.161  1.00  0.00    -0.237 OA
ATOM     85  O   UNL A   1      45.501  34.277  24.607  1.00  0.00    -0.237 OA
ATOM     86  O   UNL A   1      45.899  36.092  26.225  1.00  0.00    -0.744 OA
ENDBRANCH  80  83
ENDBRANCH  52  76
BRANCH  64  87
ATOM     87  C   UNL A   1      40.010  28.099  28.577  1.00  0.00     0.023 A 
ATOM     88  C   UNL A   1      38.952  28.595  27.791  1.00  0.00     0.012 A 
ATOM     89  C   UNL A   1      39.881  28.108  29.982  1.00  0.00     0.148 A 
ATOM     90  C   UNL A   1      37.780  29.064  28.382  1.00  0.00     0.002 A 
ATOM     91  C   UNL A   1      38.692  28.536  30.565  1.00  0.00     0.091 A 
ATOM     92  F   UNL A   1      40.910  27.685  30.731  1.00  0.00    -0.205 F 
ATOM     93  C   UNL A   1      37.642  29.018  29.766  1.00  0.00     0.022 A 
BRANCH  91  94
ATOM     94  S   UNL A   1      38.379  28.446  32.333  1.00  0.00     0.127 S 
ATOM     95  O   UNL A   1      39.390  29.356  32.871  1.00  0.00    -0.237 OA
ATOM     96  O   UNL A   1      37.005  28.944  32.421  1.00  0.00    -0.237 OA
ATOM     97  O   UNL A   1      38.549  27.050  32.712  1.00  0.00    -0.744 OA
ENDBRANCH  91  94
ENDBRANCH  64  87
ENDBRANCH  38  39
ENDBRANCH  30  33
ENDBRANCH  28  29
ENDBRANCH   1  28
TORSDOF 16
ENDMDL
MODEL 3
REMARK VINA RESULT:     -12.4      2.623      8.535
REMARK SMILES Cc1ccc(-c2nn(CCC(=O)NCCCNC(=O)c3ccc(-c4c5nc(c(-c6cccc(S(=O)(=O)[O-])c6F)c6ccc([nH]6)c(-c6cccc(S(=O)(=O)[O-])c6F)c6nc(c(-c7cccc(S(=O)(=O)[O-])c7F)c7ccc4[nH]7)C=C6)C=C5)cc3)c(=O)c3noc(C)c23)cc1C
REMARK SMILES IDX 15 1 14 2 13 3 11 4 12 5 10 7 9 8 8 9 6 10 7 11 90 12 85 13
REMARK SMILES IDX 88 14 83 15 86 16 87 17 89 18 84 19 5 20 1 21 2 22 3 23
REMARK SMILES IDX 92 24 4 25 91 26 93 27 16 28 17 29 18 30 19 32 20 33 21 34
REMARK SMILES IDX 82 35 22 36 81 37 23 38 24 39 25 40 75 41 26 42 80 43 74 44
REMARK SMILES IDX 76 45 27 46 79 47 73 48 72 49 28 51 60 52 40 53 59 54 41 55
REMARK SMILES IDX 44 56 58 57 77 58 42 59 43 60 57 62 78 63 45 64 29 65 30 66
REMARK SMILES IDX 38 67 31 68 33 69 39 70 32 71 34 72 35 73 36 74 37 75 61 76
REMARK SMILES IDX 62 77 70 78 63 79 65 80 71 81 64 82 66 83 67 84 68 85 69 86
REMARK SMILES IDX 46 87 47 88 55 89 48 90 50 91 56 92 49 93 51 94 52 95 53 96
REMARK SMILES IDX 54 97
REMARK H PARENT 13 6 17 31 76 50 44 61
REMARK Flexibility Score: inf
ROOT
ATOM      1  C   UNL A   1      33.000  28.369  25.466  1.00  0.00     0.042 C 
ENDROOT
BRANCH   1   2
ATOM      2  C   UNL A   1      32.896  29.272  24.236  1.00  0.00     0.117 C 
BRANCH   2   3
ATOM      3  N   UNL A   1      31.673  28.983  23.496  1.00  0.00    -0.356 N 
ATOM      4  C   UNL A   1      31.367  28.038  22.570  1.00  0.00     0.221 C 
ATOM      5  O   UNL A   1      30.275  28.112  22.000  1.00  0.00    -0.275 OA
ATOM      6  H   UNL A   1      30.926  29.587  23.709  1.00  0.00     0.163 HD
BRANCH   4   7
ATOM      7  C   UNL A   1      32.296  26.882  22.274  1.00  0.00     0.124 C 
BRANCH   7   8
ATOM      8  C   UNL A   1      31.661  25.525  22.566  1.00  0.00     0.158 C 
BRANCH   8   9
ATOM      9  N   UNL A   1      32.168  24.936  23.804  1.00  0.00    -0.227 N 
ATOM     10  C   UNL A   1      33.839  23.580  24.741  1.00  0.00     0.104 A 
ATOM     11  N   UNL A   1      33.407  24.259  23.714  1.00  0.00    -0.169 NA
ATOM     12  C   UNL A   1      33.008  23.429  25.897  1.00  0.00     0.078 A 
ATOM     13  C   UNL A   1      31.914  24.282  26.079  1.00  0.00     0.183 A 
ATOM     14  C   UNL A   1      32.957  22.560  26.957  1.00  0.00     0.143 A 
ATOM     15  C   UNL A   1      31.467  25.165  25.015  1.00  0.00     0.296 A 
ATOM     16  N   UNL A   1      31.300  24.059  27.245  1.00  0.00    -0.074 NA
ATOM     17  O   UNL A   1      31.951  22.962  27.792  1.00  0.00    -0.360 OA
ATOM     18  C   UNL A   1      33.656  21.325  27.356  1.00  0.00     0.091 C 
ATOM     19  O   UNL A   1      30.523  25.939  25.115  1.00  0.00    -0.265 OA
BRANCH  10  20
ATOM     20  C   UNL A   1      35.250  23.182  24.857  1.00  0.00     0.003 A 
ATOM     21  C   UNL A   1      39.181  22.019  26.146  1.00  0.00     0.044 C 
ATOM     22  C   UNL A   1      37.824  22.410  25.625  1.00  0.00    -0.048 A 
ATOM     23  C   UNL A   1      37.358  23.704  25.901  1.00  0.00     0.004 A 
ATOM     24  C   UNL A   1      37.001  21.510  24.908  1.00  0.00    -0.048 A 
ATOM     25  C   UNL A   1      36.078  24.089  25.522  1.00  0.00     0.011 A 
ATOM     26  C   UNL A   1      35.710  21.913  24.515  1.00  0.00     0.014 A 
ATOM     27  C   UNL A   1      37.410  20.090  24.625  1.00  0.00     0.044 C 
ENDBRANCH  10  20
ENDBRANCH   8   9
ENDBRANCH   7   8
ENDBRANCH   4   7
ENDBRANCH   2   3
ENDBRANCH   1   2
BRANCH   1  28
ATOM     28  C   UNL A   1      34.143  28.636  26.446  1.00  0.00     0.118 C 
BRANCH  28  29
ATOM     29  N   UNL A   1      34.216  30.022  26.867  1.00  0.00    -0.352 N 
ATOM     30  C   UNL A   1      35.070  30.724  27.678  1.00  0.00     0.251 C 
ATOM     31  H   UNL A   1      33.499  30.580  26.487  1.00  0.00     0.163 HD
ATOM     32  O   UNL A   1      34.726  31.887  27.921  1.00  0.00    -0.269 OA
BRANCH  30  33
ATOM     33  C   UNL A   1      36.335  30.205  28.286  1.00  0.00     0.039 A 
ATOM     34  C   UNL A   1      36.225  29.694  29.593  1.00  0.00     0.014 A 
ATOM     35  C   UNL A   1      37.608  30.250  27.711  1.00  0.00     0.014 A 
ATOM     36  C   UNL A   1      37.334  29.192  30.280  1.00  0.00     0.010 A 
ATOM     37  C   UNL A   1      38.722  29.717  28.388  1.00  0.00     0.010 A 
ATOM     38  C   UNL A   1      38.591  29.168  29.669  1.00  0.00    -0.014 A 
BRANCH  38  39
ATOM     39  C   UNL A   1      39.688  28.457  30.366  1.00  0.00     0.031 A 
ATOM     40  C   UNL A   1      40.461  27.483  29.534  1.00  0.00     0.074 A 
ATOM     41  C   UNL A   1      40.275  28.948  31.480  1.00  0.00     0.049 A 
ATOM     42  N   UNL A   1      41.428  27.852  28.747  1.00  0.00    -0.248 NA
ATOM     43  C   UNL A   1      40.059  26.089  29.354  1.00  0.00     0.031 C 
ATOM     44  C   UNL A   1      40.441  30.385  31.734  1.00  0.00     0.029 A 
ATOM     45  N   UNL A   1      41.044  28.341  32.450  1.00  0.00    -0.354 N 
ATOM     46  C   UNL A   1      41.729  26.781  27.924  1.00  0.00     0.074 A 
ATOM     47  C   UNL A   1      40.865  25.702  28.351  1.00  0.00     0.031 C 
ATOM     48  C   UNL A   1      41.395  30.549  32.676  1.00  0.00     0.029 A 
ATOM     49  C   UNL A   1      41.787  29.246  33.210  1.00  0.00     0.049 A 
ATOM     50  H   UNL A   1      41.067  27.367  32.593  1.00  0.00     0.167 HD
ATOM     51  C   UNL A   1      42.670  26.854  26.943  1.00  0.00     0.034 A 
ATOM     52  C   UNL A   1      42.998  28.985  33.782  1.00  0.00     0.034 A 
ATOM     53  C   UNL A   1      43.347  28.118  26.849  1.00  0.00     0.049 A 
ATOM     54  C   UNL A   1      43.878  28.861  32.567  1.00  0.00     0.074 A 
ATOM     55  C   UNL A   1      43.216  29.279  26.120  1.00  0.00     0.029 A 
ATOM     56  N   UNL A   1      44.350  28.386  27.751  1.00  0.00    -0.354 N 
ATOM     57  N   UNL A   1      44.335  29.863  31.861  1.00  0.00    -0.248 NA
ATOM     58  C   UNL A   1      43.921  27.566  31.889  1.00  0.00     0.031 C 
ATOM     59  C   UNL A   1      43.818  30.304  26.917  1.00  0.00     0.029 A 
ATOM     60  C   UNL A   1      44.245  29.709  28.103  1.00  0.00     0.049 A 
ATOM     61  H   UNL A   1      45.020  27.746  28.083  1.00  0.00     0.167 HD
ATOM     62  C   UNL A   1      44.415  29.382  30.551  1.00  0.00     0.074 A 
ATOM     63  C   UNL A   1      44.168  27.956  30.646  1.00  0.00     0.031 C 
ATOM     64  C   UNL A   1      44.501  30.184  29.448  1.00  0.00     0.034 A 
BRANCH  51  65
ATOM     65  C   UNL A   1      43.147  25.713  26.124  1.00  0.00     0.023 A 
ATOM     66  C   UNL A   1      42.187  24.731  25.803  1.00  0.00     0.012 A 
ATOM     67  C   UNL A   1      44.503  25.466  25.848  1.00  0.00     0.148 A 
ATOM     68  C   UNL A   1      42.565  23.502  25.270  1.00  0.00     0.002 A 
ATOM     69  C   UNL A   1      44.875  24.236  25.303  1.00  0.00     0.091 A 
ATOM     70  F   UNL A   1      45.405  26.404  26.167  1.00  0.00    -0.205 F 
ATOM     71  C   UNL A   1      43.909  23.251  25.028  1.00  0.00     0.022 A 
BRANCH  69  72
ATOM     72  S   UNL A   1      46.576  23.785  24.939  1.00  0.00     0.127 S 
ATOM     73  O   UNL A   1      47.161  23.697  26.276  1.00  0.00    -0.237 OA
ATOM     74  O   UNL A   1      46.409  22.497  24.263  1.00  0.00    -0.237 OA
ATOM     75  O   UNL A   1      47.101  24.847  24.094  1.00  0.00    -0.744 OA
ENDBRANCH  69  72
ENDBRANCH  51  65
BRANCH  52  76
ATOM     76  C   UNL A   1      42.971  28.003  34.920  1.00  0.00     0.023 A 
ATOM     77  C   UNL A   1      41.720  27.818  35.561  1.00  0.00     0.012 A 
ATOM     78  C   UNL A   1      44.059  27.255  35.410  1.00  0.00     0.148 A 
ATOM     79  C   UNL A   1      41.532  26.857  36.558  1.00  0.00     0.002 A 
ATOM     80  C   UNL A   1      43.855  26.248  36.356  1.00  0.00     0.091 A 
ATOM     81  F   UNL A   1      45.290  27.523  34.961  1.00  0.00    -0.205 F 
ATOM     82  C   UNL A   1      42.593  26.047  36.932  1.00  0.00     0.022 A 
BRANCH  80  83
ATOM     83  S   UNL A   1      45.147  25.089  36.830  1.00  0.00     0.127 S 
ATOM     84  O   UNL A   1      46.265  25.981  37.133  1.00  0.00    -0.237 OA
ATOM     85  O   UNL A   1      44.540  24.445  37.993  1.00  0.00    -0.237 OA
ATOM     86  O   UNL A   1      45.345  24.224  35.675  1.00  0.00    -0.744 OA
ENDBRANCH  80  83
ENDBRANCH  52  76
BRANCH  64  87
ATOM     87  C   UNL A   1      44.691  31.651  29.697  1.00  0.00     0.023 A 
ATOM     88  C   UNL A   1      46.005  32.145  29.812  1.00  0.00     0.012 A 
ATOM     89  C   UNL A   1      43.613  32.560  29.738  1.00  0.00     0.148 A 
ATOM     90  C   UNL A   1      46.247  33.512  29.940  1.00  0.00     0.002 A 
ATOM     91  C   UNL A   1      43.862  33.926  29.821  1.00  0.00     0.091 A 
ATOM     92  F   UNL A   1      42.360  32.083  29.682  1.00  0.00    -0.205 F 
ATOM     93  C   UNL A   1      45.179  34.403  29.926  1.00  0.00     0.022 A 
BRANCH  91  94
ATOM     94  S   UNL A   1      42.563  35.166  29.732  1.00  0.00     0.127 S 
ATOM     95  O   UNL A   1      41.734  34.827  30.889  1.00  0.00    -0.237 OA
ATOM     96  O   UNL A   1      43.323  36.409  29.874  1.00  0.00    -0.237 OA
ATOM     97  O   UNL A   1      41.912  34.991  28.441  1.00  0.00    -0.744 OA
ENDBRANCH  91  94
ENDBRANCH  64  87
ENDBRANCH  38  39
ENDBRANCH  30  33
ENDBRANCH  28  29
ENDBRANCH   1  28
TORSDOF 16
ENDMDL
