MODEL 1
REMARK VINA RESULT:     -13.3      0.000      0.000
REMARK SMILES O=C(COc1ccccc1/C=C1/SC(=S)N(c2ccc(F)c(Cl)c2)C1=O)NCCCNC(=O)c1ccc(-c2c3nc(c(-c4cccc(S(=O)(=O)[O-])c4F)c4ccc([nH]4)c(-c4cccc(S(=O)(=O)[O-])c4F)c4nc(c(-c5cccc(S(=O)(=O)[O-])c5F)c5ccc2[nH]5)C=C4)C=C3)cc1
REMARK SMILES IDX 28 1 27 2 1 3 2 4 3 6 4 7 5 8 6 9 10 10 7 11 9 12 8 13 11 14
REMARK SMILES IDX 12 15 13 16 25 17 14 18 16 19 26 20 15 21 17 22 18 23 24 24
REMARK SMILES IDX 19 25 22 26 20 27 23 28 21 29 29 30 30 31 31 32 32 33 33 35
REMARK SMILES IDX 34 36 35 37 96 38 36 39 95 40 37 41 38 42 39 43 89 44 40 45
REMARK SMILES IDX 94 46 88 47 90 48 41 49 93 50 87 51 86 52 42 54 74 55 54 56
REMARK SMILES IDX 73 57 55 58 58 59 72 60 91 61 56 62 57 63 71 65 92 66 59 67
REMARK SMILES IDX 43 68 44 69 52 70 45 71 47 72 53 73 46 74 48 75 49 76 50 77
REMARK SMILES IDX 51 78 75 79 76 80 84 81 77 82 79 83 85 84 78 85 80 86 81 87
REMARK SMILES IDX 82 88 83 89 60 90 61 91 69 92 62 93 64 94 70 95 63 96 65 97
REMARK SMILES IDX 66 98 67 99 68 100
REMARK H PARENT 27 5 31 34 90 53 58 64
REMARK Flexibility Score: inf
ROOT
ATOM      1  C   UNL A   1      36.335  19.184  24.951  1.00  0.00     0.117 C 
ENDROOT
BRANCH   1   2
ATOM      2  N   UNL A   1      34.515  20.236  25.068  1.00  0.00    -0.353 N 
ATOM      3  O   UNL A   1      32.197  19.437  25.259  1.00  0.00    -0.271 OA
ATOM      4  C   UNL A   1      33.064  20.299  25.368  1.00  0.00     0.257 C 
ATOM      5  H   UNL A   1      34.742  21.148  24.775  1.00  0.00     0.163 HD
BRANCH   4   6
ATOM      6  C   UNL A   1      32.662  21.667  25.936  1.00  0.00     0.329 C 
BRANCH   6   7
ATOM      7  O   UNL A   1      31.713  22.370  25.153  1.00  0.00    -0.483 OA
BRANCH   7   8
ATOM      8  C   UNL A   1      32.194  23.325  24.286  1.00  0.00     0.127 A 
ATOM      9  C   UNL A   1      32.446  22.813  23.008  1.00  0.00     0.047 A 
ATOM     10  C   UNL A   1      32.644  24.625  24.627  1.00  0.00     0.018 A 
ATOM     11  C   UNL A   1      33.145  23.564  22.066  1.00  0.00     0.004 A 
ATOM     12  C   UNL A   1      33.346  25.366  23.663  1.00  0.00     0.012 A 
ATOM     13  C   UNL A   1      33.605  24.835  22.398  1.00  0.00     0.001 A 
BRANCH  10  14
ATOM     14  C   UNL A   1      32.510  25.258  25.947  1.00  0.00     0.033 C 
ATOM     15  C   UNL A   1      31.661  26.288  26.111  1.00  0.00     0.081 C 
ATOM     16  S   UNL A   1      32.307  27.892  27.604  1.00  0.00    -0.054 SA
ATOM     17  C   UNL A   1      30.701  27.096  24.591  1.00  0.00     0.270 C 
ATOM     18  C   UNL A   1      31.633  29.624  26.175  1.00  0.00     0.152 C 
ATOM     19  N   UNL A   1      30.743  28.914  24.757  1.00  0.00    -0.261 N 
ATOM     20  O   UNL A   1      30.121  26.457  23.723  1.00  0.00    -0.268 OA
ATOM     21  S   UNL A   1      32.169  31.189  26.495  1.00  0.00    -0.051 S 
BRANCH  19  22
ATOM     22  C   UNL A   1      30.121  29.680  23.711  1.00  0.00     0.052 A 
ATOM     23  C   UNL A   1      30.058  29.136  22.415  1.00  0.00     0.030 A 
ATOM     24  C   UNL A   1      29.573  30.947  23.915  1.00  0.00     0.050 A 
ATOM     25  C   UNL A   1      29.462  29.826  21.356  1.00  0.00     0.043 A 
ATOM     26  C   UNL A   1      28.984  31.647  22.849  1.00  0.00     0.078 A 
ATOM     27  C   UNL A   1      28.930  31.083  21.578  1.00  0.00     0.141 A 
ATOM     28  Cl  UNL A   1      28.328  33.212  23.129  1.00  0.00    -0.081 Cl
ATOM     29  F   UNL A   1      28.367  31.737  20.551  1.00  0.00    -0.205 F 
ENDBRANCH  19  22
ENDBRANCH  10  14
ENDBRANCH   7   8
ENDBRANCH   6   7
ENDBRANCH   4   6
ENDBRANCH   1   2
BRANCH   1  30
ATOM     30  C   UNL A   1      37.917  19.678  24.611  1.00  0.00     0.042 C 
BRANCH  30  31
ATOM     31  C   UNL A   1      38.811  20.046  25.797  1.00  0.00     0.118 C 
BRANCH  31  32
ATOM     32  N   UNL A   1      39.975  19.195  25.985  1.00  0.00    -0.352 N 
ATOM     33  C   UNL A   1      41.211  19.602  26.440  1.00  0.00     0.251 C 
ATOM     34  H   UNL A   1      39.871  18.241  25.767  1.00  0.00     0.163 HD
ATOM     35  O   UNL A   1      42.142  18.810  26.529  1.00  0.00    -0.269 OA
BRANCH  33  36
ATOM     36  C   UNL A   1      41.398  21.036  26.738  1.00  0.00     0.039 A 
ATOM     37  C   UNL A   1      41.915  21.394  27.983  1.00  0.00     0.014 A 
ATOM     38  C   UNL A   1      41.201  21.994  25.743  1.00  0.00     0.014 A 
ATOM     39  C   UNL A   1      42.294  22.717  28.209  1.00  0.00     0.010 A 
ATOM     40  C   UNL A   1      41.648  23.294  25.944  1.00  0.00     0.010 A 
ATOM     41  C   UNL A   1      42.196  23.671  27.180  1.00  0.00    -0.014 A 
BRANCH  41  42
ATOM     42  C   UNL A   1      42.666  25.062  27.387  1.00  0.00     0.031 A 
ATOM     43  C   UNL A   1      41.762  26.071  28.041  1.00  0.00     0.074 A 
ATOM     44  C   UNL A   1      43.880  25.432  26.935  1.00  0.00     0.049 A 
ATOM     45  N   UNL A   1      42.000  27.325  28.326  1.00  0.00    -0.248 NA
ATOM     46  C   UNL A   1      40.406  25.622  28.399  1.00  0.00     0.031 C 
ATOM     47  C   UNL A   1      44.810  24.569  26.201  1.00  0.00     0.029 A 
ATOM     48  N   UNL A   1      44.535  26.636  27.007  1.00  0.00    -0.354 N 
ATOM     49  C   UNL A   1      40.822  27.819  28.870  1.00  0.00     0.074 A 
ATOM     50  C   UNL A   1      39.855  26.745  28.835  1.00  0.00     0.031 C 
ATOM     51  C   UNL A   1      45.918  25.267  25.904  1.00  0.00     0.029 A 
ATOM     52  C   UNL A   1      45.773  26.630  26.405  1.00  0.00     0.049 A 
ATOM     53  H   UNL A   1      44.156  27.429  27.448  1.00  0.00     0.167 HD
ATOM     54  C   UNL A   1      40.575  29.046  29.385  1.00  0.00     0.034 A 
ATOM     55  C   UNL A   1      46.689  27.611  26.280  1.00  0.00     0.034 A 
ATOM     56  C   UNL A   1      41.552  30.098  29.451  1.00  0.00     0.049 A 
ATOM     57  C   UNL A   1      46.409  28.952  26.905  1.00  0.00     0.074 A 
ATOM     58  C   UNL A   1      41.432  31.347  30.034  1.00  0.00     0.029 A 
ATOM     59  N   UNL A   1      42.826  30.027  28.910  1.00  0.00    -0.354 N 
ATOM     60  N   UNL A   1      45.354  29.345  27.576  1.00  0.00    -0.248 NA
ATOM     61  C   UNL A   1      47.462  29.972  26.795  1.00  0.00     0.031 C 
ATOM     62  C   UNL A   1      42.628  32.041  29.824  1.00  0.00     0.029 A 
ATOM     63  C   UNL A   1      43.502  31.213  29.136  1.00  0.00     0.049 A 
ATOM     64  H   UNL A   1      43.195  29.249  28.435  1.00  0.00     0.167 HD
ATOM     65  C   UNL A   1      45.631  30.639  28.002  1.00  0.00     0.074 A 
ATOM     66  C   UNL A   1      46.961  30.958  27.527  1.00  0.00     0.031 C 
ATOM     67  C   UNL A   1      44.848  31.492  28.709  1.00  0.00     0.034 A 
BRANCH  54  68
ATOM     68  C   UNL A   1      39.211  29.296  29.970  1.00  0.00     0.023 A 
ATOM     69  C   UNL A   1      38.909  28.813  31.260  1.00  0.00     0.012 A 
ATOM     70  C   UNL A   1      38.245  30.047  29.272  1.00  0.00     0.148 A 
ATOM     71  C   UNL A   1      37.659  29.038  31.832  1.00  0.00     0.002 A 
ATOM     72  C   UNL A   1      37.016  30.309  29.868  1.00  0.00     0.091 A 
ATOM     73  F   UNL A   1      38.541  30.480  28.039  1.00  0.00    -0.205 F 
ATOM     74  C   UNL A   1      36.717  29.795  31.141  1.00  0.00     0.022 A 
BRANCH  72  75
ATOM     75  S   UNL A   1      35.767  31.343  29.096  1.00  0.00     0.127 S 
ATOM     76  O   UNL A   1      36.584  32.398  28.498  1.00  0.00    -0.237 OA
ATOM     77  O   UNL A   1      35.160  30.424  28.133  1.00  0.00    -0.237 OA
ATOM     78  O   UNL A   1      34.879  31.771  30.169  1.00  0.00    -0.744 OA
ENDBRANCH  72  75
ENDBRANCH  54  68
BRANCH  55  79
ATOM     79  C   UNL A   1      47.990  27.338  25.603  1.00  0.00     0.023 A 
ATOM     80  C   UNL A   1      49.076  26.854  26.360  1.00  0.00     0.012 A 
ATOM     81  C   UNL A   1      48.152  27.530  24.218  1.00  0.00     0.148 A 
ATOM     82  C   UNL A   1      50.309  26.600  25.757  1.00  0.00     0.002 A 
ATOM     83  C   UNL A   1      49.366  27.224  23.613  1.00  0.00     0.091 A 
ATOM     84  F   UNL A   1      47.111  28.001  23.516  1.00  0.00    -0.205 F 
ATOM     85  C   UNL A   1      50.450  26.775  24.383  1.00  0.00     0.022 A 
BRANCH  83  86
ATOM     86  S   UNL A   1      49.600  27.291  21.834  1.00  0.00     0.127 S 
ATOM     87  O   UNL A   1      48.697  26.240  21.373  1.00  0.00    -0.237 OA
ATOM     88  O   UNL A   1      49.169  28.655  21.524  1.00  0.00    -0.237 OA
ATOM     89  O   UNL A   1      51.020  27.049  21.616  1.00  0.00    -0.744 OA
ENDBRANCH  83  86
ENDBRANCH  55  79
BRANCH  67  90
ATOM     90  C   UNL A   1      45.419  32.842  29.058  1.00  0.00     0.023 A 
ATOM     91  C   UNL A   1      46.078  33.029  30.289  1.00  0.00     0.012 A 
ATOM     92  C   UNL A   1      45.378  33.898  28.125  1.00  0.00     0.148 A 
ATOM     93  C   UNL A   1      46.663  34.256  30.598  1.00  0.00     0.002 A 
ATOM     94  C   UNL A   1      46.007  35.101  28.420  1.00  0.00     0.091 A 
ATOM     95  F   UNL A   1      44.729  33.705  26.968  1.00  0.00    -0.205 F 
ATOM     96  C   UNL A   1      46.640  35.286  29.660  1.00  0.00     0.022 A 
BRANCH  94  97
ATOM     97  S   UNL A   1      46.114  36.446  27.234  1.00  0.00     0.127 S 
ATOM     98  O   UNL A   1      44.713  36.846  27.109  1.00  0.00    -0.237 OA
ATOM     99  O   UNL A   1      46.963  37.411  27.933  1.00  0.00    -0.237 OA
ATOM    100  O   UNL A   1      46.710  35.876  26.033  1.00  0.00    -0.744 OA
ENDBRANCH  94  97
ENDBRANCH  67  90
ENDBRANCH  41  42
ENDBRANCH  33  36
ENDBRANCH  31  32
ENDBRANCH  30  31
ENDBRANCH   1  30
TORSDOF 17
ENDMDL
MODEL 2
REMARK VINA RESULT:     -13.1      1.024      7.244
REMARK SMILES O=C(COc1ccccc1/C=C1/SC(=S)N(c2ccc(F)c(Cl)c2)C1=O)NCCCNC(=O)c1ccc(-c2c3nc(c(-c4cccc(S(=O)(=O)[O-])c4F)c4ccc([nH]4)c(-c4cccc(S(=O)(=O)[O-])c4F)c4nc(c(-c5cccc(S(=O)(=O)[O-])c5F)c5ccc2[nH]5)C=C4)C=C3)cc1
REMARK SMILES IDX 28 1 27 2 1 3 2 4 3 6 4 7 5 8 6 9 10 10 7 11 9 12 8 13 11 14
REMARK SMILES IDX 12 15 13 16 25 17 14 18 16 19 26 20 15 21 17 22 18 23 24 24
REMARK SMILES IDX 19 25 22 26 20 27 23 28 21 29 29 30 30 31 31 32 32 33 33 35
REMARK SMILES IDX 34 36 35 37 96 38 36 39 95 40 37 41 38 42 39 43 89 44 40 45
REMARK SMILES IDX 94 46 88 47 90 48 41 49 93 50 87 51 86 52 42 54 74 55 54 56
REMARK SMILES IDX 73 57 55 58 58 59 72 60 91 61 56 62 57 63 71 65 92 66 59 67
REMARK SMILES IDX 43 68 44 69 52 70 45 71 47 72 53 73 46 74 48 75 49 76 50 77
REMARK SMILES IDX 51 78 75 79 76 80 84 81 77 82 79 83 85 84 78 85 80 86 81 87
REMARK SMILES IDX 82 88 83 89 60 90 61 91 69 92 62 93 64 94 70 95 63 96 65 97
REMARK SMILES IDX 66 98 67 99 68 100
REMARK H PARENT 27 5 31 34 90 53 58 64
REMARK Flexibility Score: inf
ROOT
ATOM      1  C   UNL A   1      36.338  20.392  25.078  1.00  0.00     0.117 C 
ENDROOT
BRANCH   1   2
ATOM      2  N   UNL A   1      34.333  21.034  25.088  1.00  0.00    -0.353 N 
ATOM      3  O   UNL A   1      32.229  19.761  25.106  1.00  0.00    -0.271 OA
ATOM      4  C   UNL A   1      32.885  20.781  25.289  1.00  0.00     0.257 C 
ATOM      5  H   UNL A   1      34.380  21.982  24.827  1.00  0.00     0.163 HD
BRANCH   4   6
ATOM      6  C   UNL A   1      32.168  22.016  25.851  1.00  0.00     0.329 C 
BRANCH   6   7
ATOM      7  O   UNL A   1      31.362  22.705  24.911  1.00  0.00    -0.483 OA
BRANCH   7   8
ATOM      8  C   UNL A   1      31.986  23.630  24.104  1.00  0.00     0.127 A 
ATOM      9  C   UNL A   1      32.262  23.130  22.826  1.00  0.00     0.047 A 
ATOM     10  C   UNL A   1      32.542  24.869  24.512  1.00  0.00     0.018 A 
ATOM     11  C   UNL A   1      33.085  23.833  21.950  1.00  0.00     0.004 A 
ATOM     12  C   UNL A   1      33.369  25.561  23.615  1.00  0.00     0.012 A 
ATOM     13  C   UNL A   1      33.649  25.041  22.349  1.00  0.00     0.001 A 
BRANCH  10  14
ATOM     14  C   UNL A   1      32.394  25.476  25.843  1.00  0.00     0.033 C 
ATOM     15  C   UNL A   1      31.534  26.495  26.020  1.00  0.00     0.081 C 
ATOM     16  S   UNL A   1      32.157  28.076  27.548  1.00  0.00    -0.054 SA
ATOM     17  C   UNL A   1      30.579  27.324  24.509  1.00  0.00     0.270 C 
ATOM     18  C   UNL A   1      31.478  29.829  26.147  1.00  0.00     0.152 C 
ATOM     19  N   UNL A   1      30.604  29.139  24.709  1.00  0.00    -0.261 N 
ATOM     20  O   UNL A   1      30.011  26.696  23.625  1.00  0.00    -0.268 OA
ATOM     21  S   UNL A   1      31.999  31.391  26.501  1.00  0.00    -0.051 S 
BRANCH  19  22
ATOM     22  C   UNL A   1      29.984  29.919  23.674  1.00  0.00     0.052 A 
ATOM     23  C   UNL A   1      29.820  29.350  22.398  1.00  0.00     0.030 A 
ATOM     24  C   UNL A   1      29.532  31.226  23.868  1.00  0.00     0.050 A 
ATOM     25  C   UNL A   1      29.220  30.052  21.350  1.00  0.00     0.043 A 
ATOM     26  C   UNL A   1      28.939  31.937  22.813  1.00  0.00     0.078 A 
ATOM     27  C   UNL A   1      28.784  31.348  21.562  1.00  0.00     0.141 A 
ATOM     28  Cl  UNL A   1      28.404  33.550  23.081  1.00  0.00    -0.081 Cl
ATOM     29  F   UNL A   1      28.216  32.012  20.546  1.00  0.00    -0.205 F 
ENDBRANCH  19  22
ENDBRANCH  10  14
ENDBRANCH   7   8
ENDBRANCH   6   7
ENDBRANCH   4   6
ENDBRANCH   1   2
BRANCH   1  30
ATOM     30  C   UNL A   1      37.802  21.229  24.951  1.00  0.00     0.042 C 
BRANCH  30  31
ATOM     31  C   UNL A   1      38.822  21.041  26.075  1.00  0.00     0.118 C 
BRANCH  31  32
ATOM     32  N   UNL A   1      39.728  19.915  25.910  1.00  0.00    -0.352 N 
ATOM     33  C   UNL A   1      41.090  19.933  26.123  1.00  0.00     0.251 C 
ATOM     34  H   UNL A   1      39.333  19.063  25.616  1.00  0.00     0.163 HD
ATOM     35  O   UNL A   1      41.773  18.937  25.919  1.00  0.00    -0.269 OA
BRANCH  33  36
ATOM     36  C   UNL A   1      41.707  21.212  26.527  1.00  0.00     0.039 A 
ATOM     37  C   UNL A   1      42.015  22.144  25.536  1.00  0.00     0.014 A 
ATOM     38  C   UNL A   1      41.841  21.534  27.878  1.00  0.00     0.014 A 
ATOM     39  C   UNL A   1      42.402  23.432  25.908  1.00  0.00     0.010 A 
ATOM     40  C   UNL A   1      42.153  22.838  28.245  1.00  0.00     0.010 A 
ATOM     41  C   UNL A   1      42.440  23.799  27.265  1.00  0.00    -0.014 A 
BRANCH  41  42
ATOM     42  C   UNL A   1      42.778  25.187  27.667  1.00  0.00     0.031 A 
ATOM     43  C   UNL A   1      44.203  25.661  27.605  1.00  0.00     0.074 A 
ATOM     44  C   UNL A   1      41.812  25.998  28.142  1.00  0.00     0.049 A 
ATOM     45  N   UNL A   1      44.690  26.840  27.893  1.00  0.00    -0.248 NA
ATOM     46  C   UNL A   1      45.218  24.679  27.190  1.00  0.00     0.031 C 
ATOM     47  C   UNL A   1      40.409  25.622  28.337  1.00  0.00     0.029 A 
ATOM     48  N   UNL A   1      41.866  27.302  28.565  1.00  0.00    -0.354 N 
ATOM     49  C   UNL A   1      46.064  26.734  27.721  1.00  0.00     0.074 A 
ATOM     50  C   UNL A   1      46.340  25.365  27.346  1.00  0.00     0.031 C 
ATOM     51  C   UNL A   1      39.735  26.674  28.829  1.00  0.00     0.029 A 
ATOM     52  C   UNL A   1      40.657  27.793  29.004  1.00  0.00     0.049 A 
ATOM     53  H   UNL A   1      42.692  27.837  28.556  1.00  0.00     0.167 HD
ATOM     54  C   UNL A   1      47.009  27.696  27.829  1.00  0.00     0.034 A 
ATOM     55  C   UNL A   1      40.329  29.009  29.484  1.00  0.00     0.034 A 
ATOM     56  C   UNL A   1      46.724  29.065  28.166  1.00  0.00     0.049 A 
ATOM     57  C   UNL A   1      41.390  30.076  29.548  1.00  0.00     0.074 A 
ATOM     58  C   UNL A   1      47.595  30.137  28.215  1.00  0.00     0.029 A 
ATOM     59  N   UNL A   1      45.473  29.546  28.519  1.00  0.00    -0.354 N 
ATOM     60  N   UNL A   1      42.654  30.004  29.207  1.00  0.00    -0.248 NA
ATOM     61  C   UNL A   1      40.972  31.404  30.022  1.00  0.00     0.031 C 
ATOM     62  C   UNL A   1      46.875  31.265  28.620  1.00  0.00     0.029 A 
ATOM     63  C   UNL A   1      45.549  30.900  28.795  1.00  0.00     0.049 A 
ATOM     64  H   UNL A   1      44.652  29.005  28.565  1.00  0.00     0.167 HD
ATOM     65  C   UNL A   1      43.171  31.283  29.386  1.00  0.00     0.074 A 
ATOM     66  C   UNL A   1      42.079  32.113  29.849  1.00  0.00     0.031 C 
ATOM     67  C   UNL A   1      44.439  31.725  29.197  1.00  0.00     0.034 A 
BRANCH  54  68
ATOM     68  C   UNL A   1      48.433  27.314  27.525  1.00  0.00     0.023 A 
ATOM     69  C   UNL A   1      49.197  26.645  28.503  1.00  0.00     0.012 A 
ATOM     70  C   UNL A   1      49.002  27.570  26.262  1.00  0.00     0.148 A 
ATOM     71  C   UNL A   1      50.514  26.270  28.246  1.00  0.00     0.002 A 
ATOM     72  C   UNL A   1      50.300  27.150  25.996  1.00  0.00     0.091 A 
ATOM     73  F   UNL A   1      48.269  28.226  25.351  1.00  0.00    -0.205 F 
ATOM     74  C   UNL A   1      51.062  26.513  26.990  1.00  0.00     0.022 A 
BRANCH  72  75
ATOM     75  S   UNL A   1      51.068  27.340  24.383  1.00  0.00     0.127 S 
ATOM     76  O   UNL A   1      51.167  28.795  24.273  1.00  0.00    -0.237 OA
ATOM     77  O   UNL A   1      52.348  26.656  24.570  1.00  0.00    -0.237 OA
ATOM     78  O   UNL A   1      50.171  26.700  23.431  1.00  0.00    -0.744 OA
ENDBRANCH  72  75
ENDBRANCH  54  68
BRANCH  55  79
ATOM     79  C   UNL A   1      38.919  29.308  29.865  1.00  0.00     0.023 A 
ATOM     80  C   UNL A   1      38.489  29.057  31.183  1.00  0.00     0.012 A 
ATOM     81  C   UNL A   1      38.009  29.858  28.942  1.00  0.00     0.148 A 
ATOM     82  C   UNL A   1      37.172  29.315  31.566  1.00  0.00     0.002 A 
ATOM     83  C   UNL A   1      36.714  30.164  29.344  1.00  0.00     0.091 A 
ATOM     84  F   UNL A   1      38.433  30.081  27.689  1.00  0.00    -0.205 F 
ATOM     85  C   UNL A   1      36.288  29.878  30.650  1.00  0.00     0.022 A 
BRANCH  83  86
ATOM     86  S   UNL A   1      35.548  31.012  28.272  1.00  0.00     0.127 S 
ATOM     87  O   UNL A   1      36.337  32.152  27.813  1.00  0.00    -0.237 OA
ATOM     88  O   UNL A   1      35.280  29.996  27.252  1.00  0.00    -0.237 OA
ATOM     89  O   UNL A   1      34.402  31.330  29.114  1.00  0.00    -0.744 OA
ENDBRANCH  83  86
ENDBRANCH  55  79
BRANCH  67  90
ATOM     90  C   UNL A   1      44.718  33.184  29.446  1.00  0.00     0.023 A 
ATOM     91  C   UNL A   1      45.097  33.617  30.732  1.00  0.00     0.012 A 
ATOM     92  C   UNL A   1      44.690  34.108  28.383  1.00  0.00     0.148 A 
ATOM     93  C   UNL A   1      45.417  34.955  30.961  1.00  0.00     0.002 A 
ATOM     94  C   UNL A   1      45.059  35.429  28.609  1.00  0.00     0.091 A 
ATOM     95  F   UNL A   1      44.308  33.679  27.171  1.00  0.00    -0.205 F 
ATOM     96  C   UNL A   1      45.411  35.856  29.900  1.00  0.00     0.022 A 
BRANCH  94  97
ATOM     97  S   UNL A   1      45.177  36.634  27.283  1.00  0.00     0.127 S 
ATOM     98  O   UNL A   1      43.773  36.816  26.919  1.00  0.00    -0.237 OA
ATOM     99  O   UNL A   1      45.785  37.781  27.958  1.00  0.00    -0.237 OA
ATOM    100  O   UNL A   1      46.014  36.024  26.259  1.00  0.00    -0.744 OA
ENDBRANCH  94  97
ENDBRANCH  67  90
ENDBRANCH  41  42
ENDBRANCH  33  36
ENDBRANCH  31  32
ENDBRANCH  30  31
ENDBRANCH   1  30
TORSDOF 17
ENDMDL
MODEL 3
REMARK VINA RESULT:     -12.7      6.312     14.531
REMARK SMILES O=C(COc1ccccc1/C=C1/SC(=S)N(c2ccc(F)c(Cl)c2)C1=O)NCCCNC(=O)c1ccc(-c2c3nc(c(-c4cccc(S(=O)(=O)[O-])c4F)c4ccc([nH]4)c(-c4cccc(S(=O)(=O)[O-])c4F)c4nc(c(-c5cccc(S(=O)(=O)[O-])c5F)c5ccc2[nH]5)C=C4)C=C3)cc1
REMARK SMILES IDX 28 1 27 2 1 3 2 4 3 6 4 7 5 8 6 9 10 10 7 11 9 12 8 13 11 14
REMARK SMILES IDX 12 15 13 16 25 17 14 18 16 19 26 20 15 21 17 22 18 23 24 24
REMARK SMILES IDX 19 25 22 26 20 27 23 28 21 29 29 30 30 31 31 32 32 33 33 35
REMARK SMILES IDX 34 36 35 37 96 38 36 39 95 40 37 41 38 42 39 43 89 44 40 45
REMARK SMILES IDX 94 46 88 47 90 48 41 49 93 50 87 51 86 52 42 54 74 55 54 56
REMARK SMILES IDX 73 57 55 58 58 59 72 60 91 61 56 62 57 63 71 65 92 66 59 67
REMARK SMILES IDX 43 68 44 69 52 70 45 71 47 72 53 73 46 74 48 75 49 76 50 77
REMARK SMILES IDX 51 78 75 79 76 80 84 81 77 82 79 83 85 84 78 85 80 86 81 87
REMARK SMILES IDX 82 88 83 89 60 90 61 91 69 92 62 93 64 94 70 95 63 96 65 97
REMARK SMILES IDX 66 98 67 99 68 100
REMARK H PARENT 27 5 31 34 90 53 58 64
REMARK Flexibility Score: inf
ROOT
ATOM      1  C   UNL A   1      46.952  38.550  25.392  1.00  0.00     0.117 C 
ENDROOT
BRANCH   1   2
ATOM      2  N   UNL A   1      46.799  39.991  23.864  1.00  0.00    -0.353 N 
ATOM      3  O   UNL A   1      47.473  42.356  23.800  1.00  0.00    -0.271 OA
ATOM      4  C   UNL A   1      47.169  41.296  23.262  1.00  0.00     0.257 C 
ATOM      5  H   UNL A   1      46.158  39.603  23.227  1.00  0.00     0.163 HD
BRANCH   4   6
ATOM      6  C   UNL A   1      47.191  41.225  21.729  1.00  0.00     0.329 C 
BRANCH   6   7
ATOM      7  O   UNL A   1      45.972  41.591  21.108  1.00  0.00    -0.483 OA
BRANCH   7   8
ATOM      8  C   UNL A   1      45.986  42.706  20.300  1.00  0.00     0.127 A 
ATOM      9  C   UNL A   1      47.279  43.067  19.903  1.00  0.00     0.047 A 
ATOM     10  C   UNL A   1      44.902  43.587  20.056  1.00  0.00     0.018 A 
ATOM     11  C   UNL A   1      47.516  44.288  19.278  1.00  0.00     0.004 A 
ATOM     12  C   UNL A   1      45.162  44.813  19.425  1.00  0.00     0.012 A 
ATOM     13  C   UNL A   1      46.460  45.166  19.050  1.00  0.00     0.001 A 
BRANCH  10  14
ATOM     14  C   UNL A   1      43.511  43.368  20.480  1.00  0.00     0.033 C 
ATOM     15  C   UNL A   1      43.148  43.638  21.746  1.00  0.00     0.081 C 
ATOM     16  S   UNL A   1      41.551  42.272  22.643  1.00  0.00    -0.054 SA
ATOM     17  C   UNL A   1      44.465  44.164  23.116  1.00  0.00     0.270 C 
ATOM     18  C   UNL A   1      42.699  42.114  24.680  1.00  0.00     0.152 C 
ATOM     19  N   UNL A   1      44.096  43.279  24.669  1.00  0.00    -0.261 N 
ATOM     20  O   UNL A   1      45.339  45.002  22.944  1.00  0.00    -0.268 OA
ATOM     21  S   UNL A   1      42.254  40.904  25.765  1.00  0.00    -0.051 S 
BRANCH  19  22
ATOM     22  C   UNL A   1      44.981  43.509  25.778  1.00  0.00     0.052 A 
ATOM     23  C   UNL A   1      45.498  42.403  26.478  1.00  0.00     0.030 A 
ATOM     24  C   UNL A   1      45.359  44.784  26.203  1.00  0.00     0.050 A 
ATOM     25  C   UNL A   1      46.368  42.558  27.560  1.00  0.00     0.043 A 
ATOM     26  C   UNL A   1      46.224  44.942  27.297  1.00  0.00     0.078 A 
ATOM     27  C   UNL A   1      46.725  43.830  27.968  1.00  0.00     0.141 A 
ATOM     28  Cl  UNL A   1      46.660  46.527  27.805  1.00  0.00    -0.081 Cl
ATOM     29  F   UNL A   1      47.555  43.965  29.012  1.00  0.00    -0.205 F 
ENDBRANCH  19  22
ENDBRANCH  10  14
ENDBRANCH   7   8
ENDBRANCH   6   7
ENDBRANCH   4   6
ENDBRANCH   1   2
BRANCH   1  30
ATOM     30  C   UNL A   1      48.200  38.151  26.460  1.00  0.00     0.042 C 
BRANCH  30  31
ATOM     31  C   UNL A   1      47.840  37.303  27.682  1.00  0.00     0.118 C 
BRANCH  31  32
ATOM     32  N   UNL A   1      46.952  37.943  28.641  1.00  0.00    -0.352 N 
ATOM     33  C   UNL A   1      45.903  37.339  29.301  1.00  0.00     0.251 C 
ATOM     34  H   UNL A   1      47.115  38.894  28.835  1.00  0.00     0.163 HD
ATOM     35  O   UNL A   1      45.189  37.978  30.065  1.00  0.00    -0.269 OA
BRANCH  33  36
ATOM     36  C   UNL A   1      45.620  35.923  28.996  1.00  0.00     0.039 A 
ATOM     37  C   UNL A   1      46.013  34.953  29.918  1.00  0.00     0.014 A 
ATOM     38  C   UNL A   1      44.848  35.582  27.885  1.00  0.00     0.014 A 
ATOM     39  C   UNL A   1      45.575  33.639  29.754  1.00  0.00     0.010 A 
ATOM     40  C   UNL A   1      44.351  34.290  27.764  1.00  0.00     0.010 A 
ATOM     41  C   UNL A   1      44.712  33.304  28.695  1.00  0.00    -0.014 A 
BRANCH  41  42
ATOM     42  C   UNL A   1      44.182  31.926  28.555  1.00  0.00     0.031 A 
ATOM     43  C   UNL A   1      42.855  31.566  29.165  1.00  0.00     0.074 A 
ATOM     44  C   UNL A   1      44.920  30.986  27.932  1.00  0.00     0.049 A 
ATOM     45  N   UNL A   1      42.218  30.424  29.131  1.00  0.00    -0.248 NA
ATOM     46  C   UNL A   1      42.165  32.615  29.933  1.00  0.00     0.031 C 
ATOM     47  C   UNL A   1      46.263  31.190  27.382  1.00  0.00     0.029 A 
ATOM     48  N   UNL A   1      44.655  29.665  27.672  1.00  0.00    -0.354 N 
ATOM     49  C   UNL A   1      41.071  30.609  29.891  1.00  0.00     0.074 A 
ATOM     50  C   UNL A   1      41.118  31.957  30.411  1.00  0.00     0.031 C 
ATOM     51  C   UNL A   1      46.697  30.040  26.840  1.00  0.00     0.029 A 
ATOM     52  C   UNL A   1      45.676  29.012  27.019  1.00  0.00     0.049 A 
ATOM     53  H   UNL A   1      43.812  29.224  27.929  1.00  0.00     0.167 HD
ATOM     54  C   UNL A   1      40.050  29.748  30.109  1.00  0.00     0.034 A 
ATOM     55  C   UNL A   1      45.773  27.733  26.606  1.00  0.00     0.034 A 
ATOM     56  C   UNL A   1      39.990  28.421  29.559  1.00  0.00     0.049 A 
ATOM     57  C   UNL A   1      44.603  26.809  26.818  1.00  0.00     0.074 A 
ATOM     58  C   UNL A   1      38.962  27.501  29.644  1.00  0.00     0.029 A 
ATOM     59  N   UNL A   1      41.005  27.823  28.828  1.00  0.00    -0.354 N 
ATOM     60  N   UNL A   1      43.447  27.059  27.384  1.00  0.00    -0.248 NA
ATOM     61  C   UNL A   1      44.731  25.440  26.297  1.00  0.00     0.031 C 
ATOM     62  C   UNL A   1      39.364  26.336  28.984  1.00  0.00     0.029 A 
ATOM     63  C   UNL A   1      40.632  26.542  28.461  1.00  0.00     0.049 A 
ATOM     64  H   UNL A   1      41.864  28.248  28.602  1.00  0.00     0.167 HD
ATOM     65  C   UNL A   1      42.698  25.895  27.252  1.00  0.00     0.074 A 
ATOM     66  C   UNL A   1      43.524  24.946  26.537  1.00  0.00     0.031 C 
ATOM     67  C   UNL A   1      41.444  25.631  27.697  1.00  0.00     0.034 A 
BRANCH  54  68
ATOM     68  C   UNL A   1      38.888  30.235  30.933  1.00  0.00     0.023 A 
ATOM     69  C   UNL A   1      38.886  30.019  32.327  1.00  0.00     0.012 A 
ATOM     70  C   UNL A   1      37.825  30.948  30.344  1.00  0.00     0.148 A 
ATOM     71  C   UNL A   1      37.830  30.469  33.116  1.00  0.00     0.002 A 
ATOM     72  C   UNL A   1      36.798  31.435  31.144  1.00  0.00     0.091 A 
ATOM     73  F   UNL A   1      37.833  31.125  29.015  1.00  0.00    -0.205 F 
ATOM     74  C   UNL A   1      36.792  31.185  32.527  1.00  0.00     0.022 A 
BRANCH  72  75
ATOM     75  S   UNL A   1      35.459  32.440  30.496  1.00  0.00     0.127 S 
ATOM     76  O   UNL A   1      35.043  31.662  29.329  1.00  0.00    -0.237 OA
ATOM     77  O   UNL A   1      34.504  32.433  31.604  1.00  0.00    -0.237 OA
ATOM     78  O   UNL A   1      36.039  33.744  30.203  1.00  0.00    -0.744 OA
ENDBRANCH  72  75
ENDBRANCH  54  68
BRANCH  55  79
ATOM     79  C   UNL A   1      46.990  27.273  25.877  1.00  0.00     0.023 A 
ATOM     80  C   UNL A   1      47.081  27.474  24.485  1.00  0.00     0.012 A 
ATOM     81  C   UNL A   1      48.064  26.663  26.553  1.00  0.00     0.148 A 
ATOM     82  C   UNL A   1      48.203  27.043  23.774  1.00  0.00     0.002 A 
ATOM     83  C   UNL A   1      49.201  26.286  25.848  1.00  0.00     0.091 A 
ATOM     84  F   UNL A   1      47.955  26.470  27.875  1.00  0.00    -0.205 F 
ATOM     85  C   UNL A   1      49.266  26.459  24.457  1.00  0.00     0.022 A 
BRANCH  83  86
ATOM     86  S   UNL A   1      50.671  25.648  26.660  1.00  0.00     0.127 S 
ATOM     87  O   UNL A   1      51.016  26.746  27.559  1.00  0.00    -0.237 OA
ATOM     88  O   UNL A   1      50.155  24.448  27.322  1.00  0.00    -0.237 OA
ATOM     89  O   UNL A   1      51.624  25.379  25.592  1.00  0.00    -0.744 OA
ENDBRANCH  83  86
ENDBRANCH  55  79
BRANCH  67  90
ATOM     90  C   UNL A   1      40.860  24.278  27.388  1.00  0.00     0.023 A 
ATOM     91  C   UNL A   1      41.437  23.120  27.945  1.00  0.00     0.012 A 
ATOM     92  C   UNL A   1      39.685  24.165  26.618  1.00  0.00     0.148 A 
ATOM     93  C   UNL A   1      40.870  21.867  27.716  1.00  0.00     0.002 A 
ATOM     94  C   UNL A   1      39.097  22.920  26.437  1.00  0.00     0.091 A 
ATOM     95  F   UNL A   1      39.162  25.278  26.082  1.00  0.00    -0.205 F 
ATOM     96  C   UNL A   1      39.695  21.768  26.976  1.00  0.00     0.022 A 
BRANCH  94  97
ATOM     97  S   UNL A   1      37.531  22.710  25.583  1.00  0.00     0.127 S 
ATOM     98  O   UNL A   1      37.368  21.257  25.610  1.00  0.00    -0.237 OA
ATOM     99  O   UNL A   1      36.605  23.443  26.447  1.00  0.00    -0.237 OA
ATOM    100  O   UNL A   1      37.713  23.293  24.261  1.00  0.00    -0.744 OA
ENDBRANCH  94  97
ENDBRANCH  67  90
ENDBRANCH  41  42
ENDBRANCH  33  36
ENDBRANCH  31  32
ENDBRANCH  30  31
ENDBRANCH   1  30
TORSDOF 17
ENDMDL
