MODEL 1
REMARK VINA RESULT:     -10.5      0.000      0.000
REMARK SMILES COc1cc(C(=O)NCCCNC(=O)c2ccc(-c3c4nc(c(-c5cccc(S(=O)(=O)[O-])c5F)c5ccc([nH]5)c(-c5cccc(S(=O)(=O)[O-])c5F)c5nc(c(-c6cccc(S(=O)(=O)[O-])c6F)c6ccc3[nH]6)C=C5)C=C4)cc2)c([N+](=O)[O-])cc1OCC[NH+](C)C
REMARK SMILES IDX 9 1 8 2 6 3 7 4 5 6 3 7 4 8 83 9 82 10 78 11 2 12 1 13 84 14
REMARK SMILES IDX 85 15 86 16 87 17 88 18 89 19 79 21 80 22 81 23 10 24 11 25
REMARK SMILES IDX 12 26 13 27 14 29 15 30 16 31 77 32 17 33 76 34 18 35 19 36
REMARK SMILES IDX 20 37 70 38 21 39 75 40 69 41 71 42 22 43 74 44 68 45 67 46
REMARK SMILES IDX 23 48 55 49 35 50 54 51 36 52 39 53 53 54 72 55 37 56 38 57
REMARK SMILES IDX 52 59 73 60 40 61 24 62 25 63 33 64 26 65 28 66 34 67 27 68
REMARK SMILES IDX 29 69 30 70 31 71 32 72 56 73 57 74 65 75 58 76 60 77 66 78
REMARK SMILES IDX 59 79 61 80 62 81 63 82 64 83 41 84 42 85 50 86 43 87 45 88
REMARK SMILES IDX 51 89 44 90 46 91 47 92 48 93 49 94
REMARK H PARENT 8 5 87 20 12 28 71 47 39 58
REMARK Flexibility Score: inf
ROOT
ATOM      1  C   UNL A   1      34.420  21.985  24.583  1.00  0.00     0.118 C 
ENDROOT
BRANCH   1   2
ATOM      2  N   UNL A   1      33.424  21.418  23.679  1.00  0.00    -0.352 N 
ATOM      3  C   UNL A   1      32.268  21.949  23.155  1.00  0.00     0.258 C 
ATOM      4  O   UNL A   1      31.580  21.271  22.396  1.00  0.00    -0.269 OA
ATOM      5  H   UNL A   1      33.612  20.495  23.395  1.00  0.00     0.163 HD
BRANCH   3   6
ATOM      6  C   UNL A   1      31.790  23.299  23.535  1.00  0.00     0.121 A 
ATOM      7  C   UNL A   1      31.620  25.663  22.946  1.00  0.00     0.162 A 
ATOM      8  C   UNL A   1      32.066  24.363  22.654  1.00  0.00     0.071 A 
ATOM      9  C   UNL A   1      30.831  25.885  24.081  1.00  0.00     0.168 A 
ATOM     10  C   UNL A   1      30.510  24.827  24.928  1.00  0.00     0.136 A 
ATOM     11  C   UNL A   1      31.085  23.575  24.706  1.00  0.00     0.286 A 
BRANCH   7  12
ATOM     12  O   UNL A   1      31.855  26.677  22.056  1.00  0.00    -0.493 OA
ATOM     13  C   UNL A   1      33.166  27.231  22.182  1.00  0.00     0.278 C 
ENDBRANCH   7  12
BRANCH   9  14
ATOM     14  O   UNL A   1      30.347  27.088  24.502  1.00  0.00    -0.484 OA
BRANCH  14  15
ATOM     15  C   UNL A   1      31.237  27.867  25.309  1.00  0.00     0.291 C 
BRANCH  15  16
ATOM     16  C   UNL A   1      31.998  27.148  26.462  1.00  0.00     0.303 C 
BRANCH  16  17
ATOM     17  N   UNL A   1      33.474  27.184  26.383  1.00  0.00    -0.337 N 
ATOM     18  C   UNL A   1      34.035  26.014  25.707  1.00  0.00     0.332 C 
ATOM     19  C   UNL A   1      33.955  28.389  25.699  1.00  0.00     0.332 C 
ATOM     20  H   UNL A   1      33.790  27.188  27.352  1.00  0.00     0.347 HD
ENDBRANCH  16  17
ENDBRANCH  15  16
ENDBRANCH  14  15
ENDBRANCH   9  14
BRANCH  11  21
ATOM     21  N   UNL A   1      31.080  22.648  25.825  1.00  0.00     0.063 N 
ATOM     22  O   UNL A   1      30.251  21.730  25.806  1.00  0.00    -0.258 OA
ATOM     23  O   UNL A   1      31.944  22.807  26.698  1.00  0.00    -0.258 OA
ENDBRANCH  11  21
ENDBRANCH   3   6
ENDBRANCH   1   2
BRANCH   1  24
ATOM     24  C   UNL A   1      35.517  21.030  25.005  1.00  0.00     0.042 C 
BRANCH  24  25
ATOM     25  C   UNL A   1      36.786  21.700  25.502  1.00  0.00     0.118 C 
BRANCH  25  26
ATOM     26  N   UNL A   1      37.906  20.784  25.686  1.00  0.00    -0.352 N 
ATOM     27  C   UNL A   1      39.197  20.992  26.128  1.00  0.00     0.251 C 
ATOM     28  H   UNL A   1      37.706  19.850  25.452  1.00  0.00     0.163 HD
ATOM     29  O   UNL A   1      39.998  20.070  26.096  1.00  0.00    -0.269 OA
BRANCH  27  30
ATOM     30  C   UNL A   1      39.630  22.329  26.602  1.00  0.00     0.039 A 
ATOM     31  C   UNL A   1      40.658  22.414  27.548  1.00  0.00     0.014 A 
ATOM     32  C   UNL A   1      39.041  23.495  26.124  1.00  0.00     0.014 A 
ATOM     33  C   UNL A   1      41.158  23.667  27.922  1.00  0.00     0.010 A 
ATOM     34  C   UNL A   1      39.625  24.727  26.390  1.00  0.00     0.010 A 
ATOM     35  C   UNL A   1      40.686  24.834  27.300  1.00  0.00    -0.014 A 
BRANCH  35  36
ATOM     36  C   UNL A   1      41.274  26.173  27.575  1.00  0.00     0.031 A 
ATOM     37  C   UNL A   1      42.688  26.480  27.147  1.00  0.00     0.074 A 
ATOM     38  C   UNL A   1      40.583  27.073  28.307  1.00  0.00     0.049 A 
ATOM     39  N   UNL A   1      43.417  27.535  27.401  1.00  0.00    -0.248 NA
ATOM     40  C   UNL A   1      43.389  25.448  26.362  1.00  0.00     0.031 C 
ATOM     41  C   UNL A   1      39.239  26.871  28.854  1.00  0.00     0.029 A 
ATOM     42  N   UNL A   1      40.928  28.329  28.741  1.00  0.00    -0.354 N 
ATOM     43  C   UNL A   1      44.668  27.275  26.852  1.00  0.00     0.074 A 
ATOM     44  C   UNL A   1      44.615  25.943  26.292  1.00  0.00     0.031 C 
ATOM     45  C   UNL A   1      38.869  27.967  29.537  1.00  0.00     0.029 A 
ATOM     46  C   UNL A   1      39.962  28.933  29.514  1.00  0.00     0.049 A 
ATOM     47  H   UNL A   1      41.786  28.758  28.521  1.00  0.00     0.167 HD
ATOM     48  C   UNL A   1      45.753  28.082  26.782  1.00  0.00     0.034 A 
ATOM     49  C   UNL A   1      39.959  30.124  30.143  1.00  0.00     0.034 A 
ATOM     50  C   UNL A   1      45.784  29.428  27.285  1.00  0.00     0.049 A 
ATOM     51  C   UNL A   1      41.165  31.018  30.018  1.00  0.00     0.074 A 
ATOM     52  C   UNL A   1      46.803  30.358  27.186  1.00  0.00     0.029 A 
ATOM     53  N   UNL A   1      44.751  30.036  27.980  1.00  0.00    -0.354 N 
ATOM     54  N   UNL A   1      42.282  30.809  29.365  1.00  0.00    -0.248 NA
ATOM     55  C   UNL A   1      41.096  32.326  30.685  1.00  0.00     0.031 C 
ATOM     56  C   UNL A   1      46.393  31.523  27.842  1.00  0.00     0.029 A 
ATOM     57  C   UNL A   1      45.108  31.328  28.322  1.00  0.00     0.049 A 
ATOM     58  H   UNL A   1      43.890  29.610  28.199  1.00  0.00     0.167 HD
ATOM     59  C   UNL A   1      43.031  31.971  29.510  1.00  0.00     0.074 A 
ATOM     60  C   UNL A   1      42.231  32.889  30.295  1.00  0.00     0.031 C 
ATOM     61  C   UNL A   1      44.275  32.250  29.050  1.00  0.00     0.034 A 
BRANCH  48  62
ATOM     62  C   UNL A   1      46.977  27.554  26.077  1.00  0.00     0.023 A 
ATOM     63  C   UNL A   1      47.150  27.808  24.701  1.00  0.00     0.012 A 
ATOM     64  C   UNL A   1      47.981  26.864  26.783  1.00  0.00     0.148 A 
ATOM     65  C   UNL A   1      48.283  27.351  24.029  1.00  0.00     0.002 A 
ATOM     66  C   UNL A   1      49.131  26.455  26.117  1.00  0.00     0.091 A 
ATOM     67  F   UNL A   1      47.793  26.616  28.087  1.00  0.00    -0.205 F 
ATOM     68  C   UNL A   1      49.277  26.684  24.738  1.00  0.00     0.022 A 
BRANCH  66  69
ATOM     69  S   UNL A   1      50.509  25.661  26.953  1.00  0.00     0.127 S 
ATOM     70  O   UNL A   1      50.872  26.671  27.947  1.00  0.00    -0.237 OA
ATOM     71  O   UNL A   1      49.881  24.461  27.506  1.00  0.00    -0.237 OA
ATOM     72  O   UNL A   1      51.512  25.408  25.928  1.00  0.00    -0.744 OA
ENDBRANCH  66  69
ENDBRANCH  48  62
BRANCH  49  73
ATOM     73  C   UNL A   1      38.754  30.577  30.898  1.00  0.00     0.023 A 
ATOM     74  C   UNL A   1      38.664  30.307  32.279  1.00  0.00     0.012 A 
ATOM     75  C   UNL A   1      37.705  31.271  30.267  1.00  0.00     0.148 A 
ATOM     76  C   UNL A   1      37.536  30.684  33.007  1.00  0.00     0.002 A 
ATOM     77  C   UNL A   1      36.608  31.693  31.011  1.00  0.00     0.091 A 
ATOM     78  F   UNL A   1      37.801  31.510  28.952  1.00  0.00    -0.205 F 
ATOM     79  C   UNL A   1      36.512  31.383  32.377  1.00  0.00     0.022 A 
BRANCH  77  80
ATOM     80  S   UNL A   1      35.303  32.711  30.310  1.00  0.00     0.127 S 
ATOM     81  O   UNL A   1      36.033  33.922  29.946  1.00  0.00    -0.237 OA
ATOM     82  O   UNL A   1      34.858  31.896  29.179  1.00  0.00    -0.237 OA
ATOM     83  O   UNL A   1      34.313  32.860  31.368  1.00  0.00    -0.744 OA
ENDBRANCH  77  80
ENDBRANCH  49  73
BRANCH  61  84
ATOM     84  C   UNL A   1      44.839  33.617  29.334  1.00  0.00     0.023 A 
ATOM     85  C   UNL A   1      45.502  33.865  30.552  1.00  0.00     0.012 A 
ATOM     86  C   UNL A   1      44.782  34.630  28.356  1.00  0.00     0.148 A 
ATOM     87  C   UNL A   1      46.073  35.112  30.806  1.00  0.00     0.002 A 
ATOM     88  C   UNL A   1      45.399  35.852  28.594  1.00  0.00     0.091 A 
ATOM     89  F   UNL A   1      44.133  34.378  27.210  1.00  0.00    -0.205 F 
ATOM     90  C   UNL A   1      46.032  36.099  29.824  1.00  0.00     0.022 A 
BRANCH  88  91
ATOM     91  S   UNL A   1      45.485  37.147  27.353  1.00  0.00     0.127 S 
ATOM     92  O   UNL A   1      46.068  36.433  26.218  1.00  0.00    -0.237 OA
ATOM     93  O   UNL A   1      44.077  37.510  27.187  1.00  0.00    -0.237 OA
ATOM     94  O   UNL A   1      46.317  38.197  27.923  1.00  0.00    -0.744 OA
ENDBRANCH  88  91
ENDBRANCH  61  84
ENDBRANCH  35  36
ENDBRANCH  27  30
ENDBRANCH  25  26
ENDBRANCH  24  25
ENDBRANCH   1  24
TORSDOF 19
ENDMDL
MODEL 2
REMARK VINA RESULT:     -10.5      5.108     10.253
REMARK SMILES COc1cc(C(=O)NCCCNC(=O)c2ccc(-c3c4nc(c(-c5cccc(S(=O)(=O)[O-])c5F)c5ccc([nH]5)c(-c5cccc(S(=O)(=O)[O-])c5F)c5nc(c(-c6cccc(S(=O)(=O)[O-])c6F)c6ccc3[nH]6)C=C5)C=C4)cc2)c([N+](=O)[O-])cc1OCC[NH+](C)C
REMARK SMILES IDX 9 1 8 2 6 3 7 4 5 6 3 7 4 8 83 9 82 10 78 11 2 12 1 13 84 14
REMARK SMILES IDX 85 15 86 16 87 17 88 18 89 19 79 21 80 22 81 23 10 24 11 25
REMARK SMILES IDX 12 26 13 27 14 29 15 30 16 31 77 32 17 33 76 34 18 35 19 36
REMARK SMILES IDX 20 37 70 38 21 39 75 40 69 41 71 42 22 43 74 44 68 45 67 46
REMARK SMILES IDX 23 48 55 49 35 50 54 51 36 52 39 53 53 54 72 55 37 56 38 57
REMARK SMILES IDX 52 59 73 60 40 61 24 62 25 63 33 64 26 65 28 66 34 67 27 68
REMARK SMILES IDX 29 69 30 70 31 71 32 72 56 73 57 74 65 75 58 76 60 77 66 78
REMARK SMILES IDX 59 79 61 80 62 81 63 82 64 83 41 84 42 85 50 86 43 87 45 88
REMARK SMILES IDX 51 89 44 90 46 91 47 92 48 93 49 94
REMARK H PARENT 8 5 87 20 12 28 71 47 39 58
REMARK Flexibility Score: inf
ROOT
ATOM      1  C   UNL A   1      32.382  28.276  24.888  1.00  0.00     0.118 C 
ENDROOT
BRANCH   1   2
ATOM      2  N   UNL A   1      31.535  28.241  23.700  1.00  0.00    -0.352 N 
ATOM      3  C   UNL A   1      31.024  27.186  22.981  1.00  0.00     0.258 C 
ATOM      4  O   UNL A   1      30.318  27.408  22.000  1.00  0.00    -0.269 OA
ATOM      5  H   UNL A   1      31.287  29.128  23.353  1.00  0.00     0.163 HD
BRANCH   3   6
ATOM      6  C   UNL A   1      31.359  25.783  23.315  1.00  0.00     0.121 A 
ATOM      7  C   UNL A   1      31.021  23.889  24.821  1.00  0.00     0.162 A 
ATOM      8  C   UNL A   1      30.762  25.223  24.462  1.00  0.00     0.071 A 
ATOM      9  C   UNL A   1      31.817  23.091  23.989  1.00  0.00     0.168 A 
ATOM     10  C   UNL A   1      32.366  23.624  22.826  1.00  0.00     0.136 A 
ATOM     11  C   UNL A   1      32.224  24.987  22.564  1.00  0.00     0.286 A 
BRANCH   7  12
ATOM     12  O   UNL A   1      30.396  23.346  25.911  1.00  0.00    -0.493 OA
ATOM     13  C   UNL A   1      31.241  23.292  27.063  1.00  0.00     0.278 C 
ENDBRANCH   7  12
BRANCH   9  14
ATOM     14  O   UNL A   1      32.170  21.794  24.217  1.00  0.00    -0.484 OA
BRANCH  14  15
ATOM     15  C   UNL A   1      33.575  21.549  24.354  1.00  0.00     0.291 C 
BRANCH  15  16
ATOM     16  C   UNL A   1      34.044  20.079  24.558  1.00  0.00     0.303 C 
BRANCH  16  17
ATOM     17  N   UNL A   1      33.015  19.038  24.348  1.00  0.00    -0.337 N 
ATOM     18  C   UNL A   1      33.479  17.947  23.490  1.00  0.00     0.332 C 
ATOM     19  C   UNL A   1      32.550  18.465  25.616  1.00  0.00     0.332 C 
ATOM     20  H   UNL A   1      32.245  19.517  23.883  1.00  0.00     0.347 HD
ENDBRANCH  16  17
ENDBRANCH  15  16
ENDBRANCH  14  15
ENDBRANCH   9  14
BRANCH  11  21
ATOM     21  N   UNL A   1      33.153  25.568  21.610  1.00  0.00     0.063 N 
ATOM     22  O   UNL A   1      33.797  26.561  21.969  1.00  0.00    -0.258 OA
ATOM     23  O   UNL A   1      33.278  24.995  20.518  1.00  0.00    -0.258 OA
ENDBRANCH  11  21
ENDBRANCH   3   6
ENDBRANCH   1   2
BRANCH   1  24
ATOM     24  C   UNL A   1      32.841  29.658  25.306  1.00  0.00     0.042 C 
BRANCH  24  25
ATOM     25  C   UNL A   1      32.391  30.083  26.693  1.00  0.00     0.118 C 
BRANCH  25  26
ATOM     26  N   UNL A   1      32.482  31.520  26.929  1.00  0.00    -0.352 N 
ATOM     27  C   UNL A   1      33.445  32.288  27.552  1.00  0.00     0.251 C 
ATOM     28  H   UNL A   1      31.717  32.035  26.583  1.00  0.00     0.163 HD
ATOM     29  O   UNL A   1      33.244  33.480  27.722  1.00  0.00    -0.269 OA
BRANCH  27  30
ATOM     30  C   UNL A   1      34.700  31.673  28.050  1.00  0.00     0.039 A 
ATOM     31  C   UNL A   1      35.842  32.471  28.180  1.00  0.00     0.014 A 
ATOM     32  C   UNL A   1      34.762  30.326  28.394  1.00  0.00     0.014 A 
ATOM     33  C   UNL A   1      37.001  31.938  28.755  1.00  0.00     0.010 A 
ATOM     34  C   UNL A   1      35.862  29.837  29.086  1.00  0.00     0.010 A 
ATOM     35  C   UNL A   1      37.002  30.632  29.270  1.00  0.00    -0.014 A 
BRANCH  35  36
ATOM     36  C   UNL A   1      38.171  30.067  29.999  1.00  0.00     0.031 A 
ATOM     37  C   UNL A   1      38.489  30.540  31.396  1.00  0.00     0.074 A 
ATOM     38  C   UNL A   1      39.009  29.217  29.369  1.00  0.00     0.049 A 
ATOM     39  N   UNL A   1      39.524  30.264  32.145  1.00  0.00    -0.248 NA
ATOM     40  C   UNL A   1      37.538  31.478  32.019  1.00  0.00     0.031 C 
ATOM     41  C   UNL A   1      38.863  28.745  27.990  1.00  0.00     0.029 A 
ATOM     42  N   UNL A   1      40.169  28.621  29.798  1.00  0.00    -0.354 N 
ATOM     43  C   UNL A   1      39.373  31.025  33.299  1.00  0.00     0.074 A 
ATOM     44  C   UNL A   1      38.172  31.811  33.133  1.00  0.00     0.031 C 
ATOM     45  C   UNL A   1      39.883  27.923  27.693  1.00  0.00     0.029 A 
ATOM     46  C   UNL A   1      40.779  27.842  28.841  1.00  0.00     0.049 A 
ATOM     47  H   UNL A   1      40.532  28.739  30.706  1.00  0.00     0.167 HD
ATOM     48  C   UNL A   1      40.140  31.042  34.415  1.00  0.00     0.034 A 
ATOM     49  C   UNL A   1      41.934  27.149  28.878  1.00  0.00     0.034 A 
ATOM     50  C   UNL A   1      41.300  30.215  34.604  1.00  0.00     0.049 A 
ATOM     51  C   UNL A   1      42.748  27.157  30.146  1.00  0.00     0.074 A 
ATOM     52  C   UNL A   1      42.094  30.093  35.730  1.00  0.00     0.029 A 
ATOM     53  N   UNL A   1      41.832  29.370  33.644  1.00  0.00    -0.354 N 
ATOM     54  N   UNL A   1      42.505  27.768  31.279  1.00  0.00    -0.248 NA
ATOM     55  C   UNL A   1      43.977  26.350  30.151  1.00  0.00     0.031 C 
ATOM     56  C   UNL A   1      43.120  29.188  35.442  1.00  0.00     0.029 A 
ATOM     57  C   UNL A   1      42.947  28.725  34.148  1.00  0.00     0.049 A 
ATOM     58  H   UNL A   1      41.469  29.246  32.736  1.00  0.00     0.167 HD
ATOM     59  C   UNL A   1      43.527  27.390  32.142  1.00  0.00     0.074 A 
ATOM     60  C   UNL A   1      44.379  26.479  31.408  1.00  0.00     0.031 C 
ATOM     61  C   UNL A   1      43.749  27.773  33.423  1.00  0.00     0.034 A 
BRANCH  48  62
ATOM     62  C   UNL A   1      39.710  31.938  35.549  1.00  0.00     0.023 A 
ATOM     63  C   UNL A   1      40.184  33.265  35.605  1.00  0.00     0.012 A 
ATOM     64  C   UNL A   1      38.794  31.492  36.521  1.00  0.00     0.148 A 
ATOM     65  C   UNL A   1      39.786  34.122  36.630  1.00  0.00     0.002 A 
ATOM     66  C   UNL A   1      38.362  32.368  37.512  1.00  0.00     0.091 A 
ATOM     67  F   UNL A   1      38.366  30.223  36.463  1.00  0.00    -0.205 F 
ATOM     68  C   UNL A   1      38.868  33.677  37.576  1.00  0.00     0.022 A 
BRANCH  66  69
ATOM     69  S   UNL A   1      37.120  31.921  38.730  1.00  0.00     0.127 S 
ATOM     70  O   UNL A   1      37.027  30.474  38.540  1.00  0.00    -0.237 OA
ATOM     71  O   UNL A   1      37.758  32.332  39.982  1.00  0.00    -0.237 OA
ATOM     72  O   UNL A   1      35.923  32.673  38.380  1.00  0.00    -0.744 OA
ENDBRANCH  66  69
ENDBRANCH  48  62
BRANCH  49  73
ATOM     73  C   UNL A   1      42.365  26.336  27.703  1.00  0.00     0.023 A 
ATOM     74  C   UNL A   1      43.034  26.968  26.636  1.00  0.00     0.012 A 
ATOM     75  C   UNL A   1      42.125  24.951  27.636  1.00  0.00     0.148 A 
ATOM     76  C   UNL A   1      43.418  26.245  25.506  1.00  0.00     0.002 A 
ATOM     77  C   UNL A   1      42.560  24.226  26.532  1.00  0.00     0.091 A 
ATOM     78  F   UNL A   1      41.478  24.367  28.655  1.00  0.00    -0.205 F 
ATOM     79  C   UNL A   1      43.190  24.874  25.458  1.00  0.00     0.022 A 
BRANCH  77  80
ATOM     80  S   UNL A   1      42.423  22.436  26.440  1.00  0.00     0.127 S 
ATOM     81  O   UNL A   1      43.595  22.009  27.200  1.00  0.00    -0.237 OA
ATOM     82  O   UNL A   1      41.139  22.196  27.100  1.00  0.00    -0.237 OA
ATOM     83  O   UNL A   1      42.437  22.115  25.020  1.00  0.00    -0.744 OA
ENDBRANCH  77  80
ENDBRANCH  49  73
BRANCH  61  84
ATOM     84  C   UNL A   1      44.931  27.177  34.139  1.00  0.00     0.023 A 
ATOM     85  C   UNL A   1      46.175  27.838  34.116  1.00  0.00     0.012 A 
ATOM     86  C   UNL A   1      44.785  26.002  34.904  1.00  0.00     0.148 A 
ATOM     87  C   UNL A   1      47.264  27.323  34.817  1.00  0.00     0.002 A 
ATOM     88  C   UNL A   1      45.860  25.523  35.642  1.00  0.00     0.091 A 
ATOM     89  F   UNL A   1      43.598  25.379  34.900  1.00  0.00    -0.205 F 
ATOM     90  C   UNL A   1      47.104  26.174  35.589  1.00  0.00     0.022 A 
BRANCH  88  91
ATOM     91  S   UNL A   1      45.721  24.110  36.742  1.00  0.00     0.127 S 
ATOM     92  O   UNL A   1      44.636  24.527  37.627  1.00  0.00    -0.237 OA
ATOM     93  O   UNL A   1      45.373  23.031  35.816  1.00  0.00    -0.237 OA
ATOM     94  O   UNL A   1      47.023  23.964  37.378  1.00  0.00    -0.744 OA
ENDBRANCH  88  91
ENDBRANCH  61  84
ENDBRANCH  35  36
ENDBRANCH  27  30
ENDBRANCH  25  26
ENDBRANCH  24  25
ENDBRANCH   1  24
TORSDOF 19
ENDMDL
MODEL 3
REMARK VINA RESULT:     -10.4      1.972      7.877
REMARK SMILES COc1cc(C(=O)NCCCNC(=O)c2ccc(-c3c4nc(c(-c5cccc(S(=O)(=O)[O-])c5F)c5ccc([nH]5)c(-c5cccc(S(=O)(=O)[O-])c5F)c5nc(c(-c6cccc(S(=O)(=O)[O-])c6F)c6ccc3[nH]6)C=C5)C=C4)cc2)c([N+](=O)[O-])cc1OCC[NH+](C)C
REMARK SMILES IDX 9 1 8 2 6 3 7 4 5 6 3 7 4 8 83 9 82 10 78 11 2 12 1 13 84 14
REMARK SMILES IDX 85 15 86 16 87 17 88 18 89 19 79 21 80 22 81 23 10 24 11 25
REMARK SMILES IDX 12 26 13 27 14 29 15 30 16 31 77 32 17 33 76 34 18 35 19 36
REMARK SMILES IDX 20 37 70 38 21 39 75 40 69 41 71 42 22 43 74 44 68 45 67 46
REMARK SMILES IDX 23 48 55 49 35 50 54 51 36 52 39 53 53 54 72 55 37 56 38 57
REMARK SMILES IDX 52 59 73 60 40 61 24 62 25 63 33 64 26 65 28 66 34 67 27 68
REMARK SMILES IDX 29 69 30 70 31 71 32 72 56 73 57 74 65 75 58 76 60 77 66 78
REMARK SMILES IDX 59 79 61 80 62 81 63 82 64 83 41 84 42 85 50 86 43 87 45 88
REMARK SMILES IDX 51 89 44 90 46 91 47 92 48 93 49 94
REMARK H PARENT 8 5 87 20 12 28 71 47 39 58
REMARK Flexibility Score: inf
ROOT
ATOM      1  C   UNL A   1      34.892  22.201  24.972  1.00  0.00     0.118 C 
ENDROOT
BRANCH   1   2
ATOM      2  N   UNL A   1      33.752  22.362  25.869  1.00  0.00    -0.352 N 
ATOM      3  C   UNL A   1      32.834  23.378  25.995  1.00  0.00     0.258 C 
ATOM      4  O   UNL A   1      31.941  23.285  26.834  1.00  0.00    -0.269 OA
ATOM      5  H   UNL A   1      33.617  21.612  26.491  1.00  0.00     0.163 HD
BRANCH   3   6
ATOM      6  C   UNL A   1      32.931  24.618  25.192  1.00  0.00     0.121 A 
ATOM      7  C   UNL A   1      33.536  26.984  25.126  1.00  0.00     0.162 A 
ATOM      8  C   UNL A   1      33.398  25.780  25.837  1.00  0.00     0.071 A 
ATOM      9  C   UNL A   1      33.280  27.006  23.749  1.00  0.00     0.168 A 
ATOM     10  C   UNL A   1      32.869  25.848  23.095  1.00  0.00     0.136 A 
ATOM     11  C   UNL A   1      32.593  24.702  23.842  1.00  0.00     0.286 A 
BRANCH   7  12
ATOM     12  O   UNL A   1      34.036  28.092  25.756  1.00  0.00    -0.493 OA
ATOM     13  C   UNL A   1      33.236  28.506  26.866  1.00  0.00     0.278 C 
ENDBRANCH   7  12
BRANCH   9  14
ATOM     14  O   UNL A   1      33.349  28.098  22.936  1.00  0.00    -0.484 OA
BRANCH  14  15
ATOM     15  C   UNL A   1      32.187  28.936  22.921  1.00  0.00     0.291 C 
BRANCH  15  16
ATOM     16  C   UNL A   1      30.972  28.516  23.799  1.00  0.00     0.303 C 
BRANCH  16  17
ATOM     17  N   UNL A   1      29.822  27.933  23.075  1.00  0.00    -0.337 N 
ATOM     18  C   UNL A   1      29.196  26.827  23.800  1.00  0.00     0.332 C 
ATOM     19  C   UNL A   1      28.794  28.938  22.784  1.00  0.00     0.332 C 
ATOM     20  H   UNL A   1      30.212  27.576  22.203  1.00  0.00     0.347 HD
ENDBRANCH  16  17
ENDBRANCH  15  16
ENDBRANCH  14  15
ENDBRANCH   9  14
BRANCH  11  21
ATOM     21  N   UNL A   1      31.771  23.690  23.202  1.00  0.00     0.063 N 
ATOM     22  O   UNL A   1      32.344  22.704  22.722  1.00  0.00    -0.258 OA
ATOM     23  O   UNL A   1      30.543  23.856  23.228  1.00  0.00    -0.258 OA
ENDBRANCH  11  21
ENDBRANCH   3   6
ENDBRANCH   1   2
BRANCH   1  24
ATOM     24  C   UNL A   1      36.151  21.671  25.627  1.00  0.00     0.042 C 
BRANCH  24  25
ATOM     25  C   UNL A   1      37.327  21.486  24.685  1.00  0.00     0.118 C 
BRANCH  25  26
ATOM     26  N   UNL A   1      38.188  20.359  25.027  1.00  0.00    -0.352 N 
ATOM     27  C   UNL A   1      39.409  20.299  25.668  1.00  0.00     0.251 C 
ATOM     28  H   UNL A   1      37.835  19.483  24.750  1.00  0.00     0.163 HD
ATOM     29  O   UNL A   1      39.994  19.230  25.746  1.00  0.00    -0.269 OA
BRANCH  27  30
ATOM     30  C   UNL A   1      40.034  21.524  26.224  1.00  0.00     0.039 A 
ATOM     31  C   UNL A   1      41.424  21.567  26.377  1.00  0.00     0.014 A 
ATOM     32  C   UNL A   1      39.270  22.627  26.591  1.00  0.00     0.014 A 
ATOM     33  C   UNL A   1      42.042  22.753  26.791  1.00  0.00     0.010 A 
ATOM     34  C   UNL A   1      39.889  23.839  26.870  1.00  0.00     0.010 A 
ATOM     35  C   UNL A   1      41.284  23.919  26.983  1.00  0.00    -0.014 A 
BRANCH  35  36
ATOM     36  C   UNL A   1      41.912  25.230  27.303  1.00  0.00     0.031 A 
ATOM     37  C   UNL A   1      41.136  26.271  28.073  1.00  0.00     0.074 A 
ATOM     38  C   UNL A   1      43.131  25.531  26.807  1.00  0.00     0.049 A 
ATOM     39  N   UNL A   1      41.457  27.509  28.342  1.00  0.00    -0.248 NA
ATOM     40  C   UNL A   1      39.806  25.880  28.574  1.00  0.00     0.031 C 
ATOM     41  C   UNL A   1      43.953  24.646  25.978  1.00  0.00     0.029 A 
ATOM     42  N   UNL A   1      43.880  26.677  26.906  1.00  0.00    -0.354 N 
ATOM     43  C   UNL A   1      40.359  28.054  28.996  1.00  0.00     0.074 A 
ATOM     44  C   UNL A   1      39.342  27.028  29.043  1.00  0.00     0.031 C 
ATOM     45  C   UNL A   1      45.095  25.276  25.656  1.00  0.00     0.029 A 
ATOM     46  C   UNL A   1      45.072  26.622  26.218  1.00  0.00     0.049 A 
ATOM     47  H   UNL A   1      43.593  27.467  27.420  1.00  0.00     0.167 HD
ATOM     48  C   UNL A   1      40.217  29.284  29.546  1.00  0.00     0.034 A 
ATOM     49  C   UNL A   1      46.031  27.552  26.049  1.00  0.00     0.034 A 
ATOM     50  C   UNL A   1      41.251  30.282  29.552  1.00  0.00     0.049 A 
ATOM     51  C   UNL A   1      45.865  28.899  26.702  1.00  0.00     0.074 A 
ATOM     52  C   UNL A   1      41.240  31.526  30.158  1.00  0.00     0.029 A 
ATOM     53  N   UNL A   1      42.479  30.152  28.924  1.00  0.00    -0.354 N 
ATOM     54  N   UNL A   1      44.879  29.340  27.444  1.00  0.00    -0.248 NA
ATOM     55  C   UNL A   1      46.960  29.864  26.525  1.00  0.00     0.031 C 
ATOM     56  C   UNL A   1      42.456  32.157  29.877  1.00  0.00     0.029 A 
ATOM     57  C   UNL A   1      43.234  31.294  29.122  1.00  0.00     0.049 A 
ATOM     58  H   UNL A   1      42.771  29.363  28.412  1.00  0.00     0.167 HD
ATOM     59  C   UNL A   1      45.251  30.615  27.853  1.00  0.00     0.074 A 
ATOM     60  C   UNL A   1      46.563  30.867  27.295  1.00  0.00     0.031 C 
ATOM     61  C   UNL A   1      44.564  31.505  28.611  1.00  0.00     0.034 A 
BRANCH  48  62
ATOM     62  C   UNL A   1      38.919  29.595  30.246  1.00  0.00     0.023 A 
ATOM     63  C   UNL A   1      38.673  29.057  31.527  1.00  0.00     0.012 A 
ATOM     64  C   UNL A   1      37.972  30.465  29.671  1.00  0.00     0.148 A 
ATOM     65  C   UNL A   1      37.491  29.346  32.206  1.00  0.00     0.002 A 
ATOM     66  C   UNL A   1      36.818  30.788  30.376  1.00  0.00     0.091 A 
ATOM     67  F   UNL A   1      38.214  30.954  28.447  1.00  0.00    -0.205 F 
ATOM     68  C   UNL A   1      36.570  30.219  31.636  1.00  0.00     0.022 A 
BRANCH  66  69
ATOM     69  S   UNL A   1      35.606  31.967  29.770  1.00  0.00     0.127 S 
ATOM     70  O   UNL A   1      36.448  33.122  29.458  1.00  0.00    -0.237 OA
ATOM     71  O   UNL A   1      35.065  31.274  28.600  1.00  0.00    -0.237 OA
ATOM     72  O   UNL A   1      34.656  32.164  30.855  1.00  0.00    -0.744 OA
ENDBRANCH  66  69
ENDBRANCH  48  62
BRANCH  49  73
ATOM     73  C   UNL A   1      47.269  27.228  25.279  1.00  0.00     0.023 A 
ATOM     74  C   UNL A   1      48.305  26.511  25.909  1.00  0.00     0.012 A 
ATOM     75  C   UNL A   1      47.425  27.618  23.936  1.00  0.00     0.148 A 
ATOM     76  C   UNL A   1      49.489  26.224  25.230  1.00  0.00     0.002 A 
ATOM     77  C   UNL A   1      48.585  27.280  23.247  1.00  0.00     0.091 A 
ATOM     78  F   UNL A   1      46.434  28.309  23.355  1.00  0.00    -0.205 F 
ATOM     79  C   UNL A   1      49.626  26.600  23.898  1.00  0.00     0.022 A 
BRANCH  77  80
ATOM     80  S   UNL A   1      48.795  27.611  21.493  1.00  0.00     0.127 S 
ATOM     81  O   UNL A   1      49.466  28.908  21.514  1.00  0.00    -0.237 OA
ATOM     82  O   UNL A   1      49.635  26.489  21.072  1.00  0.00    -0.237 OA
ATOM     83  O   UNL A   1      47.452  27.600  20.930  1.00  0.00    -0.744 OA
ENDBRANCH  77  80
ENDBRANCH  49  73
BRANCH  61  84
ATOM     84  C   UNL A   1      45.228  32.818  28.928  1.00  0.00     0.023 A 
ATOM     85  C   UNL A   1      46.010  32.947  30.094  1.00  0.00     0.012 A 
ATOM     86  C   UNL A   1      45.144  33.898  28.027  1.00  0.00     0.148 A 
ATOM     87  C   UNL A   1      46.672  34.142  30.373  1.00  0.00     0.002 A 
ATOM     88  C   UNL A   1      45.848  35.067  28.285  1.00  0.00     0.091 A 
ATOM     89  F   UNL A   1      44.382  33.759  26.932  1.00  0.00    -0.205 F 
ATOM     90  C   UNL A   1      46.601  35.195  29.464  1.00  0.00     0.022 A 
BRANCH  88  91
ATOM     91  S   UNL A   1      45.898  36.438  27.126  1.00  0.00     0.127 S 
ATOM     92  O   UNL A   1      46.332  35.775  25.898  1.00  0.00    -0.237 OA
ATOM     93  O   UNL A   1      44.505  36.886  27.118  1.00  0.00    -0.237 OA
ATOM     94  O   UNL A   1      46.840  37.401  27.681  1.00  0.00    -0.744 OA
ENDBRANCH  88  91
ENDBRANCH  61  84
ENDBRANCH  35  36
ENDBRANCH  27  30
ENDBRANCH  25  26
ENDBRANCH  24  25
ENDBRANCH   1  24
TORSDOF 19
ENDMDL
