MODEL 1
REMARK VINA RESULT:     -11.2      0.000      0.000
REMARK SMILES CCC[N@H+]1CCC[C@H]([C@@H](C)Nc2cccc(C(=O)NCCCNC(=O)c3ccc(-c4c5nc(c(-c6cccc(S(=O)(=O)[O-])c6F)c6ccc([nH]6)c(-c6cccc(S(=O)(=O)[O-])c6F)c6nc(c(-c7cccc(S(=O)(=O)[O-])c7F)c7ccc4[nH]7)C=C6)C=C5)cc3)c2)C1
REMARK SMILES IDX 20 1 19 2 17 3 18 4 16 6 12 7 13 8 89 9 14 10 15 11 11 12
REMARK SMILES IDX 9 14 10 15 8 16 4 17 5 18 90 19 6 21 7 22 3 23 2 24 1 25
REMARK SMILES IDX 21 26 22 27 23 28 24 29 25 31 26 32 27 33 88 34 28 35 87 36
REMARK SMILES IDX 29 37 30 38 31 39 81 40 32 41 86 42 80 43 82 44 33 45 85 46
REMARK SMILES IDX 79 47 78 48 34 50 66 51 46 52 65 53 47 54 50 55 64 56 83 57
REMARK SMILES IDX 48 58 49 59 63 61 84 62 51 63 35 64 36 65 44 66 37 67 39 68
REMARK SMILES IDX 45 69 38 70 40 71 41 72 42 73 43 74 67 75 68 76 76 77 69 78
REMARK SMILES IDX 71 79 77 80 70 81 72 82 73 83 74 84 75 85 52 86 53 87 61 88
REMARK SMILES IDX 54 89 56 90 62 91 55 92 57 93 58 94 59 95 60 96
REMARK H PARENT 19 5 11 13 4 20 23 30 82 49 50 60
REMARK Flexibility Score: inf
ROOT
ATOM      1  C   UNL A   1      31.637  30.587  26.729  1.00  0.00     0.118 C 
ENDROOT
BRANCH   1   2
ATOM      2  N   UNL A   1      32.953  30.118  27.156  1.00  0.00    -0.352 N 
ATOM      3  C   UNL A   1      33.884  29.263  26.599  1.00  0.00     0.251 C 
ATOM      4  O   UNL A   1      34.941  29.086  27.208  1.00  0.00    -0.269 OA
ATOM      5  H   UNL A   1      33.237  30.491  28.022  1.00  0.00     0.163 HD
BRANCH   3   6
ATOM      6  C   UNL A   1      33.633  28.492  25.352  1.00  0.00     0.041 A 
ATOM      7  C   UNL A   1      33.823  26.391  24.147  1.00  0.00     0.035 A 
ATOM      8  C   UNL A   1      33.633  27.090  22.952  1.00  0.00     0.026 A 
ATOM      9  C   UNL A   1      33.626  27.102  25.327  1.00  0.00     0.039 A 
ATOM     10  C   UNL A   1      33.388  28.468  22.952  1.00  0.00     0.003 A 
ATOM     11  C   UNL A   1      33.447  29.178  24.151  1.00  0.00     0.014 A 
BRANCH   7  12
ATOM     12  N   UNL A   1      34.157  25.049  24.119  1.00  0.00    -0.382 N 
ATOM     13  H   UNL A   1      34.685  24.727  23.353  1.00  0.00     0.160 HD
BRANCH  12  14
ATOM     14  C   UNL A   1      33.784  24.067  25.144  1.00  0.00     0.084 C 
ATOM     15  C   UNL A   1      35.009  23.212  25.480  1.00  0.00     0.031 C 
BRANCH  14  16
ATOM     16  C   UNL A   1      32.578  23.223  24.649  1.00  0.00     0.066 C 
ATOM     17  N   UNL A   1      30.860  24.794  25.537  1.00  0.00    -0.335 N 
ATOM     18  C   UNL A   1      30.386  23.800  26.515  1.00  0.00     0.262 C 
ATOM     19  C   UNL A   1      31.356  24.110  24.335  1.00  0.00     0.267 C 
ATOM     20  H   UNL A   1      31.644  25.318  25.927  1.00  0.00     0.348 HD
ATOM     21  C   UNL A   1      31.470  22.785  26.894  1.00  0.00     0.062 C 
ATOM     22  C   UNL A   1      32.132  22.157  25.665  1.00  0.00     0.017 C 
BRANCH  17  23
ATOM     23  C   UNL A   1      29.810  25.784  25.252  1.00  0.00     0.261 C 
BRANCH  23  24
ATOM     24  C   UNL A   1      29.781  26.394  23.836  1.00  0.00     0.058 C 
ATOM     25  C   UNL A   1      29.943  27.907  23.758  1.00  0.00     0.010 C 
ENDBRANCH  23  24
ENDBRANCH  17  23
ENDBRANCH  14  16
ENDBRANCH  12  14
ENDBRANCH   7  12
ENDBRANCH   3   6
ENDBRANCH   1   2
BRANCH   1  26
ATOM     26  C   UNL A   1      31.419  32.084  26.859  1.00  0.00     0.042 C 
BRANCH  26  27
ATOM     27  C   UNL A   1      32.697  32.900  26.906  1.00  0.00     0.118 C 
BRANCH  27  28
ATOM     28  N   UNL A   1      32.531  34.171  27.607  1.00  0.00    -0.352 N 
ATOM     29  C   UNL A   1      33.126  34.662  28.745  1.00  0.00     0.251 C 
ATOM     30  H   UNL A   1      31.879  34.782  27.193  1.00  0.00     0.163 HD
ATOM     31  O   UNL A   1      32.669  35.673  29.270  1.00  0.00    -0.269 OA
BRANCH  29  32
ATOM     32  C   UNL A   1      34.297  33.983  29.343  1.00  0.00     0.039 A 
ATOM     33  C   UNL A   1      35.584  34.354  28.937  1.00  0.00     0.014 A 
ATOM     34  C   UNL A   1      34.136  32.963  30.279  1.00  0.00     0.014 A 
ATOM     35  C   UNL A   1      36.699  33.753  29.526  1.00  0.00     0.010 A 
ATOM     36  C   UNL A   1      35.242  32.449  30.945  1.00  0.00     0.010 A 
ATOM     37  C   UNL A   1      36.539  32.824  30.566  1.00  0.00    -0.014 A 
BRANCH  37  38
ATOM     38  C   UNL A   1      37.700  32.220  31.267  1.00  0.00     0.031 A 
ATOM     39  C   UNL A   1      38.448  31.072  30.636  1.00  0.00     0.074 A 
ATOM     40  C   UNL A   1      38.022  32.636  32.508  1.00  0.00     0.049 A 
ATOM     41  N   UNL A   1      39.425  30.356  31.128  1.00  0.00    -0.248 NA
ATOM     42  C   UNL A   1      38.019  30.652  29.291  1.00  0.00     0.031 C 
ATOM     43  C   UNL A   1      37.324  33.685  33.258  1.00  0.00     0.029 A 
ATOM     44  N   UNL A   1      39.000  32.211  33.372  1.00  0.00    -0.354 N 
ATOM     45  C   UNL A   1      39.700  29.383  30.174  1.00  0.00     0.074 A 
ATOM     46  C   UNL A   1      38.757  29.570  29.094  1.00  0.00     0.031 C 
ATOM     47  C   UNL A   1      37.902  33.828  34.460  1.00  0.00     0.029 A 
ATOM     48  C   UNL A   1      38.985  32.856  34.586  1.00  0.00     0.049 A 
ATOM     49  H   UNL A   1      39.650  31.507  33.143  1.00  0.00     0.167 HD
ATOM     50  C   UNL A   1      40.670  28.438  30.178  1.00  0.00     0.034 A 
ATOM     51  C   UNL A   1      39.749  32.679  35.681  1.00  0.00     0.034 A 
ATOM     52  C   UNL A   1      41.633  28.284  31.234  1.00  0.00     0.049 A 
ATOM     53  C   UNL A   1      40.839  31.642  35.647  1.00  0.00     0.074 A 
ATOM     54  C   UNL A   1      42.706  27.413  31.298  1.00  0.00     0.029 A 
ATOM     55  N   UNL A   1      41.638  29.014  32.412  1.00  0.00    -0.354 N 
ATOM     56  N   UNL A   1      41.177  30.830  34.674  1.00  0.00    -0.248 NA
ATOM     57  C   UNL A   1      41.677  31.519  36.849  1.00  0.00     0.031 C 
ATOM     58  C   UNL A   1      43.343  27.598  32.529  1.00  0.00     0.029 A 
ATOM     59  C   UNL A   1      42.689  28.609  33.215  1.00  0.00     0.049 A 
ATOM     60  H   UNL A   1      40.989  29.717  32.643  1.00  0.00     0.167 HD
ATOM     61  C   UNL A   1      42.289  30.131  35.129  1.00  0.00     0.074 A 
ATOM     62  C   UNL A   1      42.579  30.631  36.457  1.00  0.00     0.031 C 
ATOM     63  C   UNL A   1      42.998  29.156  34.510  1.00  0.00     0.034 A 
BRANCH  50  64
ATOM     64  C   UNL A   1      40.774  27.533  28.977  1.00  0.00     0.023 A 
ATOM     65  C   UNL A   1      39.890  26.442  28.848  1.00  0.00     0.012 A 
ATOM     66  C   UNL A   1      41.704  27.791  27.950  1.00  0.00     0.148 A 
ATOM     67  C   UNL A   1      39.952  25.602  27.737  1.00  0.00     0.002 A 
ATOM     68  C   UNL A   1      41.726  26.979  26.823  1.00  0.00     0.091 A 
ATOM     69  F   UNL A   1      42.550  28.821  28.098  1.00  0.00    -0.205 F 
ATOM     70  C   UNL A   1      40.862  25.877  26.721  1.00  0.00     0.022 A 
BRANCH  68  71
ATOM     71  S   UNL A   1      42.803  27.293  25.419  1.00  0.00     0.127 S 
ATOM     72  O   UNL A   1      42.697  26.037  24.678  1.00  0.00    -0.237 OA
ATOM     73  O   UNL A   1      42.147  28.435  24.781  1.00  0.00    -0.237 OA
ATOM     74  O   UNL A   1      44.118  27.579  25.975  1.00  0.00    -0.744 OA
ENDBRANCH  68  71
ENDBRANCH  50  64
BRANCH  51  75
ATOM     75  C   UNL A   1      39.555  33.543  36.881  1.00  0.00     0.023 A 
ATOM     76  C   UNL A   1      40.075  34.853  36.880  1.00  0.00     0.012 A 
ATOM     77  C   UNL A   1      38.856  33.085  38.014  1.00  0.00     0.148 A 
ATOM     78  C   UNL A   1      39.938  35.674  38.000  1.00  0.00     0.002 A 
ATOM     79  C   UNL A   1      38.674  33.928  39.104  1.00  0.00     0.091 A 
ATOM     80  F   UNL A   1      38.376  31.833  38.000  1.00  0.00    -0.205 F 
ATOM     81  C   UNL A   1      39.232  35.216  39.107  1.00  0.00     0.022 A 
BRANCH  79  82
ATOM     82  S   UNL A   1      37.668  33.471  40.519  1.00  0.00     0.127 S 
ATOM     83  O   UNL A   1      37.652  34.712  41.289  1.00  0.00    -0.237 OA
ATOM     84  O   UNL A   1      36.397  33.120  39.886  1.00  0.00    -0.237 OA
ATOM     85  O   UNL A   1      38.355  32.347  41.144  1.00  0.00    -0.744 OA
ENDBRANCH  79  82
ENDBRANCH  51  75
BRANCH  63  86
ATOM     86  C   UNL A   1      44.192  28.593  35.236  1.00  0.00     0.023 A 
ATOM     87  C   UNL A   1      45.474  29.134  35.014  1.00  0.00     0.012 A 
ATOM     88  C   UNL A   1      44.028  27.573  36.194  1.00  0.00     0.148 A 
ATOM     89  C   UNL A   1      46.579  28.644  35.707  1.00  0.00     0.002 A 
ATOM     90  C   UNL A   1      45.125  27.128  36.921  1.00  0.00     0.091 A 
ATOM     91  F   UNL A   1      42.803  27.060  36.378  1.00  0.00    -0.205 F 
ATOM     92  C   UNL A   1      46.403  27.651  36.668  1.00  0.00     0.022 A 
BRANCH  90  93
ATOM     93  S   UNL A   1      44.978  25.925  38.247  1.00  0.00     0.127 S 
ATOM     94  O   UNL A   1      44.043  26.590  39.151  1.00  0.00    -0.237 OA
ATOM     95  O   UNL A   1      44.430  24.762  37.549  1.00  0.00    -0.237 OA
ATOM     96  O   UNL A   1      46.325  25.736  38.770  1.00  0.00    -0.744 OA
ENDBRANCH  90  93
ENDBRANCH  63  86
ENDBRANCH  37  38
ENDBRANCH  29  32
ENDBRANCH  27  28
ENDBRANCH  26  27
ENDBRANCH   1  26
TORSDOF 18
ENDMDL
MODEL 2
REMARK VINA RESULT:     -11.2      1.529      2.268
REMARK SMILES CCC[N@H+]1CCC[C@H]([C@@H](C)Nc2cccc(C(=O)NCCCNC(=O)c3ccc(-c4c5nc(c(-c6cccc(S(=O)(=O)[O-])c6F)c6ccc([nH]6)c(-c6cccc(S(=O)(=O)[O-])c6F)c6nc(c(-c7cccc(S(=O)(=O)[O-])c7F)c7ccc4[nH]7)C=C6)C=C5)cc3)c2)C1
REMARK SMILES IDX 20 1 19 2 17 3 18 4 16 6 12 7 13 8 89 9 14 10 15 11 11 12
REMARK SMILES IDX 9 14 10 15 8 16 4 17 5 18 90 19 6 21 7 22 3 23 2 24 1 25
REMARK SMILES IDX 21 26 22 27 23 28 24 29 25 31 26 32 27 33 88 34 28 35 87 36
REMARK SMILES IDX 29 37 30 38 31 39 81 40 32 41 86 42 80 43 82 44 33 45 85 46
REMARK SMILES IDX 79 47 78 48 34 50 66 51 46 52 65 53 47 54 50 55 64 56 83 57
REMARK SMILES IDX 48 58 49 59 63 61 84 62 51 63 35 64 36 65 44 66 37 67 39 68
REMARK SMILES IDX 45 69 38 70 40 71 41 72 42 73 43 74 67 75 68 76 76 77 69 78
REMARK SMILES IDX 71 79 77 80 70 81 72 82 73 83 74 84 75 85 52 86 53 87 61 88
REMARK SMILES IDX 54 89 56 90 62 91 55 92 57 93 58 94 59 95 60 96
REMARK H PARENT 19 5 11 13 4 20 23 30 82 49 50 60
REMARK Flexibility Score: inf
ROOT
ATOM      1  C   UNL A   1      31.406  30.707  26.537  1.00  0.00     0.118 C 
ENDROOT
BRANCH   1   2
ATOM      2  N   UNL A   1      32.244  30.286  25.418  1.00  0.00    -0.352 N 
ATOM      3  C   UNL A   1      32.204  29.210  24.553  1.00  0.00     0.251 C 
ATOM      4  O   UNL A   1      33.062  29.147  23.671  1.00  0.00    -0.269 OA
ATOM      5  H   UNL A   1      32.995  30.897  25.243  1.00  0.00     0.163 HD
BRANCH   3   6
ATOM      6  C   UNL A   1      31.230  28.094  24.691  1.00  0.00     0.041 A 
ATOM      7  C   UNL A   1      30.698  25.918  25.633  1.00  0.00     0.035 A 
ATOM      8  C   UNL A   1      29.704  25.771  24.662  1.00  0.00     0.026 A 
ATOM      9  C   UNL A   1      31.302  27.168  25.726  1.00  0.00     0.039 A 
ATOM     10  C   UNL A   1      29.430  26.795  23.747  1.00  0.00     0.003 A 
ATOM     11  C   UNL A   1      30.235  27.933  23.726  1.00  0.00     0.014 A 
BRANCH   7  12
ATOM     12  N   UNL A   1      31.015  24.860  26.465  1.00  0.00    -0.382 N 
ATOM     13  H   UNL A   1      31.347  25.075  27.367  1.00  0.00     0.160 HD
BRANCH  12  14
ATOM     14  C   UNL A   1      30.895  23.442  26.109  1.00  0.00     0.084 C 
ATOM     15  C   UNL A   1      29.823  22.798  26.993  1.00  0.00     0.031 C 
BRANCH  14  16
ATOM     16  C   UNL A   1      32.279  22.748  26.238  1.00  0.00     0.066 C 
ATOM     17  N   UNL A   1      33.180  23.712  24.125  1.00  0.00    -0.335 N 
ATOM     18  C   UNL A   1      33.244  22.384  23.489  1.00  0.00     0.262 C 
ATOM     19  C   UNL A   1      33.394  23.580  25.572  1.00  0.00     0.267 C 
ATOM     20  H   UNL A   1      32.252  24.114  23.996  1.00  0.00     0.348 HD
ATOM     21  C   UNL A   1      32.233  21.399  24.086  1.00  0.00     0.062 C 
ATOM     22  C   UNL A   1      32.307  21.342  25.614  1.00  0.00     0.017 C 
BRANCH  17  23
ATOM     23  C   UNL A   1      34.120  24.642  23.480  1.00  0.00     0.261 C 
BRANCH  23  24
ATOM     24  C   UNL A   1      33.518  25.855  22.742  1.00  0.00     0.058 C 
ATOM     25  C   UNL A   1      32.390  25.548  21.765  1.00  0.00     0.010 C 
ENDBRANCH  23  24
ENDBRANCH  17  23
ENDBRANCH  14  16
ENDBRANCH  12  14
ENDBRANCH   7  12
ENDBRANCH   3   6
ENDBRANCH   1   2
BRANCH   1  26
ATOM     26  C   UNL A   1      31.295  32.210  26.722  1.00  0.00     0.042 C 
BRANCH  26  27
ATOM     27  C   UNL A   1      32.628  32.925  26.841  1.00  0.00     0.118 C 
BRANCH  27  28
ATOM     28  N   UNL A   1      32.531  34.184  27.575  1.00  0.00    -0.352 N 
ATOM     29  C   UNL A   1      33.196  34.635  28.691  1.00  0.00     0.251 C 
ATOM     30  H   UNL A   1      31.876  34.820  27.207  1.00  0.00     0.163 HD
ATOM     31  O   UNL A   1      32.793  35.646  29.259  1.00  0.00    -0.269 OA
BRANCH  29  32
ATOM     32  C   UNL A   1      34.378  33.914  29.214  1.00  0.00     0.039 A 
ATOM     33  C   UNL A   1      35.659  34.381  28.900  1.00  0.00     0.014 A 
ATOM     34  C   UNL A   1      34.233  32.763  29.987  1.00  0.00     0.014 A 
ATOM     35  C   UNL A   1      36.782  33.736  29.424  1.00  0.00     0.010 A 
ATOM     36  C   UNL A   1      35.342  32.193  30.601  1.00  0.00     0.010 A 
ATOM     37  C   UNL A   1      36.632  32.661  30.314  1.00  0.00    -0.014 A 
BRANCH  37  38
ATOM     38  C   UNL A   1      37.800  31.998  30.950  1.00  0.00     0.031 A 
ATOM     39  C   UNL A   1      38.557  30.928  30.205  1.00  0.00     0.074 A 
ATOM     40  C   UNL A   1      38.117  32.287  32.227  1.00  0.00     0.049 A 
ATOM     41  N   UNL A   1      39.541  30.174  30.620  1.00  0.00    -0.248 NA
ATOM     42  C   UNL A   1      38.132  30.646  28.823  1.00  0.00     0.031 C 
ATOM     43  C   UNL A   1      37.411  33.247  33.081  1.00  0.00     0.029 A 
ATOM     44  N   UNL A   1      39.100  31.784  33.043  1.00  0.00    -0.354 N 
ATOM     45  C   UNL A   1      39.825  29.307  29.572  1.00  0.00     0.074 A 
ATOM     46  C   UNL A   1      38.880  29.596  28.517  1.00  0.00     0.031 C 
ATOM     47  C   UNL A   1      37.988  33.270  34.292  1.00  0.00     0.029 A 
ATOM     48  C   UNL A   1      39.079  32.301  34.318  1.00  0.00     0.049 A 
ATOM     49  H   UNL A   1      39.756  31.114  32.744  1.00  0.00     0.167 HD
ATOM     50  C   UNL A   1      40.803  28.376  29.479  1.00  0.00     0.034 A 
ATOM     51  C   UNL A   1      39.846  32.019  35.389  1.00  0.00     0.034 A 
ATOM     52  C   UNL A   1      41.768  28.122  30.514  1.00  0.00     0.049 A 
ATOM     53  C   UNL A   1      40.944  31.000  35.249  1.00  0.00     0.074 A 
ATOM     54  C   UNL A   1      42.849  27.259  30.490  1.00  0.00     0.029 A 
ATOM     55  N   UNL A   1      41.767  28.727  31.761  1.00  0.00    -0.354 N 
ATOM     56  N   UNL A   1      41.289  30.296  34.199  1.00  0.00    -0.248 NA
ATOM     57  C   UNL A   1      41.783  30.762  36.433  1.00  0.00     0.031 C 
ATOM     58  C   UNL A   1      43.485  27.322  31.733  1.00  0.00     0.029 A 
ATOM     59  C   UNL A   1      42.821  28.251  32.519  1.00  0.00     0.049 A 
ATOM     60  H   UNL A   1      41.111  29.397  32.063  1.00  0.00     0.167 HD
ATOM     61  C   UNL A   1      42.408  29.564  34.580  1.00  0.00     0.074 A 
ATOM     62  C   UNL A   1      42.694  29.927  35.952  1.00  0.00     0.031 C 
ATOM     63  C   UNL A   1      43.126  28.664  33.864  1.00  0.00     0.034 A 
BRANCH  50  64
ATOM     64  C   UNL A   1      40.915  27.600  28.191  1.00  0.00     0.023 A 
ATOM     65  C   UNL A   1      41.580  28.174  27.087  1.00  0.00     0.012 A 
ATOM     66  C   UNL A   1      40.417  26.286  28.088  1.00  0.00     0.148 A 
ATOM     67  C   UNL A   1      41.715  27.470  25.892  1.00  0.00     0.002 A 
ATOM     68  C   UNL A   1      40.599  25.572  26.910  1.00  0.00     0.091 A 
ATOM     69  F   UNL A   1      39.772  25.763  29.141  1.00  0.00    -0.205 F 
ATOM     70  C   UNL A   1      41.234  26.166  25.808  1.00  0.00     0.022 A 
BRANCH  68  71
ATOM     71  S   UNL A   1      40.092  23.858  26.724  1.00  0.00     0.127 S 
ATOM     72  O   UNL A   1      41.115  23.345  25.814  1.00  0.00    -0.237 OA
ATOM     73  O   UNL A   1      40.190  23.360  28.095  1.00  0.00    -0.237 OA
ATOM     74  O   UNL A   1      38.740  23.894  26.184  1.00  0.00    -0.744 OA
ENDBRANCH  68  71
ENDBRANCH  50  64
BRANCH  51  75
ATOM     75  C   UNL A   1      39.644  32.753  36.671  1.00  0.00     0.023 A 
ATOM     76  C   UNL A   1      40.407  33.908  36.934  1.00  0.00     0.012 A 
ATOM     77  C   UNL A   1      38.701  32.324  37.626  1.00  0.00     0.148 A 
ATOM     78  C   UNL A   1      40.265  34.597  38.139  1.00  0.00     0.002 A 
ATOM     79  C   UNL A   1      38.524  33.049  38.799  1.00  0.00     0.091 A 
ATOM     80  F   UNL A   1      37.989  31.219  37.363  1.00  0.00    -0.205 F 
ATOM     81  C   UNL A   1      39.319  34.174  39.066  1.00  0.00     0.022 A 
BRANCH  79  82
ATOM     82  S   UNL A   1      37.240  32.655  39.991  1.00  0.00     0.127 S 
ATOM     83  O   UNL A   1      37.360  33.761  40.938  1.00  0.00    -0.237 OA
ATOM     84  O   UNL A   1      36.036  32.682  39.159  1.00  0.00    -0.237 OA
ATOM     85  O   UNL A   1      37.577  31.336  40.511  1.00  0.00    -0.744 OA
ENDBRANCH  79  82
ENDBRANCH  51  75
BRANCH  63  86
ATOM     86  C   UNL A   1      44.325  28.041  34.529  1.00  0.00     0.023 A 
ATOM     87  C   UNL A   1      45.573  28.694  34.493  1.00  0.00     0.012 A 
ATOM     88  C   UNL A   1      44.194  26.838  35.251  1.00  0.00     0.148 A 
ATOM     89  C   UNL A   1      46.680  28.142  35.135  1.00  0.00     0.002 A 
ATOM     90  C   UNL A   1      45.288  26.323  35.935  1.00  0.00     0.091 A 
ATOM     91  F   UNL A   1      43.002  26.223  35.259  1.00  0.00    -0.205 F 
ATOM     92  C   UNL A   1      46.535  26.965  35.866  1.00  0.00     0.022 A 
BRANCH  90  93
ATOM     93  S   UNL A   1      45.172  24.868  36.982  1.00  0.00     0.127 S 
ATOM     94  O   UNL A   1      44.084  25.236  37.886  1.00  0.00    -0.237 OA
ATOM     95  O   UNL A   1      44.836  23.820  36.018  1.00  0.00    -0.237 OA
ATOM     96  O   UNL A   1      46.479  24.717  37.608  1.00  0.00    -0.744 OA
ENDBRANCH  90  93
ENDBRANCH  63  86
ENDBRANCH  37  38
ENDBRANCH  29  32
ENDBRANCH  27  28
ENDBRANCH  26  27
ENDBRANCH   1  26
TORSDOF 18
ENDMDL
MODEL 3
REMARK VINA RESULT:     -11.2      1.151      2.365
REMARK SMILES CCC[N@H+]1CCC[C@H]([C@@H](C)Nc2cccc(C(=O)NCCCNC(=O)c3ccc(-c4c5nc(c(-c6cccc(S(=O)(=O)[O-])c6F)c6ccc([nH]6)c(-c6cccc(S(=O)(=O)[O-])c6F)c6nc(c(-c7cccc(S(=O)(=O)[O-])c7F)c7ccc4[nH]7)C=C6)C=C5)cc3)c2)C1
REMARK SMILES IDX 20 1 19 2 17 3 18 4 16 6 12 7 13 8 89 9 14 10 15 11 11 12
REMARK SMILES IDX 9 14 10 15 8 16 4 17 5 18 90 19 6 21 7 22 3 23 2 24 1 25
REMARK SMILES IDX 21 26 22 27 23 28 24 29 25 31 26 32 27 33 88 34 28 35 87 36
REMARK SMILES IDX 29 37 30 38 31 39 81 40 32 41 86 42 80 43 82 44 33 45 85 46
REMARK SMILES IDX 79 47 78 48 34 50 66 51 46 52 65 53 47 54 50 55 64 56 83 57
REMARK SMILES IDX 48 58 49 59 63 61 84 62 51 63 35 64 36 65 44 66 37 67 39 68
REMARK SMILES IDX 45 69 38 70 40 71 41 72 42 73 43 74 67 75 68 76 76 77 69 78
REMARK SMILES IDX 71 79 77 80 70 81 72 82 73 83 74 84 75 85 52 86 53 87 61 88
REMARK SMILES IDX 54 89 56 90 62 91 55 92 57 93 58 94 59 95 60 96
REMARK H PARENT 19 5 11 13 4 20 23 30 82 49 50 60
REMARK Flexibility Score: inf
ROOT
ATOM      1  C   UNL A   1      31.630  30.717  25.944  1.00  0.00     0.118 C 
ENDROOT
BRANCH   1   2
ATOM      2  N   UNL A   1      30.746  30.438  24.816  1.00  0.00    -0.352 N 
ATOM      3  C   UNL A   1      30.666  29.404  23.904  1.00  0.00     0.251 C 
ATOM      4  O   UNL A   1      29.766  29.444  23.063  1.00  0.00    -0.269 OA
ATOM      5  H   UNL A   1      30.062  31.132  24.676  1.00  0.00     0.163 HD
BRANCH   3   6
ATOM      6  C   UNL A   1      31.660  28.298  23.843  1.00  0.00     0.041 A 
ATOM      7  C   UNL A   1      32.648  26.345  24.899  1.00  0.00     0.035 A 
ATOM      8  C   UNL A   1      33.753  26.483  24.054  1.00  0.00     0.026 A 
ATOM      9  C   UNL A   1      31.549  27.155  24.627  1.00  0.00     0.039 A 
ATOM     10  C   UNL A   1      33.794  27.480  23.073  1.00  0.00     0.003 A 
ATOM     11  C   UNL A   1      32.771  28.425  23.007  1.00  0.00     0.014 A 
BRANCH   7  12
ATOM     12  N   UNL A   1      32.668  25.415  25.921  1.00  0.00    -0.382 N 
ATOM     13  H   UNL A   1      33.024  25.704  26.792  1.00  0.00     0.160 HD
BRANCH  12  14
ATOM     14  C   UNL A   1      32.199  24.030  25.809  1.00  0.00     0.084 C 
ATOM     15  C   UNL A   1      30.747  23.957  26.289  1.00  0.00     0.031 C 
BRANCH  14  16
ATOM     16  C   UNL A   1      33.144  23.088  26.605  1.00  0.00     0.066 C 
ATOM     17  N   UNL A   1      35.002  23.229  24.951  1.00  0.00    -0.335 N 
ATOM     18  C   UNL A   1      34.861  21.805  24.599  1.00  0.00     0.262 C 
ATOM     19  C   UNL A   1      34.627  23.431  26.356  1.00  0.00     0.267 C 
ATOM     20  H   UNL A   1      34.363  23.790  24.387  1.00  0.00     0.348 HD
ATOM     21  C   UNL A   1      33.445  21.275  24.850  1.00  0.00     0.062 C 
ATOM     22  C   UNL A   1      32.944  21.602  26.259  1.00  0.00     0.017 C 
BRANCH  17  23
ATOM     23  C   UNL A   1      36.355  23.711  24.633  1.00  0.00     0.261 C 
BRANCH  23  24
ATOM     24  C   UNL A   1      37.393  23.699  25.773  1.00  0.00     0.058 C 
ATOM     25  C   UNL A   1      38.165  22.399  25.960  1.00  0.00     0.010 C 
ENDBRANCH  23  24
ENDBRANCH  17  23
ENDBRANCH  14  16
ENDBRANCH  12  14
ENDBRANCH   7  12
ENDBRANCH   3   6
ENDBRANCH   1   2
BRANCH   1  26
ATOM     26  C   UNL A   1      31.407  32.062  26.613  1.00  0.00     0.042 C 
BRANCH  26  27
ATOM     27  C   UNL A   1      32.639  32.634  27.290  1.00  0.00     0.118 C 
BRANCH  27  28
ATOM     28  N   UNL A   1      32.491  34.048  27.630  1.00  0.00    -0.352 N 
ATOM     29  C   UNL A   1      33.085  34.809  28.609  1.00  0.00     0.251 C 
ATOM     30  H   UNL A   1      31.856  34.539  27.061  1.00  0.00     0.163 HD
ATOM     31  O   UNL A   1      32.643  35.931  28.845  1.00  0.00    -0.269 OA
BRANCH  29  32
ATOM     32  C   UNL A   1      34.235  34.291  29.382  1.00  0.00     0.039 A 
ATOM     33  C   UNL A   1      34.000  33.566  30.556  1.00  0.00     0.014 A 
ATOM     34  C   UNL A   1      35.545  34.540  28.975  1.00  0.00     0.014 A 
ATOM     35  C   UNL A   1      35.076  33.033  31.270  1.00  0.00     0.010 A 
ATOM     36  C   UNL A   1      36.605  33.914  29.620  1.00  0.00     0.010 A 
ATOM     37  C   UNL A   1      36.387  33.167  30.786  1.00  0.00    -0.014 A 
BRANCH  37  38
ATOM     38  C   UNL A   1      37.548  32.551  31.478  1.00  0.00     0.031 A 
ATOM     39  C   UNL A   1      38.281  31.399  30.839  1.00  0.00     0.074 A 
ATOM     40  C   UNL A   1      37.882  32.962  32.717  1.00  0.00     0.049 A 
ATOM     41  N   UNL A   1      39.256  30.672  31.322  1.00  0.00    -0.248 NA
ATOM     42  C   UNL A   1      37.839  30.986  29.495  1.00  0.00     0.031 C 
ATOM     43  C   UNL A   1      37.199  34.015  33.474  1.00  0.00     0.029 A 
ATOM     44  N   UNL A   1      38.862  32.526  33.573  1.00  0.00    -0.354 N 
ATOM     45  C   UNL A   1      39.515  29.699  30.363  1.00  0.00     0.074 A 
ATOM     46  C   UNL A   1      38.566  29.897  29.291  1.00  0.00     0.031 C 
ATOM     47  C   UNL A   1      37.787  34.149  34.673  1.00  0.00     0.029 A 
ATOM     48  C   UNL A   1      38.861  33.168  34.789  1.00  0.00     0.049 A 
ATOM     49  H   UNL A   1      39.505  31.817  33.338  1.00  0.00     0.167 HD
ATOM     50  C   UNL A   1      40.477  28.747  30.359  1.00  0.00     0.034 A 
ATOM     51  C   UNL A   1      39.632  32.982  35.878  1.00  0.00     0.034 A 
ATOM     52  C   UNL A   1      41.446  28.581  31.407  1.00  0.00     0.049 A 
ATOM     53  C   UNL A   1      40.712  31.935  35.834  1.00  0.00     0.074 A 
ATOM     54  C   UNL A   1      42.512  27.701  31.462  1.00  0.00     0.029 A 
ATOM     55  N   UNL A   1      41.466  29.309  32.587  1.00  0.00    -0.354 N 
ATOM     56  N   UNL A   1      41.036  31.123  34.857  1.00  0.00    -0.248 NA
ATOM     57  C   UNL A   1      41.557  31.802  37.030  1.00  0.00     0.031 C 
ATOM     58  C   UNL A   1      43.160  27.877  32.689  1.00  0.00     0.029 A 
ATOM     59  C   UNL A   1      42.519  28.893  33.382  1.00  0.00     0.049 A 
ATOM     60  H   UNL A   1      40.824  30.017  32.824  1.00  0.00     0.167 HD
ATOM     61  C   UNL A   1      42.146  30.413  35.302  1.00  0.00     0.074 A 
ATOM     62  C   UNL A   1      42.450  30.907  36.630  1.00  0.00     0.031 C 
ATOM     63  C   UNL A   1      42.842  29.433  34.676  1.00  0.00     0.034 A 
BRANCH  50  64
ATOM     64  C   UNL A   1      40.565  27.844  29.155  1.00  0.00     0.023 A 
ATOM     65  C   UNL A   1      39.674  26.757  29.032  1.00  0.00     0.012 A 
ATOM     66  C   UNL A   1      41.487  28.099  28.120  1.00  0.00     0.148 A 
ATOM     67  C   UNL A   1      39.721  25.920  27.919  1.00  0.00     0.002 A 
ATOM     68  C   UNL A   1      41.494  27.289  26.990  1.00  0.00     0.091 A 
ATOM     69  F   UNL A   1      42.340  29.124  28.262  1.00  0.00    -0.205 F 
ATOM     70  C   UNL A   1      40.623  26.192  26.894  1.00  0.00     0.022 A 
BRANCH  68  71
ATOM     71  S   UNL A   1      42.559  27.601  25.577  1.00  0.00     0.127 S 
ATOM     72  O   UNL A   1      42.000  28.847  25.056  1.00  0.00    -0.237 OA
ATOM     73  O   UNL A   1      43.872  27.737  26.209  1.00  0.00    -0.237 OA
ATOM     74  O   UNL A   1      42.421  26.443  24.704  1.00  0.00    -0.744 OA
ENDBRANCH  68  71
ENDBRANCH  50  64
BRANCH  51  75
ATOM     75  C   UNL A   1      39.454  33.844  37.081  1.00  0.00     0.023 A 
ATOM     76  C   UNL A   1      39.914  35.176  37.051  1.00  0.00     0.012 A 
ATOM     77  C   UNL A   1      38.828  33.363  38.248  1.00  0.00     0.148 A 
ATOM     78  C   UNL A   1      39.792  35.998  38.172  1.00  0.00     0.002 A 
ATOM     79  C   UNL A   1      38.657  34.205  39.340  1.00  0.00     0.091 A 
ATOM     80  F   UNL A   1      38.404  32.092  38.261  1.00  0.00    -0.205 F 
ATOM     81  C   UNL A   1      39.157  35.516  39.312  1.00  0.00     0.022 A 
BRANCH  79  82
ATOM     82  S   UNL A   1      37.737  33.713  40.802  1.00  0.00     0.127 S 
ATOM     83  O   UNL A   1      38.673  32.801  41.453  1.00  0.00    -0.237 OA
ATOM     84  O   UNL A   1      37.547  34.993  41.484  1.00  0.00    -0.237 OA
ATOM     85  O   UNL A   1      36.506  33.110  40.307  1.00  0.00    -0.744 OA
ENDBRANCH  79  82
ENDBRANCH  51  75
BRANCH  63  86
ATOM     86  C   UNL A   1      44.036  28.858  35.392  1.00  0.00     0.023 A 
ATOM     87  C   UNL A   1      45.314  29.418  35.197  1.00  0.00     0.012 A 
ATOM     88  C   UNL A   1      43.875  27.806  36.315  1.00  0.00     0.148 A 
ATOM     89  C   UNL A   1      46.419  28.916  35.882  1.00  0.00     0.002 A 
ATOM     90  C   UNL A   1      44.970  27.348  37.036  1.00  0.00     0.091 A 
ATOM     91  F   UNL A   1      42.653  27.276  36.474  1.00  0.00    -0.205 F 
ATOM     92  C   UNL A   1      46.246  27.891  36.810  1.00  0.00     0.022 A 
BRANCH  90  93
ATOM     93  S   UNL A   1      44.826  26.102  38.321  1.00  0.00     0.127 S 
ATOM     94  O   UNL A   1      44.317  24.956  37.570  1.00  0.00    -0.237 OA
ATOM     95  O   UNL A   1      46.211  25.967  38.777  1.00  0.00    -0.237 OA
ATOM     96  O   UNL A   1      43.914  26.651  39.315  1.00  0.00    -0.744 OA
ENDBRANCH  90  93
ENDBRANCH  63  86
ENDBRANCH  37  38
ENDBRANCH  29  32
ENDBRANCH  27  28
ENDBRANCH  26  27
ENDBRANCH   1  26
TORSDOF 18
ENDMDL
