MODEL 1
REMARK VINA RESULT:     -13.1      0.000      0.000
REMARK SMILES Cc1cc(C)c2c(c1)C=C(C(=O)NCCCNC(=O)c1ccc(-c3c4nc(c(-c5cccc(S(=O)(=O)[O-])c5F)c5ccc([nH]5)c(-c5cccc(S(=O)(=O)[O-])c5F)c5nc(c(-c6cccc(S(=O)(=O)[O-])c6F)c6ccc3[nH]6)C=C5)C=C4)cc1)[C@@H](C(F)(F)F)O2
REMARK SMILES IDX 16 1 15 2 14 3 13 4 11 5 12 6 10 8 1 9 2 10 3 11 8 12 4 13
REMARK SMILES IDX 7 14 5 15 6 16 9 17 88 18 83 19 84 20 85 21 86 22 87 23
REMARK SMILES IDX 17 24 18 25 19 27 20 28 21 29 82 30 22 31 81 32 23 33 24 34
REMARK SMILES IDX 25 35 75 36 26 37 80 38 74 39 76 40 27 41 79 42 73 43 72 44
REMARK SMILES IDX 28 46 60 47 40 48 59 49 41 50 44 51 58 52 77 53 42 54 43 55
REMARK SMILES IDX 57 57 78 58 45 59 29 60 30 61 38 62 31 63 33 64 39 65 32 66
REMARK SMILES IDX 34 67 35 68 36 69 37 70 61 71 62 72 70 73 63 74 65 75 71 76
REMARK SMILES IDX 64 77 66 78 67 79 68 80 69 81 46 82 47 83 55 84 48 85 50 86
REMARK SMILES IDX 56 87 49 88 51 89 52 90 53 91 54 92
REMARK H PARENT 13 7 17 26 76 45 44 56
REMARK Flexibility Score: inf
ROOT
ATOM      1  C   UNL A   1      33.323  28.821  24.959  1.00  0.00     0.118 C 
ENDROOT
BRANCH   1   2
ATOM      2  C   UNL A   1      33.334  28.749  23.438  1.00  0.00     0.042 C 
BRANCH   2   3
ATOM      3  C   UNL A   1      32.112  28.028  22.893  1.00  0.00     0.118 C 
BRANCH   3   4
ATOM      4  N   UNL A   1      32.456  27.089  21.835  1.00  0.00    -0.352 N 
ATOM      5  C   UNL A   1      32.904  25.815  21.746  1.00  0.00     0.251 C 
ATOM      6  O   UNL A   1      33.050  25.387  20.596  1.00  0.00    -0.270 OA
ATOM      7  H   UNL A   1      32.330  27.489  20.944  1.00  0.00     0.163 HD
BRANCH   5   8
ATOM      8  C   UNL A   1      33.209  24.932  22.908  1.00  0.00     0.067 C 
ATOM      9  C   UNL A   1      37.457  20.912  24.906  1.00  0.00     0.044 C 
ATOM     10  C   UNL A   1      36.237  21.779  24.989  1.00  0.00    -0.050 A 
ATOM     11  C   UNL A   1      35.428  21.767  26.133  1.00  0.00     0.010 A 
ATOM     12  C   UNL A   1      35.890  22.604  23.909  1.00  0.00     0.015 A 
ATOM     13  C   UNL A   1      34.290  22.579  26.216  1.00  0.00    -0.008 A 
ATOM     14  C   UNL A   1      34.755  23.416  23.975  1.00  0.00     0.018 A 
ATOM     15  C   UNL A   1      33.432  22.578  27.449  1.00  0.00     0.048 C 
ATOM     16  C   UNL A   1      33.965  23.396  25.126  1.00  0.00     0.130 A 
ATOM     17  C   UNL A   1      34.403  24.312  22.880  1.00  0.00     0.025 C 
ATOM     18  O   UNL A   1      32.872  24.203  25.267  1.00  0.00    -0.475 OA
ATOM     19  C   UNL A   1      32.261  24.689  24.047  1.00  0.00     0.314 C 
BRANCH  19  20
ATOM     20  C   UNL A   1      31.099  23.755  23.659  1.00  0.00     0.429 C 
ATOM     21  F   UNL A   1      30.626  23.104  24.751  1.00  0.00    -0.167 F 
ATOM     22  F   UNL A   1      30.045  24.421  23.127  1.00  0.00    -0.167 F 
ATOM     23  F   UNL A   1      31.459  22.817  22.754  1.00  0.00    -0.167 F 
ENDBRANCH  19  20
ENDBRANCH   5   8
ENDBRANCH   3   4
ENDBRANCH   2   3
ENDBRANCH   1   2
BRANCH   1  24
ATOM     24  N   UNL A   1      32.752  30.079  25.437  1.00  0.00    -0.352 N 
ATOM     25  C   UNL A   1      33.043  30.808  26.563  1.00  0.00     0.251 C 
ATOM     26  H   UNL A   1      32.051  30.462  24.862  1.00  0.00     0.163 HD
ATOM     27  O   UNL A   1      32.261  31.679  26.945  1.00  0.00    -0.269 OA
BRANCH  25  28
ATOM     28  C   UNL A   1      34.289  30.547  27.306  1.00  0.00     0.039 A 
ATOM     29  C   UNL A   1      35.142  31.607  27.620  1.00  0.00     0.014 A 
ATOM     30  C   UNL A   1      34.622  29.242  27.673  1.00  0.00     0.014 A 
ATOM     31  C   UNL A   1      36.300  31.360  28.359  1.00  0.00     0.010 A 
ATOM     32  C   UNL A   1      35.711  29.014  28.500  1.00  0.00     0.010 A 
ATOM     33  C   UNL A   1      36.576  30.064  28.829  1.00  0.00    -0.014 A 
BRANCH  33  34
ATOM     34  C   UNL A   1      37.781  29.772  29.640  1.00  0.00     0.031 A 
ATOM     35  C   UNL A   1      38.842  28.856  29.097  1.00  0.00     0.074 A 
ATOM     36  C   UNL A   1      37.883  30.276  30.885  1.00  0.00     0.049 A 
ATOM     37  N   UNL A   1      39.948  28.449  29.663  1.00  0.00    -0.248 NA
ATOM     38  C   UNL A   1      38.617  28.294  27.753  1.00  0.00     0.031 C 
ATOM     39  C   UNL A   1      36.882  31.120  31.539  1.00  0.00     0.029 A 
ATOM     40  N   UNL A   1      38.874  30.145  31.824  1.00  0.00    -0.354 N 
ATOM     41  C   UNL A   1      40.538  27.578  28.755  1.00  0.00     0.074 A 
ATOM     42  C   UNL A   1      39.634  27.454  27.636  1.00  0.00     0.031 C 
ATOM     43  C   UNL A   1      37.328  31.467  32.757  1.00  0.00     0.029 A 
ATOM     44  C   UNL A   1      38.629  30.844  32.983  1.00  0.00     0.049 A 
ATOM     45  H   UNL A   1      39.684  29.604  31.682  1.00  0.00     0.167 HD
ATOM     46  C   UNL A   1      41.749  26.978  28.820  1.00  0.00     0.034 A 
ATOM     47  C   UNL A   1      39.378  30.978  34.095  1.00  0.00     0.034 A 
ATOM     48  C   UNL A   1      42.658  27.140  29.921  1.00  0.00     0.049 A 
ATOM     49  C   UNL A   1      40.719  30.297  34.151  1.00  0.00     0.074 A 
ATOM     50  C   UNL A   1      43.930  26.622  30.067  1.00  0.00     0.029 A 
ATOM     51  N   UNL A   1      42.389  27.879  31.063  1.00  0.00    -0.354 N 
ATOM     52  N   UNL A   1      41.319  29.581  33.230  1.00  0.00    -0.248 NA
ATOM     53  C   UNL A   1      41.498  30.462  35.386  1.00  0.00     0.031 C 
ATOM     54  C   UNL A   1      44.424  27.033  31.309  1.00  0.00     0.029 A 
ATOM     55  C   UNL A   1      43.468  27.826  31.926  1.00  0.00     0.049 A 
ATOM     56  H   UNL A   1      41.553  28.370  31.234  1.00  0.00     0.167 HD
ATOM     57  C   UNL A   1      42.555  29.231  33.761  1.00  0.00     0.074 A 
ATOM     58  C   UNL A   1      42.626  29.834  35.078  1.00  0.00     0.031 C 
ATOM     59  C   UNL A   1      43.535  28.468  33.216  1.00  0.00     0.034 A 
BRANCH  46  60
ATOM     60  C   UNL A   1      42.184  26.163  27.629  1.00  0.00     0.023 A 
ATOM     61  C   UNL A   1      42.936  26.786  26.609  1.00  0.00     0.012 A 
ATOM     62  C   UNL A   1      41.885  24.792  27.524  1.00  0.00     0.148 A 
ATOM     63  C   UNL A   1      43.343  26.071  25.484  1.00  0.00     0.002 A 
ATOM     64  C   UNL A   1      42.338  24.073  26.422  1.00  0.00     0.091 A 
ATOM     65  F   UNL A   1      41.151  24.220  28.488  1.00  0.00    -0.205 F 
ATOM     66  C   UNL A   1      43.053  24.714  25.396  1.00  0.00     0.022 A 
BRANCH  64  67
ATOM     67  S   UNL A   1      42.089  22.302  26.249  1.00  0.00     0.127 S 
ATOM     68  O   UNL A   1      40.635  22.219  26.127  1.00  0.00    -0.237 OA
ATOM     69  O   UNL A   1      42.823  22.007  25.018  1.00  0.00    -0.237 OA
ATOM     70  O   UNL A   1      42.652  21.700  27.450  1.00  0.00    -0.744 OA
ENDBRANCH  64  67
ENDBRANCH  46  60
BRANCH  47  71
ATOM     71  C   UNL A   1      38.920  31.889  35.182  1.00  0.00     0.023 A 
ATOM     72  C   UNL A   1      38.938  33.279  34.955  1.00  0.00     0.012 A 
ATOM     73  C   UNL A   1      38.390  31.399  36.392  1.00  0.00     0.148 A 
ATOM     74  C   UNL A   1      38.448  34.165  35.914  1.00  0.00     0.002 A 
ATOM     75  C   UNL A   1      37.855  32.283  37.321  1.00  0.00     0.091 A 
ATOM     76  F   UNL A   1      38.384  30.073  36.589  1.00  0.00    -0.205 F 
ATOM     77  C   UNL A   1      37.896  33.668  37.091  1.00  0.00     0.022 A 
BRANCH  75  78
ATOM     78  S   UNL A   1      36.999  31.737  38.805  1.00  0.00     0.127 S 
ATOM     79  O   UNL A   1      36.733  30.334  38.499  1.00  0.00    -0.237 OA
ATOM     80  O   UNL A   1      38.015  31.963  39.834  1.00  0.00    -0.237 OA
ATOM     81  O   UNL A   1      35.823  32.588  38.919  1.00  0.00    -0.744 OA
ENDBRANCH  75  78
ENDBRANCH  47  71
BRANCH  59  82
ATOM     82  C   UNL A   1      44.778  28.226  34.032  1.00  0.00     0.023 A 
ATOM     83  C   UNL A   1      45.830  29.161  33.980  1.00  0.00     0.012 A 
ATOM     84  C   UNL A   1      44.845  27.154  34.945  1.00  0.00     0.148 A 
ATOM     85  C   UNL A   1      46.938  29.026  34.815  1.00  0.00     0.002 A 
ATOM     86  C   UNL A   1      45.929  27.056  35.810  1.00  0.00     0.091 A 
ATOM     87  F   UNL A   1      43.838  26.270  34.967  1.00  0.00    -0.205 F 
ATOM     88  C   UNL A   1      46.980  27.985  35.740  1.00  0.00     0.022 A 
BRANCH  86  89
ATOM     89  S   UNL A   1      46.023  25.817  37.108  1.00  0.00     0.127 S 
ATOM     90  O   UNL A   1      44.828  26.118  37.894  1.00  0.00    -0.237 OA
ATOM     91  O   UNL A   1      45.956  24.569  36.348  1.00  0.00    -0.237 OA
ATOM     92  O   UNL A   1      47.289  26.045  37.793  1.00  0.00    -0.744 OA
ENDBRANCH  86  89
ENDBRANCH  59  82
ENDBRANCH  33  34
ENDBRANCH  25  28
ENDBRANCH   1  24
TORSDOF 14
ENDMDL
MODEL 2
REMARK VINA RESULT:     -13.0      5.182     10.066
REMARK SMILES Cc1cc(C)c2c(c1)C=C(C(=O)NCCCNC(=O)c1ccc(-c3c4nc(c(-c5cccc(S(=O)(=O)[O-])c5F)c5ccc([nH]5)c(-c5cccc(S(=O)(=O)[O-])c5F)c5nc(c(-c6cccc(S(=O)(=O)[O-])c6F)c6ccc3[nH]6)C=C5)C=C4)cc1)[C@@H](C(F)(F)F)O2
REMARK SMILES IDX 16 1 15 2 14 3 13 4 11 5 12 6 10 8 1 9 2 10 3 11 8 12 4 13
REMARK SMILES IDX 7 14 5 15 6 16 9 17 88 18 83 19 84 20 85 21 86 22 87 23
REMARK SMILES IDX 17 24 18 25 19 27 20 28 21 29 82 30 22 31 81 32 23 33 24 34
REMARK SMILES IDX 25 35 75 36 26 37 80 38 74 39 76 40 27 41 79 42 73 43 72 44
REMARK SMILES IDX 28 46 60 47 40 48 59 49 41 50 44 51 58 52 77 53 42 54 43 55
REMARK SMILES IDX 57 57 78 58 45 59 29 60 30 61 38 62 31 63 33 64 39 65 32 66
REMARK SMILES IDX 34 67 35 68 36 69 37 70 61 71 62 72 70 73 63 74 65 75 71 76
REMARK SMILES IDX 64 77 66 78 67 79 68 80 69 81 46 82 47 83 55 84 48 85 50 86
REMARK SMILES IDX 56 87 49 88 51 89 52 90 53 91 54 92
REMARK H PARENT 13 7 17 26 76 45 44 56
REMARK Flexibility Score: inf
ROOT
ATOM      1  C   UNL A   1      35.767  22.394  25.798  1.00  0.00     0.118 C 
ENDROOT
BRANCH   1   2
ATOM      2  C   UNL A   1      34.601  22.116  26.738  1.00  0.00     0.042 C 
BRANCH   2   3
ATOM      3  C   UNL A   1      33.345  21.713  25.983  1.00  0.00     0.118 C 
BRANCH   3   4
ATOM      4  N   UNL A   1      32.138  22.227  26.614  1.00  0.00    -0.352 N 
ATOM      5  C   UNL A   1      31.453  23.394  26.641  1.00  0.00     0.251 C 
ATOM      6  O   UNL A   1      30.423  23.384  27.323  1.00  0.00    -0.270 OA
ATOM      7  H   UNL A   1      31.702  21.541  27.171  1.00  0.00     0.163 HD
BRANCH   5   8
ATOM      8  C   UNL A   1      31.848  24.636  25.916  1.00  0.00     0.067 C 
ATOM      9  C   UNL A   1      31.951  30.777  26.603  1.00  0.00     0.044 C 
ATOM     10  C   UNL A   1      32.231  29.462  25.941  1.00  0.00    -0.050 A 
ATOM     11  C   UNL A   1      32.861  29.411  24.690  1.00  0.00     0.010 A 
ATOM     12  C   UNL A   1      31.849  28.266  26.568  1.00  0.00     0.015 A 
ATOM     13  C   UNL A   1      33.129  28.185  24.070  1.00  0.00    -0.008 A 
ATOM     14  C   UNL A   1      32.105  27.035  25.959  1.00  0.00     0.018 A 
ATOM     15  C   UNL A   1      33.819  28.131  22.737  1.00  0.00     0.048 C 
ATOM     16  C   UNL A   1      32.741  27.005  24.716  1.00  0.00     0.130 A 
ATOM     17  C   UNL A   1      31.755  25.781  26.616  1.00  0.00     0.025 C 
ATOM     18  O   UNL A   1      33.060  25.831  24.095  1.00  0.00    -0.475 OA
ATOM     19  C   UNL A   1      32.296  24.662  24.484  1.00  0.00     0.314 C 
BRANCH  19  20
ATOM     20  C   UNL A   1      31.129  24.474  23.496  1.00  0.00     0.429 C 
ATOM     21  F   UNL A   1      30.933  23.157  23.235  1.00  0.00    -0.167 F 
ATOM     22  F   UNL A   1      29.953  24.945  23.977  1.00  0.00    -0.167 F 
ATOM     23  F   UNL A   1      31.337  25.093  22.312  1.00  0.00    -0.167 F 
ENDBRANCH  19  20
ENDBRANCH   5   8
ENDBRANCH   3   4
ENDBRANCH   2   3
ENDBRANCH   1   2
BRANCH   1  24
ATOM     24  N   UNL A   1      36.700  21.270  25.747  1.00  0.00    -0.352 N 
ATOM     25  C   UNL A   1      38.072  21.261  25.765  1.00  0.00     0.251 C 
ATOM     26  H   UNL A   1      36.279  20.382  25.690  1.00  0.00     0.163 HD
ATOM     27  O   UNL A   1      38.681  20.249  25.421  1.00  0.00    -0.269 OA
BRANCH  25  28
ATOM     28  C   UNL A   1      38.809  22.462  26.201  1.00  0.00     0.039 A 
ATOM     29  C   UNL A   1      39.968  22.323  26.967  1.00  0.00     0.014 A 
ATOM     30  C   UNL A   1      38.335  23.731  25.864  1.00  0.00     0.014 A 
ATOM     31  C   UNL A   1      40.683  23.461  27.342  1.00  0.00     0.010 A 
ATOM     32  C   UNL A   1      39.103  24.851  26.141  1.00  0.00     0.010 A 
ATOM     33  C   UNL A   1      40.271  24.732  26.904  1.00  0.00    -0.014 A 
BRANCH  33  34
ATOM     34  C   UNL A   1      41.022  25.958  27.260  1.00  0.00     0.031 A 
ATOM     35  C   UNL A   1      40.364  27.023  28.093  1.00  0.00     0.074 A 
ATOM     36  C   UNL A   1      42.266  26.139  26.776  1.00  0.00     0.049 A 
ATOM     37  N   UNL A   1      40.838  28.177  28.479  1.00  0.00    -0.248 NA
ATOM     38  C   UNL A   1      38.977  26.773  28.523  1.00  0.00     0.031 C 
ATOM     39  C   UNL A   1      42.977  25.205  25.902  1.00  0.00     0.029 A 
ATOM     40  N   UNL A   1      43.149  27.174  26.945  1.00  0.00    -0.354 N 
ATOM     41  C   UNL A   1      39.808  28.793  29.179  1.00  0.00     0.074 A 
ATOM     42  C   UNL A   1      38.660  27.921  29.101  1.00  0.00     0.031 C 
ATOM     43  C   UNL A   1      44.202  25.688  25.645  1.00  0.00     0.029 A 
ATOM     44  C   UNL A   1      44.353  26.980  26.308  1.00  0.00     0.049 A 
ATOM     45  H   UNL A   1      42.943  27.979  27.473  1.00  0.00     0.167 HD
ATOM     46  C   UNL A   1      39.831  29.955  29.873  1.00  0.00     0.034 A 
ATOM     47  C   UNL A   1      45.456  27.753  26.276  1.00  0.00     0.034 A 
ATOM     48  C   UNL A   1      40.990  30.796  29.977  1.00  0.00     0.049 A 
ATOM     49  C   UNL A   1      45.459  29.044  27.048  1.00  0.00     0.074 A 
ATOM     50  C   UNL A   1      41.141  31.966  30.697  1.00  0.00     0.029 A 
ATOM     51  N   UNL A   1      42.200  30.552  29.345  1.00  0.00    -0.354 N 
ATOM     52  N   UNL A   1      44.521  29.549  27.812  1.00  0.00    -0.248 NA
ATOM     53  C   UNL A   1      46.680  29.859  26.978  1.00  0.00     0.031 C 
ATOM     54  C   UNL A   1      42.439  32.441  30.483  1.00  0.00     0.029 A 
ATOM     55  C   UNL A   1      43.103  31.555  29.648  1.00  0.00     0.049 A 
ATOM     56  H   UNL A   1      42.389  29.779  28.765  1.00  0.00     0.167 HD
ATOM     57  C   UNL A   1      45.043  30.727  28.333  1.00  0.00     0.074 A 
ATOM     58  C   UNL A   1      46.392  30.847  27.815  1.00  0.00     0.031 C 
ATOM     59  C   UNL A   1      44.456  31.634  29.154  1.00  0.00     0.034 A 
BRANCH  46  60
ATOM     60  C   UNL A   1      38.586  30.330  30.637  1.00  0.00     0.023 A 
ATOM     61  C   UNL A   1      38.435  29.880  31.966  1.00  0.00     0.012 A 
ATOM     62  C   UNL A   1      37.588  31.143  30.068  1.00  0.00     0.148 A 
ATOM     63  C   UNL A   1      37.291  30.192  32.700  1.00  0.00     0.002 A 
ATOM     64  C   UNL A   1      36.474  31.492  30.824  1.00  0.00     0.091 A 
ATOM     65  F   UNL A   1      37.735  31.545  28.798  1.00  0.00    -0.205 F 
ATOM     66  C   UNL A   1      36.317  31.005  32.133  1.00  0.00     0.022 A 
BRANCH  64  67
ATOM     67  S   UNL A   1      35.198  32.602  30.217  1.00  0.00     0.127 S 
ATOM     68  O   UNL A   1      34.661  31.846  29.087  1.00  0.00    -0.237 OA
ATOM     69  O   UNL A   1      34.300  32.698  31.369  1.00  0.00    -0.237 OA
ATOM     70  O   UNL A   1      35.878  33.843  29.873  1.00  0.00    -0.744 OA
ENDBRANCH  64  67
ENDBRANCH  46  60
BRANCH  47  71
ATOM     71  C   UNL A   1      46.679  27.254  25.584  1.00  0.00     0.023 A 
ATOM     72  C   UNL A   1      47.445  26.246  26.202  1.00  0.00     0.012 A 
ATOM     73  C   UNL A   1      47.042  27.699  24.297  1.00  0.00     0.148 A 
ATOM     74  C   UNL A   1      48.554  25.697  25.558  1.00  0.00     0.002 A 
ATOM     75  C   UNL A   1      48.115  27.111  23.639  1.00  0.00     0.091 A 
ATOM     76  F   UNL A   1      46.301  28.660  23.728  1.00  0.00    -0.205 F 
ATOM     77  C   UNL A   1      48.882  26.120  24.274  1.00  0.00     0.022 A 
BRANCH  75  78
ATOM     78  S   UNL A   1      48.536  27.487  21.933  1.00  0.00     0.127 S 
ATOM     79  O   UNL A   1      49.562  28.514  22.096  1.00  0.00    -0.237 OA
ATOM     80  O   UNL A   1      49.027  26.194  21.455  1.00  0.00    -0.237 OA
ATOM     81  O   UNL A   1      47.298  27.932  21.309  1.00  0.00    -0.744 OA
ENDBRANCH  75  78
ENDBRANCH  47  71
BRANCH  59  82
ATOM     82  C   UNL A   1      45.254  32.849  29.551  1.00  0.00     0.023 A 
ATOM     83  C   UNL A   1      46.104  32.780  30.672  1.00  0.00     0.012 A 
ATOM     84  C   UNL A   1      45.265  34.001  28.739  1.00  0.00     0.148 A 
ATOM     85  C   UNL A   1      46.944  33.846  30.989  1.00  0.00     0.002 A 
ATOM     86  C   UNL A   1      46.143  35.038  29.033  1.00  0.00     0.091 A 
ATOM     87  F   UNL A   1      44.439  34.049  27.685  1.00  0.00    -0.205 F 
ATOM     88  C   UNL A   1      46.976  34.967  30.162  1.00  0.00     0.022 A 
BRANCH  86  89
ATOM     89  S   UNL A   1      46.337  36.474  27.969  1.00  0.00     0.127 S 
ATOM     90  O   UNL A   1      47.364  37.234  28.680  1.00  0.00    -0.237 OA
ATOM     91  O   UNL A   1      46.784  35.869  26.714  1.00  0.00    -0.237 OA
ATOM     92  O   UNL A   1      45.028  37.110  27.906  1.00  0.00    -0.744 OA
ENDBRANCH  86  89
ENDBRANCH  59  82
ENDBRANCH  33  34
ENDBRANCH  25  28
ENDBRANCH   1  24
TORSDOF 14
ENDMDL
MODEL 3
REMARK VINA RESULT:     -13.0      1.313      1.613
REMARK SMILES Cc1cc(C)c2c(c1)C=C(C(=O)NCCCNC(=O)c1ccc(-c3c4nc(c(-c5cccc(S(=O)(=O)[O-])c5F)c5ccc([nH]5)c(-c5cccc(S(=O)(=O)[O-])c5F)c5nc(c(-c6cccc(S(=O)(=O)[O-])c6F)c6ccc3[nH]6)C=C5)C=C4)cc1)[C@@H](C(F)(F)F)O2
REMARK SMILES IDX 16 1 15 2 14 3 13 4 11 5 12 6 10 8 1 9 2 10 3 11 8 12 4 13
REMARK SMILES IDX 7 14 5 15 6 16 9 17 88 18 83 19 84 20 85 21 86 22 87 23
REMARK SMILES IDX 17 24 18 25 19 27 20 28 21 29 82 30 22 31 81 32 23 33 24 34
REMARK SMILES IDX 25 35 75 36 26 37 80 38 74 39 76 40 27 41 79 42 73 43 72 44
REMARK SMILES IDX 28 46 60 47 40 48 59 49 41 50 44 51 58 52 77 53 42 54 43 55
REMARK SMILES IDX 57 57 78 58 45 59 29 60 30 61 38 62 31 63 33 64 39 65 32 66
REMARK SMILES IDX 34 67 35 68 36 69 37 70 61 71 62 72 70 73 63 74 65 75 71 76
REMARK SMILES IDX 64 77 66 78 67 79 68 80 69 81 46 82 47 83 55 84 48 85 50 86
REMARK SMILES IDX 56 87 49 88 51 89 52 90 53 91 54 92
REMARK H PARENT 13 7 17 26 76 45 44 56
REMARK Flexibility Score: inf
ROOT
ATOM      1  C   UNL A   1      33.078  29.110  25.360  1.00  0.00     0.118 C 
ENDROOT
BRANCH   1   2
ATOM      2  C   UNL A   1      33.123  28.968  23.844  1.00  0.00     0.042 C 
BRANCH   2   3
ATOM      3  C   UNL A   1      32.019  28.061  23.325  1.00  0.00     0.118 C 
BRANCH   3   4
ATOM      4  N   UNL A   1      32.469  27.231  22.216  1.00  0.00    -0.352 N 
ATOM      5  C   UNL A   1      32.981  25.989  22.051  1.00  0.00     0.251 C 
ATOM      6  O   UNL A   1      33.213  25.668  20.881  1.00  0.00    -0.270 OA
ATOM      7  H   UNL A   1      32.376  27.700  21.355  1.00  0.00     0.163 HD
BRANCH   5   8
ATOM      8  C   UNL A   1      33.259  25.024  23.153  1.00  0.00     0.067 C 
ATOM      9  C   UNL A   1      37.391  20.769  24.888  1.00  0.00     0.044 C 
ATOM     10  C   UNL A   1      36.195  21.661  25.026  1.00  0.00    -0.050 A 
ATOM     11  C   UNL A   1      35.382  21.597  26.166  1.00  0.00     0.010 A 
ATOM     12  C   UNL A   1      35.873  22.564  24.002  1.00  0.00     0.015 A 
ATOM     13  C   UNL A   1      34.267  22.433  26.301  1.00  0.00    -0.008 A 
ATOM     14  C   UNL A   1      34.760  23.401  24.120  1.00  0.00     0.018 A 
ATOM     15  C   UNL A   1      33.406  22.374  27.531  1.00  0.00     0.048 C 
ATOM     16  C   UNL A   1      33.967  23.328  25.267  1.00  0.00     0.130 A 
ATOM     17  C   UNL A   1      34.435  24.375  23.085  1.00  0.00     0.025 C 
ATOM     18  O   UNL A   1      32.896  24.153  25.460  1.00  0.00    -0.475 OA
ATOM     19  C   UNL A   1      32.302  24.734  24.273  1.00  0.00     0.314 C 
BRANCH  19  20
ATOM     20  C   UNL A   1      31.116  23.859  23.824  1.00  0.00     0.429 C 
ATOM     21  F   UNL A   1      30.612  23.164  24.874  1.00  0.00    -0.167 F 
ATOM     22  F   UNL A   1      30.089  24.586  23.320  1.00  0.00    -0.167 F 
ATOM     23  F   UNL A   1      31.456  22.962  22.872  1.00  0.00    -0.167 F 
ENDBRANCH  19  20
ENDBRANCH   5   8
ENDBRANCH   3   4
ENDBRANCH   2   3
ENDBRANCH   1   2
BRANCH   1  24
ATOM     24  N   UNL A   1      32.625  30.440  25.766  1.00  0.00    -0.352 N 
ATOM     25  C   UNL A   1      33.019  31.220  26.824  1.00  0.00     0.251 C 
ATOM     26  H   UNL A   1      31.930  30.835  25.192  1.00  0.00     0.163 HD
ATOM     27  O   UNL A   1      32.323  32.174  27.170  1.00  0.00    -0.269 OA
BRANCH  25  28
ATOM     28  C   UNL A   1      34.274  30.916  27.535  1.00  0.00     0.039 A 
ATOM     29  C   UNL A   1      35.233  31.917  27.707  1.00  0.00     0.014 A 
ATOM     30  C   UNL A   1      34.509  29.626  28.014  1.00  0.00     0.014 A 
ATOM     31  C   UNL A   1      36.401  31.633  28.416  1.00  0.00     0.010 A 
ATOM     32  C   UNL A   1      35.615  29.376  28.812  1.00  0.00     0.010 A 
ATOM     33  C   UNL A   1      36.584  30.368  29.000  1.00  0.00    -0.014 A 
BRANCH  33  34
ATOM     34  C   UNL A   1      37.799  30.043  29.783  1.00  0.00     0.031 A 
ATOM     35  C   UNL A   1      38.835  29.119  29.205  1.00  0.00     0.074 A 
ATOM     36  C   UNL A   1      37.932  30.523  31.035  1.00  0.00     0.049 A 
ATOM     37  N   UNL A   1      39.944  28.685  29.744  1.00  0.00    -0.248 NA
ATOM     38  C   UNL A   1      38.577  28.584  27.857  1.00  0.00     0.031 C 
ATOM     39  C   UNL A   1      36.957  31.372  31.721  1.00  0.00     0.029 A 
ATOM     40  N   UNL A   1      38.937  30.360  31.953  1.00  0.00    -0.354 N 
ATOM     41  C   UNL A   1      40.503  27.820  28.811  1.00  0.00     0.074 A 
ATOM     42  C   UNL A   1      39.578  27.730  27.706  1.00  0.00     0.031 C 
ATOM     43  C   UNL A   1      37.429  31.690  32.936  1.00  0.00     0.029 A 
ATOM     44  C   UNL A   1      38.724  31.043  33.128  1.00  0.00     0.049 A 
ATOM     45  H   UNL A   1      39.735  29.809  31.787  1.00  0.00     0.167 HD
ATOM     46  C   UNL A   1      41.706  27.200  28.844  1.00  0.00     0.034 A 
ATOM     47  C   UNL A   1      39.495  31.145  34.228  1.00  0.00     0.034 A 
ATOM     48  C   UNL A   1      42.636  27.328  29.930  1.00  0.00     0.049 A 
ATOM     49  C   UNL A   1      40.825  30.442  34.248  1.00  0.00     0.074 A 
ATOM     50  C   UNL A   1      43.903  26.787  30.045  1.00  0.00     0.029 A 
ATOM     51  N   UNL A   1      42.400  28.052  31.090  1.00  0.00    -0.354 N 
ATOM     52  N   UNL A   1      41.397  29.733  33.305  1.00  0.00    -0.248 NA
ATOM     53  C   UNL A   1      41.629  30.573  35.471  1.00  0.00     0.031 C 
ATOM     54  C   UNL A   1      44.425  27.169  31.284  1.00  0.00     0.029 A 
ATOM     55  C   UNL A   1      43.494  27.966  31.932  1.00  0.00     0.049 A 
ATOM     56  H   UNL A   1      41.575  28.553  31.284  1.00  0.00     0.167 HD
ATOM     57  C   UNL A   1      42.636  29.353  33.807  1.00  0.00     0.074 A 
ATOM     58  C   UNL A   1      42.741  29.932  35.133  1.00  0.00     0.031 C 
ATOM     59  C   UNL A   1      43.594  28.584  33.232  1.00  0.00     0.034 A 
BRANCH  46  60
ATOM     60  C   UNL A   1      42.106  26.398  27.631  1.00  0.00     0.023 A 
ATOM     61  C   UNL A   1      42.759  27.050  26.563  1.00  0.00     0.012 A 
ATOM     62  C   UNL A   1      41.871  25.013  27.552  1.00  0.00     0.148 A 
ATOM     63  C   UNL A   1      43.131  26.348  25.418  1.00  0.00     0.002 A 
ATOM     64  C   UNL A   1      42.290  24.310  26.427  1.00  0.00     0.091 A 
ATOM     65  F   UNL A   1      41.229  24.412  28.563  1.00  0.00    -0.205 F 
ATOM     66  C   UNL A   1      42.905  24.978  25.355  1.00  0.00     0.022 A 
BRANCH  64  67
ATOM     67  S   UNL A   1      42.121  22.527  26.278  1.00  0.00     0.127 S 
ATOM     68  O   UNL A   1      42.810  22.064  27.482  1.00  0.00    -0.237 OA
ATOM     69  O   UNL A   1      40.668  22.352  26.302  1.00  0.00    -0.237 OA
ATOM     70  O   UNL A   1      42.755  22.169  25.017  1.00  0.00    -0.744 OA
ENDBRANCH  64  67
ENDBRANCH  46  60
BRANCH  47  71
ATOM     71  C   UNL A   1      39.071  32.045  35.339  1.00  0.00     0.023 A 
ATOM     72  C   UNL A   1      38.219  31.534  36.338  1.00  0.00     0.012 A 
ATOM     73  C   UNL A   1      39.565  33.358  35.464  1.00  0.00     0.148 A 
ATOM     74  C   UNL A   1      37.858  32.316  37.435  1.00  0.00     0.002 A 
ATOM     75  C   UNL A   1      39.244  34.114  36.586  1.00  0.00     0.091 A 
ATOM     76  F   UNL A   1      40.373  33.825  34.501  1.00  0.00    -0.205 F 
ATOM     77  C   UNL A   1      38.379  33.600  37.565  1.00  0.00     0.022 A 
BRANCH  75  78
ATOM     78  S   UNL A   1      39.970  35.725  36.915  1.00  0.00     0.127 S 
ATOM     79  O   UNL A   1      39.330  36.091  38.176  1.00  0.00    -0.237 OA
ATOM     80  O   UNL A   1      41.392  35.395  37.018  1.00  0.00    -0.237 OA
ATOM     81  O   UNL A   1      39.623  36.557  35.772  1.00  0.00    -0.744 OA
ENDBRANCH  75  78
ENDBRANCH  47  71
BRANCH  59  82
ATOM     82  C   UNL A   1      44.847  28.308  34.020  1.00  0.00     0.023 A 
ATOM     83  C   UNL A   1      45.915  29.225  33.961  1.00  0.00     0.012 A 
ATOM     84  C   UNL A   1      44.911  27.224  34.918  1.00  0.00     0.148 A 
ATOM     85  C   UNL A   1      47.036  29.058  34.773  1.00  0.00     0.002 A 
ATOM     86  C   UNL A   1      46.009  27.094  35.761  1.00  0.00     0.091 A 
ATOM     87  F   UNL A   1      43.888  26.358  34.948  1.00  0.00    -0.205 F 
ATOM     88  C   UNL A   1      47.076  28.004  35.683  1.00  0.00     0.022 A 
BRANCH  86  89
ATOM     89  S   UNL A   1      46.104  25.836  37.041  1.00  0.00     0.127 S 
ATOM     90  O   UNL A   1      47.395  26.138  37.658  1.00  0.00    -0.237 OA
ATOM     91  O   UNL A   1      44.942  26.151  37.870  1.00  0.00    -0.237 OA
ATOM     92  O   UNL A   1      46.031  24.553  36.353  1.00  0.00    -0.744 OA
ENDBRANCH  86  89
ENDBRANCH  59  82
ENDBRANCH  33  34
ENDBRANCH  25  28
ENDBRANCH   1  24
TORSDOF 14
ENDMDL
