MODEL 1
REMARK VINA RESULT:      -9.9      0.000      0.000
REMARK SMILES C[C@@]([NH2+]CCC1CC1)(C(=O)NCCCNC(=O)c1ccc(-c2c3nc(c(-c4cccc(S(=O)(=O)[O-])c4F)c4ccc([nH]4)c(-c4cccc(S(=O)(=O)[O-])c4F)c4nc(c(-c5cccc(S(=O)(=O)[O-])c5F)c5ccc2[nH]5)C=C4)C=C3)cc1)C(F)(F)F
REMARK SMILES IDX 12 1 11 2 9 3 10 4 2 6 1 7 3 8 4 11 5 12 6 13 7 14 8 15
REMARK SMILES IDX 81 16 82 17 83 18 84 19 13 20 14 21 15 22 16 23 17 25 18 26
REMARK SMILES IDX 19 27 80 28 20 29 79 30 21 31 22 32 23 33 73 34 24 35 78 36
REMARK SMILES IDX 72 37 74 38 25 39 77 40 71 41 70 42 26 44 58 45 38 46 57 47
REMARK SMILES IDX 39 48 42 49 56 50 75 51 40 52 41 53 55 55 76 56 43 57 27 58
REMARK SMILES IDX 28 59 36 60 29 61 31 62 37 63 30 64 32 65 33 66 34 67 35 68
REMARK SMILES IDX 59 69 60 70 68 71 61 72 63 73 69 74 62 75 64 76 65 77 66 78
REMARK SMILES IDX 67 79 44 80 45 81 53 82 46 83 48 84 54 85 47 86 49 87 50 88
REMARK SMILES IDX 51 89 52 90
REMARK H PARENT 11 5 3 9 3 10 15 24 74 43 42 54
REMARK Flexibility Score: inf
ROOT
ATOM      1  C   UNL A   1      31.507  27.477  26.630  1.00  0.00     0.118 C 
ENDROOT
BRANCH   1   2
ATOM      2  N   UNL A   1      32.194  26.612  25.686  1.00  0.00    -0.350 N 
ATOM      3  C   UNL A   1      32.114  26.517  24.325  1.00  0.00     0.290 C 
ATOM      4  O   UNL A   1      32.817  25.643  23.813  1.00  0.00    -0.267 OA
ATOM      5  H   UNL A   1      32.829  25.984  26.100  1.00  0.00     0.163 HD
BRANCH   3   6
ATOM      6  C   UNL A   1      31.236  27.469  23.487  1.00  0.00     0.268 C 
ATOM      7  C   UNL A   1      31.119  26.950  22.035  1.00  0.00     0.101 C 
BRANCH   6   8
ATOM      8  N   UNL A   1      29.823  27.503  24.017  1.00  0.00    -0.326 N 
ATOM      9  H   UNL A   1      29.767  28.271  24.684  1.00  0.00     0.347 HD
ATOM     10  H   UNL A   1      29.672  26.572  24.406  1.00  0.00     0.347 HD
BRANCH   8  11
ATOM     11  C   UNL A   1      28.738  27.681  23.049  1.00  0.00     0.261 C 
BRANCH  11  12
ATOM     12  C   UNL A   1      27.810  28.891  23.216  1.00  0.00     0.065 C 
BRANCH  12  13
ATOM     13  C   UNL A   1      28.501  30.219  23.087  1.00  0.00    -0.006 C 
ATOM     14  C   UNL A   1      28.248  31.103  21.895  1.00  0.00     0.004 C 
ATOM     15  C   UNL A   1      27.705  31.486  23.244  1.00  0.00     0.004 C 
ENDBRANCH  12  13
ENDBRANCH  11  12
ENDBRANCH   8  11
ENDBRANCH   6   8
BRANCH   6  16
ATOM     16  C   UNL A   1      31.996  28.822  23.382  1.00  0.00     0.453 C 
ATOM     17  F   UNL A   1      31.789  29.445  22.198  1.00  0.00    -0.164 F 
ATOM     18  F   UNL A   1      31.539  29.675  24.343  1.00  0.00    -0.164 F 
ATOM     19  F   UNL A   1      33.328  28.727  23.564  1.00  0.00    -0.164 F 
ENDBRANCH   6  16
ENDBRANCH   3   6
ENDBRANCH   1   2
BRANCH   1  20
ATOM     20  C   UNL A   1      32.491  28.159  27.572  1.00  0.00     0.042 C 
BRANCH  20  21
ATOM     21  C   UNL A   1      33.624  28.880  26.851  1.00  0.00     0.118 C 
BRANCH  21  22
ATOM     22  N   UNL A   1      33.656  30.305  27.154  1.00  0.00    -0.352 N 
ATOM     23  C   UNL A   1      34.567  31.027  27.885  1.00  0.00     0.251 C 
ATOM     24  H   UNL A   1      32.914  30.829  26.776  1.00  0.00     0.163 HD
ATOM     25  O   UNL A   1      34.312  32.185  28.194  1.00  0.00    -0.269 OA
BRANCH  23  26
ATOM     26  C   UNL A   1      35.841  30.405  28.310  1.00  0.00     0.039 A 
ATOM     27  C   UNL A   1      36.962  30.539  27.487  1.00  0.00     0.014 A 
ATOM     28  C   UNL A   1      35.927  29.679  29.500  1.00  0.00     0.014 A 
ATOM     29  C   UNL A   1      38.183  29.994  27.890  1.00  0.00     0.010 A 
ATOM     30  C   UNL A   1      37.162  29.212  29.939  1.00  0.00     0.010 A 
ATOM     31  C   UNL A   1      38.302  29.355  29.135  1.00  0.00    -0.014 A 
BRANCH  31  32
ATOM     32  C   UNL A   1      39.609  28.835  29.613  1.00  0.00     0.031 A 
ATOM     33  C   UNL A   1      40.350  29.538  30.718  1.00  0.00     0.074 A 
ATOM     34  C   UNL A   1      40.166  27.773  28.996  1.00  0.00     0.049 A 
ATOM     35  N   UNL A   1      41.520  29.258  31.232  1.00  0.00    -0.248 NA
ATOM     36  C   UNL A   1      39.708  30.725  31.305  1.00  0.00     0.031 C 
ATOM     37  C   UNL A   1      39.584  27.053  27.861  1.00  0.00     0.029 A 
ATOM     38  N   UNL A   1      41.357  27.131  29.219  1.00  0.00    -0.354 N 
ATOM     39  C   UNL A   1      41.769  30.251  32.173  1.00  0.00     0.074 A 
ATOM     40  C   UNL A   1      40.645  31.160  32.134  1.00  0.00     0.031 C 
ATOM     41  C   UNL A   1      40.414  26.065  27.493  1.00  0.00     0.029 A 
ATOM     42  C   UNL A   1      41.602  26.102  28.338  1.00  0.00     0.049 A 
ATOM     43  H   UNL A   1      41.978  27.382  29.940  1.00  0.00     0.167 HD
ATOM     44  C   UNL A   1      42.823  30.379  33.014  1.00  0.00     0.034 A 
ATOM     45  C   UNL A   1      42.668  25.286  28.219  1.00  0.00     0.034 A 
ATOM     46  C   UNL A   1      43.922  29.454  33.074  1.00  0.00     0.049 A 
ATOM     47  C   UNL A   1      43.812  25.432  29.186  1.00  0.00     0.074 A 
ATOM     48  C   UNL A   1      44.993  29.447  33.949  1.00  0.00     0.029 A 
ATOM     49  N   UNL A   1      44.097  28.377  32.219  1.00  0.00    -0.354 N 
ATOM     50  N   UNL A   1      43.955  26.282  30.174  1.00  0.00    -0.248 NA
ATOM     51  C   UNL A   1      44.924  24.481  29.046  1.00  0.00     0.031 C 
ATOM     52  C   UNL A   1      45.835  28.386  33.601  1.00  0.00     0.029 A 
ATOM     53  C   UNL A   1      45.267  27.706  32.535  1.00  0.00     0.049 A 
ATOM     54  H   UNL A   1      43.482  28.126  31.493  1.00  0.00     0.167 HD
ATOM     55  C   UNL A   1      45.151  25.945  30.797  1.00  0.00     0.074 A 
ATOM     56  C   UNL A   1      45.683  24.800  30.087  1.00  0.00     0.031 C 
ATOM     57  C   UNL A   1      45.761  26.538  31.853  1.00  0.00     0.034 A 
BRANCH  44  58
ATOM     58  C   UNL A   1      42.819  31.545  33.971  1.00  0.00     0.023 A 
ATOM     59  C   UNL A   1      43.270  32.808  33.534  1.00  0.00     0.012 A 
ATOM     60  C   UNL A   1      42.317  31.405  35.279  1.00  0.00     0.148 A 
ATOM     61  C   UNL A   1      43.256  33.904  34.396  1.00  0.00     0.002 A 
ATOM     62  C   UNL A   1      42.261  32.514  36.116  1.00  0.00     0.091 A 
ATOM     63  F   UNL A   1      41.911  30.193  35.683  1.00  0.00    -0.205 F 
ATOM     64  C   UNL A   1      42.742  33.760  35.682  1.00  0.00     0.022 A 
BRANCH  62  65
ATOM     65  S   UNL A   1      41.540  32.453  37.761  1.00  0.00     0.127 S 
ATOM     66  O   UNL A   1      42.301  31.366  38.376  1.00  0.00    -0.237 OA
ATOM     67  O   UNL A   1      41.851  33.785  38.281  1.00  0.00    -0.237 OA
ATOM     68  O   UNL A   1      40.121  32.190  37.569  1.00  0.00    -0.744 OA
ENDBRANCH  62  65
ENDBRANCH  44  58
BRANCH  45  69
ATOM     69  C   UNL A   1      42.678  24.222  27.176  1.00  0.00     0.023 A 
ATOM     70  C   UNL A   1      43.352  24.450  25.960  1.00  0.00     0.012 A 
ATOM     71  C   UNL A   1      42.046  22.982  27.388  1.00  0.00     0.148 A 
ATOM     72  C   UNL A   1      43.365  23.476  24.960  1.00  0.00     0.002 A 
ATOM     73  C   UNL A   1      42.111  21.995  26.411  1.00  0.00     0.091 A 
ATOM     74  F   UNL A   1      41.402  22.789  28.548  1.00  0.00    -0.205 F 
ATOM     75  C   UNL A   1      42.752  22.247  25.189  1.00  0.00     0.022 A 
BRANCH  73  76
ATOM     76  S   UNL A   1      41.467  20.338  26.671  1.00  0.00     0.127 S 
ATOM     77  O   UNL A   1      41.865  19.666  25.438  1.00  0.00    -0.237 OA
ATOM     78  O   UNL A   1      42.198  19.918  27.868  1.00  0.00    -0.237 OA
ATOM     79  O   UNL A   1      40.033  20.500  26.870  1.00  0.00    -0.744 OA
ENDBRANCH  73  76
ENDBRANCH  45  69
BRANCH  57  80
ATOM     80  C   UNL A   1      47.052  25.935  32.342  1.00  0.00     0.023 A 
ATOM     81  C   UNL A   1      47.051  25.072  33.456  1.00  0.00     0.012 A 
ATOM     82  C   UNL A   1      48.257  26.174  31.653  1.00  0.00     0.148 A 
ATOM     83  C   UNL A   1      48.237  24.486  33.898  1.00  0.00     0.002 A 
ATOM     84  C   UNL A   1      49.425  25.544  32.067  1.00  0.00     0.091 A 
ATOM     85  F   UNL A   1      48.242  27.011  30.606  1.00  0.00    -0.205 F 
ATOM     86  C   UNL A   1      49.420  24.712  33.199  1.00  0.00     0.022 A 
BRANCH  84  87
ATOM     87  S   UNL A   1      50.972  25.696  31.168  1.00  0.00     0.127 S 
ATOM     88  O   UNL A   1      50.593  25.213  29.840  1.00  0.00    -0.237 OA
ATOM     89  O   UNL A   1      51.232  27.134  31.241  1.00  0.00    -0.237 OA
ATOM     90  O   UNL A   1      51.936  24.870  31.881  1.00  0.00    -0.744 OA
ENDBRANCH  84  87
ENDBRANCH  57  80
ENDBRANCH  31  32
ENDBRANCH  23  26
ENDBRANCH  21  22
ENDBRANCH  20  21
ENDBRANCH   1  20
TORSDOF 18
ENDMDL
MODEL 2
REMARK VINA RESULT:      -9.9      5.486      8.746
REMARK SMILES C[C@@]([NH2+]CCC1CC1)(C(=O)NCCCNC(=O)c1ccc(-c2c3nc(c(-c4cccc(S(=O)(=O)[O-])c4F)c4ccc([nH]4)c(-c4cccc(S(=O)(=O)[O-])c4F)c4nc(c(-c5cccc(S(=O)(=O)[O-])c5F)c5ccc2[nH]5)C=C4)C=C3)cc1)C(F)(F)F
REMARK SMILES IDX 12 1 11 2 9 3 10 4 2 6 1 7 3 8 4 11 5 12 6 13 7 14 8 15
REMARK SMILES IDX 81 16 82 17 83 18 84 19 13 20 14 21 15 22 16 23 17 25 18 26
REMARK SMILES IDX 19 27 80 28 20 29 79 30 21 31 22 32 23 33 73 34 24 35 78 36
REMARK SMILES IDX 72 37 74 38 25 39 77 40 71 41 70 42 26 44 58 45 38 46 57 47
REMARK SMILES IDX 39 48 42 49 56 50 75 51 40 52 41 53 55 55 76 56 43 57 27 58
REMARK SMILES IDX 28 59 36 60 29 61 31 62 37 63 30 64 32 65 33 66 34 67 35 68
REMARK SMILES IDX 59 69 60 70 68 71 61 72 63 73 69 74 62 75 64 76 65 77 66 78
REMARK SMILES IDX 67 79 44 80 45 81 53 82 46 83 48 84 54 85 47 86 49 87 50 88
REMARK SMILES IDX 51 89 52 90
REMARK H PARENT 11 5 3 9 3 10 15 24 74 43 42 54
REMARK Flexibility Score: inf
ROOT
ATOM      1  C   UNL A   1      36.670  20.732  25.286  1.00  0.00     0.118 C 
ENDROOT
BRANCH   1   2
ATOM      2  N   UNL A   1      36.408  21.778  24.312  1.00  0.00    -0.350 N 
ATOM      3  C   UNL A   1      35.310  22.565  24.107  1.00  0.00     0.290 C 
ATOM      4  O   UNL A   1      35.391  23.349  23.158  1.00  0.00    -0.267 OA
ATOM      5  H   UNL A   1      37.152  21.948  23.689  1.00  0.00     0.163 HD
BRANCH   3   6
ATOM      6  C   UNL A   1      34.073  22.504  25.026  1.00  0.00     0.268 C 
ATOM      7  C   UNL A   1      32.857  23.158  24.332  1.00  0.00     0.101 C 
BRANCH   6   8
ATOM      8  N   UNL A   1      33.667  21.074  25.286  1.00  0.00    -0.326 N 
ATOM      9  H   UNL A   1      33.436  20.998  26.276  1.00  0.00     0.347 HD
ATOM     10  H   UNL A   1      34.466  20.520  24.978  1.00  0.00     0.347 HD
BRANCH   8  11
ATOM     11  C   UNL A   1      32.532  20.542  24.528  1.00  0.00     0.261 C 
BRANCH  11  12
ATOM     12  C   UNL A   1      32.731  19.236  23.747  1.00  0.00     0.065 C 
BRANCH  12  13
ATOM     13  C   UNL A   1      33.358  18.130  24.547  1.00  0.00    -0.006 C 
ATOM     14  C   UNL A   1      33.371  16.719  24.025  1.00  0.00     0.004 C 
ATOM     15  C   UNL A   1      34.647  17.514  24.074  1.00  0.00     0.004 C 
ENDBRANCH  12  13
ENDBRANCH  11  12
ENDBRANCH   8  11
ENDBRANCH   6   8
BRANCH   6  16
ATOM     16  C   UNL A   1      34.376  23.401  26.261  1.00  0.00     0.453 C 
ATOM     17  F   UNL A   1      35.704  23.559  26.475  1.00  0.00    -0.164 F 
ATOM     18  F   UNL A   1      33.876  24.651  26.048  1.00  0.00    -0.164 F 
ATOM     19  F   UNL A   1      33.828  22.965  27.413  1.00  0.00    -0.164 F 
ENDBRANCH   6  16
ENDBRANCH   3   6
ENDBRANCH   1   2
BRANCH   1  20
ATOM     20  C   UNL A   1      37.944  19.968  24.947  1.00  0.00     0.042 C 
BRANCH  20  21
ATOM     21  C   UNL A   1      39.155  20.415  25.757  1.00  0.00     0.118 C 
BRANCH  21  22
ATOM     22  N   UNL A   1      40.146  19.356  25.904  1.00  0.00    -0.352 N 
ATOM     23  C   UNL A   1      41.502  19.443  26.100  1.00  0.00     0.251 C 
ATOM     24  H   UNL A   1      39.788  18.440  25.856  1.00  0.00     0.163 HD
ATOM     25  O   UNL A   1      42.193  18.436  25.998  1.00  0.00    -0.269 OA
BRANCH  23  26
ATOM     26  C   UNL A   1      42.125  20.747  26.417  1.00  0.00     0.039 A 
ATOM     27  C   UNL A   1      42.489  21.592  25.366  1.00  0.00     0.014 A 
ATOM     28  C   UNL A   1      42.367  21.128  27.740  1.00  0.00     0.014 A 
ATOM     29  C   UNL A   1      43.042  22.844  25.646  1.00  0.00     0.010 A 
ATOM     30  C   UNL A   1      42.837  22.408  28.016  1.00  0.00     0.010 A 
ATOM     31  C   UNL A   1      43.190  23.276  26.974  1.00  0.00    -0.014 A 
BRANCH  31  32
ATOM     32  C   UNL A   1      43.706  24.633  27.290  1.00  0.00     0.031 A 
ATOM     33  C   UNL A   1      42.776  25.703  27.795  1.00  0.00     0.074 A 
ATOM     34  C   UNL A   1      45.001  24.923  27.046  1.00  0.00     0.049 A 
ATOM     35  N   UNL A   1      43.037  26.954  28.077  1.00  0.00    -0.248 NA
ATOM     36  C   UNL A   1      41.365  25.330  27.982  1.00  0.00     0.031 C 
ATOM     37  C   UNL A   1      45.983  23.995  26.482  1.00  0.00     0.029 A 
ATOM     38  N   UNL A   1      45.704  26.089  27.215  1.00  0.00    -0.354 N 
ATOM     39  C   UNL A   1      41.821  27.522  28.440  1.00  0.00     0.074 A 
ATOM     40  C   UNL A   1      40.817  26.491  28.307  1.00  0.00     0.031 C 
ATOM     41  C   UNL A   1      47.163  24.623  26.361  1.00  0.00     0.029 A 
ATOM     42  C   UNL A   1      47.014  26.006  26.801  1.00  0.00     0.049 A 
ATOM     43  H   UNL A   1      45.310  26.906  27.596  1.00  0.00     0.167 HD
ATOM     44  C   UNL A   1      41.568  28.781  28.871  1.00  0.00     0.034 A 
ATOM     45  C   UNL A   1      47.983  26.942  26.771  1.00  0.00     0.034 A 
ATOM     46  C   UNL A   1      42.575  29.794  29.036  1.00  0.00     0.049 A 
ATOM     47  C   UNL A   1      47.682  28.324  27.284  1.00  0.00     0.074 A 
ATOM     48  C   UNL A   1      42.435  31.071  29.548  1.00  0.00     0.029 A 
ATOM     49  N   UNL A   1      43.907  29.650  28.681  1.00  0.00    -0.354 N 
ATOM     50  N   UNL A   1      46.561  28.797  27.771  1.00  0.00    -0.248 NA
ATOM     51  C   UNL A   1      48.790  29.290  27.280  1.00  0.00     0.031 C 
ATOM     52  C   UNL A   1      43.676  31.712  29.471  1.00  0.00     0.029 A 
ATOM     53  C   UNL A   1      44.598  30.819  28.949  1.00  0.00     0.049 A 
ATOM     54  H   UNL A   1      44.304  28.836  28.294  1.00  0.00     0.167 HD
ATOM     55  C   UNL A   1      46.836  30.101  28.167  1.00  0.00     0.074 A 
ATOM     56  C   UNL A   1      48.237  30.335  27.881  1.00  0.00     0.031 C 
ATOM     57  C   UNL A   1      46.003  31.025  28.706  1.00  0.00     0.034 A 
BRANCH  44  58
ATOM     58  C   UNL A   1      40.146  29.124  29.239  1.00  0.00     0.023 A 
ATOM     59  C   UNL A   1      39.221  29.444  28.223  1.00  0.00     0.012 A 
ATOM     60  C   UNL A   1      39.711  29.072  30.577  1.00  0.00     0.148 A 
ATOM     61  C   UNL A   1      37.896  29.744  28.537  1.00  0.00     0.002 A 
ATOM     62  C   UNL A   1      38.377  29.324  30.877  1.00  0.00     0.091 A 
ATOM     63  F   UNL A   1      40.608  28.784  31.530  1.00  0.00    -0.205 F 
ATOM     64  C   UNL A   1      37.472  29.673  29.862  1.00  0.00     0.022 A 
BRANCH  62  65
ATOM     65  S   UNL A   1      37.712  29.177  32.540  1.00  0.00     0.127 S 
ATOM     66  O   UNL A   1      36.343  29.656  32.353  1.00  0.00    -0.237 OA
ATOM     67  O   UNL A   1      37.825  27.739  32.788  1.00  0.00    -0.237 OA
ATOM     68  O   UNL A   1      38.555  30.009  33.385  1.00  0.00    -0.744 OA
ENDBRANCH  62  65
ENDBRANCH  44  58
BRANCH  45  69
ATOM     69  C   UNL A   1      49.347  26.586  26.285  1.00  0.00     0.023 A 
ATOM     70  C   UNL A   1      50.160  25.737  27.062  1.00  0.00     0.012 A 
ATOM     71  C   UNL A   1      49.834  27.065  25.054  1.00  0.00     0.148 A 
ATOM     72  C   UNL A   1      51.446  25.402  26.639  1.00  0.00     0.002 A 
ATOM     73  C   UNL A   1      51.094  26.681  24.611  1.00  0.00     0.091 A 
ATOM     74  F   UNL A   1      49.048  27.879  24.334  1.00  0.00    -0.205 F 
ATOM     75  C   UNL A   1      51.909  25.865  25.410  1.00  0.00     0.022 A 
BRANCH  73  76
ATOM     76  S   UNL A   1      51.719  27.120  22.985  1.00  0.00     0.127 S 
ATOM     77  O   UNL A   1      52.811  26.165  22.817  1.00  0.00    -0.237 OA
ATOM     78  O   UNL A   1      50.550  26.876  22.139  1.00  0.00    -0.237 OA
ATOM     79  O   UNL A   1      52.110  28.519  23.078  1.00  0.00    -0.744 OA
ENDBRANCH  73  76
ENDBRANCH  45  69
BRANCH  57  80
ATOM     80  C   UNL A   1      46.588  32.365  29.070  1.00  0.00     0.023 A 
ATOM     81  C   UNL A   1      47.173  32.560  30.336  1.00  0.00     0.012 A 
ATOM     82  C   UNL A   1      46.616  33.411  28.126  1.00  0.00     0.148 A 
ATOM     83  C   UNL A   1      47.743  33.788  30.671  1.00  0.00     0.002 A 
ATOM     84  C   UNL A   1      47.234  34.614  28.448  1.00  0.00     0.091 A 
ATOM     85  F   UNL A   1      46.040  33.212  26.932  1.00  0.00    -0.205 F 
ATOM     86  C   UNL A   1      47.784  34.810  29.725  1.00  0.00     0.022 A 
BRANCH  84  87
ATOM     87  S   UNL A   1      47.422  35.947  27.260  1.00  0.00     0.127 S 
ATOM     88  O   UNL A   1      46.032  36.343  27.034  1.00  0.00    -0.237 OA
ATOM     89  O   UNL A   1      48.219  36.919  28.009  1.00  0.00    -0.237 OA
ATOM     90  O   UNL A   1      48.100  35.369  26.108  1.00  0.00    -0.744 OA
ENDBRANCH  84  87
ENDBRANCH  57  80
ENDBRANCH  31  32
ENDBRANCH  23  26
ENDBRANCH  21  22
ENDBRANCH  20  21
ENDBRANCH   1  20
TORSDOF 18
ENDMDL
MODEL 3
REMARK VINA RESULT:      -9.8      5.483      8.883
REMARK SMILES C[C@@]([NH2+]CCC1CC1)(C(=O)NCCCNC(=O)c1ccc(-c2c3nc(c(-c4cccc(S(=O)(=O)[O-])c4F)c4ccc([nH]4)c(-c4cccc(S(=O)(=O)[O-])c4F)c4nc(c(-c5cccc(S(=O)(=O)[O-])c5F)c5ccc2[nH]5)C=C4)C=C3)cc1)C(F)(F)F
REMARK SMILES IDX 12 1 11 2 9 3 10 4 2 6 1 7 3 8 4 11 5 12 6 13 7 14 8 15
REMARK SMILES IDX 81 16 82 17 83 18 84 19 13 20 14 21 15 22 16 23 17 25 18 26
REMARK SMILES IDX 19 27 80 28 20 29 79 30 21 31 22 32 23 33 73 34 24 35 78 36
REMARK SMILES IDX 72 37 74 38 25 39 77 40 71 41 70 42 26 44 58 45 38 46 57 47
REMARK SMILES IDX 39 48 42 49 56 50 75 51 40 52 41 53 55 55 76 56 43 57 27 58
REMARK SMILES IDX 28 59 36 60 29 61 31 62 37 63 30 64 32 65 33 66 34 67 35 68
REMARK SMILES IDX 59 69 60 70 68 71 61 72 63 73 69 74 62 75 64 76 65 77 66 78
REMARK SMILES IDX 67 79 44 80 45 81 53 82 46 83 48 84 54 85 47 86 49 87 50 88
REMARK SMILES IDX 51 89 52 90
REMARK H PARENT 11 5 3 9 3 10 15 24 74 43 42 54
REMARK Flexibility Score: inf
ROOT
ATOM      1  C   UNL A   1      36.404  20.700  25.236  1.00  0.00     0.118 C 
ENDROOT
BRANCH   1   2
ATOM      2  N   UNL A   1      36.185  21.731  24.236  1.00  0.00    -0.350 N 
ATOM      3  C   UNL A   1      35.123  22.561  24.014  1.00  0.00     0.290 C 
ATOM      4  O   UNL A   1      35.235  23.316  23.044  1.00  0.00    -0.267 OA
ATOM      5  H   UNL A   1      36.933  21.850  23.607  1.00  0.00     0.163 HD
BRANCH   3   6
ATOM      6  C   UNL A   1      33.888  22.581  24.938  1.00  0.00     0.268 C 
ATOM      7  C   UNL A   1      32.699  23.268  24.229  1.00  0.00     0.101 C 
BRANCH   6   8
ATOM      8  N   UNL A   1      33.422  21.178  25.240  1.00  0.00    -0.326 N 
ATOM      9  H   UNL A   1      33.126  21.159  26.216  1.00  0.00     0.347 HD
ATOM     10  H   UNL A   1      34.221  20.586  25.011  1.00  0.00     0.347 HD
BRANCH   8  11
ATOM     11  C   UNL A   1      32.320  20.641  24.437  1.00  0.00     0.261 C 
BRANCH  11  12
ATOM     12  C   UNL A   1      32.567  19.356  23.635  1.00  0.00     0.065 C 
BRANCH  12  13
ATOM     13  C   UNL A   1      33.128  18.223  24.447  1.00  0.00    -0.006 C 
ATOM     14  C   UNL A   1      33.339  16.868  23.829  1.00  0.00     0.004 C 
ATOM     15  C   UNL A   1      34.522  17.732  24.167  1.00  0.00     0.004 C 
ENDBRANCH  12  13
ENDBRANCH  11  12
ENDBRANCH   8  11
ENDBRANCH   6   8
BRANCH   6  16
ATOM     16  C   UNL A   1      34.235  23.498  26.146  1.00  0.00     0.453 C 
ATOM     17  F   UNL A   1      33.419  24.575  26.232  1.00  0.00    -0.164 F 
ATOM     18  F   UNL A   1      34.067  22.803  27.307  1.00  0.00    -0.164 F 
ATOM     19  F   UNL A   1      35.506  23.948  26.156  1.00  0.00    -0.164 F 
ENDBRANCH   6  16
ENDBRANCH   3   6
ENDBRANCH   1   2
BRANCH   1  20
ATOM     20  C   UNL A   1      37.697  19.940  24.973  1.00  0.00     0.042 C 
BRANCH  20  21
ATOM     21  C   UNL A   1      38.888  20.474  25.757  1.00  0.00     0.118 C 
BRANCH  21  22
ATOM     22  N   UNL A   1      39.931  19.472  25.935  1.00  0.00    -0.352 N 
ATOM     23  C   UNL A   1      41.274  19.634  26.168  1.00  0.00     0.251 C 
ATOM     24  H   UNL A   1      39.627  18.538  25.879  1.00  0.00     0.163 HD
ATOM     25  O   UNL A   1      42.023  18.667  26.089  1.00  0.00    -0.269 OA
BRANCH  23  26
ATOM     26  C   UNL A   1      41.816  20.971  26.499  1.00  0.00     0.039 A 
ATOM     27  C   UNL A   1      42.091  21.862  25.459  1.00  0.00     0.014 A 
ATOM     28  C   UNL A   1      42.068  21.339  27.824  1.00  0.00     0.014 A 
ATOM     29  C   UNL A   1      42.564  23.143  25.753  1.00  0.00     0.010 A 
ATOM     30  C   UNL A   1      42.457  22.642  28.118  1.00  0.00     0.010 A 
ATOM     31  C   UNL A   1      42.720  23.555  27.087  1.00  0.00    -0.014 A 
BRANCH  31  32
ATOM     32  C   UNL A   1      43.151  24.937  27.420  1.00  0.00     0.031 A 
ATOM     33  C   UNL A   1      42.175  25.916  28.016  1.00  0.00     0.074 A 
ATOM     34  C   UNL A   1      44.403  25.334  27.113  1.00  0.00     0.049 A 
ATOM     35  N   UNL A   1      42.357  27.174  28.328  1.00  0.00    -0.248 NA
ATOM     36  C   UNL A   1      40.809  25.430  28.271  1.00  0.00     0.031 C 
ATOM     37  C   UNL A   1      45.417  24.503  26.462  1.00  0.00     0.029 A 
ATOM     38  N   UNL A   1      45.025  26.545  27.284  1.00  0.00    -0.354 N 
ATOM     39  C   UNL A   1      41.126  27.635  28.779  1.00  0.00     0.074 A 
ATOM     40  C   UNL A   1      40.195  26.535  28.667  1.00  0.00     0.031 C 
ATOM     41  C   UNL A   1      46.537  25.223  26.296  1.00  0.00     0.029 A 
ATOM     42  C   UNL A   1      46.310  26.576  26.793  1.00  0.00     0.049 A 
ATOM     43  H   UNL A   1      44.595  27.316  27.715  1.00  0.00     0.167 HD
ATOM     44  C   UNL A   1      40.805  28.857  29.269  1.00  0.00     0.034 A 
ATOM     45  C   UNL A   1      47.203  27.584  26.740  1.00  0.00     0.034 A 
ATOM     46  C   UNL A   1      41.741  29.939  29.411  1.00  0.00     0.049 A 
ATOM     47  C   UNL A   1      46.830  28.923  27.319  1.00  0.00     0.074 A 
ATOM     48  C   UNL A   1      41.536  31.185  29.976  1.00  0.00     0.029 A 
ATOM     49  N   UNL A   1      43.057  29.909  28.976  1.00  0.00    -0.354 N 
ATOM     50  N   UNL A   1      45.708  29.292  27.886  1.00  0.00    -0.248 NA
ATOM     51  C   UNL A   1      47.860  29.971  27.286  1.00  0.00     0.031 C 
ATOM     52  C   UNL A   1      42.719  31.921  29.850  1.00  0.00     0.029 A 
ATOM     53  C   UNL A   1      43.673  31.120  29.245  1.00  0.00     0.049 A 
ATOM     54  H   UNL A   1      43.490  29.141  28.538  1.00  0.00     0.167 HD
ATOM     55  C   UNL A   1      45.908  30.600  28.311  1.00  0.00     0.074 A 
ATOM     56  C   UNL A   1      47.267  30.951  27.954  1.00  0.00     0.031 C 
ATOM     57  C   UNL A   1      45.041  31.440  28.930  1.00  0.00     0.034 A 
BRANCH  44  58
ATOM     58  C   UNL A   1      39.385  29.077  29.729  1.00  0.00     0.023 A 
ATOM     59  C   UNL A   1      39.000  28.669  31.022  1.00  0.00     0.012 A 
ATOM     60  C   UNL A   1      38.453  29.739  28.907  1.00  0.00     0.148 A 
ATOM     61  C   UNL A   1      37.699  28.882  31.477  1.00  0.00     0.002 A 
ATOM     62  C   UNL A   1      37.172  29.992  29.386  1.00  0.00     0.091 A 
ATOM     63  F   UNL A   1      38.831  30.103  27.674  1.00  0.00    -0.205 F 
ATOM     64  C   UNL A   1      36.789  29.552  30.664  1.00  0.00     0.022 A 
BRANCH  62  65
ATOM     65  S   UNL A   1      35.952  30.921  28.450  1.00  0.00     0.127 S 
ATOM     66  O   UNL A   1      35.565  29.952  27.426  1.00  0.00    -0.237 OA
ATOM     67  O   UNL A   1      34.926  31.183  29.460  1.00  0.00    -0.237 OA
ATOM     68  O   UNL A   1      36.640  32.107  27.959  1.00  0.00    -0.744 OA
ENDBRANCH  62  65
ENDBRANCH  44  58
BRANCH  45  69
ATOM     69  C   UNL A   1      48.558  27.351  26.165  1.00  0.00     0.023 A 
ATOM     70  C   UNL A   1      49.597  26.896  27.001  1.00  0.00     0.012 A 
ATOM     71  C   UNL A   1      48.819  27.555  24.797  1.00  0.00     0.148 A 
ATOM     72  C   UNL A   1      50.879  26.684  26.492  1.00  0.00     0.002 A 
ATOM     73  C   UNL A   1      50.082  27.287  24.284  1.00  0.00     0.091 A 
ATOM     74  F   UNL A   1      47.819  27.997  24.020  1.00  0.00    -0.205 F 
ATOM     75  C   UNL A   1      51.119  26.871  25.134  1.00  0.00     0.022 A 
BRANCH  73  76
ATOM     76  S   UNL A   1      50.448  27.371  22.528  1.00  0.00     0.127 S 
ATOM     77  O   UNL A   1      50.299  28.798  22.259  1.00  0.00    -0.237 OA
ATOM     78  O   UNL A   1      51.824  26.875  22.484  1.00  0.00    -0.237 OA
ATOM     79  O   UNL A   1      49.476  26.500  21.881  1.00  0.00    -0.744 OA
ENDBRANCH  73  76
ENDBRANCH  45  69
BRANCH  57  80
ATOM     80  C   UNL A   1      45.544  32.810  29.307  1.00  0.00     0.023 A 
ATOM     81  C   UNL A   1      46.124  33.025  30.572  1.00  0.00     0.012 A 
ATOM     82  C   UNL A   1      45.502  33.867  28.376  1.00  0.00     0.148 A 
ATOM     83  C   UNL A   1      46.619  34.282  30.919  1.00  0.00     0.002 A 
ATOM     84  C   UNL A   1      46.045  35.101  28.710  1.00  0.00     0.091 A 
ATOM     85  F   UNL A   1      44.930  33.647  27.183  1.00  0.00    -0.205 F 
ATOM     86  C   UNL A   1      46.591  35.316  29.986  1.00  0.00     0.022 A 
BRANCH  84  87
ATOM     87  S   UNL A   1      46.143  36.458  27.537  1.00  0.00     0.127 S 
ATOM     88  O   UNL A   1      45.037  37.310  27.975  1.00  0.00    -0.237 OA
ATOM     89  O   UNL A   1      47.474  37.004  27.805  1.00  0.00    -0.237 OA
ATOM     90  O   UNL A   1      45.988  35.863  26.217  1.00  0.00    -0.744 OA
ENDBRANCH  84  87
ENDBRANCH  57  80
ENDBRANCH  31  32
ENDBRANCH  23  26
ENDBRANCH  21  22
ENDBRANCH  20  21
ENDBRANCH   1  20
TORSDOF 18
ENDMDL
