MODEL 1
REMARK VINA RESULT:     -10.2      0.000      0.000
REMARK SMILES C[C@H]1[C@@H](C(=O)NCCCNC(=O)c2ccc(-c3c4nc(c(-c5cccc(S(=O)(=O)[O-])c5F)c5ccc([nH]5)c(-c5cccc(S(=O)(=O)[O-])c5F)c5nc(c(-c6cccc(S(=O)(=O)[O-])c6F)c6ccc3[nH]6)C=C5)C=C4)cc2)CC[N@@H+]1CC(F)(F)F
REMARK SMILES IDX 8 1 7 2 6 3 4 4 5 5 3 7 1 8 2 9 78 10 76 11 77 12 79 14
REMARK SMILES IDX 80 15 81 16 82 17 83 18 9 19 10 20 11 21 12 23 13 24 14 25
REMARK SMILES IDX 75 26 15 27 74 28 16 29 17 30 18 31 68 32 19 33 73 34 67 35
REMARK SMILES IDX 69 36 20 37 72 38 66 39 65 40 21 42 53 43 33 44 52 45 34 46
REMARK SMILES IDX 37 47 51 48 70 49 35 50 36 51 50 53 71 54 38 55 22 56 23 57
REMARK SMILES IDX 31 58 24 59 26 60 32 61 25 62 27 63 28 64 29 65 30 66 54 67
REMARK SMILES IDX 55 68 63 69 56 70 58 71 64 72 57 73 59 74 60 75 61 76 62 77
REMARK SMILES IDX 39 78 40 79 48 80 41 81 43 82 49 83 42 84 44 85 45 86 46 87
REMARK SMILES IDX 47 88
REMARK H PARENT 6 6 78 13 10 22 69 41 37 52
REMARK Flexibility Score: inf
ROOT
ATOM      1  C   UNL A   1      33.830  34.207  27.992  1.00  0.00     0.042 C 
ENDROOT
BRANCH   1   2
ATOM      2  C   UNL A   1      34.299  35.326  28.925  1.00  0.00     0.117 C 
BRANCH   2   3
ATOM      3  N   UNL A   1      33.443  35.389  30.094  1.00  0.00    -0.356 N 
ATOM      4  C   UNL A   1      33.658  35.024  31.387  1.00  0.00     0.229 C 
ATOM      5  O   UNL A   1      32.654  34.954  32.100  1.00  0.00    -0.275 OA
ATOM      6  H   UNL A   1      32.548  35.761  29.922  1.00  0.00     0.163 HD
BRANCH   4   7
ATOM      7  C   UNL A   1      35.074  34.877  31.950  1.00  0.00     0.142 C 
ATOM      8  C   UNL A   1      35.127  32.279  31.447  1.00  0.00     0.076 C 
ATOM      9  C   UNL A   1      35.707  33.485  32.159  1.00  0.00     0.193 C 
ATOM     10  N   UNL A   1      35.659  33.180  33.605  1.00  0.00    -0.325 N 
ATOM     11  C   UNL A   1      35.122  35.466  33.370  1.00  0.00     0.081 C 
ATOM     12  C   UNL A   1      34.923  34.256  34.260  1.00  0.00     0.263 C 
ATOM     13  H   UNL A   1      35.160  32.304  33.762  1.00  0.00     0.348 HD
BRANCH  10  14
ATOM     14  C   UNL A   1      36.992  32.890  34.187  1.00  0.00     0.379 C 
BRANCH  14  15
ATOM     15  C   UNL A   1      38.253  33.630  33.699  1.00  0.00     0.438 C 
ATOM     16  F   UNL A   1      39.378  33.130  34.259  1.00  0.00    -0.165 F 
ATOM     17  F   UNL A   1      38.387  33.510  32.358  1.00  0.00    -0.165 F 
ATOM     18  F   UNL A   1      38.209  34.953  33.978  1.00  0.00    -0.165 F 
ENDBRANCH  14  15
ENDBRANCH  10  14
ENDBRANCH   4   7
ENDBRANCH   2   3
ENDBRANCH   1   2
BRANCH   1  19
ATOM     19  C   UNL A   1      34.712  32.966  28.012  1.00  0.00     0.118 C 
BRANCH  19  20
ATOM     20  N   UNL A   1      33.968  31.767  27.679  1.00  0.00    -0.352 N 
ATOM     21  C   UNL A   1      34.393  30.465  27.579  1.00  0.00     0.251 C 
ATOM     22  H   UNL A   1      33.011  31.909  27.496  1.00  0.00     0.163 HD
ATOM     23  O   UNL A   1      33.651  29.646  27.039  1.00  0.00    -0.269 OA
BRANCH  21  24
ATOM     24  C   UNL A   1      35.718  30.031  28.094  1.00  0.00     0.039 A 
ATOM     25  C   UNL A   1      36.830  30.148  27.254  1.00  0.00     0.014 A 
ATOM     26  C   UNL A   1      35.875  29.447  29.354  1.00  0.00     0.014 A 
ATOM     27  C   UNL A   1      38.087  29.708  27.684  1.00  0.00     0.010 A 
ATOM     28  C   UNL A   1      37.144  29.098  29.818  1.00  0.00     0.010 A 
ATOM     29  C   UNL A   1      38.262  29.194  28.979  1.00  0.00    -0.014 A 
BRANCH  29  30
ATOM     30  C   UNL A   1      39.595  28.723  29.447  1.00  0.00     0.031 A 
ATOM     31  C   UNL A   1      40.313  29.440  30.564  1.00  0.00     0.074 A 
ATOM     32  C   UNL A   1      40.193  27.682  28.834  1.00  0.00     0.049 A 
ATOM     33  N   UNL A   1      41.482  29.183  31.094  1.00  0.00    -0.248 NA
ATOM     34  C   UNL A   1      39.644  30.617  31.144  1.00  0.00     0.031 C 
ATOM     35  C   UNL A   1      39.652  26.956  27.683  1.00  0.00     0.029 A 
ATOM     36  N   UNL A   1      41.395  27.066  29.079  1.00  0.00    -0.354 N 
ATOM     37  C   UNL A   1      41.703  30.181  32.038  1.00  0.00     0.074 A 
ATOM     38  C   UNL A   1      40.566  31.073  31.979  1.00  0.00     0.031 C 
ATOM     39  C   UNL A   1      40.515  25.991  27.326  1.00  0.00     0.029 A 
ATOM     40  C   UNL A   1      41.678  26.039  28.208  1.00  0.00     0.049 A 
ATOM     41  H   UNL A   1      41.998  27.334  29.808  1.00  0.00     0.167 HD
ATOM     42  C   UNL A   1      42.735  30.325  32.903  1.00  0.00     0.034 A 
ATOM     43  C   UNL A   1      42.750  25.227  28.126  1.00  0.00     0.034 A 
ATOM     44  C   UNL A   1      43.839  29.408  33.002  1.00  0.00     0.049 A 
ATOM     45  C   UNL A   1      43.851  25.361  29.144  1.00  0.00     0.074 A 
ATOM     46  C   UNL A   1      44.888  29.416  33.905  1.00  0.00     0.029 A 
ATOM     47  N   UNL A   1      44.038  28.318  32.169  1.00  0.00    -0.354 N 
ATOM     48  N   UNL A   1      43.958  26.211  30.136  1.00  0.00    -0.248 NA
ATOM     49  C   UNL A   1      44.957  24.397  29.058  1.00  0.00     0.031 C 
ATOM     50  C   UNL A   1      45.728  28.336  33.609  1.00  0.00     0.029 A 
ATOM     51  C   UNL A   1      45.192  27.646  32.534  1.00  0.00     0.049 A 
ATOM     52  H   UNL A   1      43.445  28.059  31.426  1.00  0.00     0.167 HD
ATOM     53  C   UNL A   1      45.125  25.869  30.809  1.00  0.00     0.074 A 
ATOM     54  C   UNL A   1      45.674  24.714  30.128  1.00  0.00     0.031 C 
ATOM     55  C   UNL A   1      45.702  26.469  31.880  1.00  0.00     0.034 A 
BRANCH  42  56
ATOM     56  C   UNL A   1      42.682  31.485  33.867  1.00  0.00     0.023 A 
ATOM     57  C   UNL A   1      43.255  32.719  33.494  1.00  0.00     0.012 A 
ATOM     58  C   UNL A   1      42.029  31.375  35.109  1.00  0.00     0.148 A 
ATOM     59  C   UNL A   1      43.214  33.813  34.357  1.00  0.00     0.002 A 
ATOM     60  C   UNL A   1      41.955  32.484  35.948  1.00  0.00     0.091 A 
ATOM     61  F   UNL A   1      41.508  30.190  35.457  1.00  0.00    -0.205 F 
ATOM     62  C   UNL A   1      42.556  33.698  35.578  1.00  0.00     0.022 A 
BRANCH  60  63
ATOM     63  S   UNL A   1      41.063  32.461  37.507  1.00  0.00     0.127 S 
ATOM     64  O   UNL A   1      41.903  31.578  38.315  1.00  0.00    -0.237 OA
ATOM     65  O   UNL A   1      41.100  33.869  37.905  1.00  0.00    -0.237 OA
ATOM     66  O   UNL A   1      39.733  31.953  37.200  1.00  0.00    -0.744 OA
ENDBRANCH  60  63
ENDBRANCH  42  56
BRANCH  43  67
ATOM     67  C   UNL A   1      42.792  24.160  27.086  1.00  0.00     0.023 A 
ATOM     68  C   UNL A   1      43.545  24.365  25.914  1.00  0.00     0.012 A 
ATOM     69  C   UNL A   1      42.128  22.932  27.269  1.00  0.00     0.148 A 
ATOM     70  C   UNL A   1      43.616  23.378  24.931  1.00  0.00     0.002 A 
ATOM     71  C   UNL A   1      42.247  21.931  26.311  1.00  0.00     0.091 A 
ATOM     72  F   UNL A   1      41.404  22.761  28.384  1.00  0.00    -0.205 F 
ATOM     73  C   UNL A   1      42.978  22.158  25.134  1.00  0.00     0.022 A 
BRANCH  71  74
ATOM     74  S   UNL A   1      41.577  20.283  26.557  1.00  0.00     0.127 S 
ATOM     75  O   UNL A   1      40.138  20.542  26.557  1.00  0.00    -0.237 OA
ATOM     76  O   UNL A   1      42.074  19.573  25.376  1.00  0.00    -0.237 OA
ATOM     77  O   UNL A   1      42.138  19.815  27.815  1.00  0.00    -0.744 OA
ENDBRANCH  71  74
ENDBRANCH  43  67
BRANCH  55  78
ATOM     78  C   UNL A   1      46.987  25.878  32.399  1.00  0.00     0.023 A 
ATOM     79  C   UNL A   1      48.219  26.347  31.902  1.00  0.00     0.012 A 
ATOM     80  C   UNL A   1      46.977  24.910  33.422  1.00  0.00     0.148 A 
ATOM     81  C   UNL A   1      49.422  25.834  32.389  1.00  0.00     0.002 A 
ATOM     82  C   UNL A   1      48.180  24.437  33.935  1.00  0.00     0.091 A 
ATOM     83  F   UNL A   1      45.795  24.460  33.869  1.00  0.00    -0.205 F 
ATOM     84  C   UNL A   1      49.402  24.889  33.411  1.00  0.00     0.022 A 
BRANCH  82  85
ATOM     85  S   UNL A   1      48.246  23.288  35.314  1.00  0.00     0.127 S 
ATOM     86  O   UNL A   1      49.679  23.018  35.410  1.00  0.00    -0.237 OA
ATOM     87  O   UNL A   1      47.702  24.086  36.414  1.00  0.00    -0.237 OA
ATOM     88  O   UNL A   1      47.416  22.156  34.927  1.00  0.00    -0.744 OA
ENDBRANCH  82  85
ENDBRANCH  55  78
ENDBRANCH  29  30
ENDBRANCH  21  24
ENDBRANCH  19  20
ENDBRANCH   1  19
TORSDOF 15
ENDMDL
MODEL 2
REMARK VINA RESULT:     -10.0      3.816      6.621
REMARK SMILES C[C@H]1[C@@H](C(=O)NCCCNC(=O)c2ccc(-c3c4nc(c(-c5cccc(S(=O)(=O)[O-])c5F)c5ccc([nH]5)c(-c5cccc(S(=O)(=O)[O-])c5F)c5nc(c(-c6cccc(S(=O)(=O)[O-])c6F)c6ccc3[nH]6)C=C5)C=C4)cc2)CC[N@@H+]1CC(F)(F)F
REMARK SMILES IDX 8 1 7 2 6 3 4 4 5 5 3 7 1 8 2 9 78 10 76 11 77 12 79 14
REMARK SMILES IDX 80 15 81 16 82 17 83 18 9 19 10 20 11 21 12 23 13 24 14 25
REMARK SMILES IDX 75 26 15 27 74 28 16 29 17 30 18 31 68 32 19 33 73 34 67 35
REMARK SMILES IDX 69 36 20 37 72 38 66 39 65 40 21 42 53 43 33 44 52 45 34 46
REMARK SMILES IDX 37 47 51 48 70 49 35 50 36 51 50 53 71 54 38 55 22 56 23 57
REMARK SMILES IDX 31 58 24 59 26 60 32 61 25 62 27 63 28 64 29 65 30 66 54 67
REMARK SMILES IDX 55 68 63 69 56 70 58 71 64 72 57 73 59 74 60 75 61 76 62 77
REMARK SMILES IDX 39 78 40 79 48 80 41 81 43 82 49 83 42 84 44 85 45 86 46 87
REMARK SMILES IDX 47 88
REMARK H PARENT 6 6 78 13 10 22 69 41 37 52
REMARK Flexibility Score: inf
ROOT
ATOM      1  C   UNL A   1      32.966  29.230  24.297  1.00  0.00     0.042 C 
ENDROOT
BRANCH   1   2
ATOM      2  C   UNL A   1      31.900  28.575  23.415  1.00  0.00     0.117 C 
BRANCH   2   3
ATOM      3  N   UNL A   1      32.531  27.838  22.338  1.00  0.00    -0.356 N 
ATOM      4  C   UNL A   1      32.901  26.532  22.238  1.00  0.00     0.229 C 
ATOM      5  O   UNL A   1      33.653  26.257  21.299  1.00  0.00    -0.275 OA
ATOM      6  H   UNL A   1      32.727  28.377  21.538  1.00  0.00     0.163 HD
BRANCH   4   7
ATOM      7  C   UNL A   1      32.285  25.456  23.135  1.00  0.00     0.142 C 
ATOM      8  C   UNL A   1      34.060  25.876  25.052  1.00  0.00     0.076 C 
ATOM      9  C   UNL A   1      32.987  25.004  24.433  1.00  0.00     0.193 C 
ATOM     10  N   UNL A   1      33.615  23.691  24.171  1.00  0.00    -0.325 N 
ATOM     11  C   UNL A   1      32.181  24.137  22.351  1.00  0.00     0.081 C 
ATOM     12  C   UNL A   1      33.433  23.387  22.756  1.00  0.00     0.263 C 
ATOM     13  H   UNL A   1      34.615  23.736  24.367  1.00  0.00     0.348 HD
BRANCH  10  14
ATOM     14  C   UNL A   1      33.161  22.629  25.101  1.00  0.00     0.379 C 
BRANCH  14  15
ATOM     15  C   UNL A   1      33.906  21.283  25.199  1.00  0.00     0.438 C 
ATOM     16  F   UNL A   1      33.716  20.688  26.399  1.00  0.00    -0.165 F 
ATOM     17  F   UNL A   1      33.463  20.422  24.253  1.00  0.00    -0.165 F 
ATOM     18  F   UNL A   1      35.239  21.423  25.017  1.00  0.00    -0.165 F 
ENDBRANCH  14  15
ENDBRANCH  10  14
ENDBRANCH   4   7
ENDBRANCH   2   3
ENDBRANCH   1   2
BRANCH   1  19
ATOM     19  C   UNL A   1      32.539  29.438  25.743  1.00  0.00     0.118 C 
BRANCH  19  20
ATOM     20  N   UNL A   1      32.307  30.838  26.043  1.00  0.00    -0.352 N 
ATOM     21  C   UNL A   1      32.918  31.656  26.962  1.00  0.00     0.251 C 
ATOM     22  H   UNL A   1      31.602  31.267  25.506  1.00  0.00     0.163 HD
ATOM     23  O   UNL A   1      32.395  32.738  27.223  1.00  0.00    -0.269 OA
BRANCH  21  24
ATOM     24  C   UNL A   1      34.178  31.262  27.645  1.00  0.00     0.039 A 
ATOM     25  C   UNL A   1      34.350  29.922  28.005  1.00  0.00     0.014 A 
ATOM     26  C   UNL A   1      35.156  32.195  28.004  1.00  0.00     0.014 A 
ATOM     27  C   UNL A   1      35.501  29.518  28.692  1.00  0.00     0.010 A 
ATOM     28  C   UNL A   1      36.346  31.775  28.602  1.00  0.00     0.010 A 
ATOM     29  C   UNL A   1      36.522  30.438  28.982  1.00  0.00    -0.014 A 
BRANCH  29  30
ATOM     30  C   UNL A   1      37.750  30.021  29.712  1.00  0.00     0.031 A 
ATOM     31  C   UNL A   1      38.019  30.522  31.110  1.00  0.00     0.074 A 
ATOM     32  C   UNL A   1      38.659  29.234  29.102  1.00  0.00     0.049 A 
ATOM     33  N   UNL A   1      39.039  30.278  31.893  1.00  0.00    -0.248 NA
ATOM     34  C   UNL A   1      37.028  31.440  31.695  1.00  0.00     0.031 C 
ATOM     35  C   UNL A   1      38.570  28.752  27.722  1.00  0.00     0.029 A 
ATOM     36  N   UNL A   1      39.848  28.717  29.556  1.00  0.00    -0.354 N 
ATOM     37  C   UNL A   1      38.831  31.035  33.041  1.00  0.00     0.074 A 
ATOM     38  C   UNL A   1      37.608  31.781  32.835  1.00  0.00     0.031 C 
ATOM     39  C   UNL A   1      39.651  28.007  27.444  1.00  0.00     0.029 A 
ATOM     40  C   UNL A   1      40.521  27.971  28.616  1.00  0.00     0.049 A 
ATOM     41  H   UNL A   1      40.186  28.867  30.468  1.00  0.00     0.167 HD
ATOM     42  C   UNL A   1      39.564  31.081  34.179  1.00  0.00     0.034 A 
ATOM     43  C   UNL A   1      41.704  27.329  28.688  1.00  0.00     0.034 A 
ATOM     44  C   UNL A   1      40.749  30.299  34.407  1.00  0.00     0.049 A 
ATOM     45  C   UNL A   1      42.464  27.336  29.987  1.00  0.00     0.074 A 
ATOM     46  C   UNL A   1      41.512  30.206  35.558  1.00  0.00     0.029 A 
ATOM     47  N   UNL A   1      41.344  29.473  33.467  1.00  0.00    -0.354 N 
ATOM     48  N   UNL A   1      42.162  27.927  31.117  1.00  0.00    -0.248 NA
ATOM     49  C   UNL A   1      43.707  26.553  30.034  1.00  0.00     0.031 C 
ATOM     50  C   UNL A   1      42.576  29.331  35.308  1.00  0.00     0.029 A 
ATOM     51  C   UNL A   1      42.465  28.866  34.008  1.00  0.00     0.049 A 
ATOM     52  H   UNL A   1      41.017  29.336  32.548  1.00  0.00     0.167 HD
ATOM     53  C   UNL A   1      43.158  27.566  32.016  1.00  0.00     0.074 A 
ATOM     54  C   UNL A   1      44.058  26.679  31.306  1.00  0.00     0.031 C 
ATOM     55  C   UNL A   1      43.326  27.949  33.307  1.00  0.00     0.034 A 
BRANCH  42  56
ATOM     56  C   UNL A   1      39.062  31.959  35.299  1.00  0.00     0.023 A 
ATOM     57  C   UNL A   1      39.183  33.360  35.186  1.00  0.00     0.012 A 
ATOM     58  C   UNL A   1      38.429  31.411  36.431  1.00  0.00     0.148 A 
ATOM     59  C   UNL A   1      38.721  34.200  36.198  1.00  0.00     0.002 A 
ATOM     60  C   UNL A   1      37.930  32.257  37.418  1.00  0.00     0.091 A 
ATOM     61  F   UNL A   1      38.340  30.078  36.533  1.00  0.00    -0.205 F 
ATOM     62  C   UNL A   1      38.086  33.649  37.308  1.00  0.00     0.022 A 
BRANCH  60  63
ATOM     63  S   UNL A   1      37.028  31.652  38.848  1.00  0.00     0.127 S 
ATOM     64  O   UNL A   1      35.874  32.550  38.870  1.00  0.00    -0.237 OA
ATOM     65  O   UNL A   1      36.720  30.274  38.460  1.00  0.00    -0.237 OA
ATOM     66  O   UNL A   1      37.939  31.774  39.977  1.00  0.00    -0.744 OA
ENDBRANCH  60  63
ENDBRANCH  42  56
BRANCH  43  67
ATOM     67  C   UNL A   1      42.198  26.558  27.512  1.00  0.00     0.023 A 
ATOM     68  C   UNL A   1      42.992  27.205  26.545  1.00  0.00     0.012 A 
ATOM     69  C   UNL A   1      41.925  25.184  27.368  1.00  0.00     0.148 A 
ATOM     70  C   UNL A   1      43.483  26.505  25.443  1.00  0.00     0.002 A 
ATOM     71  C   UNL A   1      42.463  24.479  26.298  1.00  0.00     0.091 A 
ATOM     72  F   UNL A   1      41.155  24.590  28.291  1.00  0.00    -0.205 F 
ATOM     73  C   UNL A   1      43.229  25.142  25.325  1.00  0.00     0.022 A 
BRANCH  71  74
ATOM     74  S   UNL A   1      42.303  22.697  26.145  1.00  0.00     0.127 S 
ATOM     75  O   UNL A   1      43.001  22.440  24.886  1.00  0.00    -0.237 OA
ATOM     76  O   UNL A   1      43.002  22.225  27.343  1.00  0.00    -0.237 OA
ATOM     77  O   UNL A   1      40.873  22.431  26.144  1.00  0.00    -0.744 OA
ENDBRANCH  71  74
ENDBRANCH  43  67
BRANCH  55  78
ATOM     78  C   UNL A   1      44.517  27.399  34.047  1.00  0.00     0.023 A 
ATOM     79  C   UNL A   1      45.717  28.137  34.081  1.00  0.00     0.012 A 
ATOM     80  C   UNL A   1      44.430  26.188  34.760  1.00  0.00     0.148 A 
ATOM     81  C   UNL A   1      46.823  27.661  34.783  1.00  0.00     0.002 A 
ATOM     82  C   UNL A   1      45.522  25.742  35.497  1.00  0.00     0.091 A 
ATOM     83  F   UNL A   1      43.287  25.488  34.701  1.00  0.00    -0.205 F 
ATOM     84  C   UNL A   1      46.722  26.471  35.499  1.00  0.00     0.022 A 
BRANCH  82  85
ATOM     85  S   UNL A   1      45.448  24.267  36.520  1.00  0.00     0.127 S 
ATOM     86  O   UNL A   1      46.822  24.172  37.008  1.00  0.00    -0.237 OA
ATOM     87  O   UNL A   1      44.465  24.642  37.539  1.00  0.00    -0.237 OA
ATOM     88  O   UNL A   1      45.017  23.193  35.637  1.00  0.00    -0.744 OA
ENDBRANCH  82  85
ENDBRANCH  55  78
ENDBRANCH  29  30
ENDBRANCH  21  24
ENDBRANCH  19  20
ENDBRANCH   1  19
TORSDOF 15
ENDMDL
MODEL 3
REMARK VINA RESULT:     -10.0      4.840     11.883
REMARK SMILES C[C@H]1[C@@H](C(=O)NCCCNC(=O)c2ccc(-c3c4nc(c(-c5cccc(S(=O)(=O)[O-])c5F)c5ccc([nH]5)c(-c5cccc(S(=O)(=O)[O-])c5F)c5nc(c(-c6cccc(S(=O)(=O)[O-])c6F)c6ccc3[nH]6)C=C5)C=C4)cc2)CC[N@@H+]1CC(F)(F)F
REMARK SMILES IDX 8 1 7 2 6 3 4 4 5 5 3 7 1 8 2 9 78 10 76 11 77 12 79 14
REMARK SMILES IDX 80 15 81 16 82 17 83 18 9 19 10 20 11 21 12 23 13 24 14 25
REMARK SMILES IDX 75 26 15 27 74 28 16 29 17 30 18 31 68 32 19 33 73 34 67 35
REMARK SMILES IDX 69 36 20 37 72 38 66 39 65 40 21 42 53 43 33 44 52 45 34 46
REMARK SMILES IDX 37 47 51 48 70 49 35 50 36 51 50 53 71 54 38 55 22 56 23 57
REMARK SMILES IDX 31 58 24 59 26 60 32 61 25 62 27 63 28 64 29 65 30 66 54 67
REMARK SMILES IDX 55 68 63 69 56 70 58 71 64 72 57 73 59 74 60 75 61 76 62 77
REMARK SMILES IDX 39 78 40 79 48 80 41 81 43 82 49 83 42 84 44 85 45 86 46 87
REMARK SMILES IDX 47 88
REMARK H PARENT 6 6 78 13 10 22 69 41 37 52
REMARK Flexibility Score: inf
ROOT
ATOM      1  C   UNL A   1      41.290  20.049  27.169  1.00  0.00     0.042 C 
ENDROOT
BRANCH   1   2
ATOM      2  C   UNL A   1      42.669  19.924  26.514  1.00  0.00     0.117 C 
BRANCH   2   3
ATOM      3  N   UNL A   1      42.759  20.814  25.373  1.00  0.00    -0.356 N 
ATOM      4  C   UNL A   1      43.622  21.826  25.088  1.00  0.00     0.229 C 
ATOM      5  O   UNL A   1      43.289  22.574  24.165  1.00  0.00    -0.275 OA
ATOM      6  H   UNL A   1      42.073  20.660  24.683  1.00  0.00     0.163 HD
BRANCH   4   7
ATOM      7  C   UNL A   1      44.993  21.920  25.763  1.00  0.00     0.142 C 
ATOM      8  C   UNL A   1      44.161  23.777  27.454  1.00  0.00     0.076 C 
ATOM      9  C   UNL A   1      45.300  23.028  26.792  1.00  0.00     0.193 C 
ATOM     10  N   UNL A   1      46.137  24.047  26.122  1.00  0.00    -0.325 N 
ATOM     11  C   UNL A   1      46.071  22.169  24.694  1.00  0.00     0.081 C 
ATOM     12  C   UNL A   1      46.248  23.674  24.716  1.00  0.00     0.263 C 
ATOM     13  H   UNL A   1      45.689  24.961  26.180  1.00  0.00     0.348 HD
BRANCH  10  14
ATOM     14  C   UNL A   1      47.430  24.287  26.808  1.00  0.00     0.379 C 
BRANCH  14  15
ATOM     15  C   UNL A   1      47.565  25.369  27.897  1.00  0.00     0.438 C 
ATOM     16  F   UNL A   1      46.972  26.529  27.532  1.00  0.00    -0.165 F 
ATOM     17  F   UNL A   1      46.976  24.965  29.047  1.00  0.00    -0.165 F 
ATOM     18  F   UNL A   1      48.858  25.644  28.187  1.00  0.00    -0.165 F 
ENDBRANCH  14  15
ENDBRANCH  10  14
ENDBRANCH   4   7
ENDBRANCH   2   3
ENDBRANCH   1   2
BRANCH   1  19
ATOM     19  C   UNL A   1      40.808  21.483  27.339  1.00  0.00     0.118 C 
BRANCH  19  20
ATOM     20  N   UNL A   1      39.691  21.785  26.464  1.00  0.00    -0.352 N 
ATOM     21  C   UNL A   1      38.978  22.950  26.314  1.00  0.00     0.251 C 
ATOM     22  H   UNL A   1      39.400  21.040  25.889  1.00  0.00     0.163 HD
ATOM     23  O   UNL A   1      37.913  22.910  25.699  1.00  0.00    -0.269 OA
BRANCH  21  24
ATOM     24  C   UNL A   1      39.455  24.239  26.879  1.00  0.00     0.039 A 
ATOM     25  C   UNL A   1      39.195  24.512  28.226  1.00  0.00     0.014 A 
ATOM     26  C   UNL A   1      40.085  25.210  26.096  1.00  0.00     0.014 A 
ATOM     27  C   UNL A   1      39.587  25.734  28.786  1.00  0.00     0.010 A 
ATOM     28  C   UNL A   1      40.561  26.387  26.678  1.00  0.00     0.010 A 
ATOM     29  C   UNL A   1      40.291  26.679  28.022  1.00  0.00    -0.014 A 
BRANCH  29  30
ATOM     30  C   UNL A   1      40.712  27.982  28.606  1.00  0.00     0.031 A 
ATOM     31  C   UNL A   1      42.175  28.304  28.789  1.00  0.00     0.074 A 
ATOM     32  C   UNL A   1      39.781  28.862  29.027  1.00  0.00     0.049 A 
ATOM     33  N   UNL A   1      42.729  29.378  29.290  1.00  0.00    -0.248 NA
ATOM     34  C   UNL A   1      43.144  27.273  28.380  1.00  0.00     0.031 C 
ATOM     35  C   UNL A   1      38.334  28.641  28.994  1.00  0.00     0.029 A 
ATOM     36  N   UNL A   1      39.912  30.109  29.585  1.00  0.00    -0.354 N 
ATOM     37  C   UNL A   1      44.099  29.139  29.292  1.00  0.00     0.074 A 
ATOM     38  C   UNL A   1      44.291  27.800  28.779  1.00  0.00     0.031 C 
ATOM     39  C   UNL A   1      37.712  29.716  29.502  1.00  0.00     0.029 A 
ATOM     40  C   UNL A   1      38.713  30.697  29.915  1.00  0.00     0.049 A 
ATOM     41  H   UNL A   1      40.783  30.543  29.735  1.00  0.00     0.167 HD
ATOM     42  C   UNL A   1      45.110  29.967  29.648  1.00  0.00     0.034 A 
ATOM     43  C   UNL A   1      38.445  31.889  30.483  1.00  0.00     0.034 A 
ATOM     44  C   UNL A   1      44.924  31.318  30.105  1.00  0.00     0.049 A 
ATOM     45  C   UNL A   1      39.584  32.820  30.803  1.00  0.00     0.074 A 
ATOM     46  C   UNL A   1      45.886  32.267  30.404  1.00  0.00     0.029 A 
ATOM     47  N   UNL A   1      43.693  31.914  30.327  1.00  0.00    -0.354 N 
ATOM     48  N   UNL A   1      40.872  32.636  30.640  1.00  0.00    -0.248 NA
ATOM     49  C   UNL A   1      39.231  34.140  31.346  1.00  0.00     0.031 C 
ATOM     50  C   UNL A   1      45.234  33.434  30.820  1.00  0.00     0.029 A 
ATOM     51  C   UNL A   1      43.868  33.218  30.762  1.00  0.00     0.049 A 
ATOM     52  H   UNL A   1      42.821  31.476  30.196  1.00  0.00     0.167 HD
ATOM     53  C   UNL A   1      41.480  33.822  31.032  1.00  0.00     0.074 A 
ATOM     54  C   UNL A   1      40.417  34.730  31.413  1.00  0.00     0.031 C 
ATOM     55  C   UNL A   1      42.800  34.127  31.092  1.00  0.00     0.034 A 
BRANCH  42  56
ATOM     56  C   UNL A   1      46.520  29.455  29.488  1.00  0.00     0.023 A 
ATOM     57  C   UNL A   1      47.118  28.734  30.544  1.00  0.00     0.012 A 
ATOM     58  C   UNL A   1      47.235  29.639  28.289  1.00  0.00     0.148 A 
ATOM     59  C   UNL A   1      48.415  28.240  30.425  1.00  0.00     0.002 A 
ATOM     60  C   UNL A   1      48.514  29.105  28.161  1.00  0.00     0.091 A 
ATOM     61  F   UNL A   1      46.662  30.344  27.303  1.00  0.00    -0.205 F 
ATOM     62  C   UNL A   1      49.108  28.417  29.231  1.00  0.00     0.022 A 
BRANCH  60  63
ATOM     63  S   UNL A   1      49.460  29.211  26.637  1.00  0.00     0.127 S 
ATOM     64  O   UNL A   1      49.643  30.656  26.504  1.00  0.00    -0.237 OA
ATOM     65  O   UNL A   1      50.677  28.472  26.976  1.00  0.00    -0.237 OA
ATOM     66  O   UNL A   1      48.637  28.586  25.611  1.00  0.00    -0.744 OA
ENDBRANCH  60  63
ENDBRANCH  42  56
BRANCH  43  67
ATOM     67  C   UNL A   1      37.030  32.299  30.709  1.00  0.00     0.023 A 
ATOM     68  C   UNL A   1      36.467  32.163  31.992  1.00  0.00     0.012 A 
ATOM     69  C   UNL A   1      36.256  32.862  29.676  1.00  0.00     0.148 A 
ATOM     70  C   UNL A   1      35.151  32.555  32.238  1.00  0.00     0.002 A 
ATOM     71  C   UNL A   1      34.964  33.301  29.939  1.00  0.00     0.091 A 
ATOM     72  F   UNL A   1      36.805  32.969  28.457  1.00  0.00    -0.205 F 
ATOM     73  C   UNL A   1      34.404  33.133  31.216  1.00  0.00     0.022 A 
BRANCH  71  74
ATOM     74  S   UNL A   1      33.983  34.184  28.721  1.00  0.00     0.127 S 
ATOM     75  O   UNL A   1      33.733  33.144  27.725  1.00  0.00    -0.237 OA
ATOM     76  O   UNL A   1      32.810  34.580  29.504  1.00  0.00    -0.237 OA
ATOM     77  O   UNL A   1      34.812  35.297  28.284  1.00  0.00    -0.744 OA
ENDBRANCH  71  74
ENDBRANCH  43  67
BRANCH  55  78
ATOM     78  C   UNL A   1      43.176  35.505  31.569  1.00  0.00     0.023 A 
ATOM     79  C   UNL A   1      43.345  35.742  32.948  1.00  0.00     0.012 A 
ATOM     80  C   UNL A   1      43.423  36.546  30.653  1.00  0.00     0.148 A 
ATOM     81  C   UNL A   1      43.720  37.004  33.410  1.00  0.00     0.002 A 
ATOM     82  C   UNL A   1      43.842  37.788  31.118  1.00  0.00     0.091 A 
ATOM     83  F   UNL A   1      43.237  36.309  29.346  1.00  0.00    -0.205 F 
ATOM     84  C   UNL A   1      43.978  38.022  32.496  1.00  0.00     0.022 A 
BRANCH  82  85
ATOM     85  S   UNL A   1      44.283  39.127  30.005  1.00  0.00     0.127 S 
ATOM     86  O   UNL A   1      45.355  38.521  29.218  1.00  0.00    -0.237 OA
ATOM     87  O   UNL A   1      43.037  39.347  29.269  1.00  0.00    -0.237 OA
ATOM     88  O   UNL A   1      44.680  40.238  30.858  1.00  0.00    -0.744 OA
ENDBRANCH  82  85
ENDBRANCH  55  78
ENDBRANCH  29  30
ENDBRANCH  21  24
ENDBRANCH  19  20
ENDBRANCH   1  19
TORSDOF 15
ENDMDL
