MODEL 1
REMARK VINA RESULT:     -11.4      0.000      0.000
REMARK SMILES CC(C)OCCS(=O)(=O)N[C@@H]1COC[C@@H]1C(=O)NCCCNC(=O)c1ccc(-c2c3nc(c(-c4cccc(S(=O)(=O)[O-])c4F)c4ccc([nH]4)c(-c4cccc(S(=O)(=O)[O-])c4F)c4nc(c(-c5cccc(S(=O)(=O)[O-])c5F)c5ccc2[nH]5)C=C4)C=C3)cc1
REMARK SMILES IDX 16 1 17 2 18 3 15 5 11 6 12 7 13 8 14 9 10 10 7 12 8 13 9 14
REMARK SMILES IDX 6 15 5 16 4 17 2 18 1 19 3 20 19 21 20 22 21 23 22 24 23 25
REMARK SMILES IDX 24 27 25 28 26 29 87 30 27 31 86 32 28 33 29 34 30 35 80 36
REMARK SMILES IDX 31 37 85 38 79 39 81 40 32 41 84 42 78 43 77 44 33 46 65 47
REMARK SMILES IDX 45 48 64 49 46 50 49 51 63 52 82 53 47 54 48 55 62 57 83 58
REMARK SMILES IDX 50 59 34 60 35 61 43 62 36 63 38 64 44 65 37 66 39 67 40 68
REMARK SMILES IDX 41 69 42 70 66 71 67 72 75 73 68 74 70 75 76 76 69 77 71 78
REMARK SMILES IDX 72 79 73 80 74 81 51 82 52 83 60 84 53 85 55 86 61 87 54 88
REMARK SMILES IDX 56 89 57 90 58 91 59 92
REMARK H PARENT 18 4 10 11 22 26 81 45 49 56
REMARK Flexibility Score: inf
ROOT
ATOM      1  C   UNL A   1      32.124  28.522  27.045  1.00  0.00     0.227 C 
ATOM      2  O   UNL A   1      31.541  27.878  27.918  1.00  0.00    -0.275 OA
ATOM      3  N   UNL A   1      32.221  29.865  27.213  1.00  0.00    -0.356 N 
ATOM      4  H   UNL A   1      32.626  30.196  28.047  1.00  0.00     0.163 HD
ENDROOT
BRANCH   1   5
ATOM      5  C   UNL A   1      32.699  27.843  25.822  1.00  0.00     0.124 C 
ATOM      6  C   UNL A   1      31.789  27.067  24.905  1.00  0.00     0.110 C 
ATOM      7  C   UNL A   1      31.885  25.643  25.420  1.00  0.00     0.181 C 
ATOM      8  O   UNL A   1      33.220  25.513  25.948  1.00  0.00    -0.379 OA
ATOM      9  C   UNL A   1      33.784  26.832  26.132  1.00  0.00     0.175 C 
BRANCH   6  10
ATOM     10  N   UNL A   1      30.432  27.540  24.586  1.00  0.00    -0.209 NA
ATOM     11  H   UNL A   1      29.836  26.714  24.639  1.00  0.00     0.141 HD
BRANCH  10  12
ATOM     12  S   UNL A   1      29.993  28.318  23.165  1.00  0.00     0.214 S 
ATOM     13  O   UNL A   1      30.555  27.596  22.060  1.00  0.00    -0.212 OA
ATOM     14  O   UNL A   1      30.399  29.691  23.412  1.00  0.00    -0.212 OA
BRANCH  12  15
ATOM     15  C   UNL A   1      28.188  28.330  23.033  1.00  0.00     0.182 C 
BRANCH  15  16
ATOM     16  C   UNL A   1      27.582  29.732  22.885  1.00  0.00     0.178 C 
BRANCH  16  17
ATOM     17  O   UNL A   1      27.750  30.378  21.614  1.00  0.00    -0.378 OA
BRANCH  17  18
ATOM     18  C   UNL A   1      28.349  31.675  21.550  1.00  0.00     0.112 C 
ATOM     19  C   UNL A   1      27.918  32.533  20.361  1.00  0.00     0.038 C 
ATOM     20  C   UNL A   1      28.230  32.340  22.905  1.00  0.00     0.038 C 
ENDBRANCH  17  18
ENDBRANCH  16  17
ENDBRANCH  15  16
ENDBRANCH  12  15
ENDBRANCH  10  12
ENDBRANCH   6  10
ENDBRANCH   1   5
BRANCH   3  21
ATOM     21  C   UNL A   1      31.768  30.841  26.245  1.00  0.00     0.117 C 
BRANCH  21  22
ATOM     22  C   UNL A   1      31.517  32.181  26.910  1.00  0.00     0.042 C 
BRANCH  22  23
ATOM     23  C   UNL A   1      32.787  32.709  27.544  1.00  0.00     0.118 C 
BRANCH  23  24
ATOM     24  N   UNL A   1      32.720  34.166  27.679  1.00  0.00    -0.352 N 
ATOM     25  C   UNL A   1      33.132  34.928  28.746  1.00  0.00     0.251 C 
ATOM     26  H   UNL A   1      32.336  34.657  26.915  1.00  0.00     0.163 HD
ATOM     27  O   UNL A   1      32.594  36.001  28.995  1.00  0.00    -0.269 OA
BRANCH  25  28
ATOM     28  C   UNL A   1      34.245  34.417  29.563  1.00  0.00     0.039 A 
ATOM     29  C   UNL A   1      34.055  34.044  30.893  1.00  0.00     0.014 A 
ATOM     30  C   UNL A   1      35.499  34.298  28.961  1.00  0.00     0.014 A 
ATOM     31  C   UNL A   1      35.129  33.501  31.598  1.00  0.00     0.010 A 
ATOM     32  C   UNL A   1      36.501  33.605  29.603  1.00  0.00     0.010 A 
ATOM     33  C   UNL A   1      36.348  33.251  30.946  1.00  0.00    -0.014 A 
BRANCH  33  34
ATOM     34  C   UNL A   1      37.519  32.673  31.640  1.00  0.00     0.031 A 
ATOM     35  C   UNL A   1      38.241  31.504  31.016  1.00  0.00     0.074 A 
ATOM     36  C   UNL A   1      37.849  33.119  32.865  1.00  0.00     0.049 A 
ATOM     37  N   UNL A   1      39.220  30.789  31.500  1.00  0.00    -0.248 NA
ATOM     38  C   UNL A   1      37.766  31.042  29.696  1.00  0.00     0.031 C 
ATOM     39  C   UNL A   1      37.145  34.170  33.605  1.00  0.00     0.029 A 
ATOM     40  N   UNL A   1      38.846  32.725  33.717  1.00  0.00    -0.354 N 
ATOM     41  C   UNL A   1      39.438  29.774  30.576  1.00  0.00     0.074 A 
ATOM     42  C   UNL A   1      38.451  29.923  29.534  1.00  0.00     0.031 C 
ATOM     43  C   UNL A   1      37.748  34.354  34.790  1.00  0.00     0.029 A 
ATOM     44  C   UNL A   1      38.853  33.411  34.909  1.00  0.00     0.049 A 
ATOM     45  H   UNL A   1      39.496  32.019  33.497  1.00  0.00     0.167 HD
ATOM     46  C   UNL A   1      40.404  28.828  30.570  1.00  0.00     0.034 A 
ATOM     47  C   UNL A   1      39.663  33.283  35.977  1.00  0.00     0.034 A 
ATOM     48  C   UNL A   1      41.417  28.734  31.582  1.00  0.00     0.049 A 
ATOM     49  C   UNL A   1      40.771  32.269  35.916  1.00  0.00     0.074 A 
ATOM     50  C   UNL A   1      42.509  27.891  31.630  1.00  0.00     0.029 A 
ATOM     51  N   UNL A   1      41.457  29.515  32.727  1.00  0.00    -0.354 N 
ATOM     52  N   UNL A   1      41.066  31.426  34.956  1.00  0.00    -0.248 NA
ATOM     53  C   UNL A   1      41.681  32.214  37.068  1.00  0.00     0.031 C 
ATOM     54  C   UNL A   1      43.194  28.139  32.823  1.00  0.00     0.029 A 
ATOM     55  C   UNL A   1      42.550  29.166  33.497  1.00  0.00     0.049 A 
ATOM     56  H   UNL A   1      40.804  30.215  32.957  1.00  0.00     0.167 HD
ATOM     57  C   UNL A   1      42.216  30.764  35.370  1.00  0.00     0.074 A 
ATOM     58  C   UNL A   1      42.575  31.324  36.659  1.00  0.00     0.031 C 
ATOM     59  C   UNL A   1      42.907  29.774  34.753  1.00  0.00     0.034 A 
BRANCH  46  60
ATOM     60  C   UNL A   1      40.441  27.865  29.412  1.00  0.00     0.023 A 
ATOM     61  C   UNL A   1      39.565  26.758  29.391  1.00  0.00     0.012 A 
ATOM     62  C   UNL A   1      41.311  28.075  28.327  1.00  0.00     0.148 A 
ATOM     63  C   UNL A   1      39.581  25.858  28.328  1.00  0.00     0.002 A 
ATOM     64  C   UNL A   1      41.284  27.203  27.245  1.00  0.00     0.091 A 
ATOM     65  F   UNL A   1      42.154  29.116  28.375  1.00  0.00    -0.205 F 
ATOM     66  C   UNL A   1      40.431  26.087  27.250  1.00  0.00     0.022 A 
BRANCH  64  67
ATOM     67  S   UNL A   1      42.277  27.455  25.769  1.00  0.00     0.127 S 
ATOM     68  O   UNL A   1      43.633  27.313  26.298  1.00  0.00    -0.237 OA
ATOM     69  O   UNL A   1      41.836  26.353  24.914  1.00  0.00    -0.237 OA
ATOM     70  O   UNL A   1      41.938  28.782  25.276  1.00  0.00    -0.744 OA
ENDBRANCH  64  67
ENDBRANCH  46  60
BRANCH  47  71
ATOM     71  C   UNL A   1      39.496  34.182  37.153  1.00  0.00     0.023 A 
ATOM     72  C   UNL A   1      39.861  35.539  37.044  1.00  0.00     0.012 A 
ATOM     73  C   UNL A   1      38.950  33.713  38.363  1.00  0.00     0.148 A 
ATOM     74  C   UNL A   1      39.723  36.402  38.130  1.00  0.00     0.002 A 
ATOM     75  C   UNL A   1      38.761  34.592  39.423  1.00  0.00     0.091 A 
ATOM     76  F   UNL A   1      38.611  32.419  38.446  1.00  0.00    -0.205 F 
ATOM     77  C   UNL A   1      39.165  35.931  39.316  1.00  0.00     0.022 A 
BRANCH  75  78
ATOM     78  S   UNL A   1      37.929  34.106  40.938  1.00  0.00     0.127 S 
ATOM     79  O   UNL A   1      36.798  33.337  40.425  1.00  0.00    -0.237 OA
ATOM     80  O   UNL A   1      38.960  33.313  41.608  1.00  0.00    -0.237 OA
ATOM     81  O   UNL A   1      37.593  35.349  41.619  1.00  0.00    -0.744 OA
ENDBRANCH  75  78
ENDBRANCH  47  71
BRANCH  59  82
ATOM     82  C   UNL A   1      44.142  29.260  35.440  1.00  0.00     0.023 A 
ATOM     83  C   UNL A   1      45.399  29.818  35.140  1.00  0.00     0.012 A 
ATOM     84  C   UNL A   1      44.041  28.272  36.439  1.00  0.00     0.148 A 
ATOM     85  C   UNL A   1      46.544  29.373  35.796  1.00  0.00     0.002 A 
ATOM     86  C   UNL A   1      45.177  27.874  37.129  1.00  0.00     0.091 A 
ATOM     87  F   UNL A   1      42.835  27.744  36.697  1.00  0.00    -0.205 F 
ATOM     88  C   UNL A   1      46.432  28.412  36.798  1.00  0.00     0.022 A 
BRANCH  86  89
ATOM     89  S   UNL A   1      45.114  26.720  38.503  1.00  0.00     0.127 S 
ATOM     90  O   UNL A   1      45.714  25.524  37.915  1.00  0.00    -0.237 OA
ATOM     91  O   UNL A   1      45.942  27.390  39.506  1.00  0.00    -0.237 OA
ATOM     92  O   UNL A   1      43.707  26.600  38.862  1.00  0.00    -0.744 OA
ENDBRANCH  86  89
ENDBRANCH  59  82
ENDBRANCH  33  34
ENDBRANCH  25  28
ENDBRANCH  23  24
ENDBRANCH  22  23
ENDBRANCH  21  22
ENDBRANCH   3  21
TORSDOF 19
ENDMDL
MODEL 2
REMARK VINA RESULT:     -11.3      1.567      3.377
REMARK SMILES CC(C)OCCS(=O)(=O)N[C@@H]1COC[C@@H]1C(=O)NCCCNC(=O)c1ccc(-c2c3nc(c(-c4cccc(S(=O)(=O)[O-])c4F)c4ccc([nH]4)c(-c4cccc(S(=O)(=O)[O-])c4F)c4nc(c(-c5cccc(S(=O)(=O)[O-])c5F)c5ccc2[nH]5)C=C4)C=C3)cc1
REMARK SMILES IDX 16 1 17 2 18 3 15 5 11 6 12 7 13 8 14 9 10 10 7 12 8 13 9 14
REMARK SMILES IDX 6 15 5 16 4 17 2 18 1 19 3 20 19 21 20 22 21 23 22 24 23 25
REMARK SMILES IDX 24 27 25 28 26 29 87 30 27 31 86 32 28 33 29 34 30 35 80 36
REMARK SMILES IDX 31 37 85 38 79 39 81 40 32 41 84 42 78 43 77 44 33 46 65 47
REMARK SMILES IDX 45 48 64 49 46 50 49 51 63 52 82 53 47 54 48 55 62 57 83 58
REMARK SMILES IDX 50 59 34 60 35 61 43 62 36 63 38 64 44 65 37 66 39 67 40 68
REMARK SMILES IDX 41 69 42 70 66 71 67 72 75 73 68 74 70 75 76 76 69 77 71 78
REMARK SMILES IDX 72 79 73 80 74 81 51 82 52 83 60 84 53 85 55 86 61 87 54 88
REMARK SMILES IDX 56 89 57 90 58 91 59 92
REMARK H PARENT 18 4 10 11 22 26 81 45 49 56
REMARK Flexibility Score: inf
ROOT
ATOM      1  C   UNL A   1      32.172  29.215  24.794  1.00  0.00     0.227 C 
ATOM      2  O   UNL A   1      33.265  28.666  24.650  1.00  0.00    -0.275 OA
ATOM      3  N   UNL A   1      32.160  30.463  25.327  1.00  0.00    -0.356 N 
ATOM      4  H   UNL A   1      32.706  31.156  24.889  1.00  0.00     0.163 HD
ENDROOT
BRANCH   1   5
ATOM      5  C   UNL A   1      30.887  28.519  24.404  1.00  0.00     0.124 C 
ATOM      6  C   UNL A   1      30.911  27.051  24.062  1.00  0.00     0.110 C 
ATOM      7  C   UNL A   1      31.074  27.033  22.554  1.00  0.00     0.181 C 
ATOM      8  O   UNL A   1      30.410  28.221  22.080  1.00  0.00    -0.379 OA
ATOM      9  C   UNL A   1      30.204  29.122  23.193  1.00  0.00     0.175 C 
BRANCH   6  10
ATOM     10  N   UNL A   1      31.754  26.100  24.807  1.00  0.00    -0.209 NA
ATOM     11  H   UNL A   1      32.617  26.024  24.270  1.00  0.00     0.141 HD
BRANCH  10  12
ATOM     12  S   UNL A   1      31.321  24.524  25.186  1.00  0.00     0.214 S 
ATOM     13  O   UNL A   1      30.572  23.982  24.089  1.00  0.00    -0.212 OA
ATOM     14  O   UNL A   1      30.692  24.667  26.489  1.00  0.00    -0.212 OA
BRANCH  12  15
ATOM     15  C   UNL A   1      32.822  23.547  25.443  1.00  0.00     0.182 C 
BRANCH  15  16
ATOM     16  C   UNL A   1      33.271  22.753  24.209  1.00  0.00     0.178 C 
BRANCH  16  17
ATOM     17  O   UNL A   1      34.683  22.689  23.960  1.00  0.00    -0.378 OA
BRANCH  17  18
ATOM     18  C   UNL A   1      35.576  22.333  25.019  1.00  0.00     0.112 C 
ATOM     19  C   UNL A   1      36.063  20.885  25.001  1.00  0.00     0.038 C 
ATOM     20  C   UNL A   1      36.664  23.381  25.118  1.00  0.00     0.038 C 
ENDBRANCH  17  18
ENDBRANCH  16  17
ENDBRANCH  15  16
ENDBRANCH  12  15
ENDBRANCH  10  12
ENDBRANCH   6  10
ENDBRANCH   1   5
BRANCH   3  21
ATOM     21  C   UNL A   1      31.397  30.840  26.498  1.00  0.00     0.117 C 
BRANCH  21  22
ATOM     22  C   UNL A   1      31.401  32.346  26.679  1.00  0.00     0.042 C 
BRANCH  22  23
ATOM     23  C   UNL A   1      32.739  32.817  27.211  1.00  0.00     0.118 C 
BRANCH  23  24
ATOM     24  N   UNL A   1      32.651  34.214  27.644  1.00  0.00    -0.352 N 
ATOM     25  C   UNL A   1      33.149  34.764  28.801  1.00  0.00     0.251 C 
ATOM     26  H   UNL A   1      32.181  34.830  27.035  1.00  0.00     0.163 HD
ATOM     27  O   UNL A   1      32.613  35.741  29.311  1.00  0.00    -0.269 OA
BRANCH  25  28
ATOM     28  C   UNL A   1      34.350  34.149  29.390  1.00  0.00     0.039 A 
ATOM     29  C   UNL A   1      35.629  34.533  28.990  1.00  0.00     0.014 A 
ATOM     30  C   UNL A   1      34.173  33.181  30.380  1.00  0.00     0.014 A 
ATOM     31  C   UNL A   1      36.732  33.969  29.631  1.00  0.00     0.010 A 
ATOM     32  C   UNL A   1      35.252  32.760  31.124  1.00  0.00     0.010 A 
ATOM     33  C   UNL A   1      36.547  33.102  30.722  1.00  0.00    -0.014 A 
BRANCH  33  34
ATOM     34  C   UNL A   1      37.676  32.478  31.444  1.00  0.00     0.031 A 
ATOM     35  C   UNL A   1      38.411  31.326  30.805  1.00  0.00     0.074 A 
ATOM     36  C   UNL A   1      37.954  32.868  32.701  1.00  0.00     0.049 A 
ATOM     37  N   UNL A   1      39.358  30.577  31.304  1.00  0.00    -0.248 NA
ATOM     38  C   UNL A   1      37.993  30.927  29.447  1.00  0.00     0.031 C 
ATOM     39  C   UNL A   1      37.229  33.898  33.452  1.00  0.00     0.029 A 
ATOM     40  N   UNL A   1      38.904  32.424  33.582  1.00  0.00    -0.354 N 
ATOM     41  C   UNL A   1      39.605  29.599  30.348  1.00  0.00     0.074 A 
ATOM     42  C   UNL A   1      38.670  29.805  29.269  1.00  0.00     0.031 C 
ATOM     43  C   UNL A   1      37.778  34.022  34.670  1.00  0.00     0.029 A 
ATOM     44  C   UNL A   1      38.864  33.059  34.800  1.00  0.00     0.049 A 
ATOM     45  H   UNL A   1      39.554  31.718  33.362  1.00  0.00     0.167 HD
ATOM     46  C   UNL A   1      40.558  28.639  30.348  1.00  0.00     0.034 A 
ATOM     47  C   UNL A   1      39.620  32.874  35.898  1.00  0.00     0.034 A 
ATOM     48  C   UNL A   1      41.521  28.487  31.400  1.00  0.00     0.049 A 
ATOM     49  C   UNL A   1      40.717  31.847  35.846  1.00  0.00     0.074 A 
ATOM     50  C   UNL A   1      42.599  27.627  31.464  1.00  0.00     0.029 A 
ATOM     51  N   UNL A   1      41.517  29.220  32.578  1.00  0.00    -0.354 N 
ATOM     52  N   UNL A   1      41.047  31.041  34.866  1.00  0.00    -0.248 NA
ATOM     53  C   UNL A   1      41.572  31.731  37.036  1.00  0.00     0.031 C 
ATOM     54  C   UNL A   1      43.230  27.815  32.697  1.00  0.00     0.029 A 
ATOM     55  C   UNL A   1      42.568  28.822  33.382  1.00  0.00     0.049 A 
ATOM     56  H   UNL A   1      40.863  29.918  32.807  1.00  0.00     0.167 HD
ATOM     57  C   UNL A   1      42.167  30.345  35.305  1.00  0.00     0.074 A 
ATOM     58  C   UNL A   1      42.472  30.846  36.631  1.00  0.00     0.031 C 
ATOM     59  C   UNL A   1      42.874  29.371  34.679  1.00  0.00     0.034 A 
BRANCH  46  60
ATOM     60  C   UNL A   1      40.637  27.724  29.153  1.00  0.00     0.023 A 
ATOM     61  C   UNL A   1      39.785  26.602  29.070  1.00  0.00     0.012 A 
ATOM     62  C   UNL A   1      41.523  27.997  28.094  1.00  0.00     0.148 A 
ATOM     63  C   UNL A   1      39.840  25.746  27.972  1.00  0.00     0.002 A 
ATOM     64  C   UNL A   1      41.534  27.169  26.977  1.00  0.00     0.091 A 
ATOM     65  F   UNL A   1      42.342  29.051  28.200  1.00  0.00    -0.205 F 
ATOM     66  C   UNL A   1      40.705  26.036  26.921  1.00  0.00     0.022 A 
BRANCH  64  67
ATOM     67  S   UNL A   1      42.549  27.501  25.533  1.00  0.00     0.127 S 
ATOM     68  O   UNL A   1      43.890  27.535  26.116  1.00  0.00    -0.237 OA
ATOM     69  O   UNL A   1      42.277  26.333  24.695  1.00  0.00    -0.237 OA
ATOM     70  O   UNL A   1      42.076  28.765  24.989  1.00  0.00    -0.744 OA
ENDBRANCH  64  67
ENDBRANCH  46  60
BRANCH  47  71
ATOM     71  C   UNL A   1      39.410  33.726  37.102  1.00  0.00     0.023 A 
ATOM     72  C   UNL A   1      39.854  35.063  37.090  1.00  0.00     0.012 A 
ATOM     73  C   UNL A   1      38.747  33.233  38.242  1.00  0.00     0.148 A 
ATOM     74  C   UNL A   1      39.677  35.881  38.206  1.00  0.00     0.002 A 
ATOM     75  C   UNL A   1      38.523  34.071  39.328  1.00  0.00     0.091 A 
ATOM     76  F   UNL A   1      38.335  31.958  38.234  1.00  0.00    -0.205 F 
ATOM     77  C   UNL A   1      39.004  35.389  39.320  1.00  0.00     0.022 A 
BRANCH  75  78
ATOM     78  S   UNL A   1      37.550  33.563  40.750  1.00  0.00     0.127 S 
ATOM     79  O   UNL A   1      36.339  33.048  40.116  1.00  0.00    -0.237 OA
ATOM     80  O   UNL A   1      38.410  32.545  41.356  1.00  0.00    -0.237 OA
ATOM     81  O   UNL A   1      37.380  34.762  41.559  1.00  0.00    -0.744 OA
ENDBRANCH  75  78
ENDBRANCH  47  71
BRANCH  59  82
ATOM     82  C   UNL A   1      44.068  28.811  35.400  1.00  0.00     0.023 A 
ATOM     83  C   UNL A   1      45.343  29.372  35.194  1.00  0.00     0.012 A 
ATOM     84  C   UNL A   1      43.909  27.773  36.339  1.00  0.00     0.148 A 
ATOM     85  C   UNL A   1      46.449  28.883  35.883  1.00  0.00     0.002 A 
ATOM     86  C   UNL A   1      45.005  27.329  37.064  1.00  0.00     0.091 A 
ATOM     87  F   UNL A   1      42.688  27.244  36.507  1.00  0.00    -0.205 F 
ATOM     88  C   UNL A   1      46.280  27.872  36.827  1.00  0.00     0.022 A 
BRANCH  86  89
ATOM     89  S   UNL A   1      44.863  26.106  38.371  1.00  0.00     0.127 S 
ATOM     90  O   UNL A   1      44.302  24.965  37.650  1.00  0.00    -0.237 OA
ATOM     91  O   UNL A   1      46.255  25.939  38.789  1.00  0.00    -0.237 OA
ATOM     92  O   UNL A   1      43.994  26.695  39.380  1.00  0.00    -0.744 OA
ENDBRANCH  86  89
ENDBRANCH  59  82
ENDBRANCH  33  34
ENDBRANCH  25  28
ENDBRANCH  23  24
ENDBRANCH  22  23
ENDBRANCH  21  22
ENDBRANCH   3  21
TORSDOF 19
ENDMDL
MODEL 3
REMARK VINA RESULT:     -11.1      2.467      8.646
REMARK SMILES CC(C)OCCS(=O)(=O)N[C@@H]1COC[C@@H]1C(=O)NCCCNC(=O)c1ccc(-c2c3nc(c(-c4cccc(S(=O)(=O)[O-])c4F)c4ccc([nH]4)c(-c4cccc(S(=O)(=O)[O-])c4F)c4nc(c(-c5cccc(S(=O)(=O)[O-])c5F)c5ccc2[nH]5)C=C4)C=C3)cc1
REMARK SMILES IDX 16 1 17 2 18 3 15 5 11 6 12 7 13 8 14 9 10 10 7 12 8 13 9 14
REMARK SMILES IDX 6 15 5 16 4 17 2 18 1 19 3 20 19 21 20 22 21 23 22 24 23 25
REMARK SMILES IDX 24 27 25 28 26 29 87 30 27 31 86 32 28 33 29 34 30 35 80 36
REMARK SMILES IDX 31 37 85 38 79 39 81 40 32 41 84 42 78 43 77 44 33 46 65 47
REMARK SMILES IDX 45 48 64 49 46 50 49 51 63 52 82 53 47 54 48 55 62 57 83 58
REMARK SMILES IDX 50 59 34 60 35 61 43 62 36 63 38 64 44 65 37 66 39 67 40 68
REMARK SMILES IDX 41 69 42 70 66 71 67 72 75 73 68 74 70 75 76 76 69 77 71 78
REMARK SMILES IDX 72 79 73 80 74 81 51 82 52 83 60 84 53 85 55 86 61 87 54 88
REMARK SMILES IDX 56 89 57 90 58 91 59 92
REMARK H PARENT 18 4 10 11 22 26 81 45 49 56
REMARK Flexibility Score: inf
ROOT
ATOM      1  C   UNL A   1      31.716  28.492  26.731  1.00  0.00     0.227 C 
ATOM      2  O   UNL A   1      31.401  27.961  27.797  1.00  0.00    -0.275 OA
ATOM      3  N   UNL A   1      31.971  29.825  26.744  1.00  0.00    -0.356 N 
ATOM      4  H   UNL A   1      32.653  30.157  27.373  1.00  0.00     0.163 HD
ENDROOT
BRANCH   1   5
ATOM      5  C   UNL A   1      31.802  27.692  25.451  1.00  0.00     0.124 C 
ATOM      6  C   UNL A   1      31.960  26.194  25.519  1.00  0.00     0.110 C 
ATOM      7  C   UNL A   1      33.461  25.985  25.445  1.00  0.00     0.181 C 
ATOM      8  O   UNL A   1      33.961  27.068  24.636  1.00  0.00    -0.379 OA
ATOM      9  C   UNL A   1      32.948  28.097  24.548  1.00  0.00     0.175 C 
BRANCH   6  10
ATOM     10  N   UNL A   1      31.253  25.390  26.530  1.00  0.00    -0.209 NA
ATOM     11  H   UNL A   1      31.781  25.512  27.393  1.00  0.00     0.141 HD
BRANCH  10  12
ATOM     12  S   UNL A   1      30.958  23.742  26.414  1.00  0.00     0.214 S 
ATOM     13  O   UNL A   1      30.691  23.424  25.041  1.00  0.00    -0.212 OA
ATOM     14  O   UNL A   1      29.929  23.528  27.418  1.00  0.00    -0.212 OA
BRANCH  12  15
ATOM     15  C   UNL A   1      32.422  22.841  26.977  1.00  0.00     0.182 C 
BRANCH  15  16
ATOM     16  C   UNL A   1      33.203  22.152  25.850  1.00  0.00     0.178 C 
BRANCH  16  17
ATOM     17  O   UNL A   1      33.365  20.729  25.951  1.00  0.00    -0.378 OA
BRANCH  17  18
ATOM     18  C   UNL A   1      32.521  19.862  25.187  1.00  0.00     0.112 C 
ATOM     19  C   UNL A   1      32.504  20.132  23.684  1.00  0.00     0.038 C 
ATOM     20  C   UNL A   1      32.799  18.428  25.585  1.00  0.00     0.038 C 
ENDBRANCH  17  18
ENDBRANCH  16  17
ENDBRANCH  15  16
ENDBRANCH  12  15
ENDBRANCH  10  12
ENDBRANCH   6  10
ENDBRANCH   1   5
BRANCH   3  21
ATOM     21  C   UNL A   1      31.307  30.789  25.893  1.00  0.00     0.117 C 
BRANCH  21  22
ATOM     22  C   UNL A   1      31.310  32.164  26.535  1.00  0.00     0.042 C 
BRANCH  22  23
ATOM     23  C   UNL A   1      32.681  32.492  27.089  1.00  0.00     0.118 C 
BRANCH  23  24
ATOM     24  N   UNL A   1      32.705  33.863  27.606  1.00  0.00    -0.352 N 
ATOM     25  C   UNL A   1      33.338  34.319  28.737  1.00  0.00     0.251 C 
ATOM     26  H   UNL A   1      32.211  34.535  27.081  1.00  0.00     0.163 HD
ATOM     27  O   UNL A   1      32.904  35.287  29.351  1.00  0.00    -0.269 OA
BRANCH  25  28
ATOM     28  C   UNL A   1      34.558  33.617  29.170  1.00  0.00     0.039 A 
ATOM     29  C   UNL A   1      35.823  34.062  28.788  1.00  0.00     0.014 A 
ATOM     30  C   UNL A   1      34.414  32.500  29.995  1.00  0.00     0.014 A 
ATOM     31  C   UNL A   1      36.946  33.400  29.285  1.00  0.00     0.010 A 
ATOM     32  C   UNL A   1      35.519  31.963  30.617  1.00  0.00     0.010 A 
ATOM     33  C   UNL A   1      36.798  32.367  30.226  1.00  0.00    -0.014 A 
BRANCH  33  34
ATOM     34  C   UNL A   1      37.951  31.634  30.791  1.00  0.00     0.031 A 
ATOM     35  C   UNL A   1      38.489  32.037  32.142  1.00  0.00     0.074 A 
ATOM     36  C   UNL A   1      38.571  30.701  30.047  1.00  0.00     0.049 A 
ATOM     37  N   UNL A   1      39.545  31.597  32.771  1.00  0.00    -0.248 NA
ATOM     38  C   UNL A   1      37.780  33.117  32.857  1.00  0.00     0.031 C 
ATOM     39  C   UNL A   1      38.197  30.314  28.683  1.00  0.00     0.029 A 
ATOM     40  N   UNL A   1      39.666  29.925  30.322  1.00  0.00    -0.354 N 
ATOM     41  C   UNL A   1      39.651  32.374  33.918  1.00  0.00     0.074 A 
ATOM     42  C   UNL A   1      38.595  33.356  33.871  1.00  0.00     0.031 C 
ATOM     43  C   UNL A   1      39.033  29.358  28.252  1.00  0.00     0.029 A 
ATOM     44  C   UNL A   1      40.022  29.091  29.289  1.00  0.00     0.049 A 
ATOM     45  H   UNL A   1      40.151  29.961  31.178  1.00  0.00     0.167 HD
ATOM     46  C   UNL A   1      40.524  32.254  34.944  1.00  0.00     0.034 A 
ATOM     47  C   UNL A   1      41.040  28.216  29.195  1.00  0.00     0.034 A 
ATOM     48  C   UNL A   1      41.527  31.230  35.005  1.00  0.00     0.049 A 
ATOM     49  C   UNL A   1      41.954  28.053  30.377  1.00  0.00     0.074 A 
ATOM     50  C   UNL A   1      42.397  30.938  36.038  1.00  0.00     0.029 A 
ATOM     51  N   UNL A   1      41.795  30.331  33.983  1.00  0.00    -0.354 N 
ATOM     52  N   UNL A   1      41.937  28.683  31.527  1.00  0.00    -0.248 NA
ATOM     53  C   UNL A   1      43.004  27.031  30.266  1.00  0.00     0.031 C 
ATOM     54  C   UNL A   1      43.214  29.880  35.627  1.00  0.00     0.029 A 
ATOM     55  C   UNL A   1      42.825  29.489  34.355  1.00  0.00     0.049 A 
ATOM     56  H   UNL A   1      41.321  30.298  33.122  1.00  0.00     0.167 HD
ATOM     57  C   UNL A   1      42.949  28.113  32.290  1.00  0.00     0.074 A 
ATOM     58  C   UNL A   1      43.542  27.068  31.477  1.00  0.00     0.031 C 
ATOM     59  C   UNL A   1      43.363  28.428  33.542  1.00  0.00     0.034 A 
BRANCH  46  60
ATOM     60  C   UNL A   1      40.390  33.211  36.099  1.00  0.00     0.023 A 
ATOM     61  C   UNL A   1      40.991  34.486  36.028  1.00  0.00     0.012 A 
ATOM     62  C   UNL A   1      39.637  32.868  37.237  1.00  0.00     0.148 A 
ATOM     63  C   UNL A   1      40.877  35.387  37.084  1.00  0.00     0.002 A 
ATOM     64  C   UNL A   1      39.482  33.792  38.264  1.00  0.00     0.091 A 
ATOM     65  F   UNL A   1      39.094  31.644  37.300  1.00  0.00    -0.205 F 
ATOM     66  C   UNL A   1      40.113  35.045  38.196  1.00  0.00     0.022 A 
BRANCH  64  67
ATOM     67  S   UNL A   1      38.449  33.483  39.701  1.00  0.00     0.127 S 
ATOM     68  O   UNL A   1      38.531  34.763  40.403  1.00  0.00    -0.237 OA
ATOM     69  O   UNL A   1      37.150  33.206  39.088  1.00  0.00    -0.237 OA
ATOM     70  O   UNL A   1      39.050  32.354  40.395  1.00  0.00    -0.744 OA
ENDBRANCH  64  67
ENDBRANCH  46  60
BRANCH  47  71
ATOM     71  C   UNL A   1      41.199  27.383  27.969  1.00  0.00     0.023 A 
ATOM     72  C   UNL A   1      41.765  27.954  26.813  1.00  0.00     0.012 A 
ATOM     73  C   UNL A   1      40.823  26.026  27.953  1.00  0.00     0.148 A 
ATOM     74  C   UNL A   1      41.918  27.200  25.650  1.00  0.00     0.002 A 
ATOM     75  C   UNL A   1      41.032  25.265  26.809  1.00  0.00     0.091 A 
ATOM     76  F   UNL A   1      40.284  25.503  29.063  1.00  0.00    -0.205 F 
ATOM     77  C   UNL A   1      41.561  25.854  25.650  1.00  0.00     0.022 A 
BRANCH  75  78
ATOM     78  S   UNL A   1      40.726  23.496  26.761  1.00  0.00     0.127 S 
ATOM     79  O   UNL A   1      41.114  23.088  28.109  1.00  0.00    -0.237 OA
ATOM     80  O   UNL A   1      39.288  23.446  26.491  1.00  0.00    -0.237 OA
ATOM     81  O   UNL A   1      41.556  22.982  25.680  1.00  0.00    -0.744 OA
ENDBRANCH  75  78
ENDBRANCH  47  71
BRANCH  59  82
ATOM     82  C   UNL A   1      44.482  27.612  34.127  1.00  0.00     0.023 A 
ATOM     83  C   UNL A   1      45.813  28.055  34.009  1.00  0.00     0.012 A 
ATOM     84  C   UNL A   1      44.201  26.443  34.861  1.00  0.00     0.148 A 
ATOM     85  C   UNL A   1      46.853  27.325  34.579  1.00  0.00     0.002 A 
ATOM     86  C   UNL A   1      45.235  25.751  35.475  1.00  0.00     0.091 A 
ATOM     87  F   UNL A   1      42.926  26.033  34.948  1.00  0.00    -0.205 F 
ATOM     88  C   UNL A   1      46.564  26.181  35.321  1.00  0.00     0.022 A 
BRANCH  86  89
ATOM     89  S   UNL A   1      44.948  24.332  36.535  1.00  0.00     0.127 S 
ATOM     90  O   UNL A   1      44.172  24.925  37.622  1.00  0.00    -0.237 OA
ATOM     91  O   UNL A   1      44.189  23.441  35.657  1.00  0.00    -0.237 OA
ATOM     92  O   UNL A   1      46.266  23.835  36.908  1.00  0.00    -0.744 OA
ENDBRANCH  86  89
ENDBRANCH  59  82
ENDBRANCH  33  34
ENDBRANCH  25  28
ENDBRANCH  23  24
ENDBRANCH  22  23
ENDBRANCH  21  22
ENDBRANCH   3  21
TORSDOF 19
ENDMDL
