MODEL 1
REMARK VINA RESULT:     -12.7      0.000      0.000
REMARK SMILES Cc1cccc(-c2cc(C(=O)NCCCNC(=O)c3ccc(-c4c5nc(c(-c6cccc(S(=O)(=O)[O-])c6F)c6ccc([nH]6)c(-c6cccc(S(=O)(=O)[O-])c6F)c6nc(c(-c7cccc(S(=O)(=O)[O-])c7F)c7ccc4[nH]7)C=C6)C=C5)cc3)ccn2)c1
REMARK SMILES IDX 15 1 14 2 13 3 12 4 10 5 11 6 9 8 7 9 8 10 84 11 83 12 82 13
REMARK SMILES IDX 6 14 1 15 2 16 3 17 85 18 4 19 5 20 16 21 17 22 18 24 19 25
REMARK SMILES IDX 20 26 81 27 21 28 80 29 22 30 23 31 24 32 74 33 25 34 79 35
REMARK SMILES IDX 73 36 75 37 26 38 78 39 72 40 71 41 27 43 59 44 39 45 58 46
REMARK SMILES IDX 40 47 43 48 57 49 76 50 41 51 42 52 56 54 77 55 44 56 28 57
REMARK SMILES IDX 29 58 37 59 30 60 32 61 38 62 31 63 33 64 34 65 35 66 36 67
REMARK SMILES IDX 60 68 61 69 69 70 62 71 64 72 70 73 63 74 65 75 66 76 67 77
REMARK SMILES IDX 68 78 45 79 46 80 54 81 47 82 49 83 55 84 48 85 50 86 51 87
REMARK SMILES IDX 52 88 53 89
REMARK H PARENT 12 7 16 23 75 42 43 53
REMARK Flexibility Score: inf
ROOT
ATOM      1  C   UNL A   1      34.607  30.597  27.654  1.00  0.00     0.118 C 
ENDROOT
BRANCH   1   2
ATOM      2  C   UNL A   1      33.242  31.186  27.351  1.00  0.00     0.042 C 
BRANCH   2   3
ATOM      3  C   UNL A   1      32.248  30.191  26.748  1.00  0.00     0.118 C 
BRANCH   3   4
ATOM      4  N   UNL A   1      32.363  30.092  25.297  1.00  0.00    -0.352 N 
ATOM      5  C   UNL A   1      32.285  29.040  24.412  1.00  0.00     0.251 C 
ATOM      6  O   UNL A   1      32.291  29.301  23.208  1.00  0.00    -0.269 OA
ATOM      7  H   UNL A   1      32.532  30.958  24.860  1.00  0.00     0.163 HD
BRANCH   5   8
ATOM      8  C   UNL A   1      32.185  27.602  24.808  1.00  0.00     0.043 A 
ATOM      9  C   UNL A   1      32.953  25.312  24.863  1.00  0.00     0.071 A 
ATOM     10  C   UNL A   1      33.112  26.636  24.466  1.00  0.00     0.042 A 
ATOM     11  N   UNL A   1      31.876  24.890  25.553  1.00  0.00    -0.256 NA
ATOM     12  C   UNL A   1      30.958  25.836  25.868  1.00  0.00     0.112 A 
ATOM     13  C   UNL A   1      31.068  27.179  25.529  1.00  0.00     0.034 A 
BRANCH   9  14
ATOM     14  C   UNL A   1      34.019  24.359  24.531  1.00  0.00     0.000 A 
ATOM     15  C   UNL A   1      37.602  23.702  25.698  1.00  0.00     0.044 C 
ATOM     16  C   UNL A   1      36.334  23.632  24.901  1.00  0.00    -0.050 A 
ATOM     17  C   UNL A   1      36.262  22.857  23.740  1.00  0.00     0.003 A 
ATOM     18  C   UNL A   1      35.206  24.360  25.292  1.00  0.00     0.013 A 
ATOM     19  C   UNL A   1      35.085  22.817  22.990  1.00  0.00     0.001 A 
ATOM     20  C   UNL A   1      33.968  23.561  23.383  1.00  0.00     0.010 A 
ENDBRANCH   9  14
ENDBRANCH   5   8
ENDBRANCH   3   4
ENDBRANCH   2   3
ENDBRANCH   1   2
BRANCH   1  21
ATOM     21  N   UNL A   1      35.602  31.599  28.024  1.00  0.00    -0.352 N 
ATOM     22  C   UNL A   1      36.908  31.397  28.437  1.00  0.00     0.251 C 
ATOM     23  H   UNL A   1      35.306  32.537  27.975  1.00  0.00     0.163 HD
ATOM     24  O   UNL A   1      37.587  32.347  28.815  1.00  0.00    -0.269 OA
BRANCH  22  25
ATOM     25  C   UNL A   1      37.480  30.040  28.305  1.00  0.00     0.039 A 
ATOM     26  C   UNL A   1      37.450  29.215  29.433  1.00  0.00     0.014 A 
ATOM     27  C   UNL A   1      38.301  29.743  27.221  1.00  0.00     0.014 A 
ATOM     28  C   UNL A   1      38.447  28.261  29.598  1.00  0.00     0.010 A 
ATOM     29  C   UNL A   1      39.339  28.859  27.415  1.00  0.00     0.010 A 
ATOM     30  C   UNL A   1      39.453  28.189  28.638  1.00  0.00    -0.014 A 
BRANCH  30  31
ATOM     31  C   UNL A   1      40.714  27.499  28.837  1.00  0.00     0.031 A 
ATOM     32  C   UNL A   1      40.778  26.039  28.702  1.00  0.00     0.074 A 
ATOM     33  C   UNL A   1      41.833  28.243  28.980  1.00  0.00     0.049 A 
ATOM     34  N   UNL A   1      41.752  25.312  29.130  1.00  0.00    -0.248 NA
ATOM     35  C   UNL A   1      39.688  25.271  28.114  1.00  0.00     0.031 C 
ATOM     36  C   UNL A   1      43.215  27.812  28.819  1.00  0.00     0.029 A 
ATOM     37  N   UNL A   1      41.934  29.526  29.531  1.00  0.00    -0.354 N 
ATOM     38  C   UNL A   1      41.584  24.062  28.576  1.00  0.00     0.074 A 
ATOM     39  C   UNL A   1      40.219  24.046  28.120  1.00  0.00     0.031 C 
ATOM     40  C   UNL A   1      44.008  28.657  29.498  1.00  0.00     0.029 A 
ATOM     41  C   UNL A   1      43.132  29.526  30.267  1.00  0.00     0.049 A 
ATOM     42  H   UNL A   1      41.301  30.272  29.425  1.00  0.00     0.167 HD
ATOM     43  C   UNL A   1      42.687  23.281  28.396  1.00  0.00     0.034 A 
ATOM     44  C   UNL A   1      43.176  29.685  31.624  1.00  0.00     0.034 A 
ATOM     45  C   UNL A   1      43.836  23.831  29.140  1.00  0.00     0.049 A 
ATOM     46  C   UNL A   1      43.839  28.519  32.339  1.00  0.00     0.074 A 
ATOM     47  C   UNL A   1      44.974  24.522  28.759  1.00  0.00     0.029 A 
ATOM     48  N   UNL A   1      43.758  23.950  30.528  1.00  0.00    -0.354 N 
ATOM     49  N   UNL A   1      44.147  27.384  31.774  1.00  0.00    -0.248 NA
ATOM     50  C   UNL A   1      44.186  28.537  33.756  1.00  0.00     0.031 C 
ATOM     51  C   UNL A   1      45.512  25.155  29.915  1.00  0.00     0.029 A 
ATOM     52  C   UNL A   1      44.730  24.816  31.008  1.00  0.00     0.049 A 
ATOM     53  H   UNL A   1      43.101  23.482  31.093  1.00  0.00     0.167 HD
ATOM     54  C   UNL A   1      44.590  26.492  32.717  1.00  0.00     0.074 A 
ATOM     55  C   UNL A   1      44.677  27.296  33.927  1.00  0.00     0.031 C 
ATOM     56  C   UNL A   1      44.782  25.164  32.430  1.00  0.00     0.034 A 
BRANCH  43  57
ATOM     57  C   UNL A   1      42.833  22.194  27.326  1.00  0.00     0.023 A 
ATOM     58  C   UNL A   1      42.135  20.982  27.543  1.00  0.00     0.012 A 
ATOM     59  C   UNL A   1      43.684  22.203  26.190  1.00  0.00     0.148 A 
ATOM     60  C   UNL A   1      42.316  19.847  26.738  1.00  0.00     0.002 A 
ATOM     61  C   UNL A   1      43.860  21.076  25.379  1.00  0.00     0.091 A 
ATOM     62  F   UNL A   1      44.367  23.296  25.864  1.00  0.00    -0.205 F 
ATOM     63  C   UNL A   1      43.186  19.889  25.661  1.00  0.00     0.022 A 
BRANCH  61  64
ATOM     64  S   UNL A   1      44.979  21.065  23.961  1.00  0.00     0.127 S 
ATOM     65  O   UNL A   1      46.286  21.211  24.602  1.00  0.00    -0.237 OA
ATOM     66  O   UNL A   1      44.730  19.746  23.380  1.00  0.00    -0.237 OA
ATOM     67  O   UNL A   1      44.594  22.186  23.113  1.00  0.00    -0.744 OA
ENDBRANCH  61  64
ENDBRANCH  43  57
BRANCH  44  68
ATOM     68  C   UNL A   1      42.053  30.508  32.170  1.00  0.00     0.023 A 
ATOM     69  C   UNL A   1      41.970  31.852  31.728  1.00  0.00     0.012 A 
ATOM     70  C   UNL A   1      40.919  29.920  32.755  1.00  0.00     0.148 A 
ATOM     71  C   UNL A   1      40.754  32.535  31.726  1.00  0.00     0.002 A 
ATOM     72  C   UNL A   1      39.709  30.615  32.762  1.00  0.00     0.091 A 
ATOM     73  F   UNL A   1      41.013  28.672  33.231  1.00  0.00    -0.205 F 
ATOM     74  C   UNL A   1      39.615  31.901  32.206  1.00  0.00     0.022 A 
BRANCH  72  75
ATOM     75  S   UNL A   1      38.199  29.855  33.376  1.00  0.00     0.127 S 
ATOM     76  O   UNL A   1      38.306  30.110  34.810  1.00  0.00    -0.237 OA
ATOM     77  O   UNL A   1      37.157  30.620  32.693  1.00  0.00    -0.237 OA
ATOM     78  O   UNL A   1      38.291  28.465  32.953  1.00  0.00    -0.744 OA
ENDBRANCH  72  75
ENDBRANCH  44  68
BRANCH  56  79
ATOM     79  C   UNL A   1      45.029  24.064  33.458  1.00  0.00     0.023 A 
ATOM     80  C   UNL A   1      44.052  23.107  33.797  1.00  0.00     0.012 A 
ATOM     81  C   UNL A   1      46.315  23.872  34.034  1.00  0.00     0.148 A 
ATOM     82  C   UNL A   1      44.299  22.070  34.706  1.00  0.00     0.002 A 
ATOM     83  C   UNL A   1      46.589  22.771  34.846  1.00  0.00     0.091 A 
ATOM     84  F   UNL A   1      47.287  24.769  33.818  1.00  0.00    -0.205 F 
ATOM     85  C   UNL A   1      45.574  21.888  35.215  1.00  0.00     0.022 A 
BRANCH  83  86
ATOM     86  S   UNL A   1      48.277  22.358  35.316  1.00  0.00     0.127 S 
ATOM     87  O   UNL A   1      48.442  23.113  36.555  1.00  0.00    -0.237 OA
ATOM     88  O   UNL A   1      48.209  20.905  35.494  1.00  0.00    -0.237 OA
ATOM     89  O   UNL A   1      49.096  22.778  34.188  1.00  0.00    -0.744 OA
ENDBRANCH  83  86
ENDBRANCH  56  79
ENDBRANCH  30  31
ENDBRANCH  22  25
ENDBRANCH   1  21
TORSDOF 14
ENDMDL
MODEL 2
REMARK VINA RESULT:     -12.7      1.780      2.220
REMARK SMILES Cc1cccc(-c2cc(C(=O)NCCCNC(=O)c3ccc(-c4c5nc(c(-c6cccc(S(=O)(=O)[O-])c6F)c6ccc([nH]6)c(-c6cccc(S(=O)(=O)[O-])c6F)c6nc(c(-c7cccc(S(=O)(=O)[O-])c7F)c7ccc4[nH]7)C=C6)C=C5)cc3)ccn2)c1
REMARK SMILES IDX 15 1 14 2 13 3 12 4 10 5 11 6 9 8 7 9 8 10 84 11 83 12 82 13
REMARK SMILES IDX 6 14 1 15 2 16 3 17 85 18 4 19 5 20 16 21 17 22 18 24 19 25
REMARK SMILES IDX 20 26 81 27 21 28 80 29 22 30 23 31 24 32 74 33 25 34 79 35
REMARK SMILES IDX 73 36 75 37 26 38 78 39 72 40 71 41 27 43 59 44 39 45 58 46
REMARK SMILES IDX 40 47 43 48 57 49 76 50 41 51 42 52 56 54 77 55 44 56 28 57
REMARK SMILES IDX 29 58 37 59 30 60 32 61 38 62 31 63 33 64 34 65 35 66 36 67
REMARK SMILES IDX 60 68 61 69 69 70 62 71 64 72 70 73 63 74 65 75 66 76 67 77
REMARK SMILES IDX 68 78 45 79 46 80 54 81 47 82 49 83 55 84 48 85 50 86 51 87
REMARK SMILES IDX 52 88 53 89
REMARK H PARENT 12 7 16 23 75 42 43 53
REMARK Flexibility Score: inf
ROOT
ATOM      1  C   UNL A   1      33.680  30.437  27.933  1.00  0.00     0.118 C 
ENDROOT
BRANCH   1   2
ATOM      2  C   UNL A   1      33.421  30.590  26.447  1.00  0.00     0.042 C 
BRANCH   2   3
ATOM      3  C   UNL A   1      32.003  30.209  26.014  1.00  0.00     0.118 C 
BRANCH   3   4
ATOM      4  N   UNL A   1      31.920  29.873  24.596  1.00  0.00    -0.352 N 
ATOM      5  C   UNL A   1      31.851  28.682  23.909  1.00  0.00     0.251 C 
ATOM      6  O   UNL A   1      31.651  28.730  22.695  1.00  0.00    -0.269 OA
ATOM      7  H   UNL A   1      31.911  30.663  24.009  1.00  0.00     0.163 HD
BRANCH   5   8
ATOM      8  C   UNL A   1      31.995  27.332  24.534  1.00  0.00     0.043 A 
ATOM      9  C   UNL A   1      33.094  25.205  24.868  1.00  0.00     0.071 A 
ATOM     10  C   UNL A   1      33.025  26.452  24.255  1.00  0.00     0.042 A 
ATOM     11  N   UNL A   1      32.148  24.769  25.723  1.00  0.00    -0.256 NA
ATOM     12  C   UNL A   1      31.129  25.625  25.977  1.00  0.00     0.112 A 
ATOM     13  C   UNL A   1      31.013  26.894  25.423  1.00  0.00     0.034 A 
BRANCH   9  14
ATOM     14  C   UNL A   1      34.258  24.359  24.583  1.00  0.00     0.000 A 
ATOM     15  C   UNL A   1      37.704  23.781  26.140  1.00  0.00     0.044 C 
ATOM     16  C   UNL A   1      36.555  23.729  25.178  1.00  0.00    -0.050 A 
ATOM     17  C   UNL A   1      36.685  23.088  23.944  1.00  0.00     0.003 A 
ATOM     18  C   UNL A   1      35.337  24.342  25.491  1.00  0.00     0.013 A 
ATOM     19  C   UNL A   1      35.617  23.065  23.044  1.00  0.00     0.001 A 
ATOM     20  C   UNL A   1      34.408  23.695  23.361  1.00  0.00     0.010 A 
ENDBRANCH   9  14
ENDBRANCH   5   8
ENDBRANCH   3   4
ENDBRANCH   2   3
ENDBRANCH   1   2
BRANCH   1  21
ATOM     21  N   UNL A   1      34.448  31.540  28.504  1.00  0.00    -0.352 N 
ATOM     22  C   UNL A   1      35.723  31.508  29.043  1.00  0.00     0.251 C 
ATOM     23  H   UNL A   1      34.002  32.419  28.507  1.00  0.00     0.163 HD
ATOM     24  O   UNL A   1      36.189  32.508  29.580  1.00  0.00    -0.269 OA
BRANCH  22  25
ATOM     25  C   UNL A   1      36.529  30.283  28.855  1.00  0.00     0.039 A 
ATOM     26  C   UNL A   1      36.838  29.532  29.993  1.00  0.00     0.014 A 
ATOM     27  C   UNL A   1      37.219  30.091  27.660  1.00  0.00     0.014 A 
ATOM     28  C   UNL A   1      38.019  28.801  30.019  1.00  0.00     0.010 A 
ATOM     29  C   UNL A   1      38.430  29.438  27.707  1.00  0.00     0.010 A 
ATOM     30  C   UNL A   1      38.861  28.872  28.912  1.00  0.00    -0.014 A 
BRANCH  30  31
ATOM     31  C   UNL A   1      40.251  28.454  28.923  1.00  0.00     0.031 A 
ATOM     32  C   UNL A   1      40.586  27.029  28.809  1.00  0.00     0.074 A 
ATOM     33  C   UNL A   1      41.206  29.408  28.872  1.00  0.00     0.049 A 
ATOM     34  N   UNL A   1      41.739  26.530  29.093  1.00  0.00    -0.248 NA
ATOM     35  C   UNL A   1      39.596  26.034  28.416  1.00  0.00     0.031 C 
ATOM     36  C   UNL A   1      42.606  29.249  28.504  1.00  0.00     0.029 A 
ATOM     37  N   UNL A   1      41.129  30.713  29.375  1.00  0.00    -0.354 N 
ATOM     38  C   UNL A   1      41.745  25.244  28.597  1.00  0.00     0.074 A 
ATOM     39  C   UNL A   1      40.357  24.938  28.363  1.00  0.00     0.031 C 
ATOM     40  C   UNL A   1      43.306  30.266  29.032  1.00  0.00     0.029 A 
ATOM     41  C   UNL A   1      42.399  30.984  29.912  1.00  0.00     0.049 A 
ATOM     42  H   UNL A   1      40.350  31.314  29.355  1.00  0.00     0.167 HD
ATOM     43  C   UNL A   1      42.942  24.686  28.260  1.00  0.00     0.034 A 
ATOM     44  C   UNL A   1      42.614  31.219  31.241  1.00  0.00     0.034 A 
ATOM     45  C   UNL A   1      44.056  25.487  28.803  1.00  0.00     0.049 A 
ATOM     46  C   UNL A   1      43.599  30.243  31.866  1.00  0.00     0.074 A 
ATOM     47  C   UNL A   1      44.961  26.367  28.232  1.00  0.00     0.029 A 
ATOM     48  N   UNL A   1      44.166  25.660  30.182  1.00  0.00    -0.354 N 
ATOM     49  N   UNL A   1      44.039  29.162  31.282  1.00  0.00    -0.248 NA
ATOM     50  C   UNL A   1      44.144  30.401  33.210  1.00  0.00     0.031 C 
ATOM     51  C   UNL A   1      45.529  27.151  29.276  1.00  0.00     0.029 A 
ATOM     52  C   UNL A   1      45.005  26.722  30.485  1.00  0.00     0.049 A 
ATOM     53  H   UNL A   1      43.710  25.101  30.853  1.00  0.00     0.167 HD
ATOM     54  C   UNL A   1      44.790  28.424  32.161  1.00  0.00     0.074 A 
ATOM     55  C   UNL A   1      44.895  29.290  33.326  1.00  0.00     0.031 C 
ATOM     56  C   UNL A   1      45.200  27.146  31.874  1.00  0.00     0.034 A 
BRANCH  43  57
ATOM     57  C   UNL A   1      43.140  23.595  27.203  1.00  0.00     0.023 A 
ATOM     58  C   UNL A   1      43.785  23.975  26.002  1.00  0.00     0.012 A 
ATOM     59  C   UNL A   1      42.648  22.264  27.227  1.00  0.00     0.148 A 
ATOM     60  C   UNL A   1      43.876  23.127  24.888  1.00  0.00     0.002 A 
ATOM     61  C   UNL A   1      42.746  21.411  26.121  1.00  0.00     0.091 A 
ATOM     62  F   UNL A   1      42.053  21.781  28.313  1.00  0.00    -0.205 F 
ATOM     63  C   UNL A   1      43.348  21.847  24.942  1.00  0.00     0.022 A 
BRANCH  61  64
ATOM     64  S   UNL A   1      42.077  19.733  26.127  1.00  0.00     0.127 S 
ATOM     65  O   UNL A   1      42.714  19.146  24.947  1.00  0.00    -0.237 OA
ATOM     66  O   UNL A   1      42.563  19.210  27.404  1.00  0.00    -0.237 OA
ATOM     67  O   UNL A   1      40.628  19.857  26.032  1.00  0.00    -0.744 OA
ENDBRANCH  61  64
ENDBRANCH  43  57
BRANCH  44  68
ATOM     68  C   UNL A   1      41.444  31.833  31.942  1.00  0.00     0.023 A 
ATOM     69  C   UNL A   1      41.012  33.099  31.474  1.00  0.00     0.012 A 
ATOM     70  C   UNL A   1      40.567  31.069  32.729  1.00  0.00     0.148 A 
ATOM     71  C   UNL A   1      39.694  33.520  31.655  1.00  0.00     0.002 A 
ATOM     72  C   UNL A   1      39.254  31.504  32.918  1.00  0.00     0.091 A 
ATOM     73  F   UNL A   1      40.996  29.901  33.225  1.00  0.00    -0.205 F 
ATOM     74  C   UNL A   1      38.805  32.704  32.342  1.00  0.00     0.022 A 
BRANCH  72  75
ATOM     75  S   UNL A   1      38.055  30.498  33.804  1.00  0.00     0.127 S 
ATOM     76  O   UNL A   1      36.795  31.054  33.321  1.00  0.00    -0.237 OA
ATOM     77  O   UNL A   1      38.355  29.150  33.325  1.00  0.00    -0.237 OA
ATOM     78  O   UNL A   1      38.367  30.714  35.210  1.00  0.00    -0.744 OA
ENDBRANCH  72  75
ENDBRANCH  44  68
BRANCH  56  79
ATOM     79  C   UNL A   1      45.815  26.170  32.872  1.00  0.00     0.023 A 
ATOM     80  C   UNL A   1      47.194  26.147  33.161  1.00  0.00     0.012 A 
ATOM     81  C   UNL A   1      45.000  25.315  33.662  1.00  0.00     0.148 A 
ATOM     82  C   UNL A   1      47.749  25.281  34.112  1.00  0.00     0.002 A 
ATOM     83  C   UNL A   1      45.541  24.541  34.689  1.00  0.00     0.091 A 
ATOM     84  F   UNL A   1      43.686  25.224  33.413  1.00  0.00    -0.205 F 
ATOM     85  C   UNL A   1      46.920  24.492  34.893  1.00  0.00     0.022 A 
BRANCH  83  86
ATOM     86  S   UNL A   1      44.483  23.706  35.883  1.00  0.00     0.127 S 
ATOM     87  O   UNL A   1      43.628  24.795  36.346  1.00  0.00    -0.237 OA
ATOM     88  O   UNL A   1      43.801  22.707  35.056  1.00  0.00    -0.237 OA
ATOM     89  O   UNL A   1      45.397  23.138  36.864  1.00  0.00    -0.744 OA
ENDBRANCH  83  86
ENDBRANCH  56  79
ENDBRANCH  30  31
ENDBRANCH  22  25
ENDBRANCH   1  21
TORSDOF 14
ENDMDL
MODEL 3
REMARK VINA RESULT:     -12.7      2.497      4.023
REMARK SMILES Cc1cccc(-c2cc(C(=O)NCCCNC(=O)c3ccc(-c4c5nc(c(-c6cccc(S(=O)(=O)[O-])c6F)c6ccc([nH]6)c(-c6cccc(S(=O)(=O)[O-])c6F)c6nc(c(-c7cccc(S(=O)(=O)[O-])c7F)c7ccc4[nH]7)C=C6)C=C5)cc3)ccn2)c1
REMARK SMILES IDX 15 1 14 2 13 3 12 4 10 5 11 6 9 8 7 9 8 10 84 11 83 12 82 13
REMARK SMILES IDX 6 14 1 15 2 16 3 17 85 18 4 19 5 20 16 21 17 22 18 24 19 25
REMARK SMILES IDX 20 26 81 27 21 28 80 29 22 30 23 31 24 32 74 33 25 34 79 35
REMARK SMILES IDX 73 36 75 37 26 38 78 39 72 40 71 41 27 43 59 44 39 45 58 46
REMARK SMILES IDX 40 47 43 48 57 49 76 50 41 51 42 52 56 54 77 55 44 56 28 57
REMARK SMILES IDX 29 58 37 59 30 60 32 61 38 62 31 63 33 64 34 65 35 66 36 67
REMARK SMILES IDX 60 68 61 69 69 70 62 71 64 72 70 73 63 74 65 75 66 76 67 77
REMARK SMILES IDX 68 78 45 79 46 80 54 81 47 82 49 83 55 84 48 85 50 86 51 87
REMARK SMILES IDX 52 88 53 89
REMARK H PARENT 12 7 16 23 75 42 43 53
REMARK Flexibility Score: inf
ROOT
ATOM      1  C   UNL A   1      33.623  30.290  27.926  1.00  0.00     0.118 C 
ENDROOT
BRANCH   1   2
ATOM      2  C   UNL A   1      33.627  29.966  26.444  1.00  0.00     0.042 C 
BRANCH   2   3
ATOM      3  C   UNL A   1      33.997  28.516  26.120  1.00  0.00     0.118 C 
BRANCH   3   4
ATOM      4  N   UNL A   1      32.991  27.564  26.579  1.00  0.00    -0.352 N 
ATOM      5  C   UNL A   1      31.888  26.994  25.984  1.00  0.00     0.251 C 
ATOM      6  O   UNL A   1      31.299  26.104  26.600  1.00  0.00    -0.269 OA
ATOM      7  H   UNL A   1      33.131  27.268  27.508  1.00  0.00     0.163 HD
BRANCH   5   8
ATOM      8  C   UNL A   1      31.357  27.373  24.640  1.00  0.00     0.043 A 
ATOM      9  C   UNL A   1      30.144  28.800  23.113  1.00  0.00     0.071 A 
ATOM     10  C   UNL A   1      30.614  28.512  24.390  1.00  0.00     0.042 A 
ATOM     11  N   UNL A   1      30.341  27.973  22.068  1.00  0.00    -0.256 NA
ATOM     12  C   UNL A   1      31.051  26.848  22.320  1.00  0.00     0.112 A 
ATOM     13  C   UNL A   1      31.575  26.512  23.564  1.00  0.00     0.034 A 
BRANCH   9  14
ATOM     14  C   UNL A   1      29.431  30.067  22.910  1.00  0.00     0.000 A 
ATOM     15  C   UNL A   1      27.914  31.939  19.939  1.00  0.00     0.044 C 
ATOM     16  C   UNL A   1      28.408  31.634  21.321  1.00  0.00    -0.050 A 
ATOM     17  C   UNL A   1      28.402  32.616  22.315  1.00  0.00     0.003 A 
ATOM     18  C   UNL A   1      28.907  30.365  21.635  1.00  0.00     0.013 A 
ATOM     19  C   UNL A   1      28.886  32.331  23.594  1.00  0.00     0.001 A 
ATOM     20  C   UNL A   1      29.397  31.063  23.892  1.00  0.00     0.010 A 
ENDBRANCH   9  14
ENDBRANCH   5   8
ENDBRANCH   3   4
ENDBRANCH   2   3
ENDBRANCH   1   2
BRANCH   1  21
ATOM     21  N   UNL A   1      34.421  31.465  28.264  1.00  0.00    -0.352 N 
ATOM     22  C   UNL A   1      35.733  31.511  28.704  1.00  0.00     0.251 C 
ATOM     23  H   UNL A   1      33.969  32.335  28.167  1.00  0.00     0.163 HD
ATOM     24  O   UNL A   1      36.229  32.580  29.048  1.00  0.00    -0.269 OA
BRANCH  22  25
ATOM     25  C   UNL A   1      36.534  30.270  28.643  1.00  0.00     0.039 A 
ATOM     26  C   UNL A   1      36.847  29.643  29.853  1.00  0.00     0.014 A 
ATOM     27  C   UNL A   1      37.216  29.948  27.472  1.00  0.00     0.014 A 
ATOM     28  C   UNL A   1      38.026  28.914  29.951  1.00  0.00     0.010 A 
ATOM     29  C   UNL A   1      38.425  29.300  27.582  1.00  0.00     0.010 A 
ATOM     30  C   UNL A   1      38.861  28.864  28.838  1.00  0.00    -0.014 A 
BRANCH  30  31
ATOM     31  C   UNL A   1      40.249  28.443  28.886  1.00  0.00     0.031 A 
ATOM     32  C   UNL A   1      40.585  27.017  28.794  1.00  0.00     0.074 A 
ATOM     33  C   UNL A   1      41.207  29.395  28.849  1.00  0.00     0.049 A 
ATOM     34  N   UNL A   1      41.730  26.518  29.110  1.00  0.00    -0.248 NA
ATOM     35  C   UNL A   1      39.602  26.019  28.388  1.00  0.00     0.031 C 
ATOM     36  C   UNL A   1      42.615  29.229  28.515  1.00  0.00     0.029 A 
ATOM     37  N   UNL A   1      41.121  30.705  29.337  1.00  0.00    -0.354 N 
ATOM     38  C   UNL A   1      41.744  25.228  28.628  1.00  0.00     0.074 A 
ATOM     39  C   UNL A   1      40.362  24.922  28.363  1.00  0.00     0.031 C 
ATOM     40  C   UNL A   1      43.305  30.251  29.050  1.00  0.00     0.029 A 
ATOM     41  C   UNL A   1      42.379  30.979  29.902  1.00  0.00     0.049 A 
ATOM     42  H   UNL A   1      40.344  31.307  29.292  1.00  0.00     0.167 HD
ATOM     43  C   UNL A   1      42.948  24.664  28.325  1.00  0.00     0.034 A 
ATOM     44  C   UNL A   1      42.563  31.226  31.233  1.00  0.00     0.034 A 
ATOM     45  C   UNL A   1      44.050  25.469  28.886  1.00  0.00     0.049 A 
ATOM     46  C   UNL A   1      43.530  30.255  31.890  1.00  0.00     0.074 A 
ATOM     47  C   UNL A   1      44.971  26.341  28.328  1.00  0.00     0.029 A 
ATOM     48  N   UNL A   1      44.128  25.655  30.266  1.00  0.00    -0.354 N 
ATOM     49  N   UNL A   1      43.982  29.168  31.328  1.00  0.00    -0.248 NA
ATOM     50  C   UNL A   1      44.044  30.425  33.245  1.00  0.00     0.031 C 
ATOM     51  C   UNL A   1      45.515  27.135  29.378  1.00  0.00     0.029 A 
ATOM     52  C   UNL A   1      44.962  26.718  30.578  1.00  0.00     0.049 A 
ATOM     53  H   UNL A   1      43.655  25.104  30.931  1.00  0.00     0.167 HD
ATOM     54  C   UNL A   1      44.710  28.437  32.232  1.00  0.00     0.074 A 
ATOM     55  C   UNL A   1      44.789  29.315  33.390  1.00  0.00     0.031 C 
ATOM     56  C   UNL A   1      45.124  27.156  31.967  1.00  0.00     0.034 A 
BRANCH  43  57
ATOM     57  C   UNL A   1      43.170  23.562  27.283  1.00  0.00     0.023 A 
ATOM     58  C   UNL A   1      43.898  23.914  26.122  1.00  0.00     0.012 A 
ATOM     59  C   UNL A   1      42.629  22.250  27.280  1.00  0.00     0.148 A 
ATOM     60  C   UNL A   1      44.024  23.059  25.016  1.00  0.00     0.002 A 
ATOM     61  C   UNL A   1      42.761  21.390  26.184  1.00  0.00     0.091 A 
ATOM     62  F   UNL A   1      41.954  21.793  28.330  1.00  0.00    -0.205 F 
ATOM     63  C   UNL A   1      43.447  21.799  25.042  1.00  0.00     0.022 A 
BRANCH  61  64
ATOM     64  S   UNL A   1      42.034  19.736  26.153  1.00  0.00     0.127 S 
ATOM     65  O   UNL A   1      42.624  19.165  24.942  1.00  0.00    -0.237 OA
ATOM     66  O   UNL A   1      42.527  19.157  27.403  1.00  0.00    -0.237 OA
ATOM     67  O   UNL A   1      40.588  19.914  26.095  1.00  0.00    -0.744 OA
ENDBRANCH  61  64
ENDBRANCH  43  57
BRANCH  44  68
ATOM     68  C   UNL A   1      41.378  31.849  31.899  1.00  0.00     0.023 A 
ATOM     69  C   UNL A   1      40.960  33.113  31.411  1.00  0.00     0.012 A 
ATOM     70  C   UNL A   1      40.479  31.094  32.672  1.00  0.00     0.148 A 
ATOM     71  C   UNL A   1      39.639  33.539  31.556  1.00  0.00     0.002 A 
ATOM     72  C   UNL A   1      39.164  31.535  32.824  1.00  0.00     0.091 A 
ATOM     73  F   UNL A   1      40.893  29.930  33.187  1.00  0.00    -0.205 F 
ATOM     74  C   UNL A   1      38.731  32.731  32.228  1.00  0.00     0.022 A 
BRANCH  72  75
ATOM     75  S   UNL A   1      37.940  30.540  33.689  1.00  0.00     0.127 S 
ATOM     76  O   UNL A   1      38.155  30.951  35.073  1.00  0.00    -0.237 OA
ATOM     77  O   UNL A   1      36.683  30.999  33.101  1.00  0.00    -0.237 OA
ATOM     78  O   UNL A   1      38.286  29.165  33.356  1.00  0.00    -0.744 OA
ENDBRANCH  72  75
ENDBRANCH  44  68
BRANCH  56  79
ATOM     79  C   UNL A   1      45.714  26.188  32.989  1.00  0.00     0.023 A 
ATOM     80  C   UNL A   1      47.080  26.189  33.336  1.00  0.00     0.012 A 
ATOM     81  C   UNL A   1      44.881  25.317  33.742  1.00  0.00     0.148 A 
ATOM     82  C   UNL A   1      47.608  25.331  34.308  1.00  0.00     0.002 A 
ATOM     83  C   UNL A   1      45.392  24.551  34.790  1.00  0.00     0.091 A 
ATOM     84  F   UNL A   1      43.580  25.204  33.438  1.00  0.00    -0.205 F 
ATOM     85  C   UNL A   1      46.762  24.526  35.052  1.00  0.00     0.022 A 
BRANCH  83  86
ATOM     86  S   UNL A   1      44.299  23.695  35.937  1.00  0.00     0.127 S 
ATOM     87  O   UNL A   1      45.168  22.643  36.458  1.00  0.00    -0.237 OA
ATOM     88  O   UNL A   1      43.970  24.746  36.903  1.00  0.00    -0.237 OA
ATOM     89  O   UNL A   1      43.169  23.260  35.128  1.00  0.00    -0.744 OA
ENDBRANCH  83  86
ENDBRANCH  56  79
ENDBRANCH  30  31
ENDBRANCH  22  25
ENDBRANCH   1  21
TORSDOF 14
ENDMDL
